data_PCOD9061347
_publ_section_title
;
Structure prediction by ZEFSAII (Michael W. Deem and Ramdas Pophale) SiO2 
 PCOD9061347
Probable space group: P -1
;
_chemical_formula_sum "Si O2"
_cell_formula_units_Z 16
_cell_length_a 20.052061
_cell_length_b 9.503830
_cell_length_c 7.571453
_cell_angle_alpha 96.877714
_cell_angle_beta 125.690105
_cell_angle_gamma 125.630655
_cell_volume 683.715344
_symmetry_space_group_name_H-M "P -1"
_symmetry_group_IT_number 2
_symmetry_cell_setting 'triclinic'
loop_
_space_group_symop_operation_xyz
x,y,z
-x,-y,-z
loop_
_atom_site_type_symbol
_atom_site_label
_atom_site_fract_x
_atom_site_fract_y
_atom_site_fract_z
Si Si1 0.597383 0.752994 0.282322
Si Si2 0.372484 0.711117 0.463359
Si Si3 0.910982 0.592871 0.830551
Si Si4 0.883875 0.756963 0.529783
Si Si5 0.410860 0.752917 0.109696
Si Si6 0.635765 0.621405 0.634835
Si Si7 0.885210 0.015653 0.340378
Si Si8 0.146397 0.777543 0.465716
O O1 0.507423 0.750064 0.234510
O O2 0.678553 0.784000 0.566897
O O3 0.704296 0.973963 0.347302
O O4 0.500000 0.500000 0.000000
O O5 0.226327 0.562881 0.290991
O O6 0.372656 0.720542 0.251589
O O7 0.394159 0.576060 0.517267
O O8 0.499472 0.985555 0.768388
O O9 0.952428 0.791398 0.817407
O O10 0.876360 0.421120 0.608632
O O11 0.027229 0.684706 0.147173
O O12 0.970919 0.815153 0.509311
O O13 0.879006 0.916238 0.497722
O O14 0.728267 0.477087 0.246298
O O15 0.500000 0.500000 0.500000
O O16 0.759613 0.782433 0.991360
O O17 0.864625 0.153284 0.358704
#
# Coordination Sequence:
#
# PCOD9061347 Si02
#       8
#     2   2   2   2   2   2   2   2
#     4  12  25  44  68 103 140 175 226 282 342 401
#     4  11  24  44  68  99 136 181 225 278 334 412
#     4  11  26  45  70 100 135 181 230 279 342 399
#     4  11  24  44  67 103 131 176 232 277 338 402
#     4  11  23  45  68  98 139 183 219 279 342 403
#     4  12  24  44  69 102 134 180 227 276 345 399
#     4  11  25  46  69  98 138 176 230 281 339 407
#     4  11  25  47  67  98 140 176 226 285 337 405
#
# _framework density 23.401551999999999
#
# number of rings (size 3 to 8) (size 9 to 14) (size 15 to 20)
#    0.000    0.750    3.750    3.000    5.250    3.500 
#    0.000    0.000    0.000    0.000    0.000    0.000 
#    0.000    0.000    0.000    0.000    0.000    0.000 
#
# Total GULP energy -89609.488243 kJ/mol
# GULP energy per Si atom -5600.593015 kJ/mol
# Density = 2.334829 g / cm^3
# Si number density = 23.401552 Si / 1000 Ang^3
#
#
#
# Elastic Constant Matrix: (Units=GPa)
#
#
# Indices 1 2 3 4 5 6 
#
# 1 120.1238 33.9487 22.5232 14.2023 1.0060 -26.4294
# 2 33.9487 77.3831 26.6764 1.3283 -2.1173 -31.5133
# 3 22.5232 26.6764 52.4213 9.7816 13.6992 -12.4344
# 4 14.2023 1.3283 9.7816 33.2209 -8.2577 -7.8434
# 5 1.0060 -2.1173 13.6992 -8.2577 33.4817 5.7447
# 6 -26.4294 -31.5133 -12.4344 -7.8434 5.7447 38.6863
#
#
#
# Elastic Compliance Matrix: (Units=1/GPa)
#
#
# Indices 1 2 3 4 5 6 
#
# 1 0.010634 -0.002416 -0.001236 -0.003429 -0.001574 0.004438
# 2 -0.002416 0.023722 -0.010243 0.007969 0.005115 0.015237
# 3 -0.001236 -0.010243 0.031764 -0.012359 -0.016829 0.001015
# 4 -0.003429 0.007969 -0.012359 0.039928 0.014460 0.006125
# 5 -0.001574 0.005115 -0.016829 0.014460 0.041646 -0.005570
# 6 0.004438 0.015237 0.001015 0.006125 -0.005570 0.043688
#
#
# Mechanical properties :
#
#
# Convention : Reuss Voigt Hill
#
# Bulk Modulus (GPa) = 26.08856 46.24720 36.16788
# Shear Modulus (GPa) = 21.55639 32.19644 26.87641
#
# Velocity S-wave (km/s) = 3.03834 3.71324 3.39261
# Velocity P-wave (km/s) = 4.84573 6.17977 5.55296
#
# Compressibility (1/GPa) = 0.03833098
#
# Stress axis : x y z
#
# Youngs Moduli (GPa) = 94.03436 42.15489 31.48171
#
# Poissons Ratio (x) = 0.10186 0.03890
# Poissons Ratio (y) = 0.22721 0.32247
# Poissons Ratio (z) = 0.11618 0.43180
#
# Static dielectric constant tensor:
#      x y z
#    x 1.988200 0.095280 0.005580 
#    y 0.095280 1.937800 -0.002760 
#    z 0.005580 -0.002760 1.867030 
# 
# From -- ./inp_files/343697.got.cif
#   From: 2010.05.17/outbox.cif.g08.bks.cpg/sg2_172_cif.got.tgz:343697.got - 2010.06.03 11:33:40.
