data_PCOD9061153
_publ_section_title
;
Structure prediction by ZEFSAII (Michael W. Deem and Ramdas Pophale) SiO2 
 PCOD9061153
Probable space group: P -1
;
_chemical_formula_sum "Si O2"
_cell_formula_units_Z 14
_cell_length_a 16.215739
_cell_length_b 13.047310
_cell_length_c 9.553846
_cell_angle_alpha 130.603031
_cell_angle_beta 135.395785
_cell_angle_gamma 26.342970
_cell_volume 629.313015
_symmetry_space_group_name_H-M "P -1"
_symmetry_group_IT_number 2
_symmetry_cell_setting 'triclinic'
loop_
_space_group_symop_operation_xyz
x,y,z
-x,-y,-z
loop_
_atom_site_type_symbol
_atom_site_label
_atom_site_fract_x
_atom_site_fract_y
_atom_site_fract_z
Si Si1 0.591410 0.455732 0.867478
Si Si2 0.154860 0.748504 0.527332
Si Si3 0.795215 0.001497 0.833179
Si Si4 0.997146 0.299829 0.459022
Si Si5 0.844689 0.364748 0.866513
Si Si6 0.659827 0.816137 0.147552
Si Si7 0.423081 0.241824 0.726817
O O1 0.367798 0.613772 0.705459
O O2 0.711104 0.225937 0.887116
O O3 0.704053 0.389160 0.800424
O O4 0.584580 0.597857 0.077489
O O5 0.185638 0.616221 0.318447
O O6 0.059348 0.765251 0.560158
O O7 0.000000 0.000000 0.500000
O O8 0.607520 0.076434 0.696389
O O9 0.937769 0.818101 0.717652
O O10 0.929117 0.877959 0.025096
O O11 0.182236 0.212498 0.662856
O O12 0.795747 0.576467 0.442459
O O13 0.781663 0.569632 0.028730
O O14 0.551791 0.879165 0.218762
O O15 0.500000 0.000000 0.000000
#
# Coordination Sequence:
#
# PCOD9061153 Si02
#       7
#     2   2   2   2   2   2   2
#     4  11  23  44  73 108 146 183 239 291 365 431
#     4  12  27  43  72 110 152 183 233 301 362 429
#     4  12  24  44  76 106 140 188 238 292 361 426
#     4  12  27  48  71 105 144 189 244 290 353 420
#     4  11  26  45  72 105 143 193 237 294 361 419
#     4  11  28  49  73 101 149 186 244 302 349 422
#     4  11  25  47  73 106 142 190 239 295 355 427
#
# _framework density 22.246482
#
# number of rings (size 3 to 8) (size 9 to 14) (size 15 to 20)
#    0.000    0.571    4.286    3.429   10.000    1.143 
#    0.000    0.000    0.000    0.000    0.000    0.000 
#    0.000    0.000    0.000    0.000    0.000    0.000 
#
# Total GULP energy -78474.129522 kJ/mol
# GULP energy per Si atom -5605.294966 kJ/mol
# Density = 2.219585 g / cm^3
# Si number density = 22.246482 Si / 1000 Ang^3
#
#
#
# Elastic Constant Matrix: (Units=GPa)
#
#
# Indices 1 2 3 4 5 6 
#
# 1 111.9573 31.2657 18.7070 -29.2590 -3.3676 -15.2776
# 2 31.2657 87.5032 23.3495 -29.8477 2.6450 7.7309
# 3 18.7070 23.3495 105.3099 -27.5122 10.2549 -4.2308
# 4 -29.2590 -29.8477 -27.5122 36.4431 -5.8897 -10.6777
# 5 -3.3676 2.6450 10.2549 -5.8897 37.9671 -2.7787
# 6 -15.2776 7.7309 -4.2308 -10.6777 -2.7787 39.4701
#
#
#
# Elastic Compliance Matrix: (Units=1/GPa)
#
#
# Indices 1 2 3 4 5 6 
#
# 1 0.014794 -0.001419 0.001893 0.015991 0.004173 0.010827
# 2 -0.001419 0.016040 -0.000330 0.011698 0.000622 -0.000518
# 3 0.001893 -0.000330 0.012763 0.012323 -0.000947 0.005432
# 4 0.015991 0.011698 0.012323 0.067811 0.009568 0.024238
# 5 0.004173 0.000622 -0.000947 0.009568 0.028845 0.006011
# 6 0.010827 -0.000518 0.005432 0.024238 0.006011 0.037190
#
#
# Mechanical properties :
#
#
# Convention : Reuss Voigt Hill
#
# Bulk Modulus (GPa) = 22.78692 50.15722 36.47207
# Shear Modulus (GPa) = 26.07105 38.20594 32.13849
#
# Velocity S-wave (km/s) = 3.42704 4.14864 3.80499
# Velocity P-wave (km/s) = 5.09163 6.74858 5.97779
#
# Compressibility (1/GPa) = 0.04388483
#
# Stress axis : x y z
#
# Youngs Moduli (GPa) = 67.59458 62.34267 78.35427
#
# Poissons Ratio (x) = 0.08848 -0.14832
# Poissons Ratio (y) = 0.09594 0.02584
# Poissons Ratio (z) = -0.12796 0.02056
#
# Static dielectric constant tensor:
#      x y z
#    x 1.800610 -0.022460 -0.010870 
#    y -0.022460 1.816940 0.038520 
#    z -0.010870 0.038520 1.822750 
# 
# From -- ./inp_files/222807.got.cif
#   From: 2010.05.17/outbox.cif.g08.bks.cpg/sg2_112_cif.got.tgz:222807.got - 2010.06.03 11:33:40.
