data_PCOD9061505
_publ_section_title
;
Structure prediction by ZEFSAII (Michael W. Deem and Ramdas Pophale) SiO2 
 PCOD9061505
Probable space group: P -1
;
_chemical_formula_sum "Si O2"
_cell_formula_units_Z 16
_cell_length_a 9.136361
_cell_length_b 13.518406
_cell_length_c 8.121863
_cell_angle_alpha 115.151426
_cell_angle_beta 111.361828
_cell_angle_gamma 56.646264
_cell_volume 747.060789
_symmetry_space_group_name_H-M "P -1"
_symmetry_group_IT_number 2
_symmetry_cell_setting 'triclinic'
loop_
_space_group_symop_operation_xyz
x,y,z
-x,-y,-z
loop_
_atom_site_type_symbol
_atom_site_label
_atom_site_fract_x
_atom_site_fract_y
_atom_site_fract_z
Si Si1 0.338516 0.566877 0.106878
Si Si2 0.343622 0.123336 0.453837
Si Si3 0.037770 0.351776 0.158186
Si Si4 0.137931 0.938344 0.665386
Si Si5 0.703870 0.916811 0.969267
Si Si6 0.968517 0.255257 0.410244
Si Si7 0.732746 0.511820 0.647312
Si Si8 0.539219 0.273076 0.540504
O O1 0.354711 0.479614 0.205818
O O2 0.352907 0.686573 0.261158
O O3 0.500000 0.500000 0.000000
O O4 0.146026 0.604490 0.980196
O O5 0.411505 0.224389 0.532756
O O6 0.161984 0.187715 0.527652
O O7 0.500000 0.000000 0.500000
O O8 0.298888 0.082661 0.230208
O O9 0.999283 0.313382 0.296222
O O10 0.106729 0.452945 0.263026
O O11 0.201180 0.230094 0.060126
O O12 0.082705 0.854674 0.699272
O O13 0.324348 0.840363 0.592826
O O14 0.174920 0.032266 0.856857
O O15 0.000000 0.000000 0.500000
O O16 0.500000 0.000000 0.000000
O O17 0.818446 0.369141 0.527536
O O18 0.585700 0.605608 0.529538
#
# Coordination Sequence:
#
# PCOD9061505 Si02
#       8
#     2   2   2   2   2   2   2   2
#     4  12  28  43  69 108 139 181 238 299 358 432
#     4  11  25  45  70 107 143 189 241 291 355 424
#     4  11  25  46  68 106 142 182 238 295 354 429
#     4  12  25  44  75 103 143 192 240 295 356 422
#     4  11  23  45  72 101 142 188 246 291 352 419
#     4  11  25  43  75 102 139 191 233 291 359 427
#     4  12  24  48  73  98 143 188 232 286 373 426
#     4  12  24  48  68 103 143 187 232 298 358 429
#
# _framework density 21.417268
#
# number of rings (size 3 to 8) (size 9 to 14) (size 15 to 20)
#    0.000    0.500    5.000    3.375    3.500    3.000 
#    2.250    0.000    0.000    0.000    0.000    0.000 
#    0.000    0.000    0.000    0.000    0.000    0.000 
#
# Total GULP energy -89443.748488 kJ/mol
# GULP energy per Si atom -5590.234281 kJ/mol
# Density = 2.136852 g / cm^3
# Si number density = 21.417268 Si / 1000 Ang^3
#
#
#
# Elastic Constant Matrix: (Units=GPa)
#
#
# Indices 1 2 3 4 5 6 
#
# 1 83.3327 11.4593 9.5973 -7.2251 7.8176 1.0413
# 2 11.4593 97.6991 20.6743 -7.1612 5.9248 -13.9925
# 3 9.5973 20.6743 82.1035 -3.7551 27.7048 9.3558
# 4 -7.2251 -7.1612 -3.7551 26.1908 -4.0626 7.5612
# 5 7.8176 5.9248 27.7048 -4.0626 43.7816 2.7551
# 6 1.0413 -13.9925 9.3558 7.5612 2.7551 53.3349
#
#
#
# Elastic Compliance Matrix: (Units=1/GPa)
#
#
# Indices 1 2 3 4 5 6 
#
# 1 0.012633 -0.001193 -0.000440 0.003112 -0.001474 -0.000847
# 2 -0.001193 0.011640 -0.003341 0.001493 0.000675 0.003416
# 3 -0.000440 -0.003341 0.016814 0.000844 -0.009815 -0.003430
# 4 0.003112 0.001493 0.000844 0.041726 0.002951 -0.005885
# 5 -0.001474 0.000675 -0.009815 0.002951 0.029498 -0.000014
# 6 -0.000847 0.003416 -0.003430 -0.005885 -0.000014 0.021099
#
#
# Mechanical properties :
#
#
# Convention : Reuss Voigt Hill
#
# Bulk Modulus (GPa) = 32.11243 38.51079 35.31161
# Shear Modulus (GPa) = 32.52319 39.42176 35.97248
#
# Velocity S-wave (km/s) = 3.90109 4.29494 4.10274
# Velocity P-wave (km/s) = 5.94286 6.52806 6.24232
#
# Compressibility (1/GPa) = 0.03114059
#
# Stress axis : x y z
#
# Youngs Moduli (GPa) = 79.15501 85.90999 59.47540
#
# Poissons Ratio (x) = 0.10245 0.02619
# Poissons Ratio (y) = 0.09439 0.19868
# Poissons Ratio (z) = 0.03485 0.28698
#
# Static dielectric constant tensor:
#      x y z
#    x 1.805630 -0.009360 -0.005130 
#    y -0.009360 1.792000 -0.009900 
#    z -0.005130 -0.009900 1.790500 
# 
# From -- ./inp_files/188338.got.cif
#   From: 2010.05.17/outbox.cif.g08.bks.cpg/sg2_95_cif.got.tgz:188338.got - 2010.06.03 11:33:40.
