data_PCOD9061386
_publ_section_title
;
Structure prediction by ZEFSAII (Michael W. Deem and Ramdas Pophale) SiO2 
 PCOD9061386
Probable space group: P -1
;
_chemical_formula_sum "Si O2"
_cell_formula_units_Z 16
_cell_length_a 15.413027
_cell_length_b 7.388406
_cell_length_c 10.926016
_cell_angle_alpha 127.785811
_cell_angle_beta 53.657852
_cell_angle_gamma 87.055203
_cell_volume 601.178646
_symmetry_space_group_name_H-M "P -1"
_symmetry_group_IT_number 2
_symmetry_cell_setting 'triclinic'
loop_
_space_group_symop_operation_xyz
x,y,z
-x,-y,-z
loop_
_atom_site_type_symbol
_atom_site_label
_atom_site_fract_x
_atom_site_fract_y
_atom_site_fract_z
Si Si1 0.593682 0.143952 0.081400
Si Si2 0.873737 0.364770 0.104972
Si Si3 0.195558 0.060371 0.954280
Si Si4 0.704517 0.298733 0.867096
Si Si5 0.157748 0.885899 0.559339
Si Si6 0.000656 0.309199 0.527054
Si Si7 0.297738 0.371382 0.418728
Si Si8 0.662352 0.795272 0.245392
O O1 0.582660 0.361514 0.081029
O O2 0.659375 0.858955 0.820559
O O3 0.444332 0.262833 0.307531
O O4 0.701830 0.054440 0.061182
O O5 0.808390 0.573593 0.366520
O O6 0.760989 0.560414 0.172892
O O7 0.871774 0.096855 0.036859
O O8 0.027808 0.210418 0.857929
O O9 0.296023 0.001776 0.735780
O O10 0.078264 0.425819 0.197219
O O11 0.719097 0.205917 0.675069
O O12 0.849860 0.996600 0.680261
O O13 0.688347 0.592083 0.022649
O O14 0.222577 0.675349 0.534370
O O15 0.080884 0.797035 0.502744
O O16 0.000000 0.500000 0.500000
O O17 0.500000 0.000000 0.500000
#
# Coordination Sequence:
#
# PCOD9061386 Si02
#       8
#     2   2   2   2   2   2   2   2
#     4  11  23  45  69  95 132 185 233 265 334 412
#     4  12  26  46  68 104 142 170 227 289 337 398
#     4  12  23  42  76 101 130 181 227 282 339 393
#     4  12  23  41  71 103 134 171 234 289 323 402
#     4  12  22  42  66  94 136 178 221 274 338 398
#     4  12  18  37  70  98 124 166 226 274 328 386
#     4  11  26  44  66  93 139 189 218 272 341 410
#     4  12  25  40  67 108 138 170 222 289 344 392
#
# _framework density 26.614386
#
# number of rings (size 3 to 8) (size 9 to 14) (size 15 to 20)
#    0.000    0.250    7.500    2.250    1.750    2.500 
#    2.250    0.625    0.000    0.000    0.000    0.000 
#    0.000    0.000    0.000    0.000    0.000    0.000 
#
# Total GULP energy -89605.126923 kJ/mol
# GULP energy per Si atom -5600.320433 kJ/mol
# Density = 2.655381 g / cm^3
# Si number density = 26.614386 Si / 1000 Ang^3
#
#
#
# Elastic Constant Matrix: (Units=GPa)
#
#
# Indices 1 2 3 4 5 6 
#
# 1 66.7565 -0.3403 21.5655 11.2501 -1.0603 2.5555
# 2 -0.3403 100.7162 34.8710 -11.4995 15.5189 9.2028
# 3 21.5655 34.8710 126.7153 -21.0097 -0.9886 -13.4024
# 4 11.2501 -11.4995 -21.0097 45.7632 2.4119 2.2610
# 5 -1.0603 15.5189 -0.9886 2.4119 25.9485 5.1243
# 6 2.5555 9.2028 -13.4024 2.2610 5.1243 36.7715
#
#
#
# Elastic Compliance Matrix: (Units=1/GPa)
#
#
# Indices 1 2 3 4 5 6 
#
# 1 0.017629 0.001065 -0.004606 -0.006091 0.001055 -0.002943
# 2 0.001065 0.012961 -0.003918 0.001769 -0.007263 -0.003842
# 3 -0.004606 -0.003918 0.011098 0.004941 0.001155 0.004881
# 4 -0.006091 0.001769 0.004941 0.026223 -0.003691 0.000684
# 5 0.001055 -0.007263 0.001155 -0.003691 0.044052 -0.003747
# 6 -0.002943 -0.003842 0.004881 0.000684 -0.003747 0.030620
#
#
# Mechanical properties :
#
#
# Convention : Reuss Voigt Hill
#
# Bulk Modulus (GPa) = 37.35413 45.15338 41.25376
# Shear Modulus (GPa) = 30.04355 37.56944 33.80649
#
# Velocity S-wave (km/s) = 3.36348 3.76123 3.56790
# Velocity P-wave (km/s) = 5.39905 5.98875 5.70153
#
# Compressibility (1/GPa) = 0.02677080
#
# Stress axis : x y z
#
# Youngs Moduli (GPa) = 56.72378 77.15349 90.10327
#
# Poissons Ratio (x) = -0.08220 0.41506
# Poissons Ratio (y) = -0.06043 0.35302
# Poissons Ratio (z) = 0.26130 0.30228
#
# Static dielectric constant tensor:
#      x y z
#    x 2.144970 0.098850 0.072600 
#    y 0.098850 2.089520 -0.041140 
#    z 0.072600 -0.041140 2.209690 
# 
# From -- ./inp_files/462451.got.cif
#   From: 2010.05.17/outbox.cif.g08.bks.cpg/sg2_232_cif.got.tgz:462451.got - 2010.06.03 11:33:40.
