data_PCOD9061763
_publ_section_title
;
Structure prediction by ZEFSAII (Michael W. Deem and Ramdas Pophale) SiO2 
 PCOD9061763
Probable space group: P -1
;
_chemical_formula_sum "Si O2"
_cell_formula_units_Z 16
_cell_length_a 17.885530
_cell_length_b 12.330377
_cell_length_c 9.145456
_cell_angle_alpha 130.580133
_cell_angle_beta 80.634171
_cell_angle_gamma 137.973975
_cell_volume 796.144350
_symmetry_space_group_name_H-M "P -1"
_symmetry_group_IT_number 2
_symmetry_cell_setting 'triclinic'
loop_
_space_group_symop_operation_xyz
x,y,z
-x,-y,-z
loop_
_atom_site_type_symbol
_atom_site_label
_atom_site_fract_x
_atom_site_fract_y
_atom_site_fract_z
Si Si1 0.846324 0.262299 0.417195
Si Si2 0.318230 0.207903 0.146844
Si Si3 0.322463 0.731644 0.477767
Si Si4 0.909092 0.739433 0.390820
Si Si5 0.647460 0.203503 0.821202
Si Si6 0.630444 0.845135 0.608055
Si Si7 0.854197 0.784516 0.765385
Si Si8 0.907141 0.249622 0.703691
O O1 0.774457 0.300291 0.450652
O O2 0.868566 0.272541 0.590007
O O3 0.000000 0.500000 0.500000
O O4 0.742913 0.976813 0.132187
O O5 0.473075 0.528211 0.349534
O O6 0.337817 0.132767 0.211956
O O7 0.202027 0.143891 0.168127
O O8 0.309205 0.717907 0.294350
O O9 0.266836 0.493833 0.349706
O O10 0.488746 0.015913 0.715417
O O11 0.877682 0.750335 0.570677
O O12 0.001158 0.741202 0.362583
O O13 0.761692 0.467856 0.115804
O O14 0.000000 0.000000 0.500000
O O15 0.638446 0.024205 0.718425
O O16 0.758463 0.974125 0.590863
O O17 0.000000 0.000000 0.000000
O O18 0.000000 0.500000 0.000000
#
# Coordination Sequence:
#
# PCOD9061763 Si02
#       8
#     2   2   2   2   2   2   2   2
#     4  12  25  42  67 104 132 175 226 274 333 400
#     4  11  26  44  70  97 137 180 223 279 335 398
#     4  11  24  44  71  99 132 180 220 276 344 392
#     4  12  26  43  69 104 132 179 225 274 335 401
#     4  11  24  46  71  97 138 174 224 281 335 403
#     4  11  23  46  69  96 136 179 224 276 336 395
#     4  12  25  45  67 100 140 174 223 280 335 399
#     4  12  23  43  71  96 136 179 222 275 335 397
#
# _framework density 20.096858000000001
#
# number of rings (size 3 to 8) (size 9 to 14) (size 15 to 20)
#    0.000    0.500    3.750    4.500    1.750    4.000 
#    0.000    0.000    0.000    0.000    0.000    0.000 
#    0.000    0.000    0.000    0.000    0.000    0.000 
#
# Total GULP energy -89546.913093 kJ/mol
# GULP energy per Si atom -5596.682068 kJ/mol
# Density = 2.005112 g / cm^3
# Si number density = 20.096858 Si / 1000 Ang^3
#
#
#
# Elastic Constant Matrix: (Units=GPa)
#
#
# Indices 1 2 3 4 5 6 
#
# 1 76.0967 5.0267 16.2025 -17.1894 7.9996 0.4180
# 2 5.0267 101.0037 36.8555 0.2258 15.7779 -10.7394
# 3 16.2025 36.8555 127.8793 -12.7065 27.7293 -6.0368
# 4 -17.1894 0.2258 -12.7065 20.3352 0.9109 2.0941
# 5 7.9996 15.7779 27.7293 0.9109 29.9808 8.8246
# 6 0.4180 -10.7394 -6.0368 2.0941 8.8246 44.0066
#
#
#
# Elastic Compliance Matrix: (Units=1/GPa)
#
#
# Indices 1 2 3 4 5 6 
#
# 1 0.016982 -0.000209 0.000602 0.014953 -0.005509 0.000263
# 2 -0.000209 0.011960 -0.002323 -0.001915 -0.005126 0.003721
# 3 0.000602 -0.002323 0.011692 0.008035 -0.010826 0.002820
# 4 0.014953 -0.001915 0.008035 0.067436 -0.012394 -0.000231
# 5 -0.005509 -0.005126 -0.010826 -0.012394 0.051572 -0.012436
# 6 0.000263 0.003721 0.002820 -0.000231 -0.012436 0.026521
#
#
# Mechanical properties :
#
#
# Convention : Reuss Voigt Hill
#
# Bulk Modulus (GPa) = 27.19496 46.79433 36.99464
# Shear Modulus (GPa) = 24.71776 35.32419 30.02098
#
# Velocity S-wave (km/s) = 3.51084 4.19704 3.86918
# Velocity P-wave (km/s) = 5.47686 6.84265 6.19749
#
# Compressibility (1/GPa) = 0.03677153
#
# Stress axis : x y z
#
# Youngs Moduli (GPa) = 58.88456 83.61550 85.52665
#
# Poissons Ratio (x) = 0.01752 -0.05145
# Poissons Ratio (y) = 0.01234 0.19871
# Poissons Ratio (z) = -0.03542 0.19427
#
# Static dielectric constant tensor:
#      x y z
#    x 1.733930 -0.000920 0.004670 
#    y -0.000920 1.701840 0.012550 
#    z 0.004670 0.012550 1.674830 
# 
# From -- ./inp_files/217014.got.cif
#   From: 2010.05.17/outbox.cif.g08.bks.cpg/sg2_109_cif.got.tgz:217014.got - 2010.06.03 11:33:40.
