data_PCOD9061132
_publ_section_title
;
Structure prediction by ZEFSAII (Michael W. Deem and Ramdas Pophale) SiO2 
 PCOD9061132
Probable space group: P -1
;
_chemical_formula_sum "Si O2"
_cell_formula_units_Z 13
_cell_length_a 8.631604
_cell_length_b 6.243220
_cell_length_c 12.286613
_cell_angle_alpha 108.471284
_cell_angle_beta 59.716798
_cell_angle_gamma 81.916733
_cell_volume 504.521567
_symmetry_space_group_name_H-M "P -1"
_symmetry_group_IT_number 2
_symmetry_cell_setting 'triclinic'
loop_
_space_group_symop_operation_xyz
x,y,z
-x,-y,-z
loop_
_atom_site_type_symbol
_atom_site_label
_atom_site_fract_x
_atom_site_fract_y
_atom_site_fract_z
Si Si1 0.125341 0.724575 0.574555
Si Si2 0.592224 0.019397 0.166119
Si Si3 0.000000 0.500000 0.000000
Si Si4 0.227106 0.367856 0.277038
Si Si5 0.720736 0.487703 0.940880
Si Si6 0.737703 0.403860 0.254954
Si Si7 0.590815 0.103059 0.580082
O O1 0.179261 0.525086 0.428150
O O2 0.237836 0.606298 0.625590
O O3 0.194620 0.930102 0.534989
O O4 0.904539 0.793865 0.697372
O O5 0.448603 0.193629 0.159184
O O6 0.732750 0.144047 0.181866
O O7 0.451089 0.000809 0.309557
O O8 0.702950 0.751779 0.040741
O O9 0.126481 0.658899 0.045367
O O10 0.889764 0.485375 0.149584
O O11 0.187215 0.540015 0.214962
O O12 0.500000 0.500000 0.000000
O O13 0.532812 0.608725 0.328332
O O14 0.500000 0.000000 0.500000
#
# Coordination Sequence:
#
# PCOD9061132 Si02
#       7
#     2   2   1   2   2   2   2
#     4  11  23  44  73 102 149 186 237 304 358 441
#     4  12  25  46  77 102 147 197 237 309 374 431
#     4  12  26  48  80 108 144 198 246 310 364 440
#     4  11  24  44  70 105 144 192 237 300 370 427
#     4  12  26  51  74 109 150 191 252 305 368 442
#     4  12  24  49  72 108 146 183 255 304 361 444
#     4  12  23  42  72 107 141 188 237 297 369 432
#
# _framework density 25.766984999999998
#
# number of rings (size 3 to 8) (size 9 to 14) (size 15 to 20)
#    0.000    0.308    6.154    3.692    0.000    1.231 
#    8.308    0.000    0.000    0.000    0.000    0.000 
#    0.000    0.000    0.000    0.000    0.000    0.000 
#
# Total GULP energy -72504.794121 kJ/mol
# GULP energy per Si atom -5577.291855 kJ/mol
# Density = 2.570834 g / cm^3
# Si number density = 25.766985 Si / 1000 Ang^3
#
#
#
# Elastic Constant Matrix: (Units=GPa)
#
#
# Indices 1 2 3 4 5 6 
#
# 1 70.6022 15.8061 25.8073 -26.4506 -2.9415 30.9399
# 2 15.8061 61.8113 39.5842 -13.1686 6.0192 22.0469
# 3 25.8073 39.5842 109.2374 -36.0224 6.1920 10.2906
# 4 -26.4506 -13.1686 -36.0224 49.9616 3.9612 -3.9397
# 5 -2.9415 6.0192 6.1920 3.9612 41.6602 -12.0564
# 6 30.9399 22.0469 10.2906 -3.9397 -12.0564 50.3937
#
#
#
# Elastic Compliance Matrix: (Units=1/GPa)
#
#
# Indices 1 2 3 4 5 6 
#
# 1 0.026095 0.003598 -0.001333 0.012802 -0.004749 -0.017458
# 2 0.003598 0.026297 -0.007881 0.002609 -0.006517 -0.013459
# 3 -0.001333 -0.007881 0.015001 0.008272 -0.001543 0.001481
# 4 0.012802 0.002609 0.008272 0.033209 -0.006664 -0.009689
# 5 -0.004749 -0.006517 -0.001543 -0.006664 0.029097 0.012522
# 6 -0.017458 -0.013459 0.001481 -0.009689 0.012522 0.038387
#
#
# Mechanical properties :
#
#
# Convention : Reuss Voigt Hill
#
# Bulk Modulus (GPa) = 17.80661 44.89400 31.35030
# Shear Modulus (GPa) = 25.24762 39.09998 32.17380
#
# Velocity S-wave (km/s) = 3.13364 3.89967 3.53745
# Velocity P-wave (km/s) = 4.47421 6.14308 5.37383
#
# Compressibility (1/GPa) = 0.05615893
#
# Stress axis : x y z
#
# Youngs Moduli (GPa) = 38.32172 38.02768 66.66239
#
# Poissons Ratio (x) = -0.13682 0.08887
# Poissons Ratio (y) = -0.13787 0.52540
# Poissons Ratio (z) = 0.05109 0.29971
#
# Static dielectric constant tensor:
#      x y z
#    x 2.059350 0.435200 -0.195110 
#    y 0.435200 1.695950 0.121370 
#    z -0.195110 0.121370 1.948510 
# 
# From -- ./inp_files/23281.got.cif
#   From: 2010.05.17/outbox.cif.g08.bks.cpg/sg2_12_cif.got.tgz:23281.got - 2010.06.03 11:33:40.
