data_PCOD9061393
_publ_section_title
;
Structure prediction by ZEFSAII (Michael W. Deem and Ramdas Pophale) SiO2 
 PCOD9061393
Probable space group: P -1
;
_chemical_formula_sum "Si O2"
_cell_formula_units_Z 16
_cell_length_a 7.703701
_cell_length_b 12.637085
_cell_length_c 19.732913
_cell_angle_alpha 43.309970
_cell_angle_beta 147.779951
_cell_angle_gamma 123.905228
_cell_volume 693.754666
_symmetry_space_group_name_H-M "P -1"
_symmetry_group_IT_number 2
_symmetry_cell_setting 'triclinic'
loop_
_space_group_symop_operation_xyz
x,y,z
-x,-y,-z
loop_
_atom_site_type_symbol
_atom_site_label
_atom_site_fract_x
_atom_site_fract_y
_atom_site_fract_z
Si Si1 0.169798 0.963494 0.644282
Si Si2 0.760779 0.419954 0.678944
Si Si3 0.698866 0.634124 0.320930
Si Si4 0.850969 0.399312 0.181429
Si Si5 0.151506 0.082995 0.170939
Si Si6 0.089514 0.041537 0.724862
Si Si7 0.177898 0.086445 0.959080
Si Si8 0.139966 0.564186 0.084483
O O1 0.171553 0.780967 0.741713
O O2 0.540308 0.990186 0.738448
O O3 0.005987 0.058817 0.609851
O O4 0.000000 0.000000 0.500000
O O5 0.500000 0.500000 0.500000
O O6 0.562743 0.369087 0.702655
O O7 0.996099 0.539488 0.728249
O O8 0.988245 0.260718 0.805260
O O9 0.835394 0.796872 0.294707
O O10 0.508112 0.601755 0.203606
O O11 0.000000 0.500000 0.500000
O O12 0.091417 0.437292 0.183783
O O13 0.500000 0.500000 0.000000
O O14 0.164244 0.028950 0.278050
O O15 0.848713 0.016023 0.068632
O O16 0.088813 0.268663 0.056725
O O17 0.436943 0.922209 0.893954
O O18 0.000000 0.000000 0.000000
O O19 0.000000 0.500000 0.000000
#
# Coordination Sequence:
#
# PCOD9061393 Si02
#       8
#     2   2   2   2   2   2   2   2
#     4  12  28  46  74 104 147 193 242 301 367 432
#     4  11  26  42  74 106 138 189 242 299 366 426
#     4  11  26  44  67 106 149 184 238 304 365 431
#     4  11  23  45  69  99 139 187 237 290 360 431
#     4  12  25  44  73 107 142 188 248 295 362 437
#     4  12  26  46  75 108 143 192 245 303 363 435
#     4  12  21  45  77 102 140 186 245 297 357 435
#     4  11  24  45  69 104 140 189 244 295 358 440
#
# _framework density 23.062909999999999
#
# number of rings (size 3 to 8) (size 9 to 14) (size 15 to 20)
#    0.000    0.500    5.000    2.625    5.250    3.500 
#    0.000    0.000    0.000    0.000    0.000    0.000 
#    0.000    0.000    0.000    0.000    0.000    0.000 
#
# Total GULP energy -89520.527945 kJ/mol
# GULP energy per Si atom -5595.032997 kJ/mol
# Density = 2.301042 g / cm^3
# Si number density = 23.062910 Si / 1000 Ang^3
#
#
#
# Elastic Constant Matrix: (Units=GPa)
#
#
# Indices 1 2 3 4 5 6 
#
# 1 88.1889 26.1202 6.7357 -3.4028 -23.7123 2.7668
# 2 26.1202 121.6877 48.0432 10.6434 -11.8836 -12.4419
# 3 6.7357 48.0432 99.5303 7.6853 -16.2781 -14.8752
# 4 -3.4028 10.6434 7.6853 41.5009 -9.3554 -10.8544
# 5 -23.7123 -11.8836 -16.2781 -9.3554 33.7866 1.8102
# 6 2.7668 -12.4419 -14.8752 -10.8544 1.8102 38.9660
#
#
#
# Elastic Compliance Matrix: (Units=1/GPa)
#
#
# Indices 1 2 3 4 5 6 
#
# 1 0.015621 -0.003479 0.002139 0.004280 0.011997 -0.000769
# 2 -0.003479 0.011121 -0.005030 -0.002227 -0.001642 0.001334
# 3 0.002139 -0.005030 0.013840 0.001323 0.006574 0.003588
# 4 0.004280 -0.002227 0.001323 0.028993 0.010507 0.007078
# 5 0.011997 -0.001642 0.006574 0.010507 0.043407 0.002044
# 6 -0.000769 0.001334 0.003588 0.007078 0.002044 0.029390
#
#
# Mechanical properties :
#
#
# Convention : Reuss Voigt Hill
#
# Bulk Modulus (GPa) = 35.91694 52.35615 44.13654
# Shear Modulus (GPa) = 30.41492 38.08455 34.24973
#
# Velocity S-wave (km/s) = 3.63544 4.06807 3.85782
# Velocity P-wave (km/s) = 5.76448 6.69450 6.24682
#
# Compressibility (1/GPa) = 0.02784202
#
# Stress axis : x y z
#
# Youngs Moduli (GPa) = 64.01526 89.91811 72.25594
#
# Poissons Ratio (x) = 0.31282 -0.15454
# Poissons Ratio (y) = 0.22270 0.36344
# Poissons Ratio (z) = -0.13691 0.45228
#
# Static dielectric constant tensor:
#      x y z
#    x 1.940120 0.003380 -0.016470 
#    y 0.003380 1.871540 0.092050 
#    z -0.016470 0.092050 1.912920 
# 
# From -- ./inp_files/589512.got.cif
#   From: 2010.05.17/outbox.cif.g08.bks.cpg/sg2_295_cif.got.tgz:589512.got - 2010.06.03 11:33:40.
