data_PCOD9061765
_publ_section_title
;
Structure prediction by ZEFSAII (Michael W. Deem and Ramdas Pophale) SiO2 
 PCOD9061765
Probable space group: P -1
;
_chemical_formula_sum "Si O2"
_cell_formula_units_Z 14
_cell_length_a 8.792964
_cell_length_b 11.668816
_cell_length_c 9.200423
_cell_angle_alpha 62.742791
_cell_angle_beta 107.559754
_cell_angle_gamma 71.519911
_cell_volume 674.911876
_symmetry_space_group_name_H-M "P -1"
_symmetry_group_IT_number 2
_symmetry_cell_setting 'triclinic'
loop_
_space_group_symop_operation_xyz
x,y,z
-x,-y,-z
loop_
_atom_site_type_symbol
_atom_site_label
_atom_site_fract_x
_atom_site_fract_y
_atom_site_fract_z
Si Si1 0.659205 0.511031 0.956121
Si Si2 0.133451 0.927858 0.939953
Si Si3 0.206154 0.364523 0.681979
Si Si4 0.956688 0.805138 0.736258
Si Si5 0.464016 0.585203 0.290278
Si Si6 0.318579 0.209643 0.105555
Si Si7 0.718990 0.914591 0.311380
O O1 0.619590 0.489314 0.792719
O O2 0.631876 0.672061 0.884781
O O3 0.500000 0.500000 0.000000
O O4 0.867686 0.368577 0.137843
O O5 0.037701 0.892516 0.797735
O O6 0.206740 0.028760 0.832612
O O7 0.309396 0.765409 0.137809
O O8 0.000000 0.000000 0.000000
O O9 0.344989 0.426881 0.700257
O O10 0.279141 0.233178 0.657261
O O11 0.000000 0.500000 0.500000
O O12 0.207329 0.288677 0.879070
O O13 0.807698 0.807318 0.803164
O O14 0.853519 0.875397 0.513113
O O15 0.500000 0.500000 0.500000
O O16 0.508871 0.051102 0.213134
#
# Coordination Sequence:
#
# PCOD9061765 Si02
#       7
#     2   2   2   2   2   2   2
#     4  11  23  46  69  97 139 182 227 282 337 404
#     4  11  25  46  71 100 139 182 224 288 340 407
#     4  12  27  45  71 100 139 184 227 282 345 409
#     4  11  26  42  70 105 135 183 230 275 348 408
#     4  11  27  44  69 102 135 181 230 276 343 406
#     4  12  24  46  70 101 140 179 229 288 338 404
#     4  12  26  46  70 102 141 178 230 285 346 404
#
# _framework density 20.743448000000001
#
# number of rings (size 3 to 8) (size 9 to 14) (size 15 to 20)
#    0.000    0.571    2.857    4.286   10.000    1.143 
#    0.000    0.000    0.000    0.000    0.000    0.000 
#    0.000    0.000    0.000    0.000    0.000    0.000 
#
# Total GULP energy -78347.667057 kJ/mol
# GULP energy per Si atom -5596.261933 kJ/mol
# Density = 2.069623 g / cm^3
# Si number density = 20.743448 Si / 1000 Ang^3
#
#
#
# Elastic Constant Matrix: (Units=GPa)
#
#
# Indices 1 2 3 4 5 6 
#
# 1 101.2981 23.6589 31.2105 -16.9879 0.3900 -15.4801
# 2 23.6589 105.5325 43.5647 -22.2690 16.4712 -5.3932
# 3 31.2105 43.5647 171.6625 6.8233 8.1798 -17.8781
# 4 -16.9879 -22.2690 6.8233 24.9863 -8.6408 -0.6565
# 5 0.3900 16.4712 8.1798 -8.6408 36.6323 0.0290
# 6 -15.4801 -5.3932 -17.8781 -0.6565 0.0290 41.6893
#
#
#
# Elastic Compliance Matrix: (Units=1/GPa)
#
#
# Indices 1 2 3 4 5 6 
#
# 1 0.013028 0.000171 -0.002572 0.010821 0.002908 0.003925
# 2 0.000171 0.014254 -0.004012 0.013087 -0.002429 0.000395
# 3 -0.002572 -0.004012 0.007906 -0.008072 -0.001840 0.001791
# 4 0.010821 0.013087 -0.008072 0.065199 0.011180 0.003268
# 5 0.002908 -0.002429 -0.001840 0.011180 0.031407 0.000131
# 6 0.003925 0.000395 0.001791 0.003268 0.000131 0.026315
#
#
# Mechanical properties :
#
#
# Convention : Reuss Voigt Hill
#
# Bulk Modulus (GPa) = 44.71723 63.92905 54.32314
# Shear Modulus (GPa) = 28.02877 39.33218 33.68047
#
# Velocity S-wave (km/s) = 3.67987 4.35918 4.03385
# Velocity P-wave (km/s) = 6.29757 7.49816 6.92393
#
# Compressibility (1/GPa) = 0.02236274
#
# Stress axis : x y z
#
# Youngs Moduli (GPa) = 76.76004 70.15472 126.48358
#
# Poissons Ratio (x) = -0.01201 0.32531
# Poissons Ratio (y) = -0.01315 0.50744
# Poissons Ratio (z) = 0.19742 0.28145
#
# Static dielectric constant tensor:
#      x y z
#    x 1.822960 0.040000 0.015280 
#    y 0.040000 1.785520 0.042950 
#    z 0.015280 0.042950 1.731940 
# 
# From -- ./inp_files/147383.got.cif
#   From: 2010.05.17/outbox.cif.g08.bks.cpg/sg2_74_cif.got.tgz:147383.got - 2010.06.03 11:33:40.
