data_PCOD9061835
_publ_section_title
;
Structure prediction by ZEFSAII (Michael W. Deem and Ramdas Pophale) SiO2 
 PCOD9061835
Probable space group: P -1
;
_chemical_formula_sum "Si O2"
_cell_formula_units_Z 15
_cell_length_a 21.328740
_cell_length_b 8.951772
_cell_length_c 18.608757
_cell_angle_alpha 142.193532
_cell_angle_beta 19.426544
_cell_angle_gamma 142.730893
_cell_volume 701.634169
_symmetry_space_group_name_H-M "P -1"
_symmetry_group_IT_number 2
_symmetry_cell_setting 'triclinic'
loop_
_space_group_symop_operation_xyz
x,y,z
-x,-y,-z
loop_
_atom_site_type_symbol
_atom_site_label
_atom_site_fract_x
_atom_site_fract_y
_atom_site_fract_z
Si Si1 0.092002 0.967139 0.464403
Si Si2 0.456438 0.661658 0.175636
Si Si3 0.836691 0.274677 0.236128
Si Si4 0.816421 0.701876 0.032496
Si Si5 0.000000 0.500000 0.000000
Si Si6 0.995022 0.377044 0.347828
Si Si7 0.847601 0.012337 0.880447
Si Si8 0.429792 0.437965 0.279405
O O1 0.305743 0.151146 0.306990
O O2 0.000000 0.000000 0.500000
O O3 0.083896 0.674943 0.371365
O O4 0.951569 0.049184 0.705369
O O5 0.235565 0.679228 0.414812
O O6 0.473324 0.532620 0.186081
O O7 0.500000 0.500000 0.000000
O O8 0.614469 0.927570 0.100153
O O9 0.844086 0.369321 0.183163
O O10 0.707735 0.400420 0.474729
O O11 0.768477 0.971523 0.196772
O O12 0.060546 0.343224 0.049079
O O13 0.624601 0.495641 0.138257
O O14 0.959393 0.716566 0.815562
O O15 0.069002 0.752829 0.070447
O O16 0.089549 0.227515 0.245604
#
# Coordination Sequence:
#
# PCOD9061835 Si02
#       8
#     2   2   2   2   1   2   2   2
#     4  12  24  44  73 101 145 183 236 300 353 415
#     4  12  24  44  74 104 141 190 237 290 362 422
#     4  11  23  46  71  98 141 184 233 292 350 423
#     4  11  24  43  72 102 136 184 238 285 353 429
#     4  12  24  48  74  98 150 186 228 306 356 414
#     4  12  24  45  71 103 139 187 231 291 359 417
#     4  12  26  48  68 106 143 186 234 294 358 425
#     4  12  23  44  71 105 136 186 235 289 357 421
#
# _framework density 21.378661999999998
#
# number of rings (size 3 to 8) (size 9 to 14) (size 15 to 20)
#    0.000    0.267    8.000    0.800    0.000    0.533 
#    2.400    1.333    0.000    0.000    0.000    0.000 
#    0.000    0.000    0.000    0.000    0.000    0.000 
#
# Total GULP energy -83702.011681 kJ/mol
# GULP energy per Si atom -5580.134112 kJ/mol
# Density = 2.133000 g / cm^3
# Si number density = 21.378662 Si / 1000 Ang^3
#
#
#
# Elastic Constant Matrix: (Units=GPa)
#
#
# Indices 1 2 3 4 5 6 
#
# 1 80.3848 43.8372 35.5027 -3.8435 25.4116 16.6322
# 2 43.8372 120.3472 40.9510 -4.0570 7.0034 25.5726
# 3 35.5027 40.9510 81.3362 -4.5544 5.3943 6.7745
# 4 -3.8435 -4.0570 -4.5544 34.6574 15.3664 6.5756
# 5 25.4116 7.0034 5.3943 15.3664 46.3133 -11.3263
# 6 16.6322 25.5726 6.7745 6.5756 -11.3263 27.2315
#
#
#
# Elastic Compliance Matrix: (Units=1/GPa)
#
#
# Indices 1 2 3 4 5 6 
#
# 1 0.045974 0.004338 -0.011621 0.038592 -0.052064 -0.060237
# 2 0.004338 0.015060 -0.005865 0.012207 -0.013910 -0.024066
# 3 -0.011621 -0.005865 0.017958 -0.007323 0.011159 0.014548
# 4 0.038592 0.012207 -0.007323 0.079119 -0.068146 -0.080661
# 5 -0.052064 -0.013910 0.011159 -0.068146 0.097842 0.099236
# 6 -0.060237 -0.024066 0.014548 -0.080661 0.099236 0.153246
#
#
# Mechanical properties :
#
#
# Convention : Reuss Voigt Hill
#
# Bulk Modulus (GPa) = 18.97656 58.07222 38.52439
# Shear Modulus (GPa) = 11.03606 32.42558 21.73082
#
# Velocity S-wave (km/s) = 2.27451 3.89874 3.19168
# Velocity P-wave (km/s) = 3.97411 6.89126 5.62508
#
# Compressibility (1/GPa) = 0.05269660
#
# Stress axis : x y z
#
# Youngs Moduli (GPa) = 21.75137 66.40267 55.68479
#
# Poissons Ratio (x) = -0.28807 0.64709
# Poissons Ratio (y) = -0.09436 0.32661
# Poissons Ratio (z) = 0.25276 0.38947
#
# Static dielectric constant tensor:
#      x y z
#    x 1.791550 -0.003180 -0.025350 
#    y -0.003180 1.773770 -0.016120 
#    z -0.025350 -0.016120 1.772400 
# 
# From -- ./inp_files/388880.got.cif
#   From: 2010.05.17/outbox.cif.g08.bks.cpg/sg2_195_cif.got.tgz:388880.got - 2010.06.03 11:33:40.
