data_PCOD9061558
_publ_section_title
;
Structure prediction by ZEFSAII (Michael W. Deem and Ramdas Pophale) SiO2 
 PCOD9061558
Probable space group: P -1
;
_chemical_formula_sum "Si O2"
_cell_formula_units_Z 16
_cell_length_a 11.816622
_cell_length_b 9.230384
_cell_length_c 8.742676
_cell_angle_alpha 120.981347
_cell_angle_beta 77.454839
_cell_angle_gamma 120.855512
_cell_volume 700.406359
_symmetry_space_group_name_H-M "P -1"
_symmetry_group_IT_number 2
_symmetry_cell_setting 'triclinic'
loop_
_space_group_symop_operation_xyz
x,y,z
-x,-y,-z
loop_
_atom_site_type_symbol
_atom_site_label
_atom_site_fract_x
_atom_site_fract_y
_atom_site_fract_z
Si Si1 0.484588 0.337064 0.530985
Si Si2 0.261783 0.942310 0.723972
Si Si3 0.218740 0.709844 0.312407
Si Si4 0.001337 0.314743 0.823822
Si Si5 0.251993 0.276657 0.767272
Si Si6 0.473243 0.968901 0.174415
Si Si7 0.299671 0.414805 0.151535
Si Si8 0.881216 0.018938 0.965123
O O1 0.500000 0.500000 0.500000
O O2 0.340738 0.263056 0.602223
O O3 0.497942 0.171035 0.349047
O O4 0.585602 0.433442 0.693511
O O5 0.266542 0.811095 0.516748
O O6 0.412209 0.068568 0.806758
O O7 0.196246 0.066818 0.744251
O O8 0.172864 0.858051 0.854415
O O9 0.193101 0.492093 0.214959
O O10 0.087744 0.721417 0.317772
O O11 0.330516 0.815316 0.203638
O O12 0.147014 0.339875 0.776620
O O13 0.928248 0.128336 0.852118
O O14 0.000000 0.500000 0.000000
O O15 0.333161 0.408032 0.959558
O O16 0.500000 0.000000 0.000000
O O17 0.237440 0.201520 0.125293
O O18 0.000000 0.000000 0.000000
#
# Coordination Sequence:
#
# PCOD9061558 Si02
#       8
#     2   2   2   2   2   2   2   2
#     4  12  28  45  69 112 146 184 251 300 364 432
#     4  11  23  45  73 103 139 192 238 298 357 432
#     4  12  24  46  73 104 146 192 243 298 369 429
#     4  12  25  48  75 106 144 193 243 295 363 445
#     4  11  24  47  73 104 142 192 238 295 365 429
#     4  12  27  45  71 105 149 194 244 310 361 429
#     4  11  24  46  75 104 145 190 233 299 369 424
#     4  11  23  47  73 104 145 184 243 290 364 432
#
# _framework density 22.843881
#
# number of rings (size 3 to 8) (size 9 to 14) (size 15 to 20)
#    0.000    0.500    6.250    2.250    7.000    1.500 
#    2.250    1.250    0.000    0.000    0.000    0.000 
#    0.000    0.000    0.000    0.000    0.000    0.000 
#
# Total GULP energy -89377.380363 kJ/mol
# GULP energy per Si atom -5586.086273 kJ/mol
# Density = 2.279189 g / cm^3
# Si number density = 22.843881 Si / 1000 Ang^3
#
#
#
# Elastic Constant Matrix: (Units=GPa)
#
#
# Indices 1 2 3 4 5 6 
#
# 1 135.7024 9.5141 38.4565 -0.6477 -7.9369 -12.5162
# 2 9.5141 61.8742 22.3075 4.9957 -6.5330 -9.6489
# 3 38.4565 22.3075 127.9846 -2.1766 -11.8698 3.9203
# 4 -0.6477 4.9957 -2.1766 29.1291 -3.1208 -7.1746
# 5 -7.9369 -6.5330 -11.8698 -3.1208 34.3804 -0.8526
# 6 -12.5162 -9.6489 3.9203 -7.1746 -0.8526 35.4350
#
#
#
# Elastic Compliance Matrix: (Units=1/GPa)
#
#
# Indices 1 2 3 4 5 6 
#
# 1 0.008490 0.000235 -0.002565 0.000976 0.001296 0.003575
# 2 0.000235 0.018513 -0.003265 -0.001885 0.002402 0.005161
# 3 -0.002565 -0.003265 0.009437 0.000780 0.002051 -0.002632
# 4 0.000976 -0.001885 0.000780 0.036927 0.003670 0.007310
# 5 0.001296 0.002402 0.002051 0.003670 0.030942 0.002372
# 6 0.003575 0.005161 -0.002632 0.007310 0.002372 0.032717
#
#
# Mechanical properties :
#
#
# Convention : Reuss Voigt Hill
#
# Bulk Modulus (GPa) = 39.60222 51.79082 45.69652
# Shear Modulus (GPa) = 31.92182 36.80779 34.36480
#
# Velocity S-wave (km/s) = 3.74222 4.01842 3.88278
# Velocity P-wave (km/s) = 6.00383 6.65216 6.33629
#
# Compressibility (1/GPa) = 0.02525111
#
# Stress axis : x y z
#
# Youngs Moduli (GPa) = 117.79131 54.01468 105.96381
#
# Poissons Ratio (x) = -0.01268 0.27175
# Poissons Ratio (y) = -0.02765 0.34595
# Poissons Ratio (z) = 0.30208 0.17635
#
# Static dielectric constant tensor:
#      x y z
#    x 1.886090 0.020700 0.013390 
#    y 0.020700 1.793970 0.034810 
#    z 0.013390 0.034810 1.895000 
# 
# From -- ./inp_files/245479.got.cif
#   From: 2010.05.17/outbox.cif.g08.bks.cpg/sg2_123_cif.got.tgz:245479.got - 2010.06.03 11:33:40.
