data_PCOD9061456
_publ_section_title
;
Structure prediction by ZEFSAII (Michael W. Deem and Ramdas Pophale) SiO2 
 PCOD9061456
Probable space group: P -1
;
_chemical_formula_sum "Si O2"
_cell_formula_units_Z 16
_cell_length_a 8.654253
_cell_length_b 15.461244
_cell_length_c 10.224533
_cell_angle_alpha 81.832103
_cell_angle_beta 111.125934
_cell_angle_gamma 45.084915
_cell_volume 722.747114
_symmetry_space_group_name_H-M "P -1"
_symmetry_group_IT_number 2
_symmetry_cell_setting 'triclinic'
loop_
_space_group_symop_operation_xyz
x,y,z
-x,-y,-z
loop_
_atom_site_type_symbol
_atom_site_label
_atom_site_fract_x
_atom_site_fract_y
_atom_site_fract_z
Si Si1 0.241350 0.970006 0.074170
Si Si2 0.799717 0.288593 0.743843
Si Si3 0.602941 0.698843 0.054650
Si Si4 0.436102 0.620637 0.882576
Si Si5 0.174910 0.501625 0.617369
Si Si6 0.582450 0.965351 0.686174
Si Si7 0.007641 0.346640 0.983699
Si Si8 0.036016 0.756659 0.486383
O O1 0.499879 0.811192 0.109983
O O2 0.329357 0.979582 0.233830
O O3 0.000000 0.000000 0.000000
O O4 0.084750 0.111238 0.908855
O O5 0.503223 0.374845 0.690837
O O6 0.796403 0.296523 0.585090
O O7 0.855769 0.356068 0.819279
O O8 0.803953 0.539184 0.218738
O O9 0.353876 0.740784 0.917739
O O10 0.758323 0.689981 0.996972
O O11 0.207495 0.709496 0.678265
O O12 0.500000 0.500000 0.000000
O O13 0.744219 0.509733 0.935880
O O14 0.015529 0.661157 0.513222
O O15 0.000000 0.500000 0.500000
O O16 0.287005 0.065952 0.649236
O O17 0.500000 0.000000 0.500000
O O18 0.837033 0.788172 0.840579
#
# Coordination Sequence:
#
# PCOD9061456 Si02
#       8
#     2   2   2   2   2   2   2   2
#     4  11  24  45  71 101 136 187 229 284 349 416
#     4  11  23  45  71 101 137 180 232 284 351 416
#     4  12  25  45  69 101 139 181 237 278 347 423
#     4  12  25  46  70  98 144 188 226 279 358 411
#     4  12  24  39  68 101 137 176 228 292 337 411
#     4  11  26  46  74 102 139 182 233 286 349 414
#     4  11  24  47  72 101 137 186 227 285 348 415
#     4  12  25  43  69 105 137 181 230 289 345 409
#
# _framework density 22.137758999999999
#
# number of rings (size 3 to 8) (size 9 to 14) (size 15 to 20)
#    0.000    0.500    3.750    4.500    5.250    2.000 
#    2.250    1.250    0.000    0.000    0.000    0.000 
#    0.000    0.000    0.000    0.000    0.000    0.000 
#
# Total GULP energy -89429.936476 kJ/mol
# GULP energy per Si atom -5589.371030 kJ/mol
# Density = 2.208737 g / cm^3
# Si number density = 22.137759 Si / 1000 Ang^3
#
#
#
# Elastic Constant Matrix: (Units=GPa)
#
#
# Indices 1 2 3 4 5 6 
#
# 1 87.4574 25.0843 36.5846 21.0860 12.7462 15.8129
# 2 25.0843 80.0427 18.7958 9.1855 14.6396 9.1069
# 3 36.5846 18.7958 116.1300 29.3528 19.6348 11.0636
# 4 21.0860 9.1855 29.3528 44.0508 3.5126 15.1935
# 5 12.7462 14.6396 19.6348 3.5126 37.3876 3.2267
# 6 15.8129 9.1069 11.0636 15.1935 3.2267 35.4238
#
#
#
# Elastic Compliance Matrix: (Units=1/GPa)
#
#
# Indices 1 2 3 4 5 6 
#
# 1 0.015189 -0.002961 -0.002775 -0.003443 -0.001936 -0.003499
# 2 -0.002961 0.014546 -0.000437 -0.000389 -0.004271 -0.001725
# 3 -0.002775 -0.000437 0.011873 -0.006405 -0.004587 0.000808
# 4 -0.003443 -0.000389 -0.006405 0.032063 0.002571 -0.010349
# 5 -0.001936 -0.004271 -0.004587 0.002571 0.031295 -0.000558
# 6 -0.003499 -0.001725 0.000808 -0.010349 -0.000558 0.034472
#
#
# Mechanical properties :
#
#
# Convention : Reuss Voigt Hill
#
# Bulk Modulus (GPa) = 34.17226 49.39552 41.78389
# Shear Modulus (GPa) = 30.95249 36.91680 33.93465
#
# Velocity S-wave (km/s) = 3.74328 4.08805 3.91946
# Velocity P-wave (km/s) = 5.84402 6.68162 6.27681
#
# Compressibility (1/GPa) = 0.02926350
#
# Stress axis : x y z
#
# Youngs Moduli (GPa) = 65.83641 68.74735 84.22216
#
# Poissons Ratio (x) = 0.20357 0.23370
# Poissons Ratio (y) = 0.19495 0.03676
# Poissons Ratio (z) = 0.18269 0.03001
#
# Static dielectric constant tensor:
#      x y z
#    x 1.818790 0.022640 0.043970 
#    y 0.022640 1.908320 0.068450 
#    z 0.043970 0.068450 1.910090 
# 
# From -- ./inp_files/207008.got.cif
#   From: 2010.05.17/outbox.cif.g08.bks.cpg/sg2_104_cif.got.tgz:207008.got - 2010.06.03 11:33:40.
