data_PCOD9061774
_publ_section_title
;
Structure prediction by ZEFSAII (Michael W. Deem and Ramdas Pophale) SiO2 
 PCOD9061774
Probable space group: P -1
;
_chemical_formula_sum "Si O2"
_cell_formula_units_Z 14
_cell_length_a 11.731790
_cell_length_b 5.481096
_cell_length_c 15.347159
_cell_angle_alpha 110.924632
_cell_angle_beta 121.272295
_cell_angle_gamma 103.509184
_cell_volume 670.631801
_symmetry_space_group_name_H-M "P -1"
_symmetry_group_IT_number 2
_symmetry_cell_setting 'triclinic'
loop_
_space_group_symop_operation_xyz
x,y,z
-x,-y,-z
loop_
_atom_site_type_symbol
_atom_site_label
_atom_site_fract_x
_atom_site_fract_y
_atom_site_fract_z
Si Si1 0.070156 0.779140 0.244059
Si Si2 0.238018 0.975299 0.856291
Si Si3 0.250391 0.193849 0.568652
Si Si4 0.976483 0.085832 0.097588
Si Si5 0.073713 0.474721 0.437863
Si Si6 0.760048 0.591946 0.211921
Si Si7 0.572950 0.786952 0.500477
O O1 0.048763 0.450495 0.174358
O O2 0.929210 0.711550 0.246943
O O3 0.048767 0.946998 0.174361
O O4 0.247014 0.995534 0.372027
O O5 0.315824 0.771935 0.862753
O O6 0.195499 0.040963 0.943214
O O7 0.067772 0.744837 0.710953
O O8 0.315824 0.269392 0.862752
O O9 0.173099 0.329645 0.491033
O O10 0.232349 0.287694 0.671518
O O11 0.420241 0.319348 0.609227
O O12 0.173099 0.825522 0.491033
O O13 0.000000 0.000000 0.000000
O O14 0.000000 0.500000 0.500000
O O15 0.500000 0.500000 0.500000
O O16 0.500000 0.000000 0.500000
#
# Coordination Sequence:
#
# PCOD9061774 Si02
#       7
#     2   2   2   2   2   2   2
#     4  10  21  35  56  76 113 142 176 236 277 321
#     4  10  18  26  41  70 109 126 156 202 254 335
#     4  12  21  32  50  72 105 139 180 218 265 324
#     4  10  19  33  53  81 110 142 176 220 288 349
#     4  12  19  27  48  77 105 135 169 201 279 347
#     4  10  18  30  48  77  96 133 163 215 285 330
#     4  12  26  40  52  74 113 163 205 218 246 318
#
# _framework density 20.875838000000002
#
# number of rings (size 3 to 8) (size 9 to 14) (size 15 to 20)
#    0.000    1.143    2.857    6.857    0.000    0.000 
#    0.000    0.000    0.000    0.000    0.000    0.000 
#    0.000   91.429    0.000    0.000    0.000    0.000 
#
# Total GULP energy -78053.174860 kJ/mol
# GULP energy per Si atom -5575.226776 kJ/mol
# Density = 2.082832 g / cm^3
# Si number density = 20.875838 Si / 1000 Ang^3
#
#
#
# Elastic Constant Matrix: (Units=GPa)
#
#
# Indices 1 2 3 4 5 6 
#
# 1 112.6025 68.6064 48.9285 -6.5320 -35.8266 -3.0129
# 2 68.6064 218.4631 36.4340 -10.6343 -16.8361 -33.9764
# 3 48.9285 36.4340 57.2161 -9.2376 -29.3298 4.2502
# 4 -6.5320 -10.6343 -9.2376 21.8917 4.7240 -7.8056
# 5 -35.8266 -16.8361 -29.3298 4.7240 35.6193 -3.6342
# 6 -3.0129 -33.9764 4.2502 -7.8056 -3.6342 36.7946
#
#
#
# Elastic Compliance Matrix: (Units=1/GPa)
#
#
# Indices 1 2 3 4 5 6 
#
# 1 0.017449 -0.003574 -0.008144 -0.002158 0.009394 -0.000461
# 2 -0.003574 0.007359 -0.002468 0.004593 -0.001986 0.007566
# 3 -0.008144 -0.002468 0.037918 0.006534 0.020600 -0.003905
# 4 -0.002158 0.004593 0.006534 0.055480 -0.000443 0.015035
# 5 0.009394 -0.001986 0.020600 -0.000443 0.053787 0.001774
# 6 -0.000461 0.007566 -0.003905 0.015035 0.001774 0.037942
#
#
# Mechanical properties :
#
#
# Convention : Reuss Voigt Hill
#
# Bulk Modulus (GPa) = 29.10928 77.35773 53.23351
# Shear Modulus (GPa) = 20.01941 34.48197 27.25069
#
# Velocity S-wave (km/s) = 3.10009 4.06860 3.61691
# Velocity P-wave (km/s) = 5.17575 7.69467 6.55730
#
# Compressibility (1/GPa) = 0.03435331
#
# Stress axis : x y z
#
# Youngs Moduli (GPa) = 57.31137 135.89606 26.37258
#
# Poissons Ratio (x) = 0.48571 0.21478
# Poissons Ratio (y) = 0.20484 0.06509
# Poissons Ratio (z) = 0.46674 0.33539
#
# Static dielectric constant tensor:
#      x y z
#    x 1.785290 -0.043110 -0.026450 
#    y -0.043110 1.909460 -0.008870 
#    z -0.026450 -0.008870 1.777300 
# 
# From -- ./inp_files/510020.got.cif
#   From: 2010.05.17/outbox.cif.g08.bks.cpg/sg2_256_cif.got.tgz:510020.got - 2010.06.03 11:33:40.
