data_PCOD9061284
_publ_section_title
;
Structure prediction by ZEFSAII (Michael W. Deem and Ramdas Pophale) SiO2 
 PCOD9061284
Probable space group: P -1
;
_chemical_formula_sum "Si O2"
_cell_formula_units_Z 14
_cell_length_a 6.145337
_cell_length_b 8.922924
_cell_length_c 25.394038
_cell_angle_alpha 37.729999
_cell_angle_beta 120.574486
_cell_angle_gamma 128.102941
_cell_volume 669.911760
_symmetry_space_group_name_H-M "P -1"
_symmetry_group_IT_number 2
_symmetry_cell_setting 'triclinic'
loop_
_space_group_symop_operation_xyz
x,y,z
-x,-y,-z
loop_
_atom_site_type_symbol
_atom_site_label
_atom_site_fract_x
_atom_site_fract_y
_atom_site_fract_z
Si Si1 0.161357 0.935522 0.986586
Si Si2 0.873197 0.308396 0.138854
Si Si3 0.707133 0.125233 0.537693
Si Si4 0.305711 0.346352 0.566212
Si Si5 0.145336 0.145109 0.815012
Si Si6 0.550113 0.974462 0.753636
Si Si7 0.386458 0.294256 0.266315
O O1 0.101977 0.084467 0.888271
O O2 0.004792 0.614559 0.052383
O O3 0.500000 0.000000 0.000000
O O4 0.000000 0.000000 0.000000
O O5 0.087722 0.282380 0.216044
O O6 0.582143 0.200726 0.162709
O O7 0.834991 0.107414 0.141758
O O8 0.727076 0.422135 0.467820
O O9 0.017043 0.156645 0.557040
O O10 0.500000 0.000000 0.500000
O O11 0.623291 0.939013 0.630803
O O12 0.500000 0.500000 0.500000
O O13 0.414314 0.174042 0.664098
O O14 0.416501 0.418283 0.766245
O O15 0.873230 0.152919 0.753259
O O16 0.502906 0.765882 0.758539
#
# Coordination Sequence:
#
# PCOD9061284 Si02
#       7
#     2   2   2   2   2   2   2
#     4  12  27  50  78 108 149 190 238 298 366 431
#     4  11  25  46  73  99 142 182 231 290 356 420
#     4  11  26  40  67  96 134 181 232 289 354 421
#     4  11  24  45  63  94 139 177 229 292 349 412
#     4  11  27  43  74 104 138 183 237 285 357 433
#     4  11  25  43  69 100 136 186 230 292 352 425
#     4  11  23  45  64 102 139 176 231 290 350 421
#
# _framework density 20.898275000000002
#
# number of rings (size 3 to 8) (size 9 to 14) (size 15 to 20)
#    0.000    0.857    4.286    1.286    8.000    3.429 
#    0.000    0.000    0.000    0.000    0.000    0.000 
#    0.000    0.000    0.000    0.000    0.000    0.000 
#
# Total GULP energy -78120.212210 kJ/mol
# GULP energy per Si atom -5580.015158 kJ/mol
# Density = 2.085071 g / cm^3
# Si number density = 20.898275 Si / 1000 Ang^3
#
#
#
# Elastic Constant Matrix: (Units=GPa)
#
#
# Indices 1 2 3 4 5 6 
#
# 1 75.2422 29.4250 -0.0348 -1.5952 -14.3513 0.6612
# 2 29.4250 120.0986 7.2938 -5.5883 3.3069 5.3101
# 3 -0.0348 7.2938 46.7924 -8.5985 -0.4850 1.9287
# 4 -1.5952 -5.5883 -8.5985 34.8425 -0.4817 -1.9783
# 5 -14.3513 3.3069 -0.4850 -0.4817 35.2747 -6.6937
# 6 0.6612 5.3101 1.9287 -1.9783 -6.6937 11.1643
#
#
#
# Elastic Compliance Matrix: (Units=1/GPa)
#
#
# Indices 1 2 3 4 5 6 
#
# 1 0.016652 -0.004598 0.000681 0.000664 0.008409 0.006242
# 2 -0.004598 0.009959 -0.001206 0.000660 -0.004059 -0.006573
# 3 0.000681 -0.001206 0.022629 0.005301 0.000351 -0.002226
# 4 0.000664 0.000660 0.005301 0.030459 0.001670 0.005130
# 5 0.008409 -0.004059 0.000351 0.001670 0.036666 0.023652
# 6 0.006242 -0.006573 -0.002226 0.005130 0.023652 0.107803
#
#
# Mechanical properties :
#
#
# Convention : Reuss Voigt Hill
#
# Bulk Modulus (GPa) = 25.64445 35.05568 30.35007
# Shear Modulus (GPa) = 20.20925 29.95291 25.08108
#
# Velocity S-wave (km/s) = 3.11308 3.78997 3.46808
# Velocity P-wave (km/s) = 5.02190 5.99689 5.53092
#
# Compressibility (1/GPa) = 0.03899479
#
# Stress axis : x y z
#
# Youngs Moduli (GPa) = 60.05350 100.40851 44.19135
#
# Poissons Ratio (x) = 0.46166 -0.03009
# Poissons Ratio (y) = 0.27611 0.05328
# Poissons Ratio (z) = -0.04089 0.12106
#
# Static dielectric constant tensor:
#      x y z
#    x 1.831700 0.007730 0.013870 
#    y 0.007730 1.738690 -0.004360 
#    z 0.013870 -0.004360 1.716520 
# 
# From -- ./inp_files/7567.got.cif
#   From: 2010.05.17/outbox.cif.g08.bks.cpg/sg2_4_cif.got.tgz:7567.got - 2010.06.03 11:33:40.
