data_PCOD9061324
_publ_section_title
;
Structure prediction by ZEFSAII (Michael W. Deem and Ramdas Pophale) SiO2 
 PCOD9061324
Probable space group: P -1
;
_chemical_formula_sum "Si O2"
_cell_formula_units_Z 16
_cell_length_a 23.923874
_cell_length_b 9.977821
_cell_length_c 12.568362
_cell_angle_alpha 47.793405
_cell_angle_beta 141.947130
_cell_angle_gamma 155.853565
_cell_volume 743.371929
_symmetry_space_group_name_H-M "P -1"
_symmetry_group_IT_number 2
_symmetry_cell_setting 'triclinic'
loop_
_space_group_symop_operation_xyz
x,y,z
-x,-y,-z
loop_
_atom_site_type_symbol
_atom_site_label
_atom_site_fract_x
_atom_site_fract_y
_atom_site_fract_z
Si Si1 0.497350 0.721206 0.147922
Si Si2 0.529452 0.646239 0.853709
Si Si3 0.017185 0.242100 0.886250
Si Si4 0.587107 0.181013 0.420464
Si Si5 0.935842 0.686468 0.578943
Si Si6 0.140325 0.718882 0.504381
Si Si7 0.607385 0.187263 0.895677
Si Si8 0.099735 0.646241 0.964906
O O1 0.457276 0.469144 0.162371
O O2 0.388294 0.616476 0.137726
O O3 0.680386 0.003659 0.321858
O O4 0.496736 0.869123 0.973338
O O5 0.387748 0.559931 0.679599
O O6 0.500000 0.500000 0.000000
O O7 0.702902 0.045633 0.897764
O O8 0.018210 0.339452 0.948970
O O9 0.885086 0.136574 0.676631
O O10 0.207917 0.588409 0.946947
O O11 0.000000 0.000000 0.000000
O O12 0.768073 0.398432 0.553561
O O13 0.500000 0.000000 0.500000
O O14 0.473488 0.936779 0.276851
O O15 0.891636 0.509400 0.496912
O O16 0.072413 0.783970 0.783670
O O17 0.000000 0.000000 0.500000
O O18 0.000000 0.500000 0.500000
O O19 0.000000 0.500000 0.000000
#
# Coordination Sequence:
#
# PCOD9061324 Si02
#       8
#     2   2   2   2   2   2   2   2
#     4  11  24  43  74 101 135 179 234 296 335 407
#     4  12  24  44  73  98 131 183 236 278 342 411
#     4  11  25  44  68  95 139 182 219 276 347 421
#     4  12  25  45  67  99 146 181 223 288 347 414
#     4  11  26  43  70 103 136 179 233 288 344 413
#     4  11  24  45  67 102 140 172 231 294 345 399
#     4  11  23  45  68 102 138 179 234 283 345 409
#     4  11  25  45  66  98 140 175 225 283 343 415
#
# _framework density 21.523544999999999
#
# number of rings (size 3 to 8) (size 9 to 14) (size 15 to 20)
#    0.000    0.750    5.000    1.500    5.250    2.000 
#    0.000    1.250    0.000    0.000    0.000    0.000 
#    0.000    0.000    0.000    0.000    0.000    0.000 
#
# Total GULP energy -89373.173230 kJ/mol
# GULP energy per Si atom -5585.823327 kJ/mol
# Density = 2.147456 g / cm^3
# Si number density = 21.523545 Si / 1000 Ang^3
#
#
#
# Elastic Constant Matrix: (Units=GPa)
#
#
# Indices 1 2 3 4 5 6 
#
# 1 173.4240 26.7402 39.6748 -10.5279 -3.6874 -12.6225
# 2 26.7402 45.3124 24.6150 -16.8271 -10.9535 -11.1078
# 3 39.6748 24.6150 85.3747 3.0843 -1.6048 -19.0271
# 4 -10.5279 -16.8271 3.0843 31.2725 0.0822 17.6218
# 5 -3.6874 -10.9535 -1.6048 0.0822 39.9629 -2.2198
# 6 -12.6225 -11.1078 -19.0271 17.6218 -2.2198 43.3809
#
#
#
# Elastic Compliance Matrix: (Units=1/GPa)
#
#
# Indices 1 2 3 4 5 6 
#
# 1 0.006770 -0.001991 -0.002735 0.001728 -0.000059 -0.000444
# 2 -0.001991 0.040852 -0.012867 0.025774 0.010126 -0.005714
# 3 -0.002735 -0.012867 0.019645 -0.015897 -0.002354 0.010863
# 4 0.001728 0.025774 -0.015897 0.061939 0.005082 -0.024771
# 5 -0.000059 0.010126 -0.002354 0.005082 0.027738 0.000898
# 6 -0.000444 -0.005714 0.010863 -0.024771 0.000898 0.036332
#
#
# Mechanical properties :
#
#
# Convention : Reuss Voigt Hill
#
# Bulk Modulus (GPa) = 31.17125 54.01901 42.59513
# Shear Modulus (GPa) = 20.90679 37.12868 29.01773
#
# Velocity S-wave (km/s) = 3.12002 4.15785 3.67575
# Velocity P-wave (km/s) = 5.24340 6.94280 6.15206
#
# Compressibility (1/GPa) = 0.03208084
#
# Stress axis : x y z
#
# Youngs Moduli (GPa) = 147.70704 24.47837 50.90412
#
# Poissons Ratio (x) = 0.04874 0.13920
# Poissons Ratio (y) = 0.29413 0.65500
# Poissons Ratio (z) = 0.40392 0.31497
#
# Static dielectric constant tensor:
#      x y z
#    x 1.925590 0.094870 0.077310 
#    y 0.094870 1.877570 0.049040 
#    z 0.077310 0.049040 1.849380 
# 
# From -- ./inp_files/469860.got.cif
#   From: 2010.05.17/outbox.cif.g08.bks.cpg/sg2_235_cif.got.tgz:469860.got - 2010.06.03 11:33:40.
