data_PCOD9061603
_publ_section_title
;
Structure prediction by ZEFSAII (Michael W. Deem and Ramdas Pophale) SiO2 
 PCOD9061603
Probable space group: P -1
;
_chemical_formula_sum "Si O2"
_cell_formula_units_Z 14
_cell_length_a 12.612349
_cell_length_b 12.510935
_cell_length_c 11.464423
_cell_angle_alpha 91.983718
_cell_angle_beta 37.842322
_cell_angle_gamma 60.035698
_cell_volume 567.475804
_symmetry_space_group_name_H-M "P -1"
_symmetry_group_IT_number 2
_symmetry_cell_setting 'triclinic'
loop_
_space_group_symop_operation_xyz
x,y,z
-x,-y,-z
loop_
_atom_site_type_symbol
_atom_site_label
_atom_site_fract_x
_atom_site_fract_y
_atom_site_fract_z
Si Si1 0.621229 0.236282 0.313771
Si Si2 0.682448 0.110071 0.840790
Si Si3 0.209022 0.466084 0.899266
Si Si4 0.286510 0.517084 0.128818
Si Si5 0.526256 0.102296 0.741201
Si Si6 0.504299 0.884199 0.758781
Si Si7 0.834774 0.304497 0.972006
O O1 0.505421 0.334735 0.545719
O O2 0.464645 0.219775 0.375269
O O3 0.618292 0.338059 0.233482
O O4 0.000000 0.000000 0.000000
O O5 0.578654 0.077653 0.834101
O O6 0.404730 0.350440 0.087529
O O7 0.704962 0.053336 0.948817
O O8 0.000000 0.000000 0.500000
O O9 0.335560 0.312595 0.880756
O O10 0.995054 0.690098 0.104564
O O11 0.000000 0.500000 0.000000
O O12 0.381302 0.497211 0.911705
O O13 0.881295 0.715438 0.473870
O O14 0.500000 0.500000 0.000000
O O15 0.359544 0.076950 0.854509
O O16 0.889848 0.905771 0.351369
#
# Coordination Sequence:
#
# PCOD9061603 Si02
#       7
#     2   2   2   2   2   2   2
#     4  12  26  46  74 105 148 194 243 302 360 433
#     4  12  24  44  72 107 148 187 241 299 370 439
#     4  12  26  46  73 105 141 195 247 296 368 429
#     4  11  23  45  74 104 145 190 238 303 367 442
#     4  11  24  45  72 105 142 186 240 302 364 426
#     4  11  26  46  72 107 146 193 243 300 367 439
#     4  11  24  47  70 105 143 186 245 299 363 427
#
# _framework density 24.670655
#
# number of rings (size 3 to 8) (size 9 to 14) (size 15 to 20)
#    0.000    0.571    2.857    6.429    2.000    1.143 
#    2.571    0.000    0.000    0.000    0.000    0.000 
#    0.000    0.000    0.000    0.000    0.000    0.000 
#
# Total GULP energy -78018.515172 kJ/mol
# GULP energy per Si atom -5572.751084 kJ/mol
# Density = 2.461450 g / cm^3
# Si number density = 24.670655 Si / 1000 Ang^3
#
#
#
# Elastic Constant Matrix: (Units=GPa)
#
#
# Indices 1 2 3 4 5 6 
#
# 1 58.3301 33.0860 -3.0125 2.3335 0.7216 24.7651
# 2 33.0860 152.7629 11.3394 -17.4220 8.9970 22.0494
# 3 -3.0125 11.3394 55.5909 -9.1033 3.5593 -3.1461
# 4 2.3335 -17.4220 -9.1033 44.8473 -4.4475 8.7574
# 5 0.7216 8.9970 3.5593 -4.4475 38.9628 -5.1828
# 6 24.7651 22.0494 -3.1461 8.7574 -5.1828 50.1369
#
#
#
# Elastic Compliance Matrix: (Units=1/GPa)
#
#
# Indices 1 2 3 4 5 6 
#
# 1 0.023619 -0.003795 0.001468 -0.000576 -0.001080 -0.009916
# 2 -0.003795 0.008357 -0.001377 0.003520 -0.001688 -0.002677
# 3 0.001468 -0.001377 0.018938 0.003046 -0.001034 0.000430
# 4 -0.000576 0.003520 0.003046 0.025480 0.001109 -0.005408
# 5 -0.001080 -0.001688 -0.001034 0.001109 0.026800 0.003788
# 6 -0.009916 -0.002677 0.000430 -0.005408 0.003788 0.027384
#
#
# Mechanical properties :
#
#
# Convention : Reuss Voigt Hill
#
# Bulk Modulus (GPa) = 22.98590 38.83441 30.91015
# Shear Modulus (GPa) = 32.78900 41.80745 37.29822
#
# Velocity S-wave (km/s) = 3.64959 4.12105 3.89246
# Velocity P-wave (km/s) = 5.20545 6.19833 5.72346
#
# Compressibility (1/GPa) = 0.04350493
#
# Stress axis : x y z
#
# Youngs Moduli (GPa) = 42.33886 119.65319 52.80267
#
# Poissons Ratio (x) = 0.45411 -0.07750
# Poissons Ratio (y) = 0.16068 0.07273
# Poissons Ratio (z) = -0.06214 0.16481
#
# Static dielectric constant tensor:
#      x y z
#    x 1.556680 -0.137250 0.027710 
#    y -0.137250 2.150050 -0.181790 
#    z 0.027710 -0.181790 2.098010 
# 
# From -- ./inp_files/426136.got.cif
#   From: 2010.05.17/outbox.cif.g08.bks.cpg/sg2_214_cif.got.tgz:426136.got - 2010.06.03 11:33:40.
