data_PCOD9061369
_publ_section_title
;
Structure prediction by ZEFSAII (Michael W. Deem and Ramdas Pophale) SiO2 
 PCOD9061369
Probable space group: P -1
;
_chemical_formula_sum "Si O2"
_cell_formula_units_Z 16
_cell_length_a 9.500097
_cell_length_b 17.430288
_cell_length_c 17.799551
_cell_angle_alpha 148.333535
_cell_angle_beta 28.379420
_cell_angle_gamma 139.870809
_cell_volume 733.983270
_symmetry_space_group_name_H-M "P -1"
_symmetry_group_IT_number 2
_symmetry_cell_setting 'triclinic'
loop_
_space_group_symop_operation_xyz
x,y,z
-x,-y,-z
loop_
_atom_site_type_symbol
_atom_site_label
_atom_site_fract_x
_atom_site_fract_y
_atom_site_fract_z
Si Si1 0.131709 0.332451 0.075968
Si Si2 0.349814 0.656066 0.446692
Si Si3 0.809333 0.093879 0.940687
Si Si4 0.280723 0.328480 0.173949
Si Si5 0.721270 0.108107 0.439432
Si Si6 0.776514 0.105902 0.793390
Si Si7 0.792725 0.794015 0.460804
Si Si8 0.192089 0.669443 0.294136
O O1 0.167162 0.292580 0.113280
O O2 0.109139 0.505790 0.222945
O O3 0.452260 0.306745 0.865683
O O4 0.861499 0.244601 0.087138
O O5 0.417720 0.497160 0.250642
O O6 0.427559 0.787958 0.462646
O O7 0.522321 0.689459 0.470672
O O8 0.000298 0.665517 0.634082
O O9 0.892293 0.120084 0.836028
O O10 0.037704 0.993283 0.792014
O O11 0.500000 0.000000 0.000000
O O12 0.509186 0.212151 0.996020
O O13 0.890140 0.217317 0.509444
O O14 0.500000 0.000000 0.500000
O O15 0.023834 0.152212 0.654161
O O16 0.691057 0.935786 0.671528
O O17 0.018414 0.708982 0.334398
#
# Coordination Sequence:
#
# PCOD9061369 Si02
#       8
#     2   2   2   2   2   2   2   2
#     4  11  25  44  72  99 137 183 226 283 341 415
#     4  11  27  44  69 100 136 185 223 284 345 409
#     4  12  27  43  67 103 137 179 224 279 347 407
#     4  11  25  48  66  99 142 180 227 271 357 419
#     4  12  23  45  70  96 137 180 234 279 333 406
#     4  11  25  44  66 101 137 174 227 281 338 404
#     4  11  25  42  70 102 133 174 230 285 333 395
#     4  11  23  45  69 103 133 179 236 280 340 400
#
# _framework density 21.798860999999999
#
# number of rings (size 3 to 8) (size 9 to 14) (size 15 to 20)
#    0.000    0.750    5.000    1.500    7.000    1.000 
#    0.000    1.250    0.000    0.000    0.000    0.000 
#    0.000    0.000    0.000    0.000    0.000    0.000 
#
# Total GULP energy -89449.718765 kJ/mol
# GULP energy per Si atom -5590.607423 kJ/mol
# Density = 2.174925 g / cm^3
# Si number density = 21.798861 Si / 1000 Ang^3
#
#
#
# Elastic Constant Matrix: (Units=GPa)
#
#
# Indices 1 2 3 4 5 6 
#
# 1 117.1952 25.8709 8.0407 19.9840 -4.2950 5.0899
# 2 25.8709 78.4438 28.9990 15.1785 -16.2508 10.7750
# 3 8.0407 28.9990 67.4159 17.1981 -6.8832 6.3134
# 4 19.9840 15.1785 17.1981 26.3775 2.7629 3.1171
# 5 -4.2950 -16.2508 -6.8832 2.7629 33.5759 2.2934
# 6 5.0899 10.7750 6.3134 3.1171 2.2934 39.7173
#
#
#
# Elastic Compliance Matrix: (Units=1/GPa)
#
#
# Indices 1 2 3 4 5 6 
#
# 1 0.010304 -0.002257 0.001918 -0.007838 0.001296 -0.000473
# 2 -0.002257 0.018909 -0.004984 -0.006348 0.008641 -0.004049
# 3 0.001918 -0.004984 0.020232 -0.011937 0.003055 -0.001349
# 4 -0.007838 -0.006348 -0.011937 0.056360 -0.011218 0.000849
# 5 0.001296 0.008641 0.003055 -0.011218 0.035967 -0.004192
# 6 -0.000473 -0.004049 -0.001349 0.000849 -0.004192 0.026727
#
#
# Mechanical properties :
#
#
# Convention : Reuss Voigt Hill
#
# Bulk Modulus (GPa) = 25.77368 43.20845 34.49106
# Shear Modulus (GPa) = 26.03105 33.27710 29.65407
#
# Velocity S-wave (km/s) = 3.45939 3.91135 3.69229
# Velocity P-wave (km/s) = 5.27310 6.34529 5.83388
#
# Compressibility (1/GPa) = 0.03879927
#
# Stress axis : x y z
#
# Youngs Moduli (GPa) = 97.04926 52.88364 49.42706
#
# Poissons Ratio (x) = 0.11938 -0.09481
# Poissons Ratio (y) = 0.21907 0.24634
# Poissons Ratio (z) = -0.18616 0.26356
#
# Static dielectric constant tensor:
#      x y z
#    x 1.796840 -0.006310 0.015340 
#    y -0.006310 1.829440 -0.025250 
#    z 0.015340 -0.025250 1.803130 
# 
# From -- ./inp_files/190711.got.cif
#   From: 2010.05.17/outbox.cif.g08.bks.cpg/sg2_96_cif.got.tgz:190711.got - 2010.06.03 11:33:40.
