data_PCOD9061597
_publ_section_title
;
Structure prediction by ZEFSAII (Michael W. Deem and Ramdas Pophale) SiO2 
 PCOD9061597
Probable space group: P -1
;
_chemical_formula_sum "Si O2"
_cell_formula_units_Z 16
_cell_length_a 14.368780
_cell_length_b 8.987750
_cell_length_c 20.938750
_cell_angle_alpha 127.547919
_cell_angle_beta 20.183797
_cell_angle_gamma 130.469768
_cell_volume 709.778672
_symmetry_space_group_name_H-M "P -1"
_symmetry_group_IT_number 2
_symmetry_cell_setting 'triclinic'
loop_
_space_group_symop_operation_xyz
x,y,z
-x,-y,-z
loop_
_atom_site_type_symbol
_atom_site_label
_atom_site_fract_x
_atom_site_fract_y
_atom_site_fract_z
Si Si1 0.513964 0.959435 0.310404
Si Si2 0.817735 0.716153 0.896816
Si Si3 0.066148 0.266665 0.027233
Si Si4 0.014410 0.310644 0.479024
Si Si5 0.951793 0.360548 0.931486
Si Si6 0.578851 0.928167 0.861897
Si Si7 0.745932 0.953818 0.370325
Si Si8 0.821204 0.321574 0.738198
O O1 0.279275 0.853417 0.384226
O O2 0.350928 0.031974 0.491124
O O3 0.680399 0.803363 0.185651
O O4 0.761407 0.133877 0.167543
O O5 0.911245 0.780358 0.924941
O O6 0.892478 0.513208 0.785635
O O7 0.485661 0.683008 0.094043
O O8 0.979955 0.871904 0.780698
O O9 0.076129 0.487876 0.065904
O O10 0.043911 0.348939 0.545103
O O11 0.000000 0.500000 0.500000
O O12 0.255558 0.230492 0.274163
O O13 0.194607 0.252281 0.737700
O O14 0.671551 0.179972 0.053552
O O15 0.000000 0.500000 0.000000
O O16 0.777989 0.119417 0.749714
O O17 0.500000 0.000000 0.000000
O O18 0.500000 0.000000 0.500000
#
# Coordination Sequence:
#
# PCOD9061597 Si02
#       8
#     2   2   2   2   2   2   2   2
#     4  11  24  42  73  99 139 183 239 280 351 415
#     4  11  23  45  74 104 138 184 237 287 358 417
#     4  11  24  46  72 100 142 187 231 290 351 421
#     4  12  26  44  71 107 141 185 238 291 351 427
#     4  12  28  45  73 106 145 184 237 290 357 415
#     4  12  27  49  74 104 146 191 238 296 356 420
#     4  12  24  46  69 103 140 185 229 293 349 424
#     4  11  25  44  73 102 144 185 236 295 352 422
#
# _framework density 22.542238999999999
#
# number of rings (size 3 to 8) (size 9 to 14) (size 15 to 20)
#    0.000    0.500    3.750    4.125    7.000    1.500 
#    2.250    0.000    0.000    0.000    0.000    0.000 
#    0.000    0.000    0.000    0.000    0.000    0.000 
#
# Total GULP energy -89478.146918 kJ/mol
# GULP energy per Si atom -5592.384182 kJ/mol
# Density = 2.249093 g / cm^3
# Si number density = 22.542239 Si / 1000 Ang^3
#
#
#
# Elastic Constant Matrix: (Units=GPa)
#
#
# Indices 1 2 3 4 5 6 
#
# 1 52.1014 16.2371 28.7599 15.3750 19.0440 11.4568
# 2 16.2371 117.0973 43.5932 34.6608 8.5937 -5.7972
# 3 28.7599 43.5932 124.8040 40.9398 14.8579 6.8789
# 4 15.3750 34.6608 40.9398 46.5880 3.8028 -5.4070
# 5 19.0440 8.5937 14.8579 3.8028 41.4996 1.9656
# 6 11.4568 -5.7972 6.8789 -5.4070 1.9656 45.7654
#
#
#
# Elastic Compliance Matrix: (Units=1/GPa)
#
#
# Indices 1 2 3 4 5 6 
#
# 1 0.028284 -0.000581 -0.002407 -0.006711 -0.011046 -0.007111
# 2 -0.000581 0.011291 -0.001588 -0.006612 -0.000948 0.001074
# 3 -0.002407 -0.001588 0.012499 -0.009124 -0.002089 -0.002466
# 4 -0.006711 -0.006612 -0.009124 0.037033 0.004018 0.006417
# 5 -0.011046 -0.000948 -0.002089 0.004018 0.029639 0.002161
# 6 -0.007111 0.001074 -0.002466 0.006417 0.002161 0.024803
#
#
# Mechanical properties :
#
#
# Convention : Reuss Voigt Hill
#
# Bulk Modulus (GPa) = 23.29657 52.35369 37.82513
# Shear Modulus (GPa) = 29.93854 40.46477 35.20165
#
# Velocity S-wave (km/s) = 3.64828 4.24142 3.95598
# Velocity P-wave (km/s) = 5.30128 6.87468 6.13860
#
# Compressibility (1/GPa) = 0.04292478
#
# Stress axis : x y z
#
# Youngs Moduli (GPa) = 35.35521 88.56369 80.00443
#
# Poissons Ratio (x) = 0.05146 0.19253
# Poissons Ratio (y) = 0.02054 0.12701
# Poissons Ratio (z) = 0.08508 0.14060
#
# Static dielectric constant tensor:
#      x y z
#    x 1.905810 0.018260 0.033380 
#    y 0.018260 1.830300 -0.022040 
#    z 0.033380 -0.022040 1.902500 
# 
# From -- ./inp_files/186158.got.cif
#   From: 2010.05.17/outbox.cif.g08.bks.cpg/sg2_94_cif.got.tgz:186158.got - 2010.06.03 11:33:40.
