data_PCOD9061743
_publ_section_title
;
Structure prediction by ZEFSAII (Michael W. Deem and Ramdas Pophale) SiO2 
 PCOD9061743
Probable space group: P -1
;
_chemical_formula_sum "Si O2"
_cell_formula_units_Z 16
_cell_length_a 16.518425
_cell_length_b 9.710283
_cell_length_c 20.910632
_cell_angle_alpha 147.318607
_cell_angle_beta 25.515627
_cell_angle_gamma 148.096637
_cell_volume 720.279429
_symmetry_space_group_name_H-M "P -1"
_symmetry_group_IT_number 2
_symmetry_cell_setting 'triclinic'
loop_
_space_group_symop_operation_xyz
x,y,z
-x,-y,-z
loop_
_atom_site_type_symbol
_atom_site_label
_atom_site_fract_x
_atom_site_fract_y
_atom_site_fract_z
Si Si1 0.067948 0.191211 0.818557
Si Si2 0.632449 0.408013 0.030297
Si Si3 0.180817 0.962601 0.188131
Si Si4 0.211397 0.959806 0.825092
Si Si5 0.611764 0.291300 0.851895
Si Si6 0.000642 0.361120 0.515668
Si Si7 0.265767 0.743334 0.835818
Si Si8 0.264480 0.805817 0.590051
O O1 0.246681 0.442862 0.754914
O O2 0.151174 0.974804 0.700869
O O3 0.890569 0.063040 0.843688
O O4 0.954514 0.269510 0.988296
O O5 0.404486 0.199448 0.127485
O O6 0.642395 0.715316 0.155945
O O7 0.673688 0.353001 0.905697
O O8 0.792572 0.316120 0.918737
O O9 0.020436 0.066451 0.377280
O O10 0.276011 0.821616 0.785011
O O11 0.198987 0.782959 0.701599
O O12 0.000000 0.000000 0.000000
O O13 0.801043 0.343974 0.690270
O O14 0.448942 0.983442 0.834339
O O15 0.500000 0.500000 0.000000
O O16 0.191221 0.533097 0.492836
O O17 0.000000 0.500000 0.500000
O O18 0.500000 0.000000 0.500000
#
# Coordination Sequence:
#
# PCOD9061743 Si02
#       8
#     2   2   2   2   2   2   2   2
#     4  11  23  46  68 104 142 184 233 290 366 411
#     4  11  24  41  72 105 137 183 240 291 350 427
#     4  11  24  44  70 103 140 186 234 294 354 422
#     4  12  23  41  66 103 137 176 235 292 347 413
#     4  12  23  43  72 103 136 184 241 283 348 422
#     4  12  26  46  72  98 143 188 233 290 358 420
#     4  11  24  40  73 104 138 183 234 297 345 422
#     4  12  27  44  71 103 142 189 234 289 356 426
#
# _framework density 22.213602000000002
#
# number of rings (size 3 to 8) (size 9 to 14) (size 15 to 20)
#    0.000    0.500    5.000    3.750    3.500    1.500 
#    0.000    3.750    0.000    0.000    0.000    0.000 
#    0.000    0.000    0.000    0.000    0.000    0.000 
#
# Total GULP energy -89444.252224 kJ/mol
# GULP energy per Si atom -5590.265764 kJ/mol
# Density = 2.216304 g / cm^3
# Si number density = 22.213602 Si / 1000 Ang^3
#
#
#
# Elastic Constant Matrix: (Units=GPa)
#
#
# Indices 1 2 3 4 5 6 
#
# 1 128.5527 8.5857 25.5603 8.4469 15.4704 -1.1452
# 2 8.5857 72.5075 1.2531 1.6658 5.3111 6.3092
# 3 25.5603 1.2531 97.5717 -12.8834 15.3451 -4.6534
# 4 8.4469 1.6658 -12.8834 30.3008 7.1398 -5.2471
# 5 15.4704 5.3111 15.3451 7.1398 28.3662 1.3630
# 6 -1.1452 6.3092 -4.6534 -5.2471 1.3630 39.0140
#
#
#
# Elastic Compliance Matrix: (Units=1/GPa)
#
#
# Indices 1 2 3 4 5 6 
#
# 1 0.008779 -0.000723 -0.002226 -0.002734 -0.002752 -0.000163
# 2 -0.000723 0.014240 0.000188 -0.000385 -0.002167 -0.002278
# 3 -0.002226 0.000188 0.013477 0.008860 -0.008486 0.003000
# 4 -0.002734 -0.000385 0.008860 0.042142 -0.014183 0.007202
# 5 -0.002752 -0.002167 -0.008486 -0.014183 0.045524 -0.004240
# 6 -0.000163 -0.002278 0.003000 0.007202 -0.004240 0.027470
#
#
# Mechanical properties :
#
#
# Convention : Reuss Voigt Hill
#
# Bulk Modulus (GPa) = 32.28545 41.04779 36.66662
# Shear Modulus (GPa) = 29.85449 37.08506 33.46977
#
# Velocity S-wave (km/s) = 3.67000 4.09035 3.88587
# Velocity P-wave (km/s) = 5.70300 6.38958 6.05603
#
# Compressibility (1/GPa) = 0.03097371
#
# Stress axis : x y z
#
# Youngs Moduli (GPa) = 113.90462 70.22579 74.19984
#
# Poissons Ratio (x) = 0.05074 0.16520
# Poissons Ratio (y) = 0.08230 -0.01393
# Poissons Ratio (z) = 0.25360 -0.01318
#
# Static dielectric constant tensor:
#      x y z
#    x 1.956290 0.079650 0.012140 
#    y 0.079650 1.927370 -0.019980 
#    z 0.012140 -0.019980 1.804380 
# 
# From -- ./inp_files/572931.got.cif
#   From: 2010.05.17/outbox.cif.g08.bks.cpg/sg2_287_cif.got.tgz:572931.got - 2010.06.03 11:33:40.
