data_PCOD9061966
_publ_section_title
;
Structure prediction by ZEFSAII (Michael W. Deem and Ramdas Pophale) SiO2 
 PCOD9061966
Probable space group: P -1
;
_chemical_formula_sum "Si O2"
_cell_formula_units_Z 11
_cell_length_a 9.349536
_cell_length_b 8.958365
_cell_length_c 9.607059
_cell_angle_alpha 43.414630
_cell_angle_beta 54.315827
_cell_angle_gamma 63.256491
_cell_volume 448.687311
_symmetry_space_group_name_H-M "P -1"
_symmetry_group_IT_number 2
_symmetry_cell_setting 'triclinic'
loop_
_space_group_symop_operation_xyz
x,y,z
-x,-y,-z
loop_
_atom_site_type_symbol
_atom_site_label
_atom_site_fract_x
_atom_site_fract_y
_atom_site_fract_z
Si Si1 0.360521 0.131095 0.894194
Si Si2 0.500000 0.500000 0.000000
Si Si3 0.467062 0.802596 0.549959
Si Si4 0.844575 0.422007 0.238002
Si Si5 0.946920 0.153354 0.801458
Si Si6 0.863801 0.614155 0.674938
O O1 0.427074 0.151012 0.683312
O O2 0.296815 0.377273 0.798104
O O3 0.500000 0.000000 0.000000
O O4 0.194157 0.981909 0.105494
O O5 0.485804 0.401575 0.235990
O O6 0.317615 0.375652 0.146400
O O7 0.266187 0.768759 0.635035
O O8 0.500000 0.000000 0.500000
O O9 0.954888 0.371663 0.350332
O O10 0.000000 0.500000 0.000000
O O11 0.865694 0.375155 0.764767
O O12 0.112666 0.213898 0.576021
O O13 0.000000 0.000000 0.000000
#
# Coordination Sequence:
#
# PCOD9061966 Si02
#       6
#     2   1   2   2   2   2
#     4  12  28  50  84 115 160 214 270 329 407 481
#     4  12  26  46  76 114 154 198 262 324 398 468
#     4  12  29  51  80 118 163 211 266 333 402 480
#     4  12  27  51  76 118 163 206 268 332 402 475
#     4  11  23  46  75 109 147 199 260 317 395 469
#     4  11  25  45  75 109 153 202 254 327 390 473
#
# _framework density 24.51596
#
# number of rings (size 3 to 8) (size 9 to 14) (size 15 to 20)
#    0.000    0.364    3.636    3.818    7.636    1.455 
#    0.000    2.727    0.000    0.000    0.000    0.000 
#    0.000    0.000    0.000    0.000    0.000    0.000 
#
# Total GULP energy -61306.416824 kJ/mol
# GULP energy per Si atom -5573.310620 kJ/mol
# Density = 2.446016 g / cm^3
# Si number density = 24.515960 Si / 1000 Ang^3
#
#
#
# Elastic Constant Matrix: (Units=GPa)
#
#
# Indices 1 2 3 4 5 6 
#
# 1 147.3718 28.1918 37.8831 -24.6287 -1.5790 -0.5223
# 2 28.1918 79.4784 41.7565 -1.3721 11.3341 14.7400
# 3 37.8831 41.7565 221.3914 10.7529 4.0989 -10.7381
# 4 -24.6287 -1.3721 10.7529 26.9923 13.5657 -6.3451
# 5 -1.5790 11.3341 4.0989 13.5657 53.8606 -12.5230
# 6 -0.5223 14.7400 -10.7381 -6.3451 -12.5230 31.1096
#
#
#
# Elastic Compliance Matrix: (Units=1/GPa)
#
#
# Indices 1 2 3 4 5 6 
#
# 1 0.009360 -0.002747 -0.001427 0.010073 -0.000964 0.002633
# 2 -0.002747 0.018814 -0.003591 0.000285 -0.006836 -0.012894
# 3 -0.001427 -0.003591 0.005773 -0.003987 0.002144 0.003720
# 4 0.010073 0.000285 -0.003987 0.055141 -0.012187 0.004998
# 5 -0.000964 -0.006836 0.002144 -0.012187 0.025625 0.011792
# 6 0.002633 -0.012894 0.003720 0.004998 0.011792 0.045348
#
#
# Mechanical properties :
#
#
# Convention : Reuss Voigt Hill
#
# Bulk Modulus (GPa) = 54.30002 73.76716 64.03359
# Shear Modulus (GPa) = 27.51305 45.08652 36.29978
#
# Velocity S-wave (km/s) = 3.35363 4.29309 3.85211
# Velocity P-wave (km/s) = 6.09859 7.39790 6.77944
#
# Compressibility (1/GPa) = 0.01841620
#
# Stress axis : x y z
#
# Youngs Moduli (GPa) = 106.83348 53.15105 173.22552
#
# Poissons Ratio (x) = 0.14602 0.24723
# Poissons Ratio (y) = 0.29351 0.62207
# Poissons Ratio (z) = 0.15247 0.19087
#
# Static dielectric constant tensor:
#      x y z
#    x 1.996710 -0.088470 0.065350 
#    y -0.088470 2.070140 0.016770 
#    z 0.065350 0.016770 1.927290 
# 
# From -- ./inp_files/153517.got.cif
#   From: 2010.05.17/outbox.cif.g08.bks.cpg/sg2_77_cif.got.tgz:153517.got - 2010.06.03 11:33:40.
