data_PCOD9061986
_publ_section_title
;
Structure prediction by ZEFSAII (Michael W. Deem and Ramdas Pophale) SiO2 
 PCOD9061986
Probable space group: P -1
;
_chemical_formula_sum "Si O2"
_cell_formula_units_Z 16
_cell_length_a 12.181780
_cell_length_b 8.739223
_cell_length_c 17.829825
_cell_angle_alpha 38.415819
_cell_angle_beta 48.984330
_cell_angle_gamma 77.558953
_cell_volume 685.832736
_symmetry_space_group_name_H-M "P -1"
_symmetry_group_IT_number 2
_symmetry_cell_setting 'triclinic'
loop_
_space_group_symop_operation_xyz
x,y,z
-x,-y,-z
loop_
_atom_site_type_symbol
_atom_site_label
_atom_site_fract_x
_atom_site_fract_y
_atom_site_fract_z
Si Si1 0.713354 0.123735 0.338385
Si Si2 0.981352 0.749706 0.263776
Si Si3 0.117813 0.366235 0.327087
Si Si4 0.705875 0.758390 0.950421
Si Si5 0.650951 0.565415 0.671685
Si Si6 0.348544 0.824798 0.284546
Si Si7 0.683118 0.285959 0.039339
Si Si8 0.899544 0.167402 0.080006
O O1 0.769832 0.117036 0.229083
O O2 0.500000 0.000000 0.500000
O O3 0.722555 0.878797 0.474542
O O4 0.888454 0.490343 0.141871
O O5 0.012182 0.510614 0.310294
O O6 0.827963 0.534877 0.479014
O O7 0.161484 0.046333 0.113660
O O8 0.914197 0.889478 0.184691
O O9 0.191442 0.410825 0.361048
O O10 0.281509 0.564974 0.115973
O O11 0.000000 0.000000 0.500000
O O12 0.709633 0.990976 0.802311
O O13 0.496219 0.500561 0.175056
O O14 0.754581 0.563528 0.959500
O O15 0.542570 0.243302 0.794115
O O16 0.460878 0.997591 0.244247
O O17 0.794146 0.159014 0.057922
#
# Coordination Sequence:
#
# PCOD9061986 Si02
#       8
#     2   2   2   2   2   2   2   2
#     4  11  23  46  76 110 143 196 253 301 363 439
#     4  12  26  46  75 104 143 198 244 299 369 434
#     4  12  27  45  72 109 145 186 243 308 373 435
#     4  12  24  45  75 107 143 186 244 308 366 438
#     4  12  24  46  73 104 141 191 249 299 370 439
#     4  12  25  44  70 105 147 187 238 302 366 438
#     4  12  27  46  70 106 153 189 238 300 370 435
#     4  11  25  48  71 105 153 196 245 303 363 442
#
# _framework density 23.329301000000001
#
# number of rings (size 3 to 8) (size 9 to 14) (size 15 to 20)
#    0.000    0.250    3.750    6.375    3.500    1.000 
#    2.250    0.000    0.000    0.000    0.000    0.000 
#    0.000    0.000    0.000    0.000    0.000    0.000 
#
# Total GULP energy -89488.332825 kJ/mol
# GULP energy per Si atom -5593.020802 kJ/mol
# Density = 2.327620 g / cm^3
# Si number density = 23.329301 Si / 1000 Ang^3
#
#
#
# Elastic Constant Matrix: (Units=GPa)
#
#
# Indices 1 2 3 4 5 6 
#
# 1 121.7223 20.9125 45.9055 -12.4528 31.7340 -19.9801
# 2 20.9125 85.7636 17.6129 -19.4480 6.7180 -23.0045
# 3 45.9055 17.6129 97.2554 -2.3691 17.8202 -11.4262
# 4 -12.4528 -19.4480 -2.3691 29.3794 -13.1596 2.3719
# 5 31.7340 6.7180 17.8202 -13.1596 40.8192 -7.9668
# 6 -19.9801 -23.0045 -11.4262 2.3719 -7.9668 34.2431
#
#
#
# Elastic Compliance Matrix: (Units=1/GPa)
#
#
# Indices 1 2 3 4 5 6 
#
# 1 0.012293 -0.000227 -0.004063 0.001508 -0.006468 0.004055
# 2 -0.000227 0.017664 -0.002299 0.012520 0.004484 0.011143
# 3 -0.004063 -0.002299 0.013143 -0.003706 -0.003408 -0.000066
# 4 0.001508 0.012520 -0.003706 0.049086 0.015837 0.008339
# 5 -0.006468 0.004484 -0.003408 0.015837 0.036453 0.005485
# 6 0.004055 0.011143 -0.000066 0.008339 0.005485 0.039732
#
#
# Mechanical properties :
#
#
# Convention : Reuss Voigt Hill
#
# Bulk Modulus (GPa) = 33.42030 52.62256 43.02143
# Shear Modulus (GPa) = 26.10652 35.57571 30.84112
#
# Velocity S-wave (km/s) = 3.34884 3.90928 3.63986
# Velocity P-wave (km/s) = 5.41383 6.55607 6.01214
#
# Compressibility (1/GPa) = 0.02992193
#
# Stress axis : x y z
#
# Youngs Moduli (GPa) = 81.34789 56.61108 76.08703
#
# Poissons Ratio (x) = 0.01283 0.30914
# Poissons Ratio (y) = 0.01844 0.17496
# Poissons Ratio (z) = 0.33051 0.13018
#
# Static dielectric constant tensor:
#      x y z
#    x 1.853960 -0.009960 -0.050080 
#    y -0.009960 1.957780 0.089960 
#    z -0.050080 0.089960 1.961030 
# 
# From -- ./inp_files/515805.got.cif
#   From: 2010.05.17/outbox.cif.g08.bks.cpg/sg2_258_cif.got.tgz:515805.got - 2010.06.03 11:33:40.
