data_PCOD9061401
_publ_section_title
;
Structure prediction by ZEFSAII (Michael W. Deem and Ramdas Pophale) SiO2 
 PCOD9061401
Probable space group: P -1
;
_chemical_formula_sum "Si O2"
_cell_formula_units_Z 16
_cell_length_a 5.693648
_cell_length_b 24.775926
_cell_length_c 6.962595
_cell_angle_alpha 103.333445
_cell_angle_beta 86.863313
_cell_angle_gamma 52.956349
_cell_volume 738.730647
_symmetry_space_group_name_H-M "P -1"
_symmetry_group_IT_number 2
_symmetry_cell_setting 'triclinic'
loop_
_space_group_symop_operation_xyz
x,y,z
-x,-y,-z
loop_
_atom_site_type_symbol
_atom_site_label
_atom_site_fract_x
_atom_site_fract_y
_atom_site_fract_z
Si Si1 0.637201 0.830666 0.173393
Si Si2 0.347985 0.072868 0.452370
Si Si3 0.358525 0.816775 0.505673
Si Si4 0.291560 0.323561 0.370151
Si Si5 0.079538 0.460896 0.666099
Si Si6 0.830225 0.313654 0.128879
Si Si7 0.469290 0.438675 0.953936
Si Si8 0.327310 0.924176 0.888894
O O1 0.594250 0.884072 0.376964
O O2 0.533538 0.793815 0.275278
O O3 0.441808 0.881694 0.047251
O O4 0.966880 0.767465 0.024680
O O5 0.479257 0.058426 0.219664
O O6 0.989703 0.128631 0.493637
O O7 0.500000 0.000000 0.500000
O O8 0.492240 0.746116 0.563071
O O9 0.366634 0.867012 0.694657
O O10 0.086014 0.394450 0.570084
O O11 0.529006 0.330011 0.252745
O O12 0.060740 0.317815 0.253241
O O13 0.000000 0.500000 0.500000
O O14 0.824581 0.524126 0.866960
O O15 0.392301 0.428689 0.735926
O O16 0.727215 0.367192 0.998153
O O17 0.500000 0.500000 0.000000
O O18 0.000000 0.000000 0.000000
#
# Coordination Sequence:
#
# PCOD9061401 Si02
#       8
#     2   2   2   2   2   2   2   2
#     4  11  26  44  69 102 145 187 243 300 364 435
#     4  11  25  43  70 105 139 189 245 300 369 437
#     4  11  26  44  69 103 142 189 243 298 367 436
#     4  12  28  47  78 106 152 195 247 303 370 433
#     4  11  25  49  73 108 148 193 243 305 362 435
#     4  12  28  48  75 111 148 198 246 303 369 436
#     4  11  27  45  77 108 147 194 249 298 371 435
#     4  11  23  45  70 100 142 183 239 301 363 434
#
# _framework density 21.658774000000001
#
# number of rings (size 3 to 8) (size 9 to 14) (size 15 to 20)
#    0.000    0.750    2.500    3.000   10.500    7.000 
#    0.000    0.000    0.000    0.000    0.000    0.000 
#    0.000    0.000    0.000    0.000    0.000    0.000 
#
# Total GULP energy -89200.475659 kJ/mol
# GULP energy per Si atom -5575.029729 kJ/mol
# Density = 2.160948 g / cm^3
# Si number density = 21.658774 Si / 1000 Ang^3
#
#
#
# Elastic Constant Matrix: (Units=GPa)
#
#
# Indices 1 2 3 4 5 6 
#
# 1 61.3484 13.6529 30.6231 -25.2118 1.3000 -3.4852
# 2 13.6529 175.6595 36.5673 -29.9920 9.5006 -1.7001
# 3 30.6231 36.5673 119.8581 -26.9073 11.8567 -3.7851
# 4 -25.2118 -29.9920 -26.9073 58.8426 -6.2949 0.0659
# 5 1.3000 9.5006 11.8567 -6.2949 25.0438 4.2597
# 6 -3.4852 -1.7001 -3.7851 0.0659 4.2597 31.5680
#
#
#
# Elastic Compliance Matrix: (Units=1/GPa)
#
#
# Indices 1 2 3 4 5 6 
#
# 1 0.021475 0.000392 -0.004036 0.007804 0.002341 0.001576
# 2 0.000392 0.006475 -0.001329 0.002729 -0.001228 0.000393
# 3 -0.004036 -0.001329 0.010680 0.002042 -0.004052 0.001306
# 4 0.007804 0.002729 0.002042 0.023009 0.003246 0.000767
# 5 0.002341 -0.001228 -0.004052 0.003246 0.044071 -0.006247
# 6 0.001576 0.000393 0.001306 0.000767 -0.006247 0.032871
#
#
# Mechanical properties :
#
#
# Convention : Reuss Voigt Hill
#
# Bulk Modulus (GPa) = 34.86254 57.61698 46.23976
# Shear Modulus (GPa) = 31.62764 41.49240 36.56002
#
# Velocity S-wave (km/s) = 3.82549 4.38166 4.11299
# Velocity P-wave (km/s) = 5.97024 7.22900 6.62956
#
# Compressibility (1/GPa) = 0.02868408
#
# Stress axis : x y z
#
# Youngs Moduli (GPa) = 46.56598 154.43536 93.62908
#
# Poissons Ratio (x) = -0.06057 0.37791
# Poissons Ratio (y) = -0.01826 0.12445
# Poissons Ratio (z) = 0.18795 0.20528
#
# Static dielectric constant tensor:
#      x y z
#    x 1.962100 0.044150 -0.067110 
#    y 0.044150 1.752460 -0.022530 
#    z -0.067110 -0.022530 1.821870 
# 
# From -- ./inp_files/13134.got.cif
#   From: 2010.05.17/outbox.cif.g08.bks.cpg/sg2_7_cif.got.tgz:13134.got - 2010.06.03 11:33:40.
