data_PCOD9061321
_publ_section_title
;
Structure prediction by ZEFSAII (Michael W. Deem and Ramdas Pophale) SiO2 
 PCOD9061321
Probable space group: P -1
;
_chemical_formula_sum "Si O2"
_cell_formula_units_Z 16
_cell_length_a 18.455241
_cell_length_b 12.014148
_cell_length_c 9.710130
_cell_angle_alpha 129.466221
_cell_angle_beta 48.785733
_cell_angle_gamma 151.289712
_cell_volume 768.013205
_symmetry_space_group_name_H-M "P -1"
_symmetry_group_IT_number 2
_symmetry_cell_setting 'triclinic'
loop_
_space_group_symop_operation_xyz
x,y,z
-x,-y,-z
loop_
_atom_site_type_symbol
_atom_site_label
_atom_site_fract_x
_atom_site_fract_y
_atom_site_fract_z
Si Si1 0.558837 0.741955 0.957065
Si Si2 0.553391 0.347545 0.464512
Si Si3 0.648952 0.748764 0.138734
Si Si4 0.001554 0.852579 0.966644
Si Si5 0.472170 0.952203 0.335636
Si Si6 0.850232 0.389963 0.676772
Si Si7 0.267391 0.032613 0.369719
Si Si8 0.896843 0.878166 0.394027
O O1 0.395774 0.463753 0.920044
O O2 0.665297 0.870709 0.791469
O O3 0.637573 0.747500 0.987920
O O4 0.527609 0.864527 0.143548
O O5 0.482589 0.308546 0.670364
O O6 0.416915 0.234887 0.441492
O O7 0.720820 0.614188 0.437691
O O8 0.562559 0.186259 0.326779
O O9 0.822298 0.998821 0.157618
O O10 0.888660 0.590370 0.853346
O O11 0.969596 0.863805 0.172657
O O12 0.000000 0.000000 0.000000
O O13 0.290568 0.757428 0.371095
O O14 0.500000 0.000000 0.500000
O O15 0.000000 0.500000 0.500000
O O16 0.793796 0.200182 0.705424
O O17 0.132674 0.994097 0.525157
O O18 0.000000 0.000000 0.500000
#
# Coordination Sequence:
#
# PCOD9061321 Si02
#       8
#     2   2   2   2   2   2   2   2
#     4  11  24  40  72  96 135 172 243 279 338 402
#     4  11  24  43  71  96 136 178 232 275 346 413
#     4  11  23  45  68 101 133 186 231 278 342 425
#     4  12  26  43  73 101 139 182 234 286 353 413
#     4  11  24  42  69  99 132 181 230 282 337 414
#     4  11  26  46  69 103 143 180 230 290 358 413
#     4  11  25  45  71  99 136 184 227 291 343 413
#     4  12  27  46  66 105 141 177 229 291 351 409
#
# _framework density 20.832974
#
# number of rings (size 3 to 8) (size 9 to 14) (size 15 to 20)
#    0.000    0.750    2.500    4.875    7.000    3.000 
#    0.000    1.250    0.000    0.000    0.000    0.000 
#    0.000    0.000    0.000    0.000    0.000    0.000 
#
# Total GULP energy -89469.914219 kJ/mol
# GULP energy per Si atom -5591.869639 kJ/mol
# Density = 2.078556 g / cm^3
# Si number density = 20.832974 Si / 1000 Ang^3
#
#
#
# Elastic Constant Matrix: (Units=GPa)
#
#
# Indices 1 2 3 4 5 6 
#
# 1 75.6805 43.5408 26.9254 14.9791 -2.8159 -14.4462
# 2 43.5408 123.8340 39.7369 16.7451 1.8808 -8.8961
# 3 26.9254 39.7369 114.7479 6.6426 -2.3503 -16.2257
# 4 14.9791 16.7451 6.6426 42.8582 -9.8862 -3.4622
# 5 -2.8159 1.8808 -2.3503 -9.8862 36.8491 0.4410
# 6 -14.4462 -8.8961 -16.2257 -3.4622 0.4410 26.9924
#
#
#
# Elastic Compliance Matrix: (Units=1/GPa)
#
#
# Indices 1 2 3 4 5 6 
#
# 1 0.018760 -0.005160 -0.001401 -0.003629 0.000550 0.007023
# 2 -0.005160 0.011044 -0.002644 -0.002602 -0.001813 -0.001015
# 3 -0.001401 -0.002644 0.010630 0.000441 0.000767 0.004813
# 4 -0.003629 -0.002602 0.000441 0.027277 0.007192 0.000846
# 5 0.000550 -0.001813 0.000767 0.007192 0.029243 0.000602
# 6 0.007023 -0.001015 0.004813 0.000846 0.000602 0.043463
#
#
# Mechanical properties :
#
#
# Convention : Reuss Voigt Hill
#
# Bulk Modulus (GPa) = 45.40247 59.40762 52.40505
# Shear Modulus (GPa) = 30.09011 34.94388 32.51699
#
# Velocity S-wave (km/s) = 3.80458 4.09997 3.95504
# Velocity P-wave (km/s) = 6.41410 7.14080 6.78718
#
# Compressibility (1/GPa) = 0.02202523
#
# Stress axis : x y z
#
# Youngs Moduli (GPa) = 53.30603 90.54379 94.07557
#
# Poissons Ratio (x) = 0.46717 0.13177
# Poissons Ratio (y) = 0.27504 0.24873
# Poissons Ratio (z) = 0.07467 0.23939
#
# Static dielectric constant tensor:
#      x y z
#    x 1.785220 -0.000830 0.009240 
#    y -0.000830 1.766910 0.032940 
#    z 0.009240 0.032940 1.753600 
# 
# From -- ./inp_files/206462.got.cif
#   From: 2010.05.17/outbox.cif.g08.bks.cpg/sg2_104_cif.got.tgz:206462.got - 2010.06.03 11:33:40.
