data_PCOD9061043
_publ_section_title
;
Structure prediction by ZEFSAII (Michael W. Deem and Ramdas Pophale) SiO2 
 PCOD9061043
Probable space group: P -1
;
_chemical_formula_sum "Si O2"
_cell_formula_units_Z 16
_cell_length_a 8.607530
_cell_length_b 12.942986
_cell_length_c 8.151841
_cell_angle_alpha 88.518779
_cell_angle_beta 124.524060
_cell_angle_gamma 78.882581
_cell_volume 723.862732
_symmetry_space_group_name_H-M "P -1"
_symmetry_group_IT_number 2
_symmetry_cell_setting 'triclinic'
loop_
_space_group_symop_operation_xyz
x,y,z
-x,-y,-z
loop_
_atom_site_type_symbol
_atom_site_label
_atom_site_fract_x
_atom_site_fract_y
_atom_site_fract_z
Si Si1 0.514175 0.749374 0.254199
Si Si2 0.894553 0.665524 0.639175
Si Si3 0.102317 0.135498 0.136322
Si Si4 0.852353 0.035439 0.556754
Si Si5 0.674224 0.411144 0.028563
Si Si6 0.533999 0.003917 0.826936
Si Si7 0.208719 0.750611 0.317892
Si Si8 0.726645 0.477017 0.687533
O O1 0.746383 0.701744 0.397860
O O2 0.412964 0.689346 0.063973
O O3 0.428428 0.727455 0.380927
O O4 0.455074 0.875726 0.200561
O O5 0.860060 0.771155 0.728281
O O6 0.825559 0.569592 0.690061
O O7 0.125949 0.625928 0.748652
O O8 0.278750 0.082412 0.123314
O O9 0.073320 0.039064 0.237853
O O10 0.921795 0.193056 0.914690
O O11 0.647335 0.014849 0.383245
O O12 0.826314 0.160218 0.569311
O O13 0.000000 0.000000 0.500000
O O14 0.732546 0.455025 0.887151
O O15 0.500000 0.500000 0.000000
O O16 0.500000 0.000000 0.000000
O O17 0.169349 0.636222 0.330306
O O18 0.500000 0.500000 0.500000
#
# Coordination Sequence:
#
# PCOD9061043 Si02
#       8
#     2   2   2   2   2   2   2   2
#     4  11  23  47  70 101 144 181 238 287 358 421
#     4  12  23  46  76 102 137 194 234 283 361 421
#     4  12  24  44  76  99 141 192 229 296 358 418
#     4  12  26  45  69 106 140 182 241 289 354 426
#     4  11  26  46  70 103 140 184 235 301 345 413
#     4  12  27  44  69 107 141 186 236 292 357 428
#     4  11  23  44  72 100 138 188 230 296 348 417
#     4  11  23  46  71 101 138 182 240 281 348 425
#
# _framework density 22.103638
#
# number of rings (size 3 to 8) (size 9 to 14) (size 15 to 20)
#    0.000    0.500    7.500    2.625    1.750    1.500 
#    4.500    0.000    0.000    0.000    0.000    0.000 
#    0.000    0.000    0.000    0.000    0.000    0.000 
#
# Total GULP energy -89526.097040 kJ/mol
# GULP energy per Si atom -5595.381065 kJ/mol
# Density = 2.205333 g / cm^3
# Si number density = 22.103638 Si / 1000 Ang^3
#
#
#
# Elastic Constant Matrix: (Units=GPa)
#
#
# Indices 1 2 3 4 5 6 
#
# 1 82.2327 50.2255 21.4043 1.5979 19.9006 -26.8598
# 2 50.2255 180.2112 12.1812 4.1725 12.3831 -11.1899
# 3 21.4043 12.1812 79.5338 -9.2062 37.6186 -6.7710
# 4 1.5979 4.1725 -9.2062 32.2651 -1.6480 4.9260
# 5 19.9006 12.3831 37.6186 -1.6480 40.7688 -4.7115
# 6 -26.8598 -11.1899 -6.7710 4.9260 -4.7115 34.1948
#
#
#
# Elastic Compliance Matrix: (Units=1/GPa)
#
#
# Indices 1 2 3 4 5 6 
#
# 1 0.021791 -0.004531 -0.001184 -0.003456 -0.006575 0.014992
# 2 -0.004531 0.006742 0.000049 -0.000440 -0.000048 -0.001286
# 3 -0.001184 0.000049 0.023361 0.005652 -0.020760 0.000037
# 4 -0.003456 -0.000440 0.005652 0.033757 -0.002838 -0.006993
# 5 -0.006575 -0.000048 -0.020760 -0.002838 0.046508 -0.002474
# 6 0.014992 -0.001286 0.000037 -0.006993 -0.002474 0.041273
#
#
# Mechanical properties :
#
#
# Convention : Reuss Voigt Hill
#
# Bulk Modulus (GPa) = 24.65328 56.62219 40.63773
# Shear Modulus (GPa) = 25.21631 38.65686 31.93658
#
# Velocity S-wave (km/s) = 3.38127 4.18651 3.80525
# Velocity P-wave (km/s) = 5.14020 7.00296 6.14260
#
# Compressibility (1/GPa) = 0.04056255
#
# Stress axis : x y z
#
# Youngs Moduli (GPa) = 45.89037 148.32346 42.80603
#
# Poissons Ratio (x) = 0.67198 0.05069
# Poissons Ratio (y) = 0.20791 -0.00209
# Poissons Ratio (z) = 0.05435 -0.00726
#
# Static dielectric constant tensor:
#      x y z
#    x 1.826420 0.026810 0.008850 
#    y 0.026810 1.841130 -0.022870 
#    z 0.008850 -0.022870 1.859250 
# 
# From -- ./inp_files/187970.got.cif
#   From: 2010.05.17/outbox.cif.g08.bks.cpg/sg2_94_cif.got.tgz:187970.got - 2010.06.03 11:33:40.
