data_PCOD9061526
_publ_section_title
;
Structure prediction by ZEFSAII (Michael W. Deem and Ramdas Pophale) SiO2 
 PCOD9061526
Probable space group: P -1
;
_chemical_formula_sum "Si O2"
_cell_formula_units_Z 16
_cell_length_a 5.228840
_cell_length_b 5.124394
_cell_length_c 22.027555
_cell_angle_alpha 88.473795
_cell_angle_beta 85.659449
_cell_angle_gamma 91.458304
_cell_volume 588.095309
_symmetry_space_group_name_H-M "P -1"
_symmetry_group_IT_number 2
_symmetry_cell_setting 'triclinic'
loop_
_space_group_symop_operation_xyz
x,y,z
-x,-y,-z
loop_
_atom_site_type_symbol
_atom_site_label
_atom_site_fract_x
_atom_site_fract_y
_atom_site_fract_z
Si Si1 0.092196 0.249488 0.641149
Si Si2 0.578443 0.485127 0.802954
Si Si3 0.955763 0.863283 0.195042
Si Si4 0.321089 0.246312 0.504167
Si Si5 0.579309 0.555314 0.066797
Si Si6 0.375172 0.878094 0.714302
Si Si7 0.217300 0.260501 0.370056
Si Si8 0.880285 0.062082 0.066788
O O1 0.954673 0.515903 0.655223
O O2 0.169332 0.245086 0.569321
O O3 0.881396 0.015566 0.651703
O O4 0.325510 0.156184 0.679497
O O5 0.305673 0.321545 0.802275
O O6 0.600808 0.538202 0.874202
O O7 0.560054 0.745135 0.761635
O O8 0.810300 0.299998 0.783501
O O9 0.016519 0.964799 0.125710
O O10 0.872913 0.103996 0.237144
O O11 0.500000 0.500000 0.500000
O O12 0.173851 0.256780 0.443104
O O13 0.500000 0.000000 0.500000
O O14 0.631159 0.864377 0.071305
O O15 0.821414 0.366386 0.071434
O O16 0.500000 0.500000 0.000000
O O17 0.483158 0.720310 0.654320
O O18 0.000000 0.000000 0.000000
#
# Coordination Sequence:
#
# PCOD9061526 Si02
#       8
#     2   2   2   2   2   2   2   2
#     4  12  28  48  78 111 152 201 257 318 389 459
#     4  11  27  49  75 110 156 205 259 324 392 465
#     4  11  27  49  75 110 156 205 259 324 392 465
#     4  12  24  48  78 111 155 196 254 321 389 455
#     4  11  23  45  72 113 150 198 256 323 393 468
#     4  12  28  47  76 106 158 196 270 310 394 462
#     4  12  28  48  78 111 152 201 257 318 389 459
#     4  11  23  45  72 113 150 198 256 323 393 468
#
# _framework density 27.206474
#
# number of rings (size 3 to 8) (size 9 to 14) (size 15 to 20)
#    0.000    0.500    2.500    4.500    7.000    2.000 
#    0.000    0.000    0.000    0.000    0.000    0.000 
#    0.000    0.000    0.000    0.000    0.000    0.000 
#
# Total GULP energy -89513.485726 kJ/mol
# GULP energy per Si atom -5594.592858 kJ/mol
# Density = 2.714455 g / cm^3
# Si number density = 27.206474 Si / 1000 Ang^3
#
#
#
# Elastic Constant Matrix: (Units=GPa)
#
#
# Indices 1 2 3 4 5 6 
#
# 1 124.4961 86.2111 35.0434 -13.0746 -4.5846 -30.2185
# 2 86.2111 141.8946 29.9332 -21.7890 -6.5511 -34.3180
# 3 35.0434 29.9332 241.9275 -14.2371 -0.1752 -31.5228
# 4 -13.0746 -21.7890 -14.2371 48.5395 -18.5788 3.2210
# 5 -4.5846 -6.5511 -0.1752 -18.5788 34.4133 5.5195
# 6 -30.2185 -34.3180 -31.5228 3.2210 5.5195 74.0074
#
#
#
# Elastic Compliance Matrix: (Units=1/GPa)
#
#
# Indices 1 2 3 4 5 6 
#
# 1 0.014289 -0.008111 -0.000852 -0.000158 -0.000006 0.001718
# 2 -0.008111 0.013545 0.000139 0.005281 0.003948 0.002504
# 3 -0.000852 0.000139 0.004513 0.001175 0.000320 0.001564
# 4 -0.000158 0.005281 0.001175 0.029763 0.017007 0.000321
# 5 -0.000006 0.003948 0.000320 0.017007 0.039266 -0.001704
# 6 0.001718 0.002504 0.001564 0.000321 -0.001704 0.016154
#
#
# Mechanical properties :
#
#
# Convention : Reuss Voigt Hill
#
# Bulk Modulus (GPa) = 68.03043 90.07709 79.05376
# Shear Modulus (GPa) = 35.69472 55.20073 45.44773
#
# Velocity S-wave (km/s) = 3.62607 4.50928 4.09158
# Velocity P-wave (km/s) = 6.52616 7.76480 7.17227
#
# Compressibility (1/GPa) = 0.01469931
#
# Stress axis : x y z
#
# Youngs Moduli (GPa) = 69.98416 73.82771 221.59159
#
# Poissons Ratio (x) = 0.59881 0.18873
# Poissons Ratio (y) = 0.56764 -0.03078
# Poissons Ratio (z) = 0.05960 -0.01025
#
# Static dielectric constant tensor:
#      x y z
#    x 2.341170 0.129250 0.009720 
#    y 0.129250 2.078670 0.020690 
#    z 0.009720 0.020690 2.118490 
# 
# From -- ./inp_files/581009.got.cif
#   From: 2010.05.17/outbox.cif.g08.bks.cpg/sg2_291_cif.got.tgz:581009.got - 2010.06.03 11:33:40.
