data_PCOD9061895
_publ_section_title
;
Structure prediction by ZEFSAII (Michael W. Deem and Ramdas Pophale) SiO2 
 PCOD9061895
Probable space group: P -1
;
_chemical_formula_sum "Si O2"
_cell_formula_units_Z 16
_cell_length_a 8.064736
_cell_length_b 6.714950
_cell_length_c 15.275825
_cell_angle_alpha 59.734194
_cell_angle_beta 79.374007
_cell_angle_gamma 82.408387
_cell_volume 701.493911
_symmetry_space_group_name_H-M "P -1"
_symmetry_group_IT_number 2
_symmetry_cell_setting 'triclinic'
loop_
_space_group_symop_operation_xyz
x,y,z
-x,-y,-z
loop_
_atom_site_type_symbol
_atom_site_label
_atom_site_fract_x
_atom_site_fract_y
_atom_site_fract_z
Si Si1 0.653538 0.110889 0.185472
Si Si2 0.087904 0.846614 0.621750
Si Si3 0.733716 0.328768 0.505949
Si Si4 0.133339 0.463420 0.920843
Si Si5 0.893753 0.680405 0.225015
Si Si6 0.837248 0.108544 0.719176
Si Si7 0.614128 0.850878 0.412629
Si Si8 0.402203 0.126655 0.061801
O O1 0.742627 0.872327 0.196157
O O2 0.561004 0.024664 0.300043
O O3 0.791160 0.289003 0.160512
O O4 0.539540 0.217456 0.096011
O O5 0.098499 0.795688 0.526300
O O6 0.150858 0.583203 0.697304
O O7 0.232702 0.025552 0.584441
O O8 0.932919 0.917656 0.687228
O O9 0.748137 0.282908 0.618948
O O10 0.699183 0.600761 0.433348
O O11 0.563395 0.212493 0.513916
O O12 0.045593 0.336801 0.877170
O O13 0.282729 0.307740 0.982617
O O14 0.000000 0.500000 0.000000
O O15 0.024293 0.761354 0.266583
O O16 0.712975 0.013883 0.826720
O O17 0.500000 0.000000 0.000000
#
# Coordination Sequence:
#
# PCOD9061895 Si02
#       8
#     2   2   2   2   2   2   2   2
#     4  12  23  49  73 102 148 184 239 302 358 434
#     4  12  23  45  71 105 142 192 240 293 366 430
#     4  11  25  44  73 105 145 189 244 296 364 434
#     4  12  27  47  78 107 139 193 246 301 368 436
#     4  12  24  45  73 100 144 191 235 300 364 426
#     4  12  27  45  69 106 147 190 244 301 360 436
#     4  11  23  46  73 104 141 192 239 300 366 432
#     4  12  27  48  74 108 143 192 241 305 368 427
#
# _framework density 22.808468000000001
#
# number of rings (size 3 to 8) (size 9 to 14) (size 15 to 20)
#    0.000    0.250    6.250    2.625    1.750    4.000 
#    2.250    1.250    0.000    0.000    0.000    0.000 
#    0.000    0.000    0.000    0.000    0.000    0.000 
#
# Total GULP energy -89225.002028 kJ/mol
# GULP energy per Si atom -5576.562627 kJ/mol
# Density = 2.275655 g / cm^3
# Si number density = 22.808468 Si / 1000 Ang^3
#
#
#
# Elastic Constant Matrix: (Units=GPa)
#
#
# Indices 1 2 3 4 5 6 
#
# 1 66.4185 32.1513 11.7221 3.3721 -11.1347 -2.5168
# 2 32.1513 86.3216 48.8106 0.9782 -18.7579 -12.1275
# 3 11.7221 48.8106 107.3410 8.1624 -12.5706 -0.8600
# 4 3.3721 0.9782 8.1624 38.1472 -5.7900 2.2303
# 5 -11.1347 -18.7579 -12.5706 -5.7900 39.5605 11.0944
# 6 -2.5168 -12.1275 -0.8600 2.2303 11.0944 37.6870
#
#
#
# Elastic Compliance Matrix: (Units=1/GPa)
#
#
# Indices 1 2 3 4 5 6 
#
# 1 0.018928 -0.007800 0.001868 -0.001377 0.002546 -0.001871
# 2 -0.007800 0.020613 -0.008186 0.002252 0.004014 0.004610
# 3 0.001868 -0.008186 0.013134 -0.002454 0.001131 -0.002397
# 4 -0.001377 0.002252 -0.002454 0.027647 0.004626 -0.002421
# 5 0.002546 0.004014 0.001131 0.004626 0.031167 -0.007961
# 6 -0.001871 0.004610 -0.002397 -0.002421 -0.007961 0.030325
#
#
# Mechanical properties :
#
#
# Convention : Reuss Voigt Hill
#
# Bulk Modulus (GPa) = 40.91818 49.49434 45.20626
# Shear Modulus (GPa) = 28.05898 34.23874 31.14886
#
# Velocity S-wave (km/s) = 3.51123 3.87866 3.69951
# Velocity P-wave (km/s) = 5.86661 6.46574 6.17345
#
# Compressibility (1/GPa) = 0.02443901
#
# Stress axis : x y z
#
# Youngs Moduli (GPa) = 52.83179 48.51361 76.13731
#
# Poissons Ratio (x) = 0.37841 -0.14220
# Poissons Ratio (y) = 0.41209 0.62323
# Poissons Ratio (z) = -0.09868 0.39711
#
# Static dielectric constant tensor:
#      x y z
#    x 1.868930 -0.004980 -0.012410 
#    y -0.004980 1.827010 0.023470 
#    z -0.012410 0.023470 2.032860 
# 
# From -- ./inp_files/488152.got.cif
#   From: 2010.05.17/outbox.cif.g08.bks.cpg/sg2_245_cif.got.tgz:488152.got - 2010.06.03 11:33:40.
