data_PCOD9061245
_publ_section_title
;
Structure prediction by ZEFSAII (Michael W. Deem and Ramdas Pophale) SiO2 
 PCOD9061245
Probable space group: P -1
;
_chemical_formula_sum "Si O2"
_cell_formula_units_Z 16
_cell_length_a 6.476904
_cell_length_b 14.914579
_cell_length_c 8.288315
_cell_angle_alpha 90.319003
_cell_angle_beta 89.915795
_cell_angle_gamma 116.071887
_cell_volume 719.170260
_symmetry_space_group_name_H-M "P -1"
_symmetry_group_IT_number 2
_symmetry_cell_setting 'triclinic'
loop_
_space_group_symop_operation_xyz
x,y,z
-x,-y,-z
loop_
_atom_site_type_symbol
_atom_site_label
_atom_site_fract_x
_atom_site_fract_y
_atom_site_fract_z
Si Si1 0.103545 0.613539 0.055873
Si Si2 0.104724 0.613052 0.444671
Si Si3 0.107535 0.258523 0.362054
Si Si4 0.572034 0.750168 0.874279
Si Si5 0.910059 0.756200 0.109639
Si Si6 0.607029 0.749529 0.374118
Si Si7 0.382898 0.886008 0.301342
Si Si8 0.625709 0.115536 0.305580
O O1 0.094387 0.616382 0.250545
O O2 0.959303 0.674337 0.012914
O O3 0.351374 0.674896 0.973831
O O4 0.000000 0.500000 0.000000
O O5 0.379503 0.673403 0.465779
O O6 0.000000 0.500000 0.500000
O O7 0.978888 0.668656 0.544535
O O8 0.329134 0.306262 0.248326
O O9 0.189728 0.202424 0.496383
O O10 0.891966 0.178426 0.264787
O O11 0.505160 0.825996 0.774761
O O12 0.786165 0.804220 0.995810
O O13 0.714608 0.701740 0.245323
O O14 0.144925 0.829388 0.202349
O O15 0.536112 0.826224 0.282603
O O16 0.362872 0.882715 0.497626
O O17 0.509882 0.000880 0.253073
#
# Coordination Sequence:
#
# PCOD9061245 Si02
#       8
#     2   2   2   2   2   2   2   2
#     4  12  28  48  71 106 149 190 240 305 366 429
#     4  12  27  46  74 109 144 188 248 300 357 436
#     4  12  24  46  75 105 147 191 243 295 356 432
#     4  12  27  46  74 107 152 190 239 301 367 424
#     4  12  24  48  74 101 149 197 233 297 370 428
#     4  12  21  46  74 102 145 195 237 289 362 433
#     4  11  23  44  76 107 150 189 245 299 358 430
#     4  11  24  44  72 114 145 190 246 302 350 434
#
# _framework density 22.247862999999999
#
# number of rings (size 3 to 8) (size 9 to 14) (size 15 to 20)
#    0.000    0.250    7.500    0.750    5.250    4.000 
#    0.000    4.375    0.000    0.000    0.000    0.000 
#    0.000    0.000    0.000    0.000    0.000    0.000 
#
# Total GULP energy -89288.819676 kJ/mol
# GULP energy per Si atom -5580.551230 kJ/mol
# Density = 2.219723 g / cm^3
# Si number density = 22.247863 Si / 1000 Ang^3
#
#
#
# Elastic Constant Matrix: (Units=GPa)
#
#
# Indices 1 2 3 4 5 6 
#
# 1 199.2766 91.4316 81.3292 -0.7410 0.2624 -6.4205
# 2 91.4316 173.3413 50.9618 -4.2067 -0.2560 -0.0616
# 3 81.3292 50.9618 96.8590 -9.7828 -2.3742 -0.7037
# 4 -0.7410 -4.2067 -9.7828 28.5065 -1.4205 0.5297
# 5 0.2624 -0.2560 -2.3742 -1.4205 75.6253 0.8425
# 6 -6.4205 -0.0616 -0.7037 0.5297 0.8425 2.3501
#
#
#
# Elastic Compliance Matrix: (Units=1/GPa)
#
#
# Indices 1 2 3 4 5 6 
#
# 1 0.010306 -0.003453 -0.006976 -0.003167 -0.000626 0.026915
# 2 -0.003453 0.007985 -0.001286 0.000836 0.000124 -0.009843
# 3 -0.006976 -0.001286 0.017364 0.005919 0.000849 -0.015532
# 4 -0.003167 0.000836 0.005919 0.037497 0.001079 -0.015697
# 5 -0.000626 0.000124 0.000849 0.001079 0.013345 -0.006479
# 6 0.026915 -0.009843 -0.015532 -0.015697 -0.006479 0.500007
#
#
# Mechanical properties :
#
#
# Convention : Reuss Voigt Hill
#
# Bulk Modulus (GPa) = 81.80057 101.88026 91.84041
# Shear Modulus (GPa) = 8.14318 37.68000 22.91159
#
# Velocity S-wave (km/s) = 1.91524 4.11986 3.21258
# Velocity P-wave (km/s) = 6.46054 8.27790 7.42503
#
# Compressibility (1/GPa) = 0.01222485
#
# Stress axis : x y z
#
# Youngs Moduli (GPa) = 97.03086 125.22712 57.58889
#
# Poissons Ratio (x) = 0.43244 0.40176
# Poissons Ratio (y) = 0.33507 0.07406
# Poissons Ratio (z) = 0.67692 0.16103
#
# Static dielectric constant tensor:
#      x y z
#    x 1.833630 -0.004100 0.003820 
#    y -0.004100 1.763360 0.002120 
#    z 0.003820 0.002120 1.981950 
# 
# From -- ./inp_files/135342.got.cif
#   From: 2010.05.17/outbox.cif.g08.bks.cpg/sg2_68_cif.got.tgz:135342.got - 2010.06.03 11:33:40.
