data_PCOD9061928
_publ_section_title
;
Structure prediction by ZEFSAII (Michael W. Deem and Ramdas Pophale) SiO2 
 PCOD9061928
Probable space group: P -1
;
_chemical_formula_sum "Si O2"
_cell_formula_units_Z 16
_cell_length_a 9.149591
_cell_length_b 8.112148
_cell_length_c 15.985561
_cell_angle_alpha 82.105373
_cell_angle_beta 145.845768
_cell_angle_gamma 92.323386
_cell_volume 654.081997
_symmetry_space_group_name_H-M "P -1"
_symmetry_group_IT_number 2
_symmetry_cell_setting 'triclinic'
loop_
_space_group_symop_operation_xyz
x,y,z
-x,-y,-z
loop_
_atom_site_type_symbol
_atom_site_label
_atom_site_fract_x
_atom_site_fract_y
_atom_site_fract_z
Si Si1 0.586127 0.002715 0.910220
Si Si2 0.051010 0.276109 0.972384
Si Si3 0.792314 0.482509 0.173349
Si Si4 0.906115 0.870801 0.219786
Si Si5 0.471785 0.841426 0.305106
Si Si6 0.641325 0.171531 0.434917
Si Si7 0.037423 0.658827 0.562642
Si Si8 0.913024 0.652082 0.832597
O O1 0.312474 0.046118 0.823892
O O2 0.554881 0.125739 0.808975
O O3 0.816245 0.990348 0.089801
O O4 0.676018 0.824579 0.921135
O O5 0.802412 0.227925 0.805218
O O6 0.043511 0.469483 0.937110
O O7 0.030428 0.243032 0.064510
O O8 0.869382 0.673878 0.200182
O O9 0.799788 0.407153 0.274790
O O10 0.969225 0.351820 0.204639
O O11 0.500000 0.500000 0.000000
O O12 0.184644 0.865279 0.397069
O O13 0.748668 0.728589 0.454716
O O14 0.504959 0.009546 0.358487
O O15 0.827331 0.216040 0.442797
O O16 0.403305 0.321354 0.324178
O O17 0.000000 0.500000 0.500000
#
# Coordination Sequence:
#
# PCOD9061928 Si02
#       8
#     2   2   2   2   2   2   2   2
#     4  11  23  46  74 102 149 188 244 304 366 435
#     4  11  25  46  76 109 142 197 252 300 367 439
#     4  12  29  47  74 111 149 193 250 304 369 433
#     4  11  26  45  72 109 146 192 239 311 366 433
#     4  12  26  45  75 107 145 196 245 303 366 442
#     4  12  26  47  75 109 149 196 245 301 377 433
#     4  12  26  48  75 109 149 198 246 305 363 444
#     4  11  27  47  77 105 150 196 246 305 365 441
#
# _framework density 24.461766000000001
#
# number of rings (size 3 to 8) (size 9 to 14) (size 15 to 20)
#    0.000    0.500    5.000    1.500    8.750    2.500 
#    0.000    1.250    0.000    0.000    0.000    0.000 
#    0.000    0.000    0.000    0.000    0.000    0.000 
#
# Total GULP energy -89415.601834 kJ/mol
# GULP energy per Si atom -5588.475115 kJ/mol
# Density = 2.440609 g / cm^3
# Si number density = 24.461766 Si / 1000 Ang^3
#
#
#
# Elastic Constant Matrix: (Units=GPa)
#
#
# Indices 1 2 3 4 5 6 
#
# 1 70.1180 18.1754 24.3718 4.0682 -6.0241 -24.4653
# 2 18.1754 68.9626 13.9065 9.1685 9.0573 -23.9914
# 3 24.3718 13.9065 179.9169 6.0876 -8.8500 -3.6402
# 4 4.0682 9.1685 6.0876 45.9152 -9.8153 5.5936
# 5 -6.0241 9.0573 -8.8500 -9.8153 49.3513 -14.8050
# 6 -24.4653 -23.9914 -3.6402 5.5936 -14.8050 40.5333
#
#
#
# Elastic Compliance Matrix: (Units=1/GPa)
#
#
# Indices 1 2 3 4 5 6 
#
# 1 0.020910 -0.000557 -0.002119 -0.001901 0.006295 0.014663
# 2 -0.000557 0.019795 -0.001113 -0.005485 -0.001550 0.011472
# 3 -0.002119 -0.001113 0.005943 -0.000099 0.000645 -0.001155
# 4 -0.001901 -0.005485 -0.000099 0.024637 0.003724 -0.006443
# 5 0.006295 -0.001550 0.000645 0.003724 0.025718 0.011820
# 6 0.014663 0.011472 -0.001155 -0.006443 0.011820 0.045414
#
#
# Mechanical properties :
#
#
# Convention : Reuss Voigt Hill
#
# Bulk Modulus (GPa) = 25.59459 47.98941 36.79200
# Shear Modulus (GPa) = 30.67154 44.66288 37.66721
#
# Velocity S-wave (km/s) = 3.54483 4.27760 3.92834
# Velocity P-wave (km/s) = 5.21921 6.63761 5.97068
#
# Compressibility (1/GPa) = 0.03907075
#
# Stress axis : x y z
#
# Youngs Moduli (GPa) = 47.82501 50.51674 168.26752
#
# Poissons Ratio (x) = 0.02812 0.35652
# Poissons Ratio (y) = 0.02662 0.18732
# Poissons Ratio (z) = 0.10133 0.05624
#
# Static dielectric constant tensor:
#      x y z
#    x 2.059550 -0.024460 0.015500 
#    y -0.024460 1.989570 0.019310 
#    z 0.015500 0.019310 1.936450 
# 
# From -- ./inp_files/495085.got.cif
#   From: 2010.05.17/outbox.cif.g08.bks.cpg/sg2_248_cif.got.tgz:495085.got - 2010.06.03 11:33:40.
