data_PCOD9061014
_publ_section_title
;
Structure prediction by ZEFSAII (Michael W. Deem and Ramdas Pophale) SiO2 
 PCOD9061014
Probable space group: P -1
;
_chemical_formula_sum "Si O2"
_cell_formula_units_Z 14
_cell_length_a 24.354015
_cell_length_b 7.769638
_cell_length_c 9.120432
_cell_angle_alpha 131.455731
_cell_angle_beta 36.239255
_cell_angle_gamma 145.971188
_cell_volume 570.814084
_symmetry_space_group_name_H-M "P -1"
_symmetry_group_IT_number 2
_symmetry_cell_setting 'triclinic'
loop_
_space_group_symop_operation_xyz
x,y,z
-x,-y,-z
loop_
_atom_site_type_symbol
_atom_site_label
_atom_site_fract_x
_atom_site_fract_y
_atom_site_fract_z
Si Si1 0.762453 0.245092 0.838132
Si Si2 0.032680 0.599183 0.657504
Si Si3 0.496161 0.996245 0.180564
Si Si4 0.529334 0.306596 0.543355
Si Si5 0.894009 0.002434 0.787572
Si Si6 0.667119 0.667674 0.883903
Si Si7 0.822241 0.790207 0.156275
O O1 0.843148 0.357896 0.582249
O O2 0.821490 0.512016 0.983659
O O3 0.629313 0.125589 0.019015
O O4 0.742916 0.961046 0.782505
O O5 0.000000 0.500000 0.500000
O O6 0.938919 0.327643 0.819254
O O7 0.085771 0.934831 0.774069
O O8 0.481484 0.203704 0.420177
O O9 0.388906 0.640834 0.252575
O O10 0.500000 0.000000 0.000000
O O11 0.447761 0.367125 0.830563
O O12 0.676417 0.604617 0.395862
O O13 0.500000 0.000000 0.500000
O O14 0.000000 0.000000 0.500000
O O15 0.761284 0.742884 0.849070
O O16 0.868767 0.946120 0.982972
#
# Coordination Sequence:
#
# PCOD9061014 Si02
#       7
#     2   2   2   2   2   2   2
#     4  11  23  44  71 107 146 181 244 293 359 436
#     4  12  26  47  74 104 136 201 245 290 360 428
#     4  11  25  42  71 109 147 185 232 299 363 425
#     4  11  24  44  74 110 143 185 238 294 367 436
#     4  12  27  50  71 105 148 193 248 298 355 428
#     4  12  24  45  75 106 146 191 238 295 361 426
#     4  11  25  47  73 103 151 180 237 315 355 422
#
# _framework density 24.526375000000002
#
# number of rings (size 3 to 8) (size 9 to 14) (size 15 to 20)
#    0.000    0.571    5.714    3.429    2.000    4.000 
#    2.571    0.000    0.000    0.000    0.000    0.000 
#    0.000    0.000    0.000    0.000    0.000    0.000 
#
# Total GULP energy -78322.384988 kJ/mol
# GULP energy per Si atom -5594.456071 kJ/mol
# Density = 2.447055 g / cm^3
# Si number density = 24.526375 Si / 1000 Ang^3
#
#
#
# Elastic Constant Matrix: (Units=GPa)
#
#
# Indices 1 2 3 4 5 6 
#
# 1 76.6588 44.4051 24.6306 7.0668 17.9296 1.3110
# 2 44.4051 201.2921 34.7236 7.5356 15.8751 12.5501
# 3 24.6306 34.7236 106.3353 -13.7781 5.0724 7.1853
# 4 7.0668 7.5356 -13.7781 46.7959 -0.2218 10.2372
# 5 17.9296 15.8751 5.0724 -0.2218 42.4537 -2.0947
# 6 1.3110 12.5501 7.1853 10.2372 -2.0947 43.6414
#
#
#
# Elastic Compliance Matrix: (Units=1/GPa)
#
#
# Indices 1 2 3 4 5 6 
#
# 1 0.017400 -0.002742 -0.003403 -0.003515 -0.005867 0.001369
# 2 -0.002742 0.005975 -0.001261 -0.000634 -0.000994 -0.001327
# 3 -0.003403 -0.001261 0.011344 0.004597 0.000456 -0.002459
# 4 -0.003515 -0.000634 0.004597 0.024721 0.000994 -0.006220
# 5 -0.005867 -0.000994 0.000456 0.000994 0.026426 0.001422
# 6 0.001369 -0.001327 -0.002459 -0.006220 0.001422 0.025187
#
#
# Mechanical properties :
#
#
# Convention : Reuss Voigt Hill
#
# Bulk Modulus (GPa) = 50.23433 65.75610 57.99522
# Shear Modulus (GPa) = 37.73547 45.27999 41.50773
#
# Velocity S-wave (km/s) = 3.92671 4.30138 4.11831
# Velocity P-wave (km/s) = 6.40976 7.17897 6.80524
#
# Compressibility (1/GPa) = 0.01990670
#
# Stress axis : x y z
#
# Youngs Moduli (GPa) = 57.47252 167.35545 88.14985
#
# Poissons Ratio (x) = 0.45896 0.29996
# Poissons Ratio (y) = 0.15761 0.11115
# Poissons Ratio (z) = 0.19557 0.21103
#
# Static dielectric constant tensor:
#      x y z
#    x 2.040150 -0.019310 -0.013790 
#    y -0.019310 1.999600 -0.033850 
#    z -0.013790 -0.033850 2.024560 
# 
# From -- ./inp_files/356527.got.cif
#   From: 2010.05.17/outbox.cif.g08.bks.cpg/sg2_179_cif.got.tgz:356527.got - 2010.06.03 11:33:40.
