data_PCOD9061472
_publ_section_title
;
Structure prediction by ZEFSAII (Michael W. Deem and Ramdas Pophale) SiO2 
 PCOD9061472
Probable space group: P -1
;
_chemical_formula_sum "Si O2"
_cell_formula_units_Z 14
_cell_length_a 9.098340
_cell_length_b 14.883612
_cell_length_c 11.598735
_cell_angle_alpha 49.037005
_cell_angle_beta 62.977355
_cell_angle_gamma 30.300358
_cell_volume 572.120577
_symmetry_space_group_name_H-M "P -1"
_symmetry_group_IT_number 2
_symmetry_cell_setting 'triclinic'
loop_
_space_group_symop_operation_xyz
x,y,z
-x,-y,-z
loop_
_atom_site_type_symbol
_atom_site_label
_atom_site_fract_x
_atom_site_fract_y
_atom_site_fract_z
Si Si1 0.951251 0.409349 0.025297
Si Si2 0.114430 0.113719 0.869559
Si Si3 0.496296 0.106956 0.697448
Si Si4 0.662194 0.213589 0.393834
Si Si5 0.675357 0.280717 0.077521
Si Si6 0.538036 0.440196 0.669297
Si Si7 0.668623 0.689092 0.172505
O O1 0.178725 0.163112 0.185491
O O2 0.042057 0.398663 0.872477
O O3 0.000000 0.500000 0.000000
O O4 0.592265 0.610648 0.993978
O O5 0.210852 0.188275 0.732786
O O6 0.894372 0.192929 0.781495
O O7 0.935484 0.179173 0.992612
O O8 0.442886 0.873735 0.999079
O O9 0.491027 0.200603 0.513611
O O10 0.467953 0.201819 0.744632
O O11 0.713444 0.184944 0.261996
O O12 0.529138 0.413320 0.337267
O O13 0.000000 0.000000 0.500000
O O14 0.500000 0.500000 0.000000
O O15 0.500000 0.500000 0.500000
O O16 0.315041 0.460797 0.732695
#
# Coordination Sequence:
#
# PCOD9061472 Si02
#       7
#     2   2   2   2   2   2   2
#     4  11  25  44  72 106 139 183 241 299 347 418
#     4  11  24  45  74 105 139 188 238 287 352 429
#     4  11  25  48  71 104 146 185 230 294 362 423
#     4  12  27  46  73 102 149 186 238 293 358 415
#     4  12  23  44  76 104 138 189 243 285 351 421
#     4  12  26  44  70 105 145 188 233 295 354 417
#     4  11  23  45  71 103 143 182 238 287 355 426
#
# _framework density 24.470368000000001
#
# number of rings (size 3 to 8) (size 9 to 14) (size 15 to 20)
#    0.000    0.571    2.857    6.429    2.000    2.857 
#    0.000    0.714    0.000    0.000    0.000    0.000 
#    0.000    0.000    0.000    0.000    0.000    0.000 
#
# Total GULP energy -78070.321215 kJ/mol
# GULP energy per Si atom -5576.451515 kJ/mol
# Density = 2.441467 g / cm^3
# Si number density = 24.470368 Si / 1000 Ang^3
#
#
#
# Elastic Constant Matrix: (Units=GPa)
#
#
# Indices 1 2 3 4 5 6 
#
# 1 100.5912 16.5530 23.8236 20.8846 -22.6317 -8.4981
# 2 16.5530 77.1057 27.9243 28.3694 -7.0737 -14.0821
# 3 23.8236 27.9243 145.1380 41.9471 -17.1962 0.5801
# 4 20.8846 28.3694 41.9471 37.1731 -7.0611 -0.5952
# 5 -22.6317 -7.0737 -17.1962 -7.0611 54.2228 11.0439
# 6 -8.4981 -14.0821 0.5801 -0.5952 11.0439 43.1558
#
#
#
# Elastic Compliance Matrix: (Units=1/GPa)
#
#
# Indices 1 2 3 4 5 6 
#
# 1 0.012240 0.000353 0.000353 -0.006742 0.004108 0.001376
# 2 0.000353 0.019629 0.000696 -0.015947 -0.000443 0.006359
# 3 0.000353 0.000696 0.010456 -0.012142 0.002084 -0.000545
# 4 -0.006742 -0.015947 -0.012142 0.056420 -0.000274 -0.005520
# 5 0.004108 -0.000443 0.002084 -0.000274 0.021728 -0.004928
# 6 0.001376 0.006359 -0.000545 -0.005520 -0.004928 0.026710
#
#
# Mechanical properties :
#
#
# Convention : Reuss Voigt Hill
#
# Bulk Modulus (GPa) = 22.15788 51.04851 36.60320
# Shear Modulus (GPa) = 31.36324 43.87926 37.62125
#
# Velocity S-wave (km/s) = 3.58394 4.23916 3.92525
# Velocity P-wave (km/s) = 5.11868 6.69831 5.96105
#
# Compressibility (1/GPa) = 0.04513067
#
# Stress axis : x y z
#
# Youngs Moduli (GPa) = 81.69992 50.94444 95.63576
#
# Poissons Ratio (x) = -0.01801 -0.03373
# Poissons Ratio (y) = -0.02888 -0.06661
# Poissons Ratio (z) = -0.02881 -0.03548
#
# Static dielectric constant tensor:
#      x y z
#    x 1.881650 0.019090 -0.056930 
#    y 0.019090 2.766190 0.487930 
#    z -0.056930 0.487930 2.357670 
# 
# From -- ./inp_files/398551.got.cif
#   From: 2010.05.17/outbox.cif.g08.bks.cpg/sg2_200_cif.got.tgz:398551.got - 2010.06.03 11:33:40.
