data_PCOD9061939
_publ_section_title
;
Structure prediction by ZEFSAII (Michael W. Deem and Ramdas Pophale) SiO2 
 PCOD9061939
Probable space group: P -1
;
_chemical_formula_sum "Si O2"
_cell_formula_units_Z 13
_cell_length_a 7.268764
_cell_length_b 11.933839
_cell_length_c 9.410008
_cell_angle_alpha 145.433002
_cell_angle_beta 82.523195
_cell_angle_gamma 90.773527
_cell_volume 452.777721
_symmetry_space_group_name_H-M "P -1"
_symmetry_group_IT_number 2
_symmetry_cell_setting 'triclinic'
loop_
_space_group_symop_operation_xyz
x,y,z
-x,-y,-z
loop_
_atom_site_type_symbol
_atom_site_label
_atom_site_fract_x
_atom_site_fract_y
_atom_site_fract_z
Si Si1 0.545317 0.382851 0.018705
Si Si2 0.675499 0.583985 0.664446
Si Si3 0.713759 0.157992 0.150678
Si Si4 0.000000 0.500000 0.500000
Si Si5 0.432877 0.955770 0.659109
Si Si6 0.178509 0.223201 0.444014
Si Si7 0.874704 0.198228 0.662516
O O1 0.443114 0.502945 0.286163
O O2 0.500000 0.500000 0.000000
O O3 0.471156 0.171636 0.828888
O O4 0.772094 0.332361 0.940342
O O5 0.822035 0.343573 0.368448
O O6 0.485641 0.722536 0.764328
O O7 0.863255 0.636696 0.776848
O O8 0.664238 0.045526 0.178082
O O9 0.816666 0.994322 0.860816
O O10 0.817556 0.629397 0.537960
O O11 0.637650 0.821266 0.522463
O O12 0.000850 0.287952 0.629067
O O13 0.296785 0.871657 0.477491
O O14 0.000000 0.000000 0.500000
#
# Coordination Sequence:
#
# PCOD9061939 Si02
#       7
#     2   2   2   1   2   2   2
#     4  12  25  47  73 106 150 199 252 306 370 448
#     4  11  24  43  72 108 151 193 247 313 365 450
#     4  11  23  46  74 106 150 197 240 308 396 436
#     4  12  24  42  72 116 146 184 258 306 370 460
#     4  12  24  46  78 103 153 201 235 320 382 428
#     4  12  25  47  75 114 151 194 248 310 377 456
#     4  12  27  48  77 107 144 202 260 296 369 459
#
# _framework density 28.711660999999999
#
# number of rings (size 3 to 8) (size 9 to 14) (size 15 to 20)
#    0.000    0.308    4.615    4.615    0.000    3.692 
#    0.000    0.769    0.000    0.000    0.000    0.000 
#    0.000    0.000    0.000    0.000    0.000    0.000 
#
# Total GULP energy -72609.922008 kJ/mol
# GULP energy per Si atom -5585.378616 kJ/mol
# Density = 2.864631 g / cm^3
# Si number density = 28.711661 Si / 1000 Ang^3
#
#
#
# Elastic Constant Matrix: (Units=GPa)
#
#
# Indices 1 2 3 4 5 6 
#
# 1 201.7174 61.7573 63.9678 -1.6890 -24.0042 11.8036
# 2 61.7573 216.8422 41.1229 28.1358 -10.2462 9.1536
# 3 63.9678 41.1229 94.7055 10.4054 -22.1442 14.7586
# 4 -1.6890 28.1358 10.4054 54.0803 9.7402 -12.4385
# 5 -24.0042 -10.2462 -22.1442 9.7402 68.4365 -6.7435
# 6 11.8036 9.1536 14.7586 -12.4385 -6.7435 65.9973
#
#
#
# Elastic Compliance Matrix: (Units=1/GPa)
#
#
# Indices 1 2 3 4 5 6 
#
# 1 0.006720 -0.001342 -0.004023 0.001624 0.000648 0.000256
# 2 -0.001342 0.005630 -0.000974 -0.003054 0.000407 -0.000857
# 3 -0.004023 -0.000974 0.015464 -0.003946 0.003716 -0.002968
# 4 0.001624 -0.003054 -0.003946 0.022722 -0.003916 0.004898
# 5 0.000648 0.000407 0.003716 -0.003916 0.016656 -0.000040
# 6 0.000256 -0.000857 -0.002968 0.004898 -0.000040 0.016808
#
#
# Mechanical properties :
#
#
# Convention : Reuss Voigt Hill
#
# Bulk Modulus (GPa) = 66.06495 94.10679 80.08587
# Shear Modulus (GPa) = 49.15304 60.79729 54.97516
#
# Velocity S-wave (km/s) = 4.14207 4.60664 4.38051
# Velocity P-wave (km/s) = 6.77756 7.81936 7.31703
#
# Compressibility (1/GPa) = 0.01513662
#
# Stress axis : x y z
#
# Youngs Moduli (GPa) = 148.81557 177.61235 64.66559
#
# Poissons Ratio (x) = 0.23832 0.26014
# Poissons Ratio (y) = 0.19968 0.06299
# Poissons Ratio (z) = 0.59867 0.17301
#
# Static dielectric constant tensor:
#      x y z
#    x 2.274430 0.015630 0.015470 
#    y 0.015630 2.225790 -0.075820 
#    z 0.015470 -0.075820 2.727020 
# 
# From -- ./inp_files/386275.got.cif
#   From: 2010.05.17/outbox.cif.g08.bks.cpg/sg2_194_cif.got.tgz:386275.got - 2010.06.03 11:33:40.
