data_PCOD9061147
_publ_section_title
;
Structure prediction by ZEFSAII (Michael W. Deem and Ramdas Pophale) SiO2 
 PCOD9061147
Probable space group: P -1
;
_chemical_formula_sum "Si O2"
_cell_formula_units_Z 16
_cell_length_a 23.823622
_cell_length_b 12.306927
_cell_length_c 5.187802
_cell_angle_alpha 56.239277
_cell_angle_beta 54.745921
_cell_angle_gamma 30.506471
_cell_volume 624.231751
_symmetry_space_group_name_H-M "P -1"
_symmetry_group_IT_number 2
_symmetry_cell_setting 'triclinic'
loop_
_space_group_symop_operation_xyz
x,y,z
-x,-y,-z
loop_
_atom_site_type_symbol
_atom_site_label
_atom_site_fract_x
_atom_site_fract_y
_atom_site_fract_z
Si Si1 0.181188 0.128143 0.455671
Si Si2 0.362996 0.938887 0.859162
Si Si3 0.697058 0.551795 0.296870
Si Si4 0.066083 0.957300 0.624655
Si Si5 0.576025 0.665556 0.943725
Si Si6 0.390174 0.670643 0.753583
Si Si7 0.236163 0.302777 0.383373
Si Si8 0.000908 0.649791 0.693244
O O1 0.189283 0.243241 0.453766
O O2 0.052985 0.280883 0.543990
O O3 0.272863 0.888789 0.639363
O O4 0.238868 0.082335 0.092918
O O5 0.441451 0.857848 0.998728
O O6 0.409819 0.745435 0.828379
O O7 0.346039 0.088709 0.526743
O O8 0.806378 0.292638 0.368957
O O9 0.632511 0.675199 0.573692
O O10 0.614664 0.625418 0.186319
O O11 0.739781 0.624721 0.981248
O O12 0.068884 0.111350 0.364656
O O13 0.000000 0.000000 0.500000
O O14 0.000000 0.000000 0.000000
O O15 0.623033 0.459027 0.970657
O O16 0.500000 0.500000 0.500000
O O17 0.129490 0.505983 0.570463
O O18 0.000000 0.500000 0.000000
#
# Coordination Sequence:
#
# PCOD9061147 Si02
#       8
#     2   2   2   2   2   2   2   2
#     4  11  25  44  75 106 147 189 259 312 385 453
#     4  11  25  44  72 109 144 194 251 315 377 454
#     4  12  29  49  76 109 153 203 248 310 383 465
#     4  12  28  51  81 113 158 203 255 318 392 460
#     4  12  27  45  76 108 150 196 251 301 384 456
#     4  11  23  44  73 106 149 190 243 321 383 449
#     4  11  27  48  72 105 152 198 253 320 382 450
#     4  12  26  46  80 113 146 203 259 322 386 459
#
# _framework density 25.631506999999999
#
# number of rings (size 3 to 8) (size 9 to 14) (size 15 to 20)
#    0.000    0.500    3.750    3.000    8.750    2.000 
#    0.000    0.000    0.000    0.000    0.000    0.000 
#    0.000    0.000    0.000    0.000    0.000    0.000 
#
# Total GULP energy -89483.708188 kJ/mol
# GULP energy per Si atom -5592.731762 kJ/mol
# Density = 2.557317 g / cm^3
# Si number density = 25.631507 Si / 1000 Ang^3
#
#
#
# Elastic Constant Matrix: (Units=GPa)
#
#
# Indices 1 2 3 4 5 6 
#
# 1 118.4900 32.5357 10.6354 -22.8039 27.0603 -11.7491
# 2 32.5357 99.4782 12.6750 -20.8595 5.2472 -9.1070
# 3 10.6354 12.6750 87.9433 -6.6606 -7.3193 3.2165
# 4 -22.8039 -20.8595 -6.6606 55.8471 3.1268 1.4923
# 5 27.0603 5.2472 -7.3193 3.1268 41.7377 -3.0467
# 6 -11.7491 -9.1070 3.2165 1.4923 -3.0467 43.6480
#
#
#
# Elastic Compliance Matrix: (Units=1/GPa)
#
#
# Indices 1 2 3 4 5 6 
#
# 1 0.012053 -0.002223 -0.001556 0.004294 -0.007970 0.002192
# 2 -0.002223 0.011829 -0.001283 0.003331 -0.000387 0.001823
# 3 -0.001556 -0.001283 0.012072 0.000184 0.003174 -0.001361
# 4 0.004294 0.003331 0.000184 0.021167 -0.004699 0.000785
# 5 -0.007970 -0.000387 0.003174 -0.004699 0.030069 -0.000200
# 6 0.002192 0.001823 -0.001361 0.000785 -0.000200 0.023941
#
#
# Mechanical properties :
#
#
# Convention : Reuss Voigt Hill
#
# Bulk Modulus (GPa) = 38.71201 46.40042 42.55621
# Shear Modulus (GPa) = 38.50225 44.91758 41.70991
#
# Velocity S-wave (km/s) = 3.87996 4.19075 4.03835
# Velocity P-wave (km/s) = 5.93365 6.44661 6.19544
#
# Compressibility (1/GPa) = 0.02583178
#
# Stress axis : x y z
#
# Youngs Moduli (GPa) = 82.96549 84.54116 82.83755
#
# Poissons Ratio (x) = 0.18790 0.12886
# Poissons Ratio (y) = 0.18440 0.10626
# Poissons Ratio (z) = 0.12906 0.10844
#
# Static dielectric constant tensor:
#      x y z
#    x 2.005170 -0.006240 -0.041120 
#    y -0.006240 2.067790 0.027590 
#    z -0.041120 0.027590 2.142820 
# 
# From -- ./inp_files/123565.got.cif
#   From: 2010.05.17/outbox.cif.g08.bks.cpg/sg2_62_cif.got.tgz:123565.got - 2010.06.03 11:33:40.
