data_PCOD9061540
_publ_section_title
;
Structure prediction by ZEFSAII (Michael W. Deem and Ramdas Pophale) SiO2 
 PCOD9061540
Probable space group: P -1
;
_chemical_formula_sum "Si O2"
_cell_formula_units_Z 12
_cell_length_a 9.912762
_cell_length_b 13.917161
_cell_length_c 13.737627
_cell_angle_alpha 147.427051
_cell_angle_beta 130.306412
_cell_angle_gamma 34.455554
_cell_volume 570.057978
_symmetry_space_group_name_H-M "P -1"
_symmetry_group_IT_number 2
_symmetry_cell_setting 'triclinic'
loop_
_space_group_symop_operation_xyz
x,y,z
-x,-y,-z
loop_
_atom_site_type_symbol
_atom_site_label
_atom_site_fract_x
_atom_site_fract_y
_atom_site_fract_z
Si Si1 0.763726 0.595767 0.533336
Si Si2 0.897723 0.565672 0.117946
Si Si3 0.791907 0.041805 0.502568
Si Si4 0.579818 0.467945 0.899293
Si Si5 0.198178 0.799720 0.845637
Si Si6 0.739659 0.867161 0.938888
O O1 0.480024 0.798055 0.535367
O O2 0.833112 0.340779 0.363988
O O3 0.760330 0.720580 0.732862
O O4 0.000000 0.500000 0.500000
O O5 0.049004 0.331381 0.058175
O O6 0.880653 0.777238 0.331200
O O7 0.650626 0.626005 0.050979
O O8 0.000000 0.500000 0.000000
O O9 0.763005 0.187436 0.708907
O O10 0.000000 0.000000 0.500000
O O11 0.375414 0.588246 0.826063
O O12 0.500000 0.500000 0.000000
O O13 0.266261 0.927915 0.927654
O O14 0.000000 0.000000 0.000000
O O15 0.500000 0.000000 0.000000
#
# Coordination Sequence:
#
# PCOD9061540 Si02
#       6
#     2   2   2   2   2   2
#     4  11  25  47  74 105 144 188 237 293 360 426
#     4  12  25  46  72 100 144 186 239 297 357 428
#     4  11  25  47  74 101 144 190 236 294 358 424
#     4  11  25  43  72 106 139 186 240 292 356 422
#     4  11  23  45  72  99 146 184 235 294 356 427
#     4  12  27  44  72 106 139 191 239 294 362 422
#
# _framework density 21.050491000000001
#
# number of rings (size 3 to 8) (size 9 to 14) (size 15 to 20)
#    0.000    0.667    3.333    4.000    4.667    4.000 
#    0.000    0.000    0.000    0.000    0.000    0.000 
#    0.000    0.000    0.000    0.000    0.000    0.000 
#
# Total GULP energy -66840.711748 kJ/mol
# GULP energy per Si atom -5570.059312 kJ/mol
# Density = 2.100258 g / cm^3
# Si number density = 21.050491 Si / 1000 Ang^3
#
#
#
# Elastic Constant Matrix: (Units=GPa)
#
#
# Indices 1 2 3 4 5 6 
#
# 1 145.4707 -4.1910 74.1900 4.4513 -19.5886 15.6052
# 2 -4.1910 48.1994 3.1466 -0.0559 -14.6678 8.0724
# 3 74.1900 3.1466 193.7804 11.6005 3.5021 26.7926
# 4 4.4513 -0.0559 11.6005 30.8681 3.4223 1.0716
# 5 -19.5886 -14.6678 3.5021 3.4223 33.8653 2.6043
# 6 15.6052 8.0724 26.7926 1.0716 2.6043 36.1176
#
#
#
# Elastic Compliance Matrix: (Units=1/GPa)
#
#
# Indices 1 2 3 4 5 6 
#
# 1 0.010441 0.004340 -0.003708 -0.000948 0.008654 -0.003327
# 2 0.004340 0.027183 -0.001160 -0.001542 0.015185 -0.008139
# 3 -0.003708 -0.001160 0.007201 -0.001733 -0.002969 -0.003215
# 4 -0.000948 -0.001542 -0.001733 0.033637 -0.004542 0.001369
# 5 0.008654 0.015185 -0.002969 -0.004542 0.042482 -0.007859
# 6 -0.003327 -0.008139 -0.003215 0.001369 -0.007859 0.033855
#
#
# Mechanical properties :
#
#
# Convention : Reuss Voigt Hill
#
# Bulk Modulus (GPa) = 22.84699 59.30465 41.07582
# Shear Modulus (GPa) = 29.33517 41.12387 35.22952
#
# Velocity S-wave (km/s) = 3.73709 4.42473 4.09537
# Velocity P-wave (km/s) = 5.43122 7.37143 6.47442
#
# Compressibility (1/GPa) = 0.04376943
#
# Stress axis : x y z
#
# Youngs Moduli (GPa) = 95.77219 36.78820 138.87493
#
# Poissons Ratio (x) = -0.15965 0.51491
# Poissons Ratio (y) = -0.41562 0.16104
# Poissons Ratio (z) = 0.35509 0.04266
#
# Static dielectric constant tensor:
#      x y z
#    x 1.807800 -0.072120 0.152570 
#    y -0.072120 1.664710 0.018500 
#    z 0.152570 0.018500 2.125580 
# 
# From -- ./inp_files/152009.got.cif
#   From: 2010.05.17/outbox.cif.g08.bks.cpg/sg2_77_cif.got.tgz:152009.got - 2010.06.03 11:33:40.
