data_PCOD9061102
_publ_section_title
;
Structure prediction by ZEFSAII (Michael W. Deem and Ramdas Pophale) SiO2 
 PCOD9061102
Probable space group: P -1
;
_chemical_formula_sum "Si O2"
_cell_formula_units_Z 16
_cell_length_a 8.905166
_cell_length_b 15.428896
_cell_length_c 9.542815
_cell_angle_alpha 144.405416
_cell_angle_beta 102.414036
_cell_angle_gamma 67.306680
_cell_volume 692.065655
_symmetry_space_group_name_H-M "P -1"
_symmetry_group_IT_number 2
_symmetry_cell_setting 'triclinic'
loop_
_space_group_symop_operation_xyz
x,y,z
-x,-y,-z
loop_
_atom_site_type_symbol
_atom_site_label
_atom_site_fract_x
_atom_site_fract_y
_atom_site_fract_z
Si Si1 0.835092 0.605575 0.836835
Si Si2 0.286955 0.755581 0.384193
Si Si3 0.431661 0.393244 0.549968
Si Si4 0.454951 0.700620 0.847647
Si Si5 0.221541 0.904689 0.269104
Si Si6 0.882761 0.897331 0.068663
Si Si7 0.061605 0.269262 0.710232
Si Si8 0.126956 0.292322 0.434729
O O1 0.646665 0.622796 0.827154
O O2 0.954791 0.442310 0.575716
O O3 0.840858 0.756905 0.950854
O O4 0.904579 0.616741 0.019661
O O5 0.454271 0.636287 0.329252
O O6 0.291034 0.791431 0.267666
O O7 0.131994 0.700863 0.302636
O O8 0.238661 0.926784 0.678632
O O9 0.375926 0.574664 0.720872
O O10 0.541764 0.291388 0.308522
O O11 0.277923 0.341793 0.481145
O O12 0.362025 0.863732 0.125405
O O13 0.063357 0.881948 0.137871
O O14 0.151869 0.087625 0.546865
O O15 0.877300 0.858056 0.852123
O O16 0.136747 0.264932 0.566601
#
# Coordination Sequence:
#
# PCOD9061102 Si02
#       8
#     2   2   2   2   2   2   2   2
#     4  12  23  47  68  96 136 176 226 270 328 397
#     4  11  24  46  70  99 137 173 220 277 327 398
#     4  11  27  45  65 102 136 170 224 276 335 392
#     4  11  27  44  69  98 133 178 218 278 334 392
#     4  11  24  45  72  96 137 178 217 273 334 392
#     4  11  23  44  72  97 132 178 225 269 329 394
#     4  11  25  45  69 103 131 178 224 269 330 396
#     4  12  27  42  71 100 133 179 221 277 328 392
#
# _framework density 23.119194
#
# number of rings (size 3 to 8) (size 9 to 14) (size 15 to 20)
#    0.000    0.750    3.750    3.000    8.750    3.500 
#    0.000    0.000    0.000    0.000    0.000    0.000 
#    0.000    0.000    0.000    0.000    0.000    0.000 
#
# Total GULP energy -89632.805728 kJ/mol
# GULP energy per Si atom -5602.050358 kJ/mol
# Density = 2.306657 g / cm^3
# Si number density = 23.119194 Si / 1000 Ang^3
#
#
#
# Elastic Constant Matrix: (Units=GPa)
#
#
# Indices 1 2 3 4 5 6 
#
# 1 51.7153 19.5544 7.1870 -0.6711 -6.0691 -1.9818
# 2 19.5544 75.7292 -3.1349 -21.3016 6.5172 0.2936
# 3 7.1870 -3.1349 83.1666 -19.2459 -3.3777 0.9614
# 4 -0.6711 -21.3016 -19.2459 38.2564 0.6153 -1.5560
# 5 -6.0691 6.5172 -3.3777 0.6153 23.1412 -1.9928
# 6 -1.9818 0.2936 0.9614 -1.5560 -1.9928 30.3321
#
#
#
# Elastic Compliance Matrix: (Units=1/GPa)
#
#
# Indices 1 2 3 4 5 6 
#
# 1 0.024247 -0.008978 -0.003594 -0.006439 0.008709 0.002027
# 2 -0.008978 0.020119 0.004305 0.013306 -0.007811 -0.000748
# 3 -0.003594 0.004305 0.014743 0.009745 -0.000285 -0.000263
# 4 -0.006439 0.013306 0.009745 0.038450 -0.004968 0.000788
# 5 0.008709 -0.007811 -0.000285 -0.004968 0.048094 0.003559
# 6 0.002027 -0.000748 -0.000263 0.000788 0.003559 0.033391
#
#
# Mechanical properties :
#
#
# Convention : Reuss Voigt Hill
#
# Bulk Modulus (GPa) = 23.48761 28.64713 26.06737
# Shear Modulus (GPa) = 23.83556 30.81291 27.32424
#
# Velocity S-wave (km/s) = 3.21438 3.65469 3.44159
# Velocity P-wave (km/s) = 4.89466 5.49791 5.20503
#
# Compressibility (1/GPa) = 0.04257564
#
# Stress axis : x y z
#
# Youngs Moduli (GPa) = 41.24201 49.70313 67.82655
#
# Poissons Ratio (x) = 0.44626 0.24375
# Poissons Ratio (y) = 0.37029 -0.29199
# Poissons Ratio (z) = 0.14821 -0.21397
#
# Static dielectric constant tensor:
#      x y z
#    x 1.810200 0.020070 -0.001120 
#    y 0.020070 1.893970 -0.005270 
#    z -0.001120 -0.005270 1.880880 
# 
# From -- ./inp_files/205387.got.cif
#   From: 2010.05.17/outbox.cif.g08.bks.cpg/sg2_103_cif.got.tgz:205387.got - 2010.06.03 11:33:40.
