data_PCOD9061183
_publ_section_title
;
Structure prediction by ZEFSAII (Michael W. Deem and Ramdas Pophale) SiO2 
 PCOD9061183
Probable space group: P -1
;
_chemical_formula_sum "Si O2"
_cell_formula_units_Z 16
_cell_length_a 16.717223
_cell_length_b 15.403611
_cell_length_c 15.276799
_cell_angle_alpha 19.613767
_cell_angle_beta 144.081299
_cell_angle_gamma 144.752767
_cell_volume 745.177965
_symmetry_space_group_name_H-M "P -1"
_symmetry_group_IT_number 2
_symmetry_cell_setting 'triclinic'
loop_
_space_group_symop_operation_xyz
x,y,z
-x,-y,-z
loop_
_atom_site_type_symbol
_atom_site_label
_atom_site_fract_x
_atom_site_fract_y
_atom_site_fract_z
Si Si1 0.751175 0.693788 0.237753
Si Si2 0.425203 0.875919 0.308391
Si Si3 0.136774 0.416939 0.739265
Si Si4 0.953797 0.923004 0.850470
Si Si5 0.865259 0.942740 0.495847
Si Si6 0.858852 0.483736 0.063731
Si Si7 0.698902 0.167077 0.367846
Si Si8 0.549668 0.800640 0.297624
O O1 0.681249 0.405039 0.490740
O O2 0.772942 0.663579 0.181673
O O3 0.912015 0.829238 0.280986
O O4 0.658142 0.896108 0.986392
O O5 0.495200 0.831901 0.318928
O O6 0.544172 0.973989 0.396811
O O7 0.245079 0.652857 0.667683
O O8 0.000000 0.500000 0.500000
O O9 0.072290 0.177075 0.978147
O O10 0.812054 0.993483 0.627235
O O11 0.972579 0.671870 0.050174
O O12 0.719223 0.896752 0.358958
O O13 0.890360 0.216488 0.312381
O O14 0.845494 0.677281 0.789332
O O15 0.000000 0.000000 0.500000
O O16 0.723025 0.373571 0.110890
O O17 0.500000 0.500000 0.500000
O O18 0.500000 0.000000 0.000000
#
# Coordination Sequence:
#
# PCOD9061183 Si02
#       8
#     2   2   2   2   2   2   2   2
#     4  12  28  45  71 111 154 186 247 303 351 440
#     4  12  29  48  71 107 152 191 239 299 376 432
#     4  11  24  45  76 110 148 194 250 301 363 418
#     4  11  24  45  77 101 141 201 246 296 358 421
#     4  12  26  46  75 107 141 179 245 309 361 439
#     4  11  23  44  74 103 142 182 248 289 364 430
#     4  11  25  46  79  99 145 206 239 293 362 437
#     4  12  27  50  75 103 147 195 235 298 375 441
#
# _framework density 21.47138
#
# number of rings (size 3 to 8) (size 9 to 14) (size 15 to 20)
#    0.000    0.500    3.750    3.000    8.750    4.000 
#    0.000    0.000    0.000    0.000    0.000    0.000 
#    0.000    0.000    0.000    0.000    0.000    0.000 
#
# Total GULP energy -89449.302197 kJ/mol
# GULP energy per Si atom -5590.581387 kJ/mol
# Density = 2.142251 g / cm^3
# Si number density = 21.471380 Si / 1000 Ang^3
#
#
#
# Elastic Constant Matrix: (Units=GPa)
#
#
# Indices 1 2 3 4 5 6 
#
# 1 71.9384 80.1912 39.9829 3.4709 14.0369 1.6351
# 2 80.1912 -3.8163 0.4247 -30.1790 -24.9868 -6.3374
# 3 39.9829 0.4247 120.0850 -10.4980 -17.0427 0.5934
# 4 3.4709 -30.1790 -10.4980 44.2330 -8.5063 3.5522
# 5 14.0369 -24.9868 -17.0427 -8.5063 36.7067 -13.6893
# 6 1.6351 -6.3374 0.5934 3.5522 -13.6893 33.2409
#
#
#
# Elastic Compliance Matrix: (Units=1/GPa)
#
#
# Indices 1 2 3 4 5 6 
#
# 1 0.004385 0.007375 -0.000228 0.005475 0.005592 0.002912
# 2 0.007375 -0.002649 -0.004149 -0.004810 -0.009179 -0.004060
# 3 -0.000228 -0.004149 0.008495 -0.000587 0.000882 -0.000505
# 4 0.005475 -0.004810 -0.000587 0.018536 -0.002980 -0.004384
# 5 0.005592 -0.009179 0.000882 -0.002980 0.021187 0.007003
# 6 0.002912 -0.004060 -0.000505 -0.004384 0.007003 0.032528
#
#
# Mechanical properties :
#
#
# Convention : Reuss Voigt Hill
#
# Bulk Modulus (GPa) = 61.63334 47.71165 54.67250
# Shear Modulus (GPa) = 61.05422 27.34333 44.19877
#
# Velocity S-wave (km/s) = 5.33825 3.57245 4.54199
# Velocity P-wave (km/s) = 8.17087 6.26784 7.28179
#
# Compressibility (1/GPa) = 0.01622498
#
# Stress axis : x y z
#
# Youngs Moduli (GPa) = 228.03933 -377.44253 117.72264
#
# Poissons Ratio (x) = 2.78360 0.02687
# Poissons Ratio (y) = -1.68177 0.48847
# Poissons Ratio (z) = 0.05206 -1.56612
#
# Static dielectric constant tensor:
#      x y z
#    x 1.793960 -0.032410 0.009620 
#    y -0.032410 1.792450 -0.027500 
#    z 0.009620 -0.027500 1.782100 
# 
# From -- ./inp_files/534033.got.cif
#   From: 2010.05.17/outbox.cif.g08.bks.cpg/sg2_268_cif.got.tgz:534033.got - 2010.06.03 11:33:40.
