data_PCOD9061650
_publ_section_title
;
Structure prediction by ZEFSAII (Michael W. Deem and Ramdas Pophale) SiO2 
 PCOD9061650
Probable space group: P -1
;
_chemical_formula_sum "Si O2"
_cell_formula_units_Z 15
_cell_length_a 6.511046
_cell_length_b 9.115106
_cell_length_c 24.028057
_cell_angle_alpha 37.398704
_cell_angle_beta 56.605831
_cell_angle_gamma 76.433383
_cell_volume 662.852834
_symmetry_space_group_name_H-M "P -1"
_symmetry_group_IT_number 2
_symmetry_cell_setting 'triclinic'
loop_
_space_group_symop_operation_xyz
x,y,z
-x,-y,-z
loop_
_atom_site_type_symbol
_atom_site_label
_atom_site_fract_x
_atom_site_fract_y
_atom_site_fract_z
Si Si1 0.287747 0.847701 0.353798
Si Si2 0.303577 0.050042 0.168517
Si Si3 0.899909 0.493738 0.953794
Si Si4 0.500000 0.500000 0.500000
Si Si5 0.730301 0.810126 0.473787
Si Si6 0.437410 0.621364 0.781358
Si Si7 0.276235 0.641919 0.679258
Si Si8 0.277259 0.776459 0.137060
O O1 0.429681 0.663898 0.410049
O O2 0.996785 0.753523 0.454853
O O3 0.250834 0.873060 0.285358
O O4 0.451900 0.143295 0.262011
O O5 0.138148 0.237150 0.136207
O O6 0.249967 0.883757 0.169921
O O7 0.614130 0.253646 0.061358
O O8 0.125876 0.464192 0.890742
O O9 0.000000 0.500000 0.000000
O O10 0.629621 0.766616 0.438413
O O11 0.479375 0.648430 0.598621
O O12 0.811922 0.114181 0.388337
O O13 0.441080 0.707087 0.691807
O O14 0.605614 0.445437 0.811155
O O15 0.019714 0.366497 0.801223
O O16 0.500000 0.000000 0.000000
#
# Coordination Sequence:
#
# PCOD9061650 Si02
#       8
#     2   2   2   1   2   2   2   2
#     4  12  26  48  76 110 149 200 255 318 383 448
#     4  11  27  44  77 112 152 196 259 312 375 456
#     4  11  23  45  75 112 148 200 251 309 380 452
#     4  12  28  48  74 106 148 196 262 316 372 448
#     4  11  26  48  74 109 144 194 254 315 374 455
#     4  12  25  46  77 104 155 200 243 308 388 455
#     4  11  26  48  75 106 149 199 245 306 393 442
#     4  12  28  48  74 113 154 198 251 313 374 468
#
# _framework density 22.629458
#
# number of rings (size 3 to 8) (size 9 to 14) (size 15 to 20)
#    0.000    0.533    4.000    2.800    5.600    4.800 
#    0.000    0.000    0.000    0.000    0.000    0.000 
#    0.000    0.000    0.000    0.000    0.000    0.000 
#
# Total GULP energy -83707.959600 kJ/mol
# GULP energy per Si atom -5580.530640 kJ/mol
# Density = 2.257795 g / cm^3
# Si number density = 22.629458 Si / 1000 Ang^3
#
#
#
# Elastic Constant Matrix: (Units=GPa)
#
#
# Indices 1 2 3 4 5 6 
#
# 1 54.6907 27.0689 31.8768 11.4339 7.9213 7.5061
# 2 27.0689 110.2054 26.8801 3.9665 0.9204 11.8611
# 3 31.8768 26.8801 93.5575 0.2698 -0.0908 -2.2923
# 4 11.4339 3.9665 0.2698 28.7016 0.6681 3.1735
# 5 7.9213 0.9204 -0.0908 0.6681 50.3757 -3.3443
# 6 7.5061 11.8611 -2.2923 3.1735 -3.3443 35.4788
#
#
#
# Elastic Compliance Matrix: (Units=1/GPa)
#
#
# Indices 1 2 3 4 5 6 
#
# 1 0.028868 -0.004021 -0.008775 -0.010216 -0.004669 -0.004856
# 2 -0.004021 0.010795 -0.001803 0.000441 0.000234 -0.002892
# 3 -0.008775 -0.001803 0.014268 0.003214 0.001611 0.003246
# 4 -0.010216 0.000441 0.003214 0.038925 0.001011 -0.001165
# 5 -0.004669 0.000234 0.001611 0.001011 0.020761 0.002880
# 6 -0.004856 -0.002892 0.003246 -0.001165 0.002880 0.030766
#
#
# Mechanical properties :
#
#
# Convention : Reuss Voigt Hill
#
# Bulk Modulus (GPa) = 40.43185 47.78945 44.11065
# Shear Modulus (GPa) = 27.49896 34.41974 30.95935
#
# Velocity S-wave (km/s) = 3.48973 3.90425 3.70280
# Velocity P-wave (km/s) = 5.84323 6.44114 6.14946
#
# Compressibility (1/GPa) = 0.02473297
#
# Stress axis : x y z
#
# Youngs Moduli (GPa) = 34.64084 92.63628 70.08590
#
# Poissons Ratio (x) = 0.37249 0.61497
# Poissons Ratio (y) = 0.13929 0.12639
# Poissons Ratio (z) = 0.30396 0.16706
#
# Static dielectric constant tensor:
#      x y z
#    x 1.855540 0.011220 0.019630 
#    y 0.011220 1.809130 -0.101340 
#    z 0.019630 -0.101340 1.852600 
# 
# From -- ./inp_files/229916.got.cif
#   From: 2010.05.17/outbox.cif.g08.bks.cpg/sg2_115_cif.got.tgz:229916.got - 2010.06.03 11:33:40.
