data_PCOD9061019
_publ_section_title
;
Structure prediction by ZEFSAII (Michael W. Deem and Ramdas Pophale) SiO2 
 PCOD9061019
Probable space group: P -1
;
_chemical_formula_sum "Si O2"
_cell_formula_units_Z 14
_cell_length_a 9.709727
_cell_length_b 13.369503
_cell_length_c 14.865219
_cell_angle_alpha 148.115174
_cell_angle_beta 136.615930
_cell_angle_gamma 65.366176
_cell_volume 583.798403
_symmetry_space_group_name_H-M "P -1"
_symmetry_group_IT_number 2
_symmetry_cell_setting 'triclinic'
loop_
_space_group_symop_operation_xyz
x,y,z
-x,-y,-z
loop_
_atom_site_type_symbol
_atom_site_label
_atom_site_fract_x
_atom_site_fract_y
_atom_site_fract_z
Si Si1 0.057900 0.290875 0.146096
Si Si2 0.940582 0.952505 0.331388
Si Si3 0.483383 0.326806 0.453483
Si Si4 0.266134 0.143045 0.467904
Si Si5 0.460533 0.008987 0.882595
Si Si6 0.170599 0.541007 0.696761
Si Si7 0.732706 0.437329 0.834723
O O1 0.227611 0.297332 0.312286
O O2 0.278675 0.445518 0.299058
O O3 0.924626 0.398707 0.212718
O O4 0.876675 0.059893 0.828963
O O5 0.813809 0.077555 0.331696
O O6 0.770196 0.681387 0.034124
O O7 0.000000 0.000000 0.500000
O O8 0.164267 0.035865 0.435349
O O9 0.571481 0.295709 0.565612
O O10 0.446418 0.136723 0.223855
O O11 0.206513 0.334947 0.568449
O O12 0.557309 0.281295 0.711895
O O13 0.592244 0.234374 0.057135
O O14 0.500000 0.000000 0.000000
O O15 0.000000 0.500000 0.500000
O O16 0.000000 0.500000 0.000000
#
# Coordination Sequence:
#
# PCOD9061019 Si02
#       7
#     2   2   2   2   2   2   2
#     4  11  24  43  76 113 151 199 251 318 393 460
#     4  12  27  51  75 111 153 203 263 324 388 465
#     4  11  23  44  71 108 156 194 248 320 380 454
#     4  12  26  50  79 112 155 204 260 320 394 466
#     4  12  25  45  74 109 155 199 252 322 389 457
#     4  12  24  41  72 115 153 198 255 315 388 465
#     4  12  27  49  74 109 153 203 262 315 387 463
#
# _framework density 23.980881
#
# number of rings (size 3 to 8) (size 9 to 14) (size 15 to 20)
#    0.000    0.286    2.857    6.857    2.000    2.857 
#    2.571    0.714    0.000    0.000    0.000    0.000 
#    0.000    0.000    0.000    0.000    0.000    0.000 
#
# Total GULP energy -78234.823899 kJ/mol
# GULP energy per Si atom -5588.201707 kJ/mol
# Density = 2.392630 g / cm^3
# Si number density = 23.980881 Si / 1000 Ang^3
#
#
#
# Elastic Constant Matrix: (Units=GPa)
#
#
# Indices 1 2 3 4 5 6 
#
# 1 145.1577 39.4968 78.9485 0.8863 10.7339 0.8808
# 2 39.4968 70.7083 33.7922 -2.8603 -2.1383 -2.7277
# 3 78.9485 33.7922 89.1036 20.4456 7.4888 6.3630
# 4 0.8863 -2.8603 20.4456 45.7874 4.2306 -1.8933
# 5 10.7339 -2.1383 7.4888 4.2306 59.5007 2.7139
# 6 0.8808 -2.7277 6.3630 -1.8933 2.7139 51.5906
#
#
#
# Elastic Compliance Matrix: (Units=1/GPa)
#
#
# Indices 1 2 3 4 5 6 
#
# 1 0.015080 -0.001324 -0.014284 0.006213 -0.001491 0.001741
# 2 -0.001324 0.018579 -0.007123 0.004318 0.001406 0.001968
# 3 -0.014284 -0.007123 0.030068 -0.013747 -0.000289 -0.004331
# 4 0.006213 0.004318 -0.013747 0.028378 -0.001387 0.002932
# 5 -0.001491 0.001406 -0.000289 -0.001387 0.017299 -0.000825
# 6 0.001741 0.001968 -0.004331 0.002932 -0.000825 0.020143
#
#
# Mechanical properties :
#
#
# Convention : Reuss Voigt Hill
#
# Bulk Modulus (GPa) = 54.74557 67.71604 61.23081
# Shear Modulus (GPa) = 27.60981 41.55787 34.58384
#
# Velocity S-wave (km/s) = 3.39680 4.16740 3.80167
# Velocity P-wave (km/s) = 6.18569 7.17322 6.69768
#
# Compressibility (1/GPa) = 0.01826632
#
# Stress axis : x y z
#
# Youngs Moduli (GPa) = 66.31468 53.82363 33.25799
#
# Poissons Ratio (x) = 0.07124 0.47505
# Poissons Ratio (y) = 0.08777 0.23689
# Poissons Ratio (z) = 0.94722 0.38338
#
# Static dielectric constant tensor:
#      x y z
#    x 1.936770 -0.042380 0.044540 
#    y -0.042380 1.934290 0.057030 
#    z 0.044540 0.057030 1.837440 
# 
# From -- ./inp_files/505978.got.cif
#   From: 2010.05.17/outbox.cif.g08.bks.cpg/sg2_253_cif.got.tgz:505978.got - 2010.06.03 11:33:40.
