data_PCOD9061243
_publ_section_title
;
Structure prediction by ZEFSAII (Michael W. Deem and Ramdas Pophale) SiO2 
 PCOD9061243
Probable space group: P -1
;
_chemical_formula_sum "Si O2"
_cell_formula_units_Z 13
_cell_length_a 7.930078
_cell_length_b 10.500955
_cell_length_c 17.118953
_cell_angle_alpha 33.773683
_cell_angle_beta 49.382171
_cell_angle_gamma 44.550976
_cell_volume 549.640615
_symmetry_space_group_name_H-M "P -1"
_symmetry_group_IT_number 2
_symmetry_cell_setting 'triclinic'
loop_
_space_group_symop_operation_xyz
x,y,z
-x,-y,-z
loop_
_atom_site_type_symbol
_atom_site_label
_atom_site_fract_x
_atom_site_fract_y
_atom_site_fract_z
Si Si1 0.293201 0.626533 0.868228
Si Si2 0.000000 0.500000 0.500000
Si Si3 0.908452 0.960838 0.171585
Si Si4 0.743720 0.886033 0.839178
Si Si5 0.333366 0.261745 0.381527
Si Si6 0.086215 0.200923 0.334430
Si Si7 0.773148 0.785577 0.135666
O O1 0.488053 0.599473 0.755858
O O2 0.015452 0.782493 0.844199
O O3 0.303024 0.784098 0.861307
O O4 0.326654 0.350292 0.018528
O O5 0.963325 0.765590 0.326335
O O6 0.886038 0.645142 0.540002
O O7 0.839728 0.839039 0.177481
O O8 0.114852 0.057015 0.031618
O O9 0.771586 0.936095 0.715148
O O10 0.519498 0.108733 0.833640
O O11 0.247424 0.243133 0.331136
O O12 0.500000 0.000000 0.500000
O O13 0.892633 0.488577 0.229839
O O14 0.000000 0.000000 0.500000
#
# Coordination Sequence:
#
# PCOD9061243 Si02
#       7
#     2   1   2   2   2   2   2
#     4  11  24  47  71 108 144 195 242 295 365 438
#     4  12  24  42  72 112 142 186 240 304 356 440
#     4  11  23  44  76 107 145 187 251 294 367 432
#     4  11  26  46  72 103 152 190 238 303 366 432
#     4  12  25  45  73 103 143 190 239 302 362 437
#     4  12  27  48  70 108 147 189 246 308 369 429
#     4  11  25  48  73 109 141 198 243 307 362 437
#
# _framework density 23.651820000000001
#
# number of rings (size 3 to 8) (size 9 to 14) (size 15 to 20)
#    0.000    0.615    4.615    2.769    2.154    2.462 
#    5.538    0.000    0.000    0.000    0.000    0.000 
#    0.000    0.000    0.000    0.000    0.000    0.000 
#
# Total GULP energy -72380.918113 kJ/mol
# GULP energy per Si atom -5567.762932 kJ/mol
# Density = 2.359799 g / cm^3
# Si number density = 23.651820 Si / 1000 Ang^3
#
#
#
# Elastic Constant Matrix: (Units=GPa)
#
#
# Indices 1 2 3 4 5 6 
#
# 1 43.9423 22.2648 19.9563 15.4273 2.3812 -8.3183
# 2 22.2648 71.1128 16.7919 6.9469 -0.8398 2.7600
# 3 19.9563 16.7919 179.8015 18.6204 -0.3809 -4.7760
# 4 15.4273 6.9469 18.6204 60.8561 9.7764 3.8423
# 5 2.3812 -0.8398 -0.3809 9.7764 22.3718 -0.2040
# 6 -8.3183 2.7600 -4.7760 3.8423 -0.2040 31.2883
#
#
#
# Elastic Compliance Matrix: (Units=1/GPa)
#
#
# Indices 1 2 3 4 5 6 
#
# 1 0.032926 -0.009593 -0.001736 -0.007266 -0.000626 0.010223
# 2 -0.009593 0.017350 -0.000743 0.000740 0.001297 -0.004277
# 3 -0.001736 -0.000743 0.006000 -0.001504 0.000923 0.000711
# 4 -0.007266 0.000740 -0.001504 0.020255 -0.008119 -0.004767
# 5 -0.000626 0.001297 0.000923 -0.008119 0.048389 0.001172
# 6 0.010223 -0.004277 0.000711 -0.004767 0.001172 0.035757
#
#
# Mechanical properties :
#
#
# Convention : Reuss Voigt Hill
#
# Bulk Modulus (GPa) = 31.12163 45.87583 38.49873
# Shear Modulus (GPa) = 25.57098 38.62616 32.09857
#
# Velocity S-wave (km/s) = 3.29164 4.04557 3.68792
# Velocity P-wave (km/s) = 5.25674 6.42344 5.86915
#
# Compressibility (1/GPa) = 0.03213200
#
# Stress axis : x y z
#
# Youngs Moduli (GPa) = 30.37085 57.63611 166.65644
#
# Poissons Ratio (x) = 0.55293 0.28930
# Poissons Ratio (y) = 0.29136 0.12384
# Poissons Ratio (z) = 0.05272 0.04283
#
# Static dielectric constant tensor:
#      x y z
#    x 2.041190 -0.243570 -0.274270 
#    y -0.243570 3.021530 1.035740 
#    z -0.274270 1.035740 2.848330 
# 
# From -- ./inp_files/277285.got.cif
#   From: 2010.05.17/outbox.cif.g08.bks.cpg/sg2_139_cif.got.tgz:277285.got - 2010.06.03 11:33:40.
