data_PCOD9061938
_publ_section_title
;
Structure prediction by ZEFSAII (Michael W. Deem and Ramdas Pophale) SiO2 
 PCOD9061938
Probable space group: P -1
;
_chemical_formula_sum "Si O2"
_cell_formula_units_Z 16
_cell_length_a 12.203848
_cell_length_b 8.322345
_cell_length_c 11.833997
_cell_angle_alpha 127.102545
_cell_angle_beta 56.216446
_cell_angle_gamma 94.376617
_cell_volume 733.336261
_symmetry_space_group_name_H-M "P -1"
_symmetry_group_IT_number 2
_symmetry_cell_setting 'triclinic'
loop_
_space_group_symop_operation_xyz
x,y,z
-x,-y,-z
loop_
_atom_site_type_symbol
_atom_site_label
_atom_site_fract_x
_atom_site_fract_y
_atom_site_fract_z
Si Si1 0.358610 0.043062 0.026142
Si Si2 0.982068 0.304372 0.085826
Si Si3 0.742289 0.784337 0.432403
Si Si4 0.128589 0.866403 0.451733
Si Si5 0.688800 0.832161 0.228751
Si Si6 0.048449 0.081345 0.198367
Si Si7 0.474602 0.744811 0.645234
Si Si8 0.635854 0.562952 0.964713
O O1 0.192432 0.098277 0.175497
O O2 0.361254 0.235961 0.025685
O O3 0.500000 0.000000 0.000000
O O4 0.394136 0.822139 0.840932
O O5 0.994647 0.228626 0.178158
O O6 0.879375 0.558099 0.247505
O O7 0.142400 0.256828 0.933626
O O8 0.929118 0.156759 0.969412
O O9 0.668892 0.837998 0.375227
O O10 0.628799 0.757757 0.571333
O O11 0.779000 0.987293 0.529841
O O12 0.223712 0.640340 0.241406
O O13 0.067198 0.853413 0.606385
O O14 0.000000 0.000000 0.500000
O O15 0.617571 0.071616 0.314260
O O16 0.634871 0.656943 0.130143
O O17 0.500000 0.500000 0.500000
O O18 0.500000 0.500000 0.000000
#
# Coordination Sequence:
#
# PCOD9061938 Si02
#       8
#     2   2   2   2   2   2   2   2
#     4  11  26  47  69 101 140 190 230 284 362 425
#     4  11  23  46  74 106 142 184 235 293 362 418
#     4  12  26  42  74 105 139 185 240 296 351 424
#     4  12  28  44  70 108 139 183 236 293 356 419
#     4  11  23  48  68 102 145 186 238 287 363 420
#     4  11  25  45  75 101 146 181 240 293 356 422
#     4  11  25  45  69 104 139 183 243 293 344 419
#     4  11  26  47  68  97 147 188 231 287 355 420
#
# _framework density 21.818096000000001
#
# number of rings (size 3 to 8) (size 9 to 14) (size 15 to 20)
#    0.000    0.750    3.750    3.750    7.000    3.500 
#    0.000    0.000    0.000    0.000    0.000    0.000 
#    0.000    0.000    0.000    0.000    0.000    0.000 
#
# Total GULP energy -89428.893156 kJ/mol
# GULP energy per Si atom -5589.305822 kJ/mol
# Density = 2.176844 g / cm^3
# Si number density = 21.818096 Si / 1000 Ang^3
#
#
#
# Elastic Constant Matrix: (Units=GPa)
#
#
# Indices 1 2 3 4 5 6 
#
# 1 112.9274 18.2167 13.7993 9.9247 3.2207 15.9071
# 2 18.2167 39.4545 22.3746 10.3621 5.7776 10.9026
# 3 13.7993 22.3746 78.5277 24.6566 -0.6023 -8.8336
# 4 9.9247 10.3621 24.6566 42.1343 6.1887 -7.1726
# 5 3.2207 5.7776 -0.6023 6.1887 41.5131 -3.4299
# 6 15.9071 10.9026 -8.8336 -7.1726 -3.4299 42.5107
#
#
#
# Elastic Compliance Matrix: (Units=1/GPa)
#
#
# Indices 1 2 3 4 5 6 
#
# 1 0.010061 -0.002620 -0.000880 -0.001757 -0.000465 -0.003610
# 2 -0.002620 0.037575 -0.010466 -0.003703 -0.005610 -0.011909
# 3 -0.000880 -0.010466 0.019030 -0.007856 0.003461 0.005922
# 4 -0.001757 -0.003703 -0.007856 0.031032 -0.003683 0.004914
# 5 -0.000465 -0.005610 0.003461 -0.003683 0.025818 0.003794
# 6 -0.003610 -0.011909 0.005922 0.004914 0.003794 0.030294
#
#
# Mechanical properties :
#
#
# Convention : Reuss Voigt Hill
#
# Bulk Modulus (GPa) = 25.81539 37.74343 31.77941
# Shear Modulus (GPa) = 25.68660 36.99954 31.34307
#
# Velocity S-wave (km/s) = 3.43491 4.12250 3.79431
# Velocity P-wave (km/s) = 5.25255 6.32429 5.81317
#
# Compressibility (1/GPa) = 0.03873658
#
# Stress axis : x y z
#
# Youngs Moduli (GPa) = 99.38886 26.61333 52.54823
#
# Poissons Ratio (x) = 0.06972 0.04622
# Poissons Ratio (y) = 0.26036 0.54997
# Poissons Ratio (z) = 0.08742 0.27853
#
# Static dielectric constant tensor:
#      x y z
#    x 1.823590 -0.035330 0.007290 
#    y -0.035330 1.760380 -0.026250 
#    z 0.007290 -0.026250 1.816670 
# 
# From -- ./inp_files/381088.got.cif
#   From: 2010.05.17/outbox.cif.g08.bks.cpg/sg2_191_cif.got.tgz:381088.got - 2010.06.03 11:33:40.
