data_PCOD9061278
_publ_section_title
;
Structure prediction by ZEFSAII (Michael W. Deem and Ramdas Pophale) SiO2 
 PCOD9061278
Probable space group: P -1
;
_chemical_formula_sum "Si O2"
_cell_formula_units_Z 14
_cell_length_a 7.683002
_cell_length_b 14.154381
_cell_length_c 8.467320
_cell_angle_alpha 37.476847
_cell_angle_beta 74.416157
_cell_angle_gamma 74.963321
_cell_volume 537.977421
_symmetry_space_group_name_H-M "P -1"
_symmetry_group_IT_number 2
_symmetry_cell_setting 'triclinic'
loop_
_space_group_symop_operation_xyz
x,y,z
-x,-y,-z
loop_
_atom_site_type_symbol
_atom_site_label
_atom_site_fract_x
_atom_site_fract_y
_atom_site_fract_z
Si Si1 0.309031 0.957753 0.036960
Si Si2 0.140029 0.412811 0.841424
Si Si3 0.471897 0.667575 0.872946
Si Si4 0.748149 0.338357 0.744972
Si Si5 0.812958 0.865154 0.490246
Si Si6 0.841315 0.356467 0.208019
Si Si7 0.957519 0.882488 0.864943
O O1 0.236185 0.059723 0.768643
O O2 0.318351 0.778233 0.217743
O O3 0.500000 0.000000 0.000000
O O4 0.166146 0.004285 0.145916
O O5 0.205098 0.499173 0.557240
O O6 0.227528 0.508158 0.834375
O O7 0.162861 0.226189 0.066559
O O8 0.930784 0.430582 0.931386
O O9 0.634470 0.778880 0.687583
O O10 0.312897 0.741169 0.695889
O O11 0.500000 0.500000 0.000000
O O12 0.391474 0.650671 0.090536
O O13 0.934126 0.249647 0.879336
O O14 0.987880 0.740086 0.624149
O O15 0.883699 0.013064 0.372346
#
# Coordination Sequence:
#
# PCOD9061278 Si02
#       7
#     2   2   2   2   2   2   2
#     4  11  27  48  78 117 156 205 262 331 392 466
#     4  11  23  44  83 109 151 203 265 310 393 471
#     4  12  28  48  80 119 157 210 264 325 389 462
#     4  11  25  50  76 115 156 208 267 317 391 473
#     4  11  27  49  75 109 165 198 264 320 390 473
#     4  11  25  49  76 119 154 211 249 330 402 453
#     4  11  24  46  78 112 150 210 250 322 391 459
#
# _framework density 26.023395000000001
#
# number of rings (size 3 to 8) (size 9 to 14) (size 15 to 20)
#    0.000    0.857    1.429    5.571    6.000    5.143 
#    0.000    3.571    0.000    0.000    0.000    0.000 
#    0.000    0.000    0.000    0.000    0.000    0.000 
#
# Total GULP energy -78283.766190 kJ/mol
# GULP energy per Si atom -5591.697585 kJ/mol
# Density = 2.596417 g / cm^3
# Si number density = 26.023395 Si / 1000 Ang^3
#
#
#
# Elastic Constant Matrix: (Units=GPa)
#
#
# Indices 1 2 3 4 5 6 
#
# 1 203.5384 68.3618 75.4511 -9.2599 -28.0857 40.7345
# 2 68.3618 193.7459 67.9679 -6.1866 -34.1447 18.4845
# 3 75.4511 67.9679 198.6795 -12.3771 -41.5613 9.5044
# 4 -9.2599 -6.1866 -12.3771 29.5344 0.0000 -13.5921
# 5 -28.0857 -34.1447 -41.5613 0.0000 42.4044 -4.7742
# 6 40.7345 18.4845 9.5044 -13.5921 -4.7742 50.8922
#
#
#
# Elastic Compliance Matrix: (Units=1/GPa)
#
#
# Indices 1 2 3 4 5 6 
#
# 1 0.007163 -0.001178 -0.001849 -0.001138 0.001406 -0.005133
# 2 -0.001178 0.006644 -0.001053 0.000163 0.003435 -0.000908
# 3 -0.001849 -0.001053 0.007310 0.003102 0.005297 0.001822
# 4 -0.001138 0.000163 0.003102 0.040042 0.003692 0.011313
# 5 0.001406 0.003435 0.005297 0.003692 0.032548 0.000677
# 6 -0.005133 -0.000908 0.001822 0.011313 0.000677 0.026832
#
#
# Mechanical properties :
#
#
# Convention : Reuss Voigt Hill
#
# Bulk Modulus (GPa) = 77.17703 113.28059 95.22881
# Shear Modulus (GPa) = 37.58911 50.17841 43.88376
#
# Velocity S-wave (km/s) = 3.80470 4.39590 4.11094
# Velocity P-wave (km/s) = 7.00158 8.33007 7.69455
#
# Compressibility (1/GPa) = 0.01295722
#
# Stress axis : x y z
#
# Youngs Moduli (GPa) = 139.59763 150.51897 136.80390
#
# Poissons Ratio (x) = 0.17729 0.25290
# Poissons Ratio (y) = 0.16442 0.14411
# Poissons Ratio (z) = 0.25806 0.15855
#
# Static dielectric constant tensor:
#      x y z
#    x 2.143340 0.003450 0.059130 
#    y 0.003450 2.083250 0.002980 
#    z 0.059130 0.002980 2.096110 
# 
# From -- ./inp_files/205002.got.cif
#   From: 2010.05.17/outbox.cif.g08.bks.cpg/sg2_103_cif.got.tgz:205002.got - 2010.06.03 11:33:40.
