data_PCOD9061683
_publ_section_title
;
Structure prediction by ZEFSAII (Michael W. Deem and Ramdas Pophale) SiO2 
 PCOD9061683
Probable space group: P -1
;
_chemical_formula_sum "Si O2"
_cell_formula_units_Z 16
_cell_length_a 9.450095
_cell_length_b 9.734161
_cell_length_c 16.818385
_cell_angle_alpha 104.055848
_cell_angle_beta 125.782848
_cell_angle_gamma 122.155019
_cell_volume 627.897750
_symmetry_space_group_name_H-M "P -1"
_symmetry_group_IT_number 2
_symmetry_cell_setting 'triclinic'
loop_
_space_group_symop_operation_xyz
x,y,z
-x,-y,-z
loop_
_atom_site_type_symbol
_atom_site_label
_atom_site_fract_x
_atom_site_fract_y
_atom_site_fract_z
Si Si1 0.925888 0.607832 0.967267
Si Si2 0.246797 0.451231 0.924972
Si Si3 0.287210 0.622071 0.435688
Si Si4 0.335704 0.137626 0.132851
Si Si5 0.012121 0.298520 0.654458
Si Si6 0.631724 0.682361 0.677976
Si Si7 0.410824 0.243396 0.605742
Si Si8 0.717387 0.035649 0.123932
O O1 0.598813 0.384460 0.771411
O O2 0.459776 0.744852 0.035530
O O3 0.892594 0.663830 0.048516
O O4 0.000000 0.500000 0.000000
O O5 0.998931 0.277545 0.742971
O O6 0.500000 0.500000 0.000000
O O7 0.574599 0.726195 0.584068
O O8 0.344521 0.664389 0.365386
O O9 0.226476 0.739663 0.458789
O O10 0.953851 0.294981 0.294893
O O11 0.612395 0.386132 0.197832
O O12 0.458718 0.263404 0.278722
O O13 0.219803 0.895352 0.057556
O O14 0.000000 0.000000 0.000000
O O15 0.915832 0.083900 0.551375
O O16 0.386636 0.382280 0.579691
O O17 0.001859 0.864222 0.818912
O O18 0.500000 0.000000 0.000000
#
# Coordination Sequence:
#
# PCOD9061683 Si02
#       8
#     2   2   2   2   2   2   2   2
#     4  12  29  48  78 113 161 198 259 331 391 459
#     4  12  28  46  77 115 151 203 267 313 387 468
#     4  11  26  46  79 114 156 204 261 324 395 471
#     4  12  27  52  76 109 159 207 258 327 393 458
#     4  12  28  48  81 113 158 207 263 321 396 472
#     4  11  26  48  78 110 162 203 258 327 397 464
#     4  11  26  49  73 114 159 201 257 325 396 459
#     4  11  23  45  77 110 147 204 267 315 380 467
#
# _framework density 25.481856000000001
#
# number of rings (size 3 to 8) (size 9 to 14) (size 15 to 20)
#    0.000    0.500    2.500    4.875   12.250    2.000 
#    0.000    0.000    0.000    0.000    0.000    0.000 
#    0.000    0.000    0.000    0.000    0.000    0.000 
#
# Total GULP energy -89594.645397 kJ/mol
# GULP energy per Si atom -5599.665337 kJ/mol
# Density = 2.542386 g / cm^3
# Si number density = 25.481856 Si / 1000 Ang^3
#
#
#
# Elastic Constant Matrix: (Units=GPa)
#
#
# Indices 1 2 3 4 5 6 
#
# 1 92.2918 43.9519 40.7356 -10.9503 -6.0017 -9.2573
# 2 43.9519 172.2376 54.5481 2.9155 -1.7643 -28.9444
# 3 40.7356 54.5481 115.0330 -20.5949 11.6449 -3.9356
# 4 -10.9503 2.9155 -20.5949 43.2240 -3.5486 -2.8640
# 5 -6.0017 -1.7643 11.6449 -3.5486 49.8176 -6.1212
# 6 -9.2573 -28.9444 -3.9356 -2.8640 -6.1212 59.6843
#
#
#
# Elastic Compliance Matrix: (Units=1/GPa)
#
#
# Indices 1 2 3 4 5 6 
#
# 1 0.014139 -0.002196 -0.003809 0.002232 0.002832 0.001274
# 2 -0.002196 0.008086 -0.003491 -0.002455 0.001074 0.003343
# 3 -0.003809 -0.003491 0.012892 0.005029 -0.003427 -0.001544
# 4 0.002232 -0.002455 0.005029 0.026401 0.000992 0.000856
# 5 0.002832 0.001074 -0.003427 0.000992 0.021694 0.003006
# 6 0.001274 0.003343 -0.001544 0.000856 0.003006 0.018821
#
#
# Mechanical properties :
#
#
# Convention : Reuss Voigt Hill
#
# Bulk Modulus (GPa) = 62.01370 73.11486 67.56428
# Shear Modulus (GPa) = 39.55710 46.56697 43.06204
#
# Velocity S-wave (km/s) = 3.94428 4.27951 4.11531
# Velocity P-wave (km/s) = 6.71806 7.29206 7.01094
#
# Compressibility (1/GPa) = 0.01612547
#
# Stress axis : x y z
#
# Youngs Moduli (GPa) = 70.72572 123.66708 77.56919
#
# Poissons Ratio (x) = 0.27163 0.29545
# Poissons Ratio (y) = 0.15534 0.27076
# Poissons Ratio (z) = 0.26938 0.43167
#
# Static dielectric constant tensor:
#      x y z
#    x 2.129580 0.061110 -0.106760 
#    y 0.061110 2.027010 0.021680 
#    z -0.106760 0.021680 2.043580 
# 
# From -- ./inp_files/560850.got.cif
#   From: 2010.05.17/outbox.cif.g08.bks.cpg/sg2_281_cif.got.tgz:560850.got - 2010.06.03 11:33:40.
