data_PCOD9061140
_publ_section_title
;
Structure prediction by ZEFSAII (Michael W. Deem and Ramdas Pophale) SiO2 
 PCOD9061140
Probable space group: P -1
;
_chemical_formula_sum "Si O2"
_cell_formula_units_Z 12
_cell_length_a 9.112637
_cell_length_b 12.231145
_cell_length_c 16.364558
_cell_angle_alpha 152.909249
_cell_angle_beta 43.743329
_cell_angle_gamma 143.202837
_cell_volume 497.232117
_symmetry_space_group_name_H-M "P -1"
_symmetry_group_IT_number 2
_symmetry_cell_setting 'triclinic'
loop_
_space_group_symop_operation_xyz
x,y,z
-x,-y,-z
loop_
_atom_site_type_symbol
_atom_site_label
_atom_site_fract_x
_atom_site_fract_y
_atom_site_fract_z
Si Si1 0.774174 0.043584 0.420949
Si Si2 0.997295 0.666679 0.777961
Si Si3 0.497487 0.659526 0.732531
Si Si4 0.953379 0.676782 0.203909
Si Si5 0.517903 0.858238 0.672020
Si Si6 0.951196 0.965189 0.855291
O O1 0.862547 0.024901 0.281518
O O2 0.946053 0.356750 0.592989
O O3 0.500000 0.000000 0.500000
O O4 0.831641 0.841592 0.318607
O O5 0.279439 0.887977 0.787593
O O6 0.861007 0.709210 0.784805
O O7 0.946351 0.765492 0.949700
O O8 0.233407 0.528172 0.790914
O O9 0.520591 0.769028 0.705026
O O10 0.539650 0.396849 0.533162
O O11 0.705957 0.897450 0.861019
O O12 0.213015 0.887919 0.281383
O O13 0.000000 0.500000 0.000000
#
# Coordination Sequence:
#
# PCOD9061140 Si02
#       6
#     2   2   2   2   2   2
#     4  12  26  47  74 107 149 194 245 304 365 436
#     4  11  25  44  76 106 142 196 246 296 376 430
#     4  11  23  46  73 100 145 191 242 299 361 433
#     4  12  27  45  71 112 147 193 247 299 366 439
#     4  11  23  44  73 105 140 193 241 299 366 429
#     4  11  24  47  74 105 145 197 242 303 364 441
#
# _framework density 24.133597999999999
#
# number of rings (size 3 to 8) (size 9 to 14) (size 15 to 20)
#    0.000    0.667    3.333    4.000    4.667    3.333 
#    0.000    0.000    0.000    0.000    0.000    0.000 
#    0.000    0.000    0.000    0.000    0.000    0.000 
#
# Total GULP energy -67217.650229 kJ/mol
# GULP energy per Si atom -5601.470852 kJ/mol
# Density = 2.407867 g / cm^3
# Si number density = 24.133598 Si / 1000 Ang^3
#
#
#
# Elastic Constant Matrix: (Units=GPa)
#
#
# Indices 1 2 3 4 5 6 
#
# 1 90.6484 29.1832 42.6280 11.1562 -0.0033 5.6660
# 2 29.1832 137.2789 59.2513 -18.5006 2.2164 26.4144
# 3 42.6280 59.2513 143.6026 -6.8760 1.2070 -6.2418
# 4 11.1562 -18.5006 -6.8760 34.4684 -7.5119 -3.7967
# 5 -0.0033 2.2164 1.2070 -7.5119 39.4024 -4.2290
# 6 5.6660 26.4144 -6.2418 -3.7967 -4.2290 42.4857
#
#
#
# Elastic Compliance Matrix: (Units=1/GPa)
#
#
# Indices 1 2 3 4 5 6 
#
# 1 0.014487 -0.001907 -0.003929 -0.007016 -0.001332 -0.002083
# 2 -0.001907 0.011620 -0.004291 0.005140 -0.000312 -0.007172
# 3 -0.003929 -0.004291 0.010190 0.001714 0.000784 0.004920
# 4 -0.007016 0.005140 0.001714 0.036059 0.006735 0.001885
# 5 -0.001332 -0.000312 0.000784 0.006735 0.027063 0.003783
# 6 -0.002083 -0.007172 0.004920 0.001885 0.003783 0.029542
#
#
# Mechanical properties :
#
#
# Convention : Reuss Voigt Hill
#
# Bulk Modulus (GPa) = 62.33614 70.40611 66.37112
# Shear Modulus (GPa) = 32.34955 39.30244 35.82600
#
# Velocity S-wave (km/s) = 3.66517 4.03989 3.85708
# Velocity P-wave (km/s) = 6.61793 7.14127 6.88457
#
# Compressibility (1/GPa) = 0.01604206
#
# Stress axis : x y z
#
# Youngs Moduli (GPa) = 69.02857 86.05989 98.13705
#
# Poissons Ratio (x) = 0.16413 0.38555
# Poissons Ratio (y) = 0.13165 0.42113
# Poissons Ratio (z) = 0.27119 0.36931
#
# Static dielectric constant tensor:
#      x y z
#    x 1.962230 0.022110 -0.048800 
#    y 0.022110 1.906190 0.004060 
#    z -0.048800 0.004060 1.912350 
# 
# From -- ./inp_files/400206.got.cif
#   From: 2010.05.17/outbox.cif.g08.bks.cpg/sg2_201_cif.got.tgz:400206.got - 2010.06.03 11:33:40.
