data_PCOD9061794
_publ_section_title
;
Structure prediction by ZEFSAII (Michael W. Deem and Ramdas Pophale) SiO2 
 PCOD9061794
Probable space group: P -1
;
_chemical_formula_sum "Si O2"
_cell_formula_units_Z 14
_cell_length_a 9.424201
_cell_length_b 9.045700
_cell_length_c 21.238634
_cell_angle_alpha 50.823243
_cell_angle_beta 153.436624
_cell_angle_gamma 134.841466
_cell_volume 574.095421
_symmetry_space_group_name_H-M "P -1"
_symmetry_group_IT_number 2
_symmetry_cell_setting 'triclinic'
loop_
_space_group_symop_operation_xyz
x,y,z
-x,-y,-z
loop_
_atom_site_type_symbol
_atom_site_label
_atom_site_fract_x
_atom_site_fract_y
_atom_site_fract_z
Si Si1 0.335177 0.478763 0.555754
Si Si2 0.588368 0.427264 0.862175
Si Si3 0.297804 0.001914 0.780550
Si Si4 0.602567 0.693238 0.037048
Si Si5 0.440494 0.168956 0.532965
Si Si6 0.391678 0.754521 0.622858
Si Si7 0.351012 0.808047 0.256840
O O1 0.324983 0.593321 0.456236
O O2 0.350476 0.646496 0.568718
O O3 0.661298 0.417180 0.708085
O O4 0.986415 0.283606 0.489077
O O5 0.394658 0.218395 0.799141
O O6 0.466885 0.381847 0.898333
O O7 0.522403 0.622628 0.756437
O O8 0.000000 0.500000 0.000000
O O9 0.519240 0.050946 0.790422
O O10 0.902706 0.897363 0.627746
O O11 0.404395 0.842620 0.905206
O O12 0.008011 0.813183 0.148556
O O13 0.500000 0.500000 0.000000
O O14 0.388421 0.153259 0.591265
O O15 0.599035 0.998891 0.629045
#
# Coordination Sequence:
#
# PCOD9061794 Si02
#       7
#     2   2   2   2   2   2   2
#     4  11  23  46  70 109 151 195 240 312 369 449
#     4  12  28  50  77 104 151 203 255 311 369 455
#     4  12  26  50  75 107 156 198 252 305 383 448
#     4  12  29  48  77 113 149 199 255 309 379 450
#     4  12  26  42  81 110 150 195 250 313 378 438
#     4  11  24  45  73 106 150 189 260 300 372 439
#     4  12  25  48  74 112 154 196 246 313 377 446
#
# _framework density 24.386189999999999
#
# number of rings (size 3 to 8) (size 9 to 14) (size 15 to 20)
#    0.000    0.286    2.857    5.571    6.000    1.143 
#    0.000    0.000    0.000    0.000    0.000    0.000 
#    0.000    0.000    0.000    0.000    0.000    0.000 
#
# Total GULP energy -78363.961585 kJ/mol
# GULP energy per Si atom -5597.425828 kJ/mol
# Density = 2.433069 g / cm^3
# Si number density = 24.386190 Si / 1000 Ang^3
#
#
#
# Elastic Constant Matrix: (Units=GPa)
#
#
# Indices 1 2 3 4 5 6 
#
# 1 133.3286 -2.4325 26.9085 10.7237 -14.7009 13.3497
# 2 -2.4325 60.9135 18.4610 -8.5943 0.5932 3.9273
# 3 26.9085 18.4610 113.5213 -16.5342 -0.2329 9.5218
# 4 10.7237 -8.5943 -16.5342 51.4771 2.5819 -6.5657
# 5 -14.7009 0.5932 -0.2329 2.5819 37.8731 -6.7770
# 6 13.3497 3.9273 9.5218 -6.5657 -6.7770 39.0117
#
#
#
# Elastic Compliance Matrix: (Units=1/GPa)
#
#
# Indices 1 2 3 4 5 6 
#
# 1 0.008843 0.000804 -0.002446 -0.002966 0.003167 -0.002459
# 2 0.000804 0.017593 -0.002698 0.001773 -0.000305 -0.001142
# 3 -0.002446 -0.002698 0.010400 0.003324 -0.001265 -0.001090
# 4 -0.002966 0.001773 0.003324 0.021939 -0.002053 0.003361
# 5 0.003167 -0.000305 -0.001265 -0.002053 0.028460 0.003854
# 6 -0.002459 -0.001142 -0.001090 0.003361 0.003854 0.028091
#
#
# Mechanical properties :
#
#
# Convention : Reuss Voigt Hill
#
# Bulk Modulus (GPa) = 35.51722 43.73748 39.62735
# Shear Modulus (GPa) = 37.48338 43.32747 40.40543
#
# Velocity S-wave (km/s) = 3.92481 4.21969 4.07492
# Velocity P-wave (km/s) = 5.92747 6.45874 6.19880
#
# Compressibility (1/GPa) = 0.02815536
#
# Stress axis : x y z
#
# Youngs Moduli (GPa) = 113.09015 56.83990 96.14961
#
# Poissons Ratio (x) = -0.04568 0.23517
# Poissons Ratio (y) = -0.09088 0.25942
# Poissons Ratio (z) = 0.27661 0.15336
#
# Static dielectric constant tensor:
#      x y z
#    x 1.935640 -0.028430 0.017490 
#    y -0.028430 2.006500 0.021390 
#    z 0.017490 0.021390 1.982210 
# 
# From -- ./inp_files/587867.got.cif
#   From: 2010.05.17/outbox.cif.g08.bks.cpg/sg2_294_cif.got.tgz:587867.got - 2010.06.03 11:33:40.
