data_PCOD9061273
_publ_section_title
;
Structure prediction by ZEFSAII (Michael W. Deem and Ramdas Pophale) SiO2 
 PCOD9061273
Probable space group: P -1
;
_chemical_formula_sum "Si O2"
_cell_formula_units_Z 12
_cell_length_a 6.851208
_cell_length_b 11.798332
_cell_length_c 11.280086
_cell_angle_alpha 39.442108
_cell_angle_beta 125.800217
_cell_angle_gamma 117.202588
_cell_volume 469.794458
_symmetry_space_group_name_H-M "P -1"
_symmetry_group_IT_number 2
_symmetry_cell_setting 'triclinic'
loop_
_space_group_symop_operation_xyz
x,y,z
-x,-y,-z
loop_
_atom_site_type_symbol
_atom_site_label
_atom_site_fract_x
_atom_site_fract_y
_atom_site_fract_z
Si Si1 0.503528 0.894675 0.709852
Si Si2 0.272496 0.488148 0.701409
Si Si3 0.131186 0.278995 0.600298
Si Si4 0.961380 0.130519 0.081681
Si Si5 0.599377 0.199440 0.685855
Si Si6 0.217941 0.639273 0.951566
O O1 0.272380 0.768354 0.754349
O O2 0.763873 0.798264 0.886794
O O3 0.500000 0.000000 0.500000
O O4 0.515355 0.033943 0.709740
O O5 0.208502 0.321791 0.728846
O O6 0.306405 0.650583 0.489955
O O7 0.043857 0.561683 0.631730
O O8 0.530550 0.463914 0.869219
O O9 0.372234 0.276270 0.612190
O O10 0.021200 0.080729 0.715067
O O11 0.822759 0.230671 0.055931
O O12 0.803016 0.147638 0.893797
O O13 0.000000 0.500000 0.000000
#
# Coordination Sequence:
#
# PCOD9061273 Si02
#       6
#     2   2   2   2   2   2
#     4  12  30  52  81 117 161 218 272 329 402 483
#     4  11  26  44  76 127 154 199 267 339 399 464
#     4  11  23  44  79 116 159 200 263 332 398 471
#     4  12  26  48  83 117 155 217 268 332 402 484
#     4  12  24  47  81 121 157 208 270 331 405 477
#     4  12  30  54  80 115 166 215 270 330 402 485
#
# _framework density 25.543085000000001
#
# number of rings (size 3 to 8) (size 9 to 14) (size 15 to 20)
#    0.000    0.333    5.000    2.500    7.000    2.667 
#    0.000    0.000    0.000    0.000    0.000    0.000 
#    0.000    0.000    0.000    0.000    0.000    0.000 
#
# Total GULP energy -67295.425059 kJ/mol
# GULP energy per Si atom -5607.952088 kJ/mol
# Density = 2.548495 g / cm^3
# Si number density = 25.543085 Si / 1000 Ang^3
#
#
#
# Elastic Constant Matrix: (Units=GPa)
#
#
# Indices 1 2 3 4 5 6 
#
# 1 156.8616 38.4449 57.9480 3.4197 21.7138 13.4469
# 2 38.4449 116.4947 52.2391 6.8277 -5.9521 12.2087
# 3 57.9480 52.2391 120.1449 4.1197 9.7905 -5.8265
# 4 3.4197 6.8277 4.1197 31.6729 1.4206 -1.6764
# 5 21.7138 -5.9521 9.7905 1.4206 53.3382 -11.0366
# 6 13.4469 12.2087 -5.8265 -1.6764 -11.0366 52.7488
#
#
#
# Elastic Compliance Matrix: (Units=1/GPa)
#
#
# Indices 1 2 3 4 5 6 
#
# 1 0.008757 -0.001131 -0.003577 -0.000238 -0.003679 -0.003143
# 2 -0.001131 0.011560 -0.004710 -0.001987 0.002146 -0.002522
# 3 -0.003577 -0.004710 0.012306 0.000001 -0.000662 0.003223
# 4 -0.000238 -0.001987 0.000001 0.032132 -0.000692 0.001397
# 5 -0.003679 0.002146 -0.000662 -0.000692 0.021633 0.004872
# 6 -0.003143 -0.002522 0.003223 0.001397 0.004872 0.021762
#
#
# Mechanical properties :
#
#
# Convention : Reuss Voigt Hill
#
# Bulk Modulus (GPa) = 72.52213 76.75167 74.63690
# Shear Modulus (GPa) = 37.99929 43.87659 40.93794
#
# Velocity S-wave (km/s) = 3.86120 4.14907 4.00772
# Velocity P-wave (km/s) = 6.95213 7.28465 7.12034
#
# Compressibility (1/GPa) = 0.01378889
#
# Stress axis : x y z
#
# Youngs Moduli (GPa) = 114.18982 86.50833 81.25911
#
# Poissons Ratio (x) = 0.09783 0.29063
# Poissons Ratio (y) = 0.12913 0.38271
# Poissons Ratio (z) = 0.40841 0.40743
#
# Static dielectric constant tensor:
#      x y z
#    x 2.053950 0.034110 -0.029500 
#    y 0.034110 2.018390 0.000630 
#    z -0.029500 0.000630 2.027940 
# 
# From -- ./inp_files/362618.got.cif
#   From: 2010.05.17/outbox.cif.g08.bks.cpg/sg2_182_cif.got.tgz:362618.got - 2010.06.03 11:33:40.
