data_PCOD9061082
_publ_section_title
;
Structure prediction by ZEFSAII (Michael W. Deem and Ramdas Pophale) SiO2 
 PCOD9061082
Probable space group: P -1
;
_chemical_formula_sum "Si O2"
_cell_formula_units_Z 12
_cell_length_a 7.039140
_cell_length_b 25.020351
_cell_length_c 13.441569
_cell_angle_alpha 23.917388
_cell_angle_beta 115.293929
_cell_angle_gamma 132.402036
_cell_volume 549.319571
_symmetry_space_group_name_H-M "P -1"
_symmetry_group_IT_number 2
_symmetry_cell_setting 'triclinic'
loop_
_space_group_symop_operation_xyz
x,y,z
-x,-y,-z
loop_
_atom_site_type_symbol
_atom_site_label
_atom_site_fract_x
_atom_site_fract_y
_atom_site_fract_z
Si Si1 0.921983 0.593050 0.087463
Si Si2 0.900537 0.808703 0.073164
Si Si3 0.158400 0.156448 0.675611
Si Si4 0.154450 0.500700 0.437451
Si Si5 0.892093 0.300588 0.279680
Si Si6 0.109114 0.922395 0.709038
O O1 0.549129 0.369774 0.411240
O O2 0.159552 0.596162 0.180040
O O3 0.960426 0.639873 0.900078
O O4 0.024356 0.767371 0.877638
O O5 0.526380 0.642944 0.310281
O O6 0.026120 0.720034 0.265610
O O7 0.896276 0.812225 0.948114
O O8 0.104270 0.027829 0.791489
O O9 0.004552 0.226753 0.495306
O O10 0.000000 0.000000 0.000000
O O11 0.000000 0.500000 0.500000
O O12 0.494224 0.104431 0.515677
O O13 0.000000 0.500000 0.000000
O O14 0.000000 0.000000 0.500000
#
# Coordination Sequence:
#
# PCOD9061082 Si02
#       6
#     2   2   2   2   2   2
#     4  12  25  45  73 102 148 188 248 297 364 432
#     4  11  25  43  71 103 147 181 243 297 361 424
#     4  12  28  45  71 107 148 193 243 301 364 430
#     4  11  23  44  72 106 140 190 237 299 359 432
#     4  12  27  48  72 105 151 194 243 301 365 434
#     4  12  24  44  75 104 139 191 246 299 364 433
#
# _framework density 21.845206999999998
#
# number of rings (size 3 to 8) (size 9 to 14) (size 15 to 20)
#    0.000    0.333    1.667    7.000    7.000    0.667 
#    0.000    0.000    0.000    0.000    0.000    0.000 
#    0.000    0.000    0.000    0.000    0.000    0.000 
#
# Total GULP energy -67082.320880 kJ/mol
# GULP energy per Si atom -5590.193407 kJ/mol
# Density = 2.179549 g / cm^3
# Si number density = 21.845207 Si / 1000 Ang^3
#
#
#
# Elastic Constant Matrix: (Units=GPa)
#
#
# Indices 1 2 3 4 5 6 
#
# 1 131.8799 52.5978 66.1439 -7.1511 23.4565 -14.1843
# 2 52.5978 88.3448 46.5334 -3.0103 17.3704 -20.7145
# 3 66.1439 46.5334 120.5236 -0.3739 17.8790 -10.2873
# 4 -7.1511 -3.0103 -0.3739 67.7993 -0.9454 4.0112
# 5 23.4565 17.3704 17.8790 -0.9454 67.6615 -2.6193
# 6 -14.1843 -20.7145 -10.2873 4.0112 -2.6193 39.7430
#
#
#
# Elastic Compliance Matrix: (Units=1/GPa)
#
#
# Indices 1 2 3 4 5 6 
#
# 1 0.012033 -0.004146 -0.004668 0.000992 -0.001833 0.000704
# 2 -0.004146 0.017659 -0.003699 -0.000093 -0.001863 0.006654
# 3 -0.004668 -0.003699 0.012359 -0.000576 -0.000721 -0.000384
# 4 0.000992 -0.000093 -0.000576 0.014927 -0.000012 -0.001351
# 5 -0.001833 -0.001863 -0.000721 -0.000012 0.016054 -0.000752
# 6 0.000704 0.006654 -0.000384 -0.001351 -0.000752 0.028868
#
#
# Mechanical properties :
#
#
# Convention : Reuss Voigt Hill
#
# Bulk Modulus (GPa) = 58.73399 74.58871 66.66135
# Shear Modulus (GPa) = 37.70712 46.73898 42.22305
#
# Velocity S-wave (km/s) = 4.15915 4.63055 4.40116
# Velocity P-wave (km/s) = 7.07174 7.92513 7.51056
#
# Compressibility (1/GPa) = 0.01702592
#
# Stress axis : x y z
#
# Youngs Moduli (GPa) = 83.10561 56.62819 80.91043
#
# Poissons Ratio (x) = 0.23478 0.37768
# Poissons Ratio (y) = 0.34456 0.29927
# Poissons Ratio (z) = 0.38793 0.20945
#
# Static dielectric constant tensor:
#      x y z
#    x 1.794270 0.014860 -0.016800 
#    y 0.014860 1.747660 -0.010820 
#    z -0.016800 -0.010820 1.771950 
# 
# From -- ./inp_files/370291.got.cif
#   From: 2010.05.17/outbox.cif.g08.bks.cpg/sg2_186_cif.got.tgz:370291.got - 2010.06.03 11:33:40.
