data_PCOD9061680
_publ_section_title
;
Structure prediction by ZEFSAII (Michael W. Deem and Ramdas Pophale) SiO2 
 PCOD9061680
Probable space group: P -1
;
_chemical_formula_sum "Si O2"
_cell_formula_units_Z 15
_cell_length_a 8.779027
_cell_length_b 8.824955
_cell_length_c 9.321313
_cell_angle_alpha 94.214776
_cell_angle_beta 60.332180
_cell_angle_gamma 88.446778
_cell_volume 624.116879
_symmetry_space_group_name_H-M "P -1"
_symmetry_group_IT_number 2
_symmetry_cell_setting 'triclinic'
loop_
_space_group_symop_operation_xyz
x,y,z
-x,-y,-z
loop_
_atom_site_type_symbol
_atom_site_label
_atom_site_fract_x
_atom_site_fract_y
_atom_site_fract_z
Si Si1 0.244230 0.243407 0.743101
Si Si2 0.264242 0.621414 0.247735
Si Si3 0.396456 0.648532 0.489984
Si Si4 0.993766 0.912481 0.347446
Si Si5 0.596447 0.680301 0.907769
Si Si6 0.297716 0.732157 0.843978
Si Si7 0.000000 0.500000 0.000000
Si Si8 0.213243 0.061356 0.033973
O O1 0.451424 0.254967 0.639528
O O2 0.141928 0.408604 0.817101
O O3 0.185138 0.154110 0.625026
O O4 0.189327 0.164153 0.911190
O O5 0.270853 0.611354 0.415553
O O6 0.132781 0.764481 0.279762
O O7 0.244928 0.452999 0.177122
O O8 0.455946 0.654295 0.096555
O O9 0.500000 0.500000 0.500000
O O10 0.301352 0.736029 0.671842
O O11 0.047917 0.024603 0.203714
O O12 0.000000 0.000000 0.500000
O O13 0.484228 0.662209 0.814922
O O14 0.666686 0.843902 0.911664
O O15 0.139860 0.634938 0.961708
O O16 0.285619 0.898341 0.931244
#
# Coordination Sequence:
#
# PCOD9061680 Si02
#       8
#     2   2   2   2   2   2   1   2
#     4  12  27  49  74 109 150 202 249 315 376 456
#     4  11  24  47  75 107 147 196 253 307 379 445
#     4  12  25  46  76 113 141 191 262 317 366 444
#     4  12  30  48  71 111 159 197 248 314 386 452
#     4  11  23  45  77 109 141 195 259 312 368 453
#     4  12  26  46  79 109 150 198 253 317 379 456
#     4  12  24  46  76 102 148 198 254 300 374 456
#     4  12  27  46  75 109 149 201 253 303 390 449
#
# _framework density 24.033961000000001
#
# number of rings (size 3 to 8) (size 9 to 14) (size 15 to 20)
#    0.000    0.267    6.667    0.800    7.467    0.533 
#    0.000    1.333    0.000    0.000    0.000    0.000 
#    0.000    0.000    0.000    0.000    0.000    0.000 
#
# Total GULP energy -83712.100699 kJ/mol
# GULP energy per Si atom -5580.806713 kJ/mol
# Density = 2.397926 g / cm^3
# Si number density = 24.033961 Si / 1000 Ang^3
#
#
#
# Elastic Constant Matrix: (Units=GPa)
#
#
# Indices 1 2 3 4 5 6 
#
# 1 60.2276 38.8058 16.9995 4.7600 7.5180 8.4665
# 2 38.8058 117.2343 23.6627 17.2258 -2.4467 21.5355
# 3 16.9995 23.6627 104.0648 21.6584 24.9807 2.0904
# 4 4.7600 17.2258 21.6584 34.0705 -3.0936 7.6874
# 5 7.5180 -2.4467 24.9807 -3.0936 34.2760 0.4598
# 6 8.4665 21.5355 2.0904 7.6874 0.4598 37.0901
#
#
#
# Elastic Compliance Matrix: (Units=1/GPa)
#
#
# Indices 1 2 3 4 5 6 
#
# 1 0.022152 -0.007173 -0.001123 0.001067 -0.004442 -0.000995
# 2 -0.007173 0.012712 -0.001951 -0.002691 0.003728 -0.005122
# 3 -0.001123 -0.001951 0.015162 -0.010207 -0.011902 0.002798
# 4 0.001067 -0.002691 -0.010207 0.039467 0.010661 -0.006418
# 5 -0.004442 0.003728 -0.011902 0.010661 0.040094 -0.003187
# 6 -0.000995 -0.005122 0.002798 -0.006418 -0.003187 0.031375
#
#
# Mechanical properties :
#
#
# Convention : Reuss Voigt Hill
#
# Bulk Modulus (GPa) = 33.86168 48.94031 41.40099
# Shear Modulus (GPa) = 26.13703 34.55789 30.34746
#
# Velocity S-wave (km/s) = 3.30131 3.79605 3.55729
# Velocity P-wave (km/s) = 5.35268 6.29448 5.84259
#
# Compressibility (1/GPa) = 0.02953191
#
# Stress axis : x y z
#
# Youngs Moduli (GPa) = 45.14206 78.66573 65.95641
#
# Poissons Ratio (x) = 0.56424 0.07409
# Poissons Ratio (y) = 0.32379 0.12868
# Poissons Ratio (z) = 0.05071 0.15347
#
# Static dielectric constant tensor:
#      x y z
#    x 2.007190 -0.075570 0.031910 
#    y -0.075570 1.998940 -0.002980 
#    z 0.031910 -0.002980 1.909020 
# 
# From -- ./inp_files/158425.got.cif
#   From: 2010.05.17/outbox.cif.g08.bks.cpg/sg2_80_cif.got.tgz:158425.got - 2010.06.03 11:33:40.
