data_PCOD9061196
_publ_section_title
;
Structure prediction by ZEFSAII (Michael W. Deem and Ramdas Pophale) SiO2 
 PCOD9061196
Probable space group: P -1
;
_chemical_formula_sum "Si O2"
_cell_formula_units_Z 12
_cell_length_a 15.463749
_cell_length_b 9.272361
_cell_length_c 9.068733
_cell_angle_alpha 97.060253
_cell_angle_beta 63.790802
_cell_angle_gamma 42.684612
_cell_volume 535.604001
_symmetry_space_group_name_H-M "P -1"
_symmetry_group_IT_number 2
_symmetry_cell_setting 'triclinic'
loop_
_space_group_symop_operation_xyz
x,y,z
-x,-y,-z
loop_
_atom_site_type_symbol
_atom_site_label
_atom_site_fract_x
_atom_site_fract_y
_atom_site_fract_z
Si Si1 0.478725 0.700514 0.664728
Si Si2 0.599458 0.899021 0.071330
Si Si3 0.940774 0.628020 0.399316
Si Si4 0.539616 0.372294 0.796129
Si Si5 0.002620 0.341093 0.063115
Si Si6 0.328423 0.428776 0.795190
O O1 0.583307 0.431436 0.642481
O O2 0.567338 0.640577 0.436758
O O3 0.469868 0.848664 0.799201
O O4 0.240093 0.975341 0.850540
O O5 0.550380 0.858040 0.239657
O O6 0.851780 0.562819 0.831806
O O7 0.500000 0.000000 0.000000
O O8 0.000000 0.500000 0.500000
O O9 0.921361 0.506896 0.302476
O O10 0.737114 0.000187 0.601602
O O11 0.336329 0.550156 0.921931
O O12 0.500000 0.500000 0.000000
O O13 0.871168 0.389771 0.093579
O O14 0.000000 0.500000 0.000000
#
# Coordination Sequence:
#
# PCOD9061196 Si02
#       6
#     2   2   2   2   2   2
#     4  11  25  46  71 105 150 182 236 312 357 420
#     4  11  24  44  73 107 135 190 249 291 353 434
#     4  11  24  44  75 100 144 187 237 299 357 426
#     4  12  27  49  69 105 153 188 237 305 368 427
#     4  11  23  44  74 109 137 184 255 292 349 431
#     4  12  25  44  78 103 142 194 243 291 365 428
#
# _framework density 22.404616000000001
#
# number of rings (size 3 to 8) (size 9 to 14) (size 15 to 20)
#    0.000    0.667    3.333    6.000    4.667    0.667 
#    3.000    1.667    0.000    0.000    0.000    0.000 
#    0.000    0.000    0.000    0.000    0.000    0.000 
#
# Total GULP energy -67063.267340 kJ/mol
# GULP energy per Si atom -5588.605612 kJ/mol
# Density = 2.235362 g / cm^3
# Si number density = 22.404616 Si / 1000 Ang^3
#
#
#
# Elastic Constant Matrix: (Units=GPa)
#
#
# Indices 1 2 3 4 5 6 
#
# 1 212.6847 52.0781 53.3292 -15.6398 13.2617 -29.6530
# 2 52.0781 165.1992 42.0526 -16.8117 -2.4734 1.5841
# 3 53.3292 42.0526 76.7120 -13.0027 2.1595 -9.3405
# 4 -15.6398 -16.8117 -13.0027 27.1312 -4.5056 8.2875
# 5 13.2617 -2.4734 2.1595 -4.5056 31.8481 -8.4784
# 6 -29.6530 1.5841 -9.3405 8.2875 -8.4784 41.9839
#
#
#
# Elastic Compliance Matrix: (Units=1/GPa)
#
#
# Indices 1 2 3 4 5 6 
#
# 1 0.006428 -0.001240 -0.003314 0.000005 -0.001610 0.003524
# 2 -0.001240 0.007607 -0.003036 0.003437 0.001193 -0.002276
# 3 -0.003314 -0.003036 0.017885 0.004612 0.000854 0.001015
# 4 0.000005 0.003437 0.004612 0.044034 0.004341 -0.006916
# 5 -0.001610 0.001193 0.000854 0.004341 0.034057 0.005029
# 6 0.003524 -0.002276 0.001015 -0.006916 0.005029 0.029000
#
#
# Mechanical properties :
#
#
# Convention : Reuss Voigt Hill
#
# Bulk Modulus (GPa) = 59.73632 83.27951 71.50792
# Shear Modulus (GPa) = 31.29489 40.66837 35.98163
#
# Velocity S-wave (km/s) = 3.74144 4.26511 4.01183
# Velocity P-wave (km/s) = 6.73683 7.84260 7.31065
#
# Compressibility (1/GPa) = 0.01674023
#
# Stress axis : x y z
#
# Youngs Moduli (GPa) = 155.55792 131.46631 55.91315
#
# Poissons Ratio (x) = 0.16306 0.18528
# Poissons Ratio (y) = 0.19295 0.16973
# Poissons Ratio (z) = 0.51548 0.39909
#
# Static dielectric constant tensor:
#      x y z
#    x 1.872560 0.007350 -0.031120 
#    y 0.007350 1.827730 -0.042190 
#    z -0.031120 -0.042190 1.884610 
# 
# From -- ./inp_files/298756.got.cif
#   From: 2010.05.17/outbox.cif.g08.bks.cpg/sg2_150_cif.got.tgz:298756.got - 2010.06.03 11:33:40.
