data_PCOD9061056
_publ_section_title
;
Structure prediction by ZEFSAII (Michael W. Deem and Ramdas Pophale) SiO2 
 PCOD9061056
Probable space group: P -1
;
_chemical_formula_sum "Si O2"
_cell_formula_units_Z 13
_cell_length_a 8.956622
_cell_length_b 9.123762
_cell_length_c 12.097263
_cell_angle_alpha 84.013218
_cell_angle_beta 108.172539
_cell_angle_gamma 42.057009
_cell_volume 534.442220
_symmetry_space_group_name_H-M "P -1"
_symmetry_group_IT_number 2
_symmetry_cell_setting 'triclinic'
loop_
_space_group_symop_operation_xyz
x,y,z
-x,-y,-z
loop_
_atom_site_type_symbol
_atom_site_label
_atom_site_fract_x
_atom_site_fract_y
_atom_site_fract_z
Si Si1 0.323553 0.233164 0.523154
Si Si2 0.000000 0.500000 0.000000
Si Si3 0.623845 0.142898 0.172623
Si Si4 0.702426 0.402628 0.234958
Si Si5 0.851012 0.807542 0.799545
Si Si6 0.804512 0.012639 0.981541
Si Si7 0.926987 0.306895 0.516904
O O1 0.266579 0.447256 0.466966
O O2 0.056290 0.339443 0.470106
O O3 0.500000 0.000000 0.500000
O O4 0.532439 0.074855 0.686268
O O5 0.339852 0.276023 0.091969
O O6 0.033051 0.444423 0.150944
O O7 0.566789 0.361070 0.156589
O O8 0.787625 0.993890 0.107818
O O9 0.828069 0.948922 0.336316
O O10 0.493651 0.697874 0.146658
O O11 0.775038 0.328214 0.387488
O O12 0.974654 0.224336 0.238352
O O13 0.903060 0.798759 0.944832
O O14 0.000000 0.000000 0.000000
#
# Coordination Sequence:
#
# PCOD9061056 Si02
#       7
#     2   1   2   2   2   2   2
#     4  11  23  44  72 102 146 191 237 297 376 433
#     4  12  26  44  72 108 150 184 246 306 360 428
#     4  12  26  47  73 114 149 190 246 304 364 433
#     4  12  24  48  75 103 150 193 244 298 367 438
#     4  12  24  45  72 105 141 197 240 302 363 434
#     4  12  25  46  72 102 148 195 244 291 367 441
#     4  11  25  45  73 110 143 188 248 304 361 438
#
# _framework density 24.324425999999999
#
# number of rings (size 3 to 8) (size 9 to 14) (size 15 to 20)
#    0.000    0.308    7.692    1.846    0.000    1.846 
#    2.769    1.538    0.000    0.000    0.000    0.000 
#    0.000    0.000    0.000    0.000    0.000    0.000 
#
# Total GULP energy -72426.617828 kJ/mol
# GULP energy per Si atom -5571.278294 kJ/mol
# Density = 2.426906 g / cm^3
# Si number density = 24.324426 Si / 1000 Ang^3
#
#
#
# Elastic Constant Matrix: (Units=GPa)
#
#
# Indices 1 2 3 4 5 6 
#
# 1 92.2984 8.2402 16.7298 13.8014 13.7721 -9.8668
# 2 8.2402 90.7008 23.9552 14.3091 3.6229 8.0835
# 3 16.7298 23.9552 93.3678 -7.5419 4.0485 -3.1821
# 4 13.8014 14.3091 -7.5419 57.3763 1.8027 1.1490
# 5 13.7721 3.6229 4.0485 1.8027 29.2319 -5.2695
# 6 -9.8668 8.0835 -3.1821 1.1490 -5.2695 25.3344
#
#
#
# Elastic Compliance Matrix: (Units=1/GPa)
#
#
# Indices 1 2 3 4 5 6 
#
# 1 0.012878 -0.000247 -0.002162 -0.003248 -0.004821 0.003967
# 2 -0.000247 0.013087 -0.003695 -0.003539 -0.001663 -0.004921
# 3 -0.002162 -0.003695 0.012354 0.003034 -0.000110 0.001728
# 4 -0.003248 -0.003539 0.003034 0.019496 0.000240 -0.000589
# 5 -0.004821 -0.001663 -0.000110 0.000240 0.037859 0.006503
# 6 0.003967 -0.004921 0.001728 -0.000589 0.006503 0.044184
#
#
# Mechanical properties :
#
#
# Convention : Reuss Voigt Hill
#
# Bulk Modulus (GPa) = 38.29905 41.57970 39.93937
# Shear Modulus (GPa) = 31.10030 37.55132 34.32581
#
# Velocity S-wave (km/s) = 3.57958 3.93335 3.76062
# Velocity P-wave (km/s) = 5.73269 6.14485 5.94235
#
# Compressibility (1/GPa) = 0.02611031
#
# Stress axis : x y z
#
# Youngs Moduli (GPa) = 77.65421 76.41181 80.94221
#
# Poissons Ratio (x) = 0.01891 0.17500
# Poissons Ratio (y) = 0.01922 0.29907
# Poissons Ratio (z) = 0.16789 0.28233
#
# Static dielectric constant tensor:
#      x y z
#    x 1.762160 -0.288580 0.209190 
#    y -0.288580 1.891080 0.084800 
#    z 0.209190 0.084800 2.157560 
# 
# From -- ./inp_files/288710.got.cif
#   From: 2010.05.17/outbox.cif.g08.bks.cpg/sg2_145_cif.got.tgz:288710.got - 2010.06.03 11:33:40.
