data_PCOD9061210
_publ_section_title
;
Structure prediction by ZEFSAII (Michael W. Deem and Ramdas Pophale) SiO2 
 PCOD9061210
Probable space group: P -1
;
_chemical_formula_sum "Si O2"
_cell_formula_units_Z 16
_cell_length_a 14.462034
_cell_length_b 14.084468
_cell_length_c 14.379354
_cell_angle_alpha 39.920228
_cell_angle_beta 40.173193
_cell_angle_gamma 20.996093
_cell_volume 658.564447
_symmetry_space_group_name_H-M "P -1"
_symmetry_group_IT_number 2
_symmetry_cell_setting 'triclinic'
loop_
_space_group_symop_operation_xyz
x,y,z
-x,-y,-z
loop_
_atom_site_type_symbol
_atom_site_label
_atom_site_fract_x
_atom_site_fract_y
_atom_site_fract_z
Si Si1 0.724134 0.472409 0.755385
Si Si2 0.845418 0.136473 0.132741
Si Si3 0.920328 0.399257 0.128771
Si Si4 0.387275 0.383995 0.983082
Si Si5 0.879571 0.073967 0.743148
Si Si6 0.312271 0.551201 0.550610
Si Si7 0.254120 0.278787 0.310831
Si Si8 0.671465 0.671037 0.453035
O O1 0.421120 0.690887 0.837782
O O2 0.786405 0.566327 0.693625
O O3 0.738704 0.505109 0.611507
O O4 0.922501 0.167358 0.856632
O O5 0.821643 0.335231 0.008065
O O6 0.874353 0.090802 0.258103
O O7 0.709522 0.575055 0.075325
O O8 0.832664 0.415776 0.283671
O O9 0.109614 0.103522 0.169766
O O10 0.000000 0.500000 0.000000
O O11 0.638472 0.269396 0.855207
O O12 0.418873 0.213209 0.150021
O O13 0.850787 0.204850 0.578964
O O14 0.500000 0.500000 0.500000
O O15 0.437573 0.323316 0.556118
O O16 0.961569 0.486624 0.345194
O O17 0.444219 0.982994 0.421867
#
# Coordination Sequence:
#
# PCOD9061210 Si02
#       8
#     2   2   2   2   2   2   2   2
#     4  12  24  48  77 106 148 192 256 304 381 439
#     4  11  23  44  75 106 142 192 239 319 360 438
#     4  11  26  44  71 107 149 197 250 310 376 447
#     4  11  25  46  70 104 156 190 250 309 377 438
#     4  11  24  47  73 103 155 190 254 310 373 437
#     4  12  25  46  77 112 141 208 252 309 372 450
#     4  12  29  46  74 110 149 206 237 313 382 455
#     4  12  27  48  74 107 154 188 260 306 376 439
#
# _framework density 24.295269000000001
#
# number of rings (size 3 to 8) (size 9 to 14) (size 15 to 20)
#    0.000    0.500    3.750    3.375    7.000    3.500 
#    0.000    0.000    0.000    0.000    0.000    0.000 
#    0.000    0.000    0.000    0.000    0.000    0.000 
#
# Total GULP energy -89450.804441 kJ/mol
# GULP energy per Si atom -5590.675278 kJ/mol
# Density = 2.423997 g / cm^3
# Si number density = 24.295269 Si / 1000 Ang^3
#
#
#
# Elastic Constant Matrix: (Units=GPa)
#
#
# Indices 1 2 3 4 5 6 
#
# 1 119.2322 37.4569 10.8933 6.7777 -17.6449 12.6294
# 2 37.4569 119.0128 27.3386 -8.1130 -17.7604 10.7619
# 3 10.8933 27.3386 110.7424 5.5303 -9.6857 7.2659
# 4 6.7777 -8.1130 5.5303 35.2311 8.4198 -4.7704
# 5 -17.6449 -17.7604 -9.6857 8.4198 38.1343 1.2298
# 6 12.6294 10.7619 7.2659 -4.7704 1.2298 35.8851
#
#
#
# Elastic Compliance Matrix: (Units=1/GPa)
#
#
# Indices 1 2 3 4 5 6 
#
# 1 0.010547 -0.002672 0.000514 -0.004396 0.004858 -0.003766
# 2 -0.002672 0.010416 -0.002102 0.002415 0.002597 -0.001526
# 3 0.000514 -0.002102 0.010008 -0.003041 0.002539 -0.002068
# 4 -0.004396 0.002415 -0.003041 0.033307 -0.009235 0.006183
# 5 0.004858 0.002597 0.002539 -0.009235 0.032537 -0.005345
# 6 -0.003766 -0.001526 -0.002068 0.006183 -0.005345 0.031073
#
#
# Mechanical properties :
#
#
# Convention : Reuss Voigt Hill
#
# Bulk Modulus (GPa) = 44.54092 55.59610 50.06851
# Shear Modulus (GPa) = 34.74812 40.07000 37.40906
#
# Velocity S-wave (km/s) = 3.78596 4.06555 3.92824
# Velocity P-wave (km/s) = 6.12244 6.70608 6.42089
#
# Compressibility (1/GPa) = 0.02245126
#
# Stress axis : x y z
#
# Youngs Moduli (GPa) = 94.81307 96.00300 99.92096
#
# Poissons Ratio (x) = 0.25648 -0.05131
# Poissons Ratio (y) = 0.25330 0.21003
# Poissons Ratio (z) = -0.04869 0.20180
#
# Static dielectric constant tensor:
#      x y z
#    x 1.935060 0.008530 -0.000590 
#    y 0.008530 2.018070 0.034290 
#    z -0.000590 0.034290 1.932880 
# 
# From -- ./inp_files/534257.got.cif
#   From: 2010.05.17/outbox.cif.g08.bks.cpg/sg2_268_cif.got.tgz:534257.got - 2010.06.03 11:33:40.
