data_PCOD9061089
_publ_section_title
;
Structure prediction by ZEFSAII (Michael W. Deem and Ramdas Pophale) SiO2 
 PCOD9061089
Probable space group: P -1
;
_chemical_formula_sum "Si O2"
_cell_formula_units_Z 12
_cell_length_a 20.646578
_cell_length_b 11.780626
_cell_length_c 17.951756
_cell_angle_alpha 29.061533
_cell_angle_beta 160.104998
_cell_angle_gamma 159.407024
_cell_volume 521.934995
_symmetry_space_group_name_H-M "P -1"
_symmetry_group_IT_number 2
_symmetry_cell_setting 'triclinic'
loop_
_space_group_symop_operation_xyz
x,y,z
-x,-y,-z
loop_
_atom_site_type_symbol
_atom_site_label
_atom_site_fract_x
_atom_site_fract_y
_atom_site_fract_z
Si Si1 0.292291 0.223167 0.340226
Si Si2 0.227407 0.390686 0.520614
Si Si3 0.350840 0.627770 0.050304
Si Si4 0.843952 0.329198 0.583201
Si Si5 0.879839 0.604496 0.761058
Si Si6 0.815303 0.736248 0.217607
O O1 0.282495 0.467849 0.149734
O O2 0.588003 0.434006 0.571974
O O3 0.288664 0.014746 0.393778
O O4 0.025465 0.960938 0.249594
O O5 0.476077 0.433910 0.759260
O O6 0.267534 0.601200 0.511432
O O7 0.157549 0.473651 0.322134
O O8 0.000000 0.000000 0.500000
O O9 0.110820 0.467059 0.828958
O O10 0.500000 0.000000 0.000000
O O11 0.867058 0.522781 0.427460
O O12 0.081309 0.990588 0.766363
O O13 0.000000 0.500000 0.000000
O O14 0.500000 0.500000 0.000000
#
# Coordination Sequence:
#
# PCOD9061089 Si02
#       6
#     2   2   2   2   2   2
#     4  11  27  48  73 115 151 197 257 310 382 448
#     4  11  23  44  72 108 144 195 253 299 382 448
#     4  11  24  45  74 107 150 197 244 315 375 445
#     4  12  25  47  73 107 152 195 249 316 369 452
#     4  11  25  46  72 108 148 200 249 311 375 451
#     4  12  27  48  75 108 152 205 252 310 377 452
#
# _framework density 22.991371000000001
#
# number of rings (size 3 to 8) (size 9 to 14) (size 15 to 20)
#    0.000    0.667    3.333    3.500    4.667    4.000 
#    0.000    0.000    0.000    0.000    0.000    0.000 
#    0.000    0.000    0.000    0.000    0.000    0.000 
#
# Total GULP energy -67024.723802 kJ/mol
# GULP energy per Si atom -5585.393650 kJ/mol
# Density = 2.293904 g / cm^3
# Si number density = 22.991371 Si / 1000 Ang^3
#
#
#
# Elastic Constant Matrix: (Units=GPa)
#
#
# Indices 1 2 3 4 5 6 
#
# 1 113.4486 34.8726 34.7727 -4.4331 5.9487 11.2162
# 2 34.8726 140.4960 66.7677 -8.8694 -6.4343 14.1809
# 3 34.7727 66.7677 213.1944 -1.0932 -7.1978 32.6828
# 4 -4.4331 -8.8694 -1.0932 56.0298 5.8631 -3.1127
# 5 5.9487 -6.4343 -7.1978 5.8631 30.8973 -4.8900
# 6 11.2162 14.1809 32.6828 -3.1127 -4.8900 45.5438
#
#
#
# Elastic Compliance Matrix: (Units=1/GPa)
#
#
# Indices 1 2 3 4 5 6 
#
# 1 0.010028 -0.002016 -0.000872 0.000680 -0.002917 -0.001483
# 2 -0.002016 0.008902 -0.002350 0.001033 0.001441 -0.000364
# 3 -0.000872 -0.002350 0.006111 -0.000581 0.000673 -0.003406
# 4 0.000680 0.001033 -0.000581 0.018458 -0.003424 0.000822
# 5 -0.002917 0.001441 0.000673 -0.003424 0.034550 0.003262
# 6 -0.001483 -0.000364 -0.003406 0.000822 0.003262 0.025286
#
#
# Mechanical properties :
#
#
# Convention : Reuss Voigt Hill
#
# Bulk Modulus (GPa) = 68.65108 82.21832 75.43470
# Shear Modulus (GPa) = 42.13593 48.54259 45.33926
#
# Velocity S-wave (km/s) = 4.28563 4.59992 4.44555
# Velocity P-wave (km/s) = 7.37653 8.00315 7.69622
#
# Compressibility (1/GPa) = 0.01456641
#
# Stress axis : x y z
#
# Youngs Moduli (GPa) = 99.72540 112.32879 163.65267
#
# Poissons Ratio (x) = 0.22640 0.14270
# Poissons Ratio (y) = 0.20100 0.38451
# Poissons Ratio (z) = 0.08696 0.26392
#
# Static dielectric constant tensor:
#      x y z
#    x 1.939990 0.108610 0.042670 
#    y 0.108610 1.892430 0.018270 
#    z 0.042670 0.018270 1.780740 
# 
# From -- ./inp_files/577772.got.cif
#   From: 2010.05.17/outbox.cif.g08.bks.cpg/sg2_289_cif.got.tgz:577772.got - 2010.06.03 11:33:40.
