data_PCOD9061991
_publ_section_title
;
Structure prediction by ZEFSAII (Michael W. Deem and Ramdas Pophale) SiO2 
 PCOD9061991
Probable space group: P -1
;
_chemical_formula_sum "Si O2"
_cell_formula_units_Z 11
_cell_length_a 10.368971
_cell_length_b 6.469670
_cell_length_c 18.221022
_cell_angle_alpha 124.888969
_cell_angle_beta 150.620115
_cell_angle_gamma 47.328638
_cell_volume 440.324851
_symmetry_space_group_name_H-M "P -1"
_symmetry_group_IT_number 2
_symmetry_cell_setting 'triclinic'
loop_
_space_group_symop_operation_xyz
x,y,z
-x,-y,-z
loop_
_atom_site_type_symbol
_atom_site_label
_atom_site_fract_x
_atom_site_fract_y
_atom_site_fract_z
Si Si1 0.664867 0.149528 0.925889
Si Si2 0.500000 0.500000 0.500000
Si Si3 0.800732 0.766739 0.778418
Si Si4 0.247653 0.145255 0.845359
Si Si5 0.297144 0.578012 0.721682
Si Si6 0.840541 0.338556 0.485546
O O1 0.412126 0.200952 0.869107
O O2 0.569665 0.417338 0.878666
O O3 0.714618 0.896800 0.843448
O O4 0.963525 0.121097 0.106079
O O5 0.534472 0.798072 0.601882
O O6 0.683378 0.467348 0.509152
O O7 0.971961 0.425532 0.790762
O O8 0.145916 0.908975 0.728112
O O9 0.500000 0.000000 0.000000
O O10 0.374820 0.551143 0.669140
O O11 0.088125 0.437754 0.609718
O O12 0.000000 0.000000 0.500000
#
# Coordination Sequence:
#
# PCOD9061991 Si02
#       6
#     2   1   2   2   2   2
#     4  11  25  48  70 105 147 188 243 302 361 426
#     4  12  24  44  70 102 142 184 236 292 358 428
#     4  11  25  46  71 102 147 192 232 302 360 430
#     4  12  25  44  74 106 140 187 246 302 357 425
#     4  11  23  46  77 104 144 194 240 298 369 426
#     4  11  25  47  73 105 149 191 236 299 363 437
#
# _framework density 24.981556999999999
#
# number of rings (size 3 to 8) (size 9 to 14) (size 15 to 20)
#    0.000    0.727    1.818    6.000    2.545    2.182 
#    6.545   16.364    0.000    0.000    0.000    0.000 
#    0.000    0.000    0.000    0.000    0.000    0.000 
#
# Total GULP energy -61335.231011 kJ/mol
# GULP energy per Si atom -5575.930092 kJ/mol
# Density = 2.492470 g / cm^3
# Si number density = 24.981557 Si / 1000 Ang^3
#
#
#
# Elastic Constant Matrix: (Units=GPa)
#
#
# Indices 1 2 3 4 5 6 
#
# 1 127.7685 44.7389 31.7340 4.1182 -11.1417 -1.7553
# 2 44.7389 98.7287 30.5153 25.2524 -12.7311 -6.7621
# 3 31.7340 30.5153 82.0583 25.4195 -6.1650 14.4112
# 4 4.1182 25.2524 25.4195 58.6445 5.4556 -5.5194
# 5 -11.1417 -12.7311 -6.1650 5.4556 45.7301 7.2838
# 6 -1.7553 -6.7621 14.4112 -5.5194 7.2838 41.1489
#
#
#
# Elastic Compliance Matrix: (Units=1/GPa)
#
#
# Indices 1 2 3 4 5 6 
#
# 1 0.010042 -0.004037 -0.003367 0.002574 0.000367 0.001225
# 2 -0.004037 0.014495 -0.002355 -0.005050 0.003047 0.001818
# 3 -0.003367 -0.002355 0.018610 -0.007949 0.003369 -0.008711
# 4 0.002574 -0.005050 -0.007949 0.023604 -0.005659 0.006232
# 5 0.000367 0.003047 0.003369 -0.005659 0.024862 -0.005823
# 6 0.001225 0.001818 -0.008711 0.006232 -0.005823 0.029570
#
#
# Mechanical properties :
#
#
# Convention : Reuss Voigt Hill
#
# Bulk Modulus (GPa) = 42.32213 58.05911 50.19062
# Shear Modulus (GPa) = 33.65227 42.54252 38.09739
#
# Velocity S-wave (km/s) = 3.67425 4.13117 3.90939
# Velocity P-wave (km/s) = 5.91424 6.78577 6.36494
#
# Compressibility (1/GPa) = 0.02362830
#
# Stress axis : x y z
#
# Youngs Moduli (GPa) = 99.57745 68.98845 53.73549
#
# Poissons Ratio (x) = 0.27852 0.18093
# Poissons Ratio (y) = 0.40201 0.12656
# Poissons Ratio (z) = 0.33529 0.16248
#
# Static dielectric constant tensor:
#      x y z
#    x 1.893860 -0.020890 0.055940 
#    y -0.020890 1.973460 -0.044070 
#    z 0.055940 -0.044070 2.526150 
# 
# From -- ./inp_files/86992.got.cif
#   From: 2010.05.17/outbox.cif.g08.bks.cpg/sg2_44_cif.got.tgz:86992.got - 2010.06.03 11:33:40.
