data_PCOD9061724
_publ_section_title
;
Structure prediction by ZEFSAII (Michael W. Deem and Ramdas Pophale) SiO2 
 PCOD9061724
Probable space group: P -1
;
_chemical_formula_sum "Si O2"
_cell_formula_units_Z 14
_cell_length_a 11.327878
_cell_length_b 13.412047
_cell_length_c 19.071585
_cell_angle_alpha 21.089680
_cell_angle_beta 36.066440
_cell_angle_gamma 46.592233
_cell_volume 582.300547
_symmetry_space_group_name_H-M "P -1"
_symmetry_group_IT_number 2
_symmetry_cell_setting 'triclinic'
loop_
_space_group_symop_operation_xyz
x,y,z
-x,-y,-z
loop_
_atom_site_type_symbol
_atom_site_label
_atom_site_fract_x
_atom_site_fract_y
_atom_site_fract_z
Si Si1 0.267587 0.355832 0.882546
Si Si2 0.032878 0.914533 0.376690
Si Si3 0.025073 0.725199 0.712122
Si Si4 0.457587 0.789049 0.258253
Si Si5 0.636126 0.412814 0.930217
Si Si6 0.396654 0.652206 0.777498
Si Si7 0.248684 0.101866 0.831109
O O1 0.454189 0.247420 0.836442
O O2 0.335651 0.529489 0.808967
O O3 0.200931 0.567778 0.720418
O O4 0.068931 0.062822 0.185682
O O5 0.272845 0.929005 0.269357
O O6 0.881844 0.605080 0.678267
O O7 0.940002 0.130220 0.322933
O O8 0.807359 0.464964 0.996760
O O9 0.000000 0.000000 0.500000
O O10 0.340972 0.448009 0.553865
O O11 0.665894 0.943297 0.102995
O O12 0.550137 0.500826 0.841000
O O13 0.500000 0.500000 0.000000
O O14 0.637633 0.082008 0.151047
O O15 0.500000 0.000000 0.500000
O O16 0.000000 0.000000 0.000000
#
# Coordination Sequence:
#
# PCOD9061724 Si02
#       7
#     2   2   2   2   2   2   2
#     4  11  25  46  71 101 145 193 242 298 381 434
#     4  11  23  46  67 102 144 189 236 302 367 435
#     4  11  24  41  69  99 136 188 243 296 366 431
#     4  11  26  45  75 101 152 194 240 298 371 441
#     4  12  26  44  74 106 144 189 251 307 362 433
#     4  11  24  43  67 104 145 183 242 311 362 431
#     4  11  25  48  70 111 146 188 246 308 359 439
#
# _framework density 24.042566999999998
#
# number of rings (size 3 to 8) (size 9 to 14) (size 15 to 20)
#    0.000    0.857    1.429    6.429   10.000    1.143 
#    2.571    1.429    0.000    0.000    0.000    0.000 
#    0.000    0.000    0.000    0.000    0.000    0.000 
#
# Total GULP energy -78056.318213 kJ/mol
# GULP energy per Si atom -5575.451301 kJ/mol
# Density = 2.398785 g / cm^3
# Si number density = 24.042567 Si / 1000 Ang^3
#
#
#
# Elastic Constant Matrix: (Units=GPa)
#
#
# Indices 1 2 3 4 5 6 
#
# 1 93.8944 52.1478 33.5818 5.3628 -4.7691 -18.6029
# 2 52.1478 152.8319 33.5602 -13.9614 1.8559 -24.9368
# 3 33.5818 33.5602 139.1277 -5.2235 -6.3121 -11.1496
# 4 5.3628 -13.9614 -5.2235 44.4847 -4.3737 6.7164
# 5 -4.7691 1.8559 -6.3121 -4.3737 33.9380 -4.0223
# 6 -18.6029 -24.9368 -11.1496 6.7164 -4.0223 39.6009
#
#
#
# Elastic Compliance Matrix: (Units=1/GPa)
#
#
# Indices 1 2 3 4 5 6 
#
# 1 0.015084 -0.004272 -0.002299 -0.003933 0.001966 0.004615
# 2 -0.004272 0.008900 -0.000810 0.002729 -0.000548 0.002851
# 3 -0.002299 -0.000810 0.008094 0.001015 0.001436 0.000663
# 4 -0.003933 0.002729 0.001015 0.024723 0.002221 -0.003811
# 5 0.001966 -0.000548 0.001436 0.002221 0.030767 0.003731
# 6 0.004615 0.002851 0.000663 -0.003811 0.003731 0.030427
#
#
# Mechanical properties :
#
#
# Convention : Reuss Voigt Hill
#
# Bulk Modulus (GPa) = 57.74786 69.38150 63.56468
# Shear Modulus (GPa) = 36.09356 41.37567 38.73461
#
# Velocity S-wave (km/s) = 3.87878 4.15291 4.01819
# Velocity P-wave (km/s) = 6.64312 7.20528 6.92990
#
# Compressibility (1/GPa) = 0.01731666
#
# Stress axis : x y z
#
# Youngs Moduli (GPa) = 66.29531 112.36349 123.54525
#
# Poissons Ratio (x) = 0.48003 0.28403
# Poissons Ratio (y) = 0.28322 0.10001
# Poissons Ratio (z) = 0.15241 0.09096
#
# Static dielectric constant tensor:
#      x y z
#    x 2.041230 -0.008180 0.003850 
#    y -0.008180 1.920440 -0.001540 
#    z 0.003850 -0.001540 2.002840 
# 
# From -- ./inp_files/382474.got.cif
#   From: 2010.05.17/outbox.cif.g08.bks.cpg/sg2_192_cif.got.tgz:382474.got - 2010.06.03 11:33:40.
