data_PCOD9061166
_publ_section_title
;
Structure prediction by ZEFSAII (Michael W. Deem and Ramdas Pophale) SiO2 
 PCOD9061166
Probable space group: P -1
;
_chemical_formula_sum "Si O2"
_cell_formula_units_Z 14
_cell_length_a 8.755393
_cell_length_b 11.028508
_cell_length_c 9.203239
_cell_angle_alpha 110.781003
_cell_angle_beta 129.362771
_cell_angle_gamma 76.486978
_cell_volume 642.316057
_symmetry_space_group_name_H-M "P -1"
_symmetry_group_IT_number 2
_symmetry_cell_setting 'triclinic'
loop_
_space_group_symop_operation_xyz
x,y,z
-x,-y,-z
loop_
_atom_site_type_symbol
_atom_site_label
_atom_site_fract_x
_atom_site_fract_y
_atom_site_fract_z
Si Si1 0.170890 0.909154 0.489762
Si Si2 0.068352 0.619317 0.390635
Si Si3 0.243591 0.730146 0.819667
Si Si4 0.293136 0.514044 0.958846
Si Si5 0.039933 0.994171 0.851402
Si Si6 0.680653 0.561052 0.721550
Si Si7 0.565529 0.842919 0.860980
O O1 0.116876 0.757651 0.408350
O O2 0.388704 0.915336 0.695423
O O3 0.145772 0.949334 0.325017
O O4 0.000000 0.000000 0.500000
O O5 0.177773 0.626246 0.613689
O O6 0.136840 0.497873 0.282243
O O7 0.838232 0.595666 0.243539
O O8 0.234516 0.659962 0.938145
O O9 0.451497 0.788631 0.912709
O O10 0.086894 0.846974 0.771238
O O11 0.500000 0.500000 0.000000
O O12 0.303434 0.488802 0.125131
O O13 0.241200 0.071225 0.965426
O O14 0.000000 0.000000 0.000000
O O15 0.500000 0.500000 0.500000
O O16 0.643837 0.714461 0.770537
#
# Coordination Sequence:
#
# PCOD9061166 Si02
#       7
#     2   2   2   2   2   2   2
#     4  11  23  44  73  99 132 189 233 274 352 412
#     4  11  24  44  71  99 141 183 229 287 349 416
#     4  11  24  46  67 100 139 184 230 287 348 412
#     4  12  25  41  68 108 136 181 232 284 351 412
#     4  12  28  45  70 105 141 178 239 292 345 418
#     4  12  23  45  70 102 140 179 231 282 350 417
#     4  11  24  47  74  96 140 189 228 284 353 413
#
# _framework density 21.796122
#
# number of rings (size 3 to 8) (size 9 to 14) (size 15 to 20)
#    0.000    0.571    7.143    2.143    4.000    0.571 
#    0.000    0.000    0.000    0.000    0.000    0.000 
#    0.000    0.000    0.000    0.000    0.000    0.000 
#
# Total GULP energy -78209.925879 kJ/mol
# GULP energy per Si atom -5586.423277 kJ/mol
# Density = 2.174651 g / cm^3
# Si number density = 21.796122 Si / 1000 Ang^3
#
#
#
# Elastic Constant Matrix: (Units=GPa)
#
#
# Indices 1 2 3 4 5 6 
#
# 1 62.7135 -2.4919 32.9909 0.7047 -0.2227 -5.1503
# 2 -2.4919 101.4612 40.8050 -12.9793 -8.8041 -18.0119
# 3 32.9909 40.8050 84.0756 -14.7377 -5.5386 17.4548
# 4 0.7047 -12.9793 -14.7377 39.2863 1.1392 -9.4839
# 5 -0.2227 -8.8041 -5.5386 1.1392 41.8884 5.5536
# 6 -5.1503 -18.0119 17.4548 -9.4839 5.5536 31.6130
#
#
#
# Elastic Compliance Matrix: (Units=1/GPa)
#
#
# Indices 1 2 3 4 5 6 
#
# 1 0.035681 0.019476 -0.030596 0.003021 -0.004552 0.035509
# 2 0.019476 0.029657 -0.028894 0.008097 -0.002869 0.038957
# 3 -0.030596 -0.028894 0.048246 -0.003233 0.006896 -0.050267
# 4 0.003021 0.008097 -0.003233 0.030886 -0.001732 0.016461
# 5 -0.004552 -0.002869 0.006896 -0.001732 0.025692 -0.011217
# 6 0.035509 0.038957 -0.050267 0.016461 -0.011217 0.094277
#
#
# Mechanical properties :
#
#
# Convention : Reuss Voigt Hill
#
# Bulk Modulus (GPa) = 29.79909 43.42868 36.61389
# Shear Modulus (GPa) = 14.05870 34.35398 24.20634
#
# Velocity S-wave (km/s) = 2.54246 3.97438 3.33615
# Velocity P-wave (km/s) = 4.72443 6.40540 5.62803
#
# Compressibility (1/GPa) = 0.03355807
#
# Stress axis : x y z
#
# Youngs Moduli (GPa) = 28.02647 33.71848 20.72699
#
# Poissons Ratio (x) = -0.65671 0.63416
# Poissons Ratio (y) = -0.54585 0.59888
# Poissons Ratio (z) = 0.85749 0.97425
#
# Static dielectric constant tensor:
#      x y z
#    x 1.864710 -0.062630 0.008450 
#    y -0.062630 1.940980 -0.069030 
#    z 0.008450 -0.069030 1.830990 
# 
# From -- ./inp_files/190477.got.cif
#   From: 2010.05.17/outbox.cif.g08.bks.cpg/sg2_96_cif.got.tgz:190477.got - 2010.06.03 11:33:40.
