data_PCOD9061490
_publ_section_title
;
Structure prediction by ZEFSAII (Michael W. Deem and Ramdas Pophale) SiO2 
 PCOD9061490
Probable space group: P -1
;
_chemical_formula_sum "Si O2"
_cell_formula_units_Z 13
_cell_length_a 6.143950
_cell_length_b 5.258787
_cell_length_c 16.147750
_cell_angle_alpha 80.729519
_cell_angle_beta 70.678580
_cell_angle_gamma 84.851237
_cell_volume 485.541488
_symmetry_space_group_name_H-M "P -1"
_symmetry_group_IT_number 2
_symmetry_cell_setting 'triclinic'
loop_
_space_group_symop_operation_xyz
x,y,z
-x,-y,-z
loop_
_atom_site_type_symbol
_atom_site_label
_atom_site_fract_x
_atom_site_fract_y
_atom_site_fract_z
Si Si1 0.500000 0.500000 0.500000
Si Si2 0.620261 0.922764 0.351772
Si Si3 0.496422 0.077632 0.819039
Si Si4 0.825764 0.769975 0.550995
Si Si5 0.116065 0.467755 0.859903
Si Si6 0.704695 0.290629 0.012997
Si Si7 0.941605 0.800035 0.713542
O O1 0.574135 0.630352 0.395339
O O2 0.763619 0.556151 0.502547
O O3 0.613442 0.997392 0.252317
O O4 0.424155 0.074945 0.420997
O O5 0.858513 0.017525 0.348793
O O6 0.379734 0.359539 0.825016
O O7 0.423529 0.952508 0.921679
O O8 0.755558 0.988141 0.772957
O O9 0.854779 0.674250 0.646873
O O10 0.000000 0.000000 0.500000
O O11 0.145738 0.645969 0.926614
O O12 0.032472 0.596201 0.779517
O O13 0.908518 0.276821 0.919792
O O14 0.500000 0.500000 0.000000
#
# Coordination Sequence:
#
# PCOD9061490 Si02
#       7
#     1   2   2   2   2   2   2
#     4  12  26  48  78 112 150 208 264 312 408 464
#     4  11  26  47  72 111 156 193 264 331 373 477
#     4  11  25  45  72 111 147 204 256 314 400 461
#     4  11  26  49  76 110 157 201 258 333 386 467
#     4  11  25  44  74 104 153 204 255 321 387 465
#     4  11  23  45  71 108 151 198 259 328 379 458
#     4  11  24  50  73 110 158 198 257 329 383 460
#
# _framework density 26.774232000000001
#
# number of rings (size 3 to 8) (size 9 to 14) (size 15 to 20)
#    0.000    0.923    4.615    0.923    2.154    2.462 
#    5.538    0.000    0.000    0.000    0.000    0.000 
#    0.000    0.000    0.000    0.000    0.000    0.000 
#
# Total GULP energy -72412.077471 kJ/mol
# GULP energy per Si atom -5570.159805 kJ/mol
# Density = 2.671329 g / cm^3
# Si number density = 26.774232 Si / 1000 Ang^3
#
#
#
# Elastic Constant Matrix: (Units=GPa)
#
#
# Indices 1 2 3 4 5 6 
#
# 1 112.6794 28.4800 70.9137 -25.2267 14.6747 12.4017
# 2 28.4800 53.7961 52.8568 -4.6506 3.1719 -3.6390
# 3 70.9137 52.8568 201.9654 -12.3421 27.9207 22.9968
# 4 -25.2267 -4.6506 -12.3421 45.0126 -7.4719 25.4039
# 5 14.6747 3.1719 27.9207 -7.4719 64.7421 -1.4305
# 6 12.4017 -3.6390 22.9968 25.4039 -1.4305 67.2199
#
#
#
# Elastic Compliance Matrix: (Units=1/GPa)
#
#
# Indices 1 2 3 4 5 6 
#
# 1 0.014769 -0.004873 -0.002445 0.010379 -0.000991 -0.006096
# 2 -0.004873 0.027940 -0.007021 -0.005250 0.002309 0.006847
# 3 -0.002445 -0.007021 0.008536 0.001836 -0.002651 -0.003600
# 4 0.010379 -0.005250 0.001836 0.037827 0.001101 -0.017099
# 5 -0.000991 0.002309 -0.002651 0.001101 0.016853 0.001157
# 6 -0.006096 0.006847 -0.003600 -0.017099 0.001157 0.024090
#
#
# Mechanical properties :
#
#
# Convention : Reuss Voigt Hill
#
# Bulk Modulus (GPa) = 44.31302 74.77132 59.54217
# Shear Modulus (GPa) = 30.08164 49.80761 39.94463
#
# Velocity S-wave (km/s) = 3.35555 4.31778 3.86671
# Velocity P-wave (km/s) = 5.62134 7.26944 6.49786
#
# Compressibility (1/GPa) = 0.02256673
#
# Stress axis : x y z
#
# Youngs Moduli (GPa) = 67.71108 35.79103 117.15448
#
# Poissons Ratio (x) = 0.17441 0.28642
# Poissons Ratio (y) = 0.32996 0.82252
# Poissons Ratio (z) = 0.16554 0.25128
#
# Static dielectric constant tensor:
#      x y z
#    x 2.116750 0.530830 0.193090 
#    y 0.530830 0.049320 -1.098540 
#    z 0.193090 -1.098540 1.501830 
# 
# From -- ./inp_files/85972.got.cif
#   From: 2010.05.17/outbox.cif.g08.bks.cpg/sg2_43_cif.got.tgz:85972.got - 2010.06.03 11:33:40.
