data_PCOD9061873
_publ_section_title
;
Structure prediction by ZEFSAII (Michael W. Deem and Ramdas Pophale) SiO2 
 PCOD9061873
Probable space group: P -1
;
_chemical_formula_sum "Si O2"
_cell_formula_units_Z 14
_cell_length_a 6.296265
_cell_length_b 12.079560
_cell_length_c 14.951357
_cell_angle_alpha 40.109167
_cell_angle_beta 52.184818
_cell_angle_gamma 66.892869
_cell_volume 572.177788
_symmetry_space_group_name_H-M "P -1"
_symmetry_group_IT_number 2
_symmetry_cell_setting 'triclinic'
loop_
_space_group_symop_operation_xyz
x,y,z
-x,-y,-z
loop_
_atom_site_type_symbol
_atom_site_label
_atom_site_fract_x
_atom_site_fract_y
_atom_site_fract_z
Si Si1 0.150123 0.348181 0.337313
Si Si2 0.286321 0.643342 0.235961
Si Si3 0.990328 0.036132 0.334655
Si Si4 0.755910 0.348133 0.133647
Si Si5 0.146785 0.134688 0.714049
Si Si6 0.408704 0.542572 0.599126
Si Si7 0.386960 0.823518 0.909264
O O1 0.150127 0.444276 0.374397
O O2 0.457783 0.398027 0.194368
O O3 0.895202 0.427132 0.315883
O O4 0.095521 0.139882 0.479178
O O5 0.519477 0.615857 0.261794
O O6 0.071533 0.754649 0.260612
O O7 0.374153 0.730407 0.065234
O O8 0.798311 0.184924 0.287366
O O9 0.294527 0.119387 0.229719
O O10 0.976820 0.964452 0.280821
O O11 0.750668 0.288906 0.068466
O O12 0.000000 0.500000 0.000000
O O13 0.417302 0.269926 0.541797
O O14 0.237633 0.992953 0.845305
O O15 0.500000 0.500000 0.500000
#
# Coordination Sequence:
#
# PCOD9061873 Si02
#       7
#     2   2   2   2   2   2   2
#     4  12  25  45  79 111 147 208 251 310 380 441
#     4  12  26  43  76 114 155 207 247 303 383 445
#     4  11  24  47  75 109 156 191 257 317 373 451
#     4  11  28  53  77 108 153 196 262 318 376 449
#     4  11  23  46  72 112 156 198 251 310 372 455
#     4  12  24  45  75 114 156 200 257 304 369 458
#     4  11  27  49  75 112 154 200 250 321 379 445
#
# _framework density 24.467918999999998
#
# number of rings (size 3 to 8) (size 9 to 14) (size 15 to 20)
#    0.000    0.571    4.286    3.000    0.000    8.000 
#    0.000    0.714    0.000    0.000    0.000    0.000 
#    0.000    0.000    0.000    0.000    0.000    0.000 
#
# Total GULP energy -78344.853778 kJ/mol
# GULP energy per Si atom -5596.060984 kJ/mol
# Density = 2.441223 g / cm^3
# Si number density = 24.467919 Si / 1000 Ang^3
#
#
#
# Elastic Constant Matrix: (Units=GPa)
#
#
# Indices 1 2 3 4 5 6 
#
# 1 160.0640 66.7938 90.6898 -0.8266 1.7120 -30.1706
# 2 66.7938 126.8044 51.1712 -9.2359 -0.5213 -33.1504
# 3 90.6898 51.1712 119.8868 -7.8515 6.8014 -22.4982
# 4 -0.8266 -9.2359 -7.8515 27.8848 -3.5087 -0.8324
# 5 1.7120 -0.5213 6.8014 -3.5087 51.1098 -9.7749
# 6 -30.1706 -33.1504 -22.4982 -0.8324 -9.7749 62.7612
#
#
#
# Elastic Compliance Matrix: (Units=1/GPa)
#
#
# Indices 1 2 3 4 5 6 
#
# 1 0.012276 -0.003075 -0.007910 -0.002747 0.000711 0.001516
# 2 -0.003075 0.011571 -0.001651 0.003596 0.001515 0.004325
# 3 -0.007910 -0.001651 0.015464 0.003412 -0.001444 0.000689
# 4 -0.002747 0.003596 0.003412 0.038371 0.002835 0.002752
# 5 0.000711 0.001515 -0.001444 0.002835 0.020687 0.003884
# 6 0.001516 0.004325 0.000689 0.002752 0.003884 0.019835
#
#
# Mechanical properties :
#
#
# Convention : Reuss Voigt Hill
#
# Bulk Modulus (GPa) = 71.22998 91.56275 81.39636
# Shear Modulus (GPa) = 33.74785 41.55785 37.65285
#
# Velocity S-wave (km/s) = 3.71788 4.12571 3.92709
# Velocity P-wave (km/s) = 6.89963 7.75875 7.34177
#
# Compressibility (1/GPa) = 0.01403903
#
# Stress axis : x y z
#
# Youngs Moduli (GPa) = 81.45777 86.41970 64.66612
#
# Poissons Ratio (x) = 0.26578 0.51148
# Poissons Ratio (y) = 0.25052 0.10678
# Poissons Ratio (z) = 0.64430 0.14270
#
# Static dielectric constant tensor:
#      x y z
#    x 2.075830 0.041440 0.053620 
#    y 0.041440 1.933510 -0.001020 
#    z 0.053620 -0.001020 2.007090 
# 
# From -- ./inp_files/360378.got.cif
#   From: 2010.05.17/outbox.cif.g08.bks.cpg/sg2_181_cif.got.tgz:360378.got - 2010.06.03 11:33:40.
