data_PCOD9061212
_publ_section_title
;
Structure prediction by ZEFSAII (Michael W. Deem and Ramdas Pophale) SiO2 
 PCOD9061212
Probable space group: P -1
;
_chemical_formula_sum "Si O2"
_cell_formula_units_Z 13
_cell_length_a 7.958005
_cell_length_b 9.153153
_cell_length_c 13.703211
_cell_angle_alpha 139.761374
_cell_angle_beta 123.755854
_cell_angle_gamma 77.569623
_cell_volume 493.858652
_symmetry_space_group_name_H-M "P -1"
_symmetry_group_IT_number 2
_symmetry_cell_setting 'triclinic'
loop_
_space_group_symop_operation_xyz
x,y,z
-x,-y,-z
loop_
_atom_site_type_symbol
_atom_site_label
_atom_site_fract_x
_atom_site_fract_y
_atom_site_fract_z
Si Si1 0.000000 0.000000 0.000000
Si Si2 0.546528 0.778409 0.853418
Si Si3 0.011054 0.051889 0.675805
Si Si4 0.183557 0.641927 0.338240
Si Si5 0.325462 0.520083 0.122972
Si Si6 0.144856 0.601217 0.503559
Si Si7 0.675753 0.989564 0.709345
O O1 0.798819 0.889471 0.959897
O O2 0.812928 0.004648 0.858375
O O3 0.497359 0.558017 0.804059
O O4 0.387644 0.666410 0.653915
O O5 0.500000 0.000000 0.000000
O O6 0.911265 0.150562 0.605181
O O7 0.823599 0.967966 0.655771
O O8 0.108034 0.846475 0.592676
O O9 0.205625 0.294468 0.900033
O O10 0.171847 0.533132 0.170823
O O11 0.085847 0.458626 0.306575
O O12 0.438857 0.769559 0.512966
O O13 0.377732 0.769445 0.208369
O O14 0.000000 0.500000 0.500000
#
# Coordination Sequence:
#
# PCOD9061212 Si02
#       7
#     1   2   2   2   2   2   2
#     4  12  24  46  80 104 154 200 252 314 388 448
#     4  12  26  50  74 106 156 199 255 316 379 457
#     4  11  23  48  71 105 152 197 247 313 377 456
#     4  11  25  45  74 108 145 195 256 309 379 458
#     4  11  24  45  76 104 149 198 250 307 380 454
#     4  12  28  48  71 110 153 200 248 319 382 445
#     4  11  23  44  75 106 145 197 249 313 380 451
#
# _framework density 26.323322000000001
#
# number of rings (size 3 to 8) (size 9 to 14) (size 15 to 20)
#    0.000    0.615    4.615    4.154    4.308    3.077 
#    0.000    1.538    0.000    0.000    0.000    0.000 
#    0.000    0.000    0.000    0.000    0.000    0.000 
#
# Total GULP energy -72599.549362 kJ/mol
# GULP energy per Si atom -5584.580720 kJ/mol
# Density = 2.626341 g / cm^3
# Si number density = 26.323322 Si / 1000 Ang^3
#
#
#
# Elastic Constant Matrix: (Units=GPa)
#
#
# Indices 1 2 3 4 5 6 
#
# 1 48.7487 32.0088 18.5714 -5.2972 5.2072 -1.2997
# 2 32.0088 226.8751 39.9160 -26.2458 -14.3726 -5.6438
# 3 18.5714 39.9160 65.8278 -26.9049 3.6947 7.7827
# 4 -5.2972 -26.2458 -26.9049 49.0883 -4.9140 -6.6518
# 5 5.2072 -14.3726 3.6947 -4.9140 41.3652 2.7130
# 6 -1.2997 -5.6438 7.7827 -6.6518 2.7130 56.5714
#
#
#
# Elastic Compliance Matrix: (Units=1/GPa)
#
#
# Indices 1 2 3 4 5 6 
#
# 1 0.024992 -0.002958 -0.006192 -0.002539 -0.003989 0.001024
# 2 -0.002958 0.005596 -0.002013 0.001955 0.002672 0.000869
# 3 -0.006192 -0.002013 0.022673 0.010324 -0.000573 -0.002221
# 4 -0.002539 0.001955 0.010324 0.027364 0.003211 0.001780
# 5 -0.003989 0.002672 -0.000573 0.003211 0.026079 -0.000619
# 6 0.001024 0.000869 -0.002221 0.001780 -0.000619 0.018332
#
#
# Mechanical properties :
#
#
# Convention : Reuss Voigt Hill
#
# Bulk Modulus (GPa) = 32.32453 58.04933 45.18693
# Shear Modulus (GPa) = 31.71152 46.13533 38.92343
#
# Velocity S-wave (km/s) = 3.47463 4.19100 3.84952
# Velocity P-wave (km/s) = 5.32953 6.74682 6.07962
#
# Compressibility (1/GPa) = 0.03093626
#
# Stress axis : x y z
#
# Youngs Moduli (GPa) = 40.01316 178.69598 44.10562
#
# Poissons Ratio (x) = 0.52849 0.27311
# Poissons Ratio (y) = 0.11834 0.08877
# Poissons Ratio (z) = 0.24777 0.35964
#
# Static dielectric constant tensor:
#      x y z
#    x 2.112670 -0.025110 -0.082000 
#    y -0.025110 2.098790 0.046920 
#    z -0.082000 0.046920 2.075440 
# 
# From -- ./inp_files/494156.got.cif
#   From: 2010.05.17/outbox.cif.g08.bks.cpg/sg2_248_cif.got.tgz:494156.got - 2010.06.03 11:33:40.
