data_PCOD9061032
_publ_section_title
;
Structure prediction by ZEFSAII (Michael W. Deem and Ramdas Pophale) SiO2 
 PCOD9061032
Probable space group: P -1
;
_chemical_formula_sum "Si O2"
_cell_formula_units_Z 15
_cell_length_a 13.510400
_cell_length_b 8.963079
_cell_length_c 9.290602
_cell_angle_alpha 114.513442
_cell_angle_beta 115.032880
_cell_angle_gamma 106.155009
_cell_volume 774.316333
_symmetry_space_group_name_H-M "P -1"
_symmetry_group_IT_number 2
_symmetry_cell_setting 'triclinic'
loop_
_space_group_symop_operation_xyz
x,y,z
-x,-y,-z
loop_
_atom_site_type_symbol
_atom_site_label
_atom_site_fract_x
_atom_site_fract_y
_atom_site_fract_z
Si Si1 0.137054 0.350062 0.303002
Si Si2 0.559473 0.390437 0.413168
Si Si3 0.973918 0.670781 0.078201
Si Si4 0.784072 0.398031 0.078498
Si Si5 0.794707 0.906992 0.577290
Si Si6 0.397353 0.015334 0.344767
Si Si7 0.612848 0.515771 0.168819
Si Si8 0.000000 0.500000 0.500000
O O1 0.287796 0.513854 0.419399
O O2 0.143989 0.177042 0.311080
O O3 0.081557 0.434205 0.418049
O O4 0.056650 0.283877 0.079585
O O5 0.500000 0.500000 0.500000
O O6 0.560325 0.429009 0.260059
O O7 0.475449 0.167136 0.324632
O O8 0.853706 0.573624 0.075488
O O9 0.095660 0.868436 0.300831
O O10 0.000000 0.500000 0.000000
O O11 0.668801 0.399802 0.085620
O O12 0.891099 0.434586 0.276898
O O13 0.717707 0.193280 0.871473
O O14 0.731475 0.744301 0.348794
O O15 0.674325 0.903322 0.574530
O O16 0.500000 0.000000 0.500000
O O17 0.500000 0.500000 0.000000
#
# Coordination Sequence:
#
# PCOD9061032 Si02
#       8
#     2   2   2   2   2   2   2   1
#     4  11  23  44  71  97 142 179 231 291 339 422
#     4  11  23  44  72 101 130 184 232 278 355 414
#     4  12  24  41  70 101 130 182 237 276 342 414
#     4  12  26  44  66 101 143 179 228 294 345 407
#     4  11  23  45  68 102 133 182 233 279 353 414
#     4  12  24  42  74 105 135 179 239 295 346 419
#     4  11  25  47  66 101 142 176 230 298 350 410
#     4  12  22  48  64  96 152 178 216 296 350 398
#
# _framework density 19.371928
#
# number of rings (size 3 to 8) (size 9 to 14) (size 15 to 20)
#    0.000    0.533    8.000    2.000    1.867    1.067 
#    2.400    0.000    0.000    0.000    0.000    0.000 
#    0.000    0.000    0.000    0.000    0.000    0.000 
#
# Total GULP energy -83527.891251 kJ/mol
# GULP energy per Si atom -5568.526083 kJ/mol
# Density = 1.932784 g / cm^3
# Si number density = 19.371928 Si / 1000 Ang^3
#
#
#
# Elastic Constant Matrix: (Units=GPa)
#
#
# Indices 1 2 3 4 5 6 
#
# 1 102.1139 15.7386 -15.7218 -14.6184 -7.7402 -13.9352
# 2 15.7386 72.7367 23.3268 8.6529 15.0885 5.7021
# 3 -15.7218 23.3268 75.9554 -16.6429 14.5569 -5.5538
# 4 -14.6184 8.6529 -16.6429 33.8942 1.1094 12.6409
# 5 -7.7402 15.0885 14.5569 1.1094 33.0391 -4.5591
# 6 -13.9352 5.7021 -5.5538 12.6409 -4.5591 41.8851
#
#
#
# Elastic Compliance Matrix: (Units=1/GPa)
#
#
# Indices 1 2 3 4 5 6 
#
# 1 0.014372 -0.007721 0.007058 0.009933 0.004031 0.004209
# 2 -0.007721 0.021879 -0.009763 -0.011940 -0.007660 -0.004072
# 3 0.007058 -0.009763 0.021969 0.015948 -0.003916 0.001351
# 4 0.009933 -0.011940 0.015948 0.047526 -0.001878 -0.007503
# 5 0.004031 -0.007660 -0.003916 -0.001878 0.037395 0.006502
# 6 0.004209 -0.004072 0.001351 -0.007503 0.006502 0.028981
#
#
# Mechanical properties :
#
#
# Convention : Reuss Voigt Hill
#
# Bulk Modulus (GPa) = 26.76237 33.05479 29.90858
# Shear Modulus (GPa) = 24.33927 36.92783 30.63355
#
# Velocity S-wave (km/s) = 3.54845 4.37080 3.98092
# Velocity P-wave (km/s) = 5.53477 6.52474 6.05004
#
# Compressibility (1/GPa) = 0.03736590
#
# Stress axis : x y z
#
# Youngs Moduli (GPa) = 69.58183 45.70692 45.51954
#
# Poissons Ratio (x) = 0.35290 -0.32126
# Poissons Ratio (y) = 0.53723 0.44442
# Poissons Ratio (z) = -0.49109 0.44625
#
# Static dielectric constant tensor:
#      x y z
#    x 1.674920 0.028210 0.008650 
#    y 0.028210 1.751880 0.008810 
#    z 0.008650 0.008810 1.666880 
# 
# From -- ./inp_files/222564.got.cif
#   From: 2010.05.17/outbox.cif.g08.bks.cpg/sg2_112_cif.got.tgz:222564.got - 2010.06.03 11:33:40.
