data_PCOD9061738
_publ_section_title
;
Structure prediction by ZEFSAII (Michael W. Deem and Ramdas Pophale) SiO2 
 PCOD9061738
Probable space group: P -1
;
_chemical_formula_sum "Si O2"
_cell_formula_units_Z 16
_cell_length_a 13.504261
_cell_length_b 17.428676
_cell_length_c 10.052366
_cell_angle_alpha 50.712194
_cell_angle_beta 35.244930
_cell_angle_gamma 30.028595
_cell_volume 660.527074
_symmetry_space_group_name_H-M "P -1"
_symmetry_group_IT_number 2
_symmetry_cell_setting 'triclinic'
loop_
_space_group_symop_operation_xyz
x,y,z
-x,-y,-z
loop_
_atom_site_type_symbol
_atom_site_label
_atom_site_fract_x
_atom_site_fract_y
_atom_site_fract_z
Si Si1 0.294119 0.777014 0.039716
Si Si2 0.553721 0.537362 0.239891
Si Si3 0.497393 0.341604 0.580515
Si Si4 0.370359 0.059874 0.795119
Si Si5 0.216336 0.447706 0.420780
Si Si6 0.080552 0.218220 0.657828
Si Si7 0.951346 0.978631 0.725119
Si Si8 0.164254 0.335393 0.849953
O O1 0.495083 0.611413 0.081898
O O2 0.048953 0.828466 0.184888
O O3 0.179788 0.900891 0.141902
O O4 0.491571 0.723256 0.764656
O O5 0.439277 0.477422 0.436227
O O6 0.397901 0.672379 0.373524
O O7 0.870180 0.411363 0.080267
O O8 0.283028 0.347738 0.827475
O O9 0.740610 0.191566 0.387745
O O10 0.179727 0.173368 0.751342
O O11 0.382277 0.153700 0.766541
O O12 0.652412 0.892310 0.607400
O O13 0.230799 0.038220 0.060092
O O14 0.154575 0.427856 0.651692
O O15 0.000000 0.500000 0.500000
O O16 0.144643 0.596333 0.330837
O O17 0.000000 0.000000 0.500000
#
# Coordination Sequence:
#
# PCOD9061738 Si02
#       8
#     2   2   2   2   2   2   2   2
#     4  12  25  43  70 101 139 184 228 284 355 414
#     4  11  23  46  68 101 141 177 234 294 333 414
#     4  11  25  44  72  99 135 185 236 284 347 409
#     4  11  25  45  69  99 146 179 232 289 341 417
#     4  12  23  41  68 102 142 174 220 285 352 412
#     4  11  25  44  70 106 139 183 228 285 352 420
#     4  12  26  48  68  96 140 189 231 292 342 405
#     4  12  24  44  72 105 137 186 226 285 354 414
#
# _framework density 24.22308
#
# number of rings (size 3 to 8) (size 9 to 14) (size 15 to 20)
#    0.000    0.500    5.000    3.000    3.500    0.500 
#    0.000    3.750    0.000    0.000    0.000    0.000 
#    0.000    0.000    0.000    0.000    0.000    0.000 
#
# Total GULP energy -89391.417623 kJ/mol
# GULP energy per Si atom -5586.963601 kJ/mol
# Density = 2.416795 g / cm^3
# Si number density = 24.223080 Si / 1000 Ang^3
#
#
#
# Elastic Constant Matrix: (Units=GPa)
#
#
# Indices 1 2 3 4 5 6 
#
# 1 74.5868 35.6689 19.5050 -10.9185 -16.1175 26.8100
# 2 35.6689 84.0585 34.4220 12.9604 10.4532 42.0719
# 3 19.5050 34.4220 133.0126 3.3058 0.6457 15.4911
# 4 -10.9185 12.9604 3.3058 36.1048 4.3825 -0.4485
# 5 -16.1175 10.4532 0.6457 4.3825 35.3884 -11.2276
# 6 26.8100 42.0719 15.4911 -0.4485 -11.2276 34.3291
#
#
#
# Elastic Compliance Matrix: (Units=1/GPa)
#
#
# Indices 1 2 3 4 5 6 
#
# 1 0.026316 -0.026887 0.000218 0.014859 0.024600 0.020541
# 2 -0.026887 0.125574 -0.008307 -0.042929 -0.094868 -0.160739
# 3 0.000218 -0.008307 0.008682 0.001790 0.004589 0.007616
# 4 0.014859 -0.042929 0.001790 0.044428 0.029960 0.050578
# 5 0.024600 -0.094868 0.004589 0.029960 0.104827 0.129658
# 6 0.020541 -0.160739 0.007616 0.050578 0.129658 0.249710
#
#
# Mechanical properties :
#
#
# Convention : Reuss Voigt Hill
#
# Bulk Modulus (GPa) = 11.03498 52.31662 31.67580
# Shear Modulus (GPa) = 7.57925 34.63525 21.10725
#
# Velocity S-wave (km/s) = 1.77080 3.78543 2.95510
# Velocity P-wave (km/s) = 2.95744 6.38363 4.97479
#
# Compressibility (1/GPa) = 0.09062094
#
# Stress axis : x y z
#
# Youngs Moduli (GPa) = 38.00009 7.96341 115.18159
#
# Poissons Ratio (x) = 0.21411 -0.02512
# Poissons Ratio (y) = 1.02171 0.95677
# Poissons Ratio (z) = -0.00829 0.06615
#
# Static dielectric constant tensor:
#      x y z
#    x 2.120960 0.000440 -0.006370 
#    y 0.000440 2.233940 0.064030 
#    z -0.006370 0.064030 2.044420 
# 
# From -- ./inp_files/456935.got.cif
#   From: 2010.05.17/outbox.cif.g08.bks.cpg/sg2_229_cif.got.tgz:456935.got - 2010.06.03 11:33:40.
