data_PCOD9061998
_publ_section_title
;
Structure prediction by ZEFSAII (Michael W. Deem and Ramdas Pophale) SiO2 
 PCOD9061998
Probable space group: P -1
;
_chemical_formula_sum "Si O2"
_cell_formula_units_Z 12
_cell_length_a 7.866655
_cell_length_b 10.080888
_cell_length_c 9.245924
_cell_angle_alpha 117.074064
_cell_angle_beta 94.768644
_cell_angle_gamma 44.164265
_cell_volume 418.412655
_symmetry_space_group_name_H-M "P -1"
_symmetry_group_IT_number 2
_symmetry_cell_setting 'triclinic'
loop_
_space_group_symop_operation_xyz
x,y,z
-x,-y,-z
loop_
_atom_site_type_symbol
_atom_site_label
_atom_site_fract_x
_atom_site_fract_y
_atom_site_fract_z
Si Si1 0.238812 0.651773 0.718184
Si Si2 0.058625 0.128965 0.902700
Si Si3 0.749077 0.246279 0.673048
Si Si4 0.796051 0.645281 0.922557
Si Si5 0.326630 0.959278 0.241752
Si Si6 0.357694 0.291129 0.367254
O O1 0.557088 0.459127 0.655108
O O2 0.245018 0.477470 0.571497
O O3 0.978401 0.882256 0.728356
O O4 0.147499 0.763793 0.928427
O O5 0.191225 0.186005 0.011030
O O6 0.869399 0.270464 0.818891
O O7 0.335069 0.872307 0.734524
O O8 0.588845 0.212245 0.712361
O O9 0.000000 0.000000 0.500000
O O10 0.512845 0.792290 0.039226
O O11 0.815600 0.576081 0.726184
O O12 0.000000 0.500000 0.000000
O O13 0.359588 0.116366 0.336444
#
# Coordination Sequence:
#
# PCOD9061998 Si02
#       6
#     2   2   2   2   2   2
#     4  12  24  47  78 105 148 191 244 301 359 433
#     4  11  23  49  70 105 153 184 242 302 355 438
#     4  12  28  49  69 108 151 198 243 294 362 439
#     4  11  23  46  77 112 143 187 241 308 364 429
#     4  11  25  45  76 106 141 196 240 299 364 423
#     4  11  23  48  76 109 145 184 246 304 362 430
#
# _framework density 28.679819999999999
#
# number of rings (size 3 to 8) (size 9 to 14) (size 15 to 20)
#    0.000    0.667    5.000    3.000    0.000    3.333 
#    3.000    0.000    0.000    0.000    0.000    0.000 
#    0.000    0.000    0.000    0.000    0.000    0.000 
#
# Total GULP energy -67024.543711 kJ/mol
# GULP energy per Si atom -5585.378643 kJ/mol
# Density = 2.861454 g / cm^3
# Si number density = 28.679820 Si / 1000 Ang^3
#
#
#
# Elastic Constant Matrix: (Units=GPa)
#
#
# Indices 1 2 3 4 5 6 
#
# 1 79.0973 61.1629 71.7485 -1.9496 21.7299 -15.1024
# 2 61.1629 192.4750 40.5824 -11.3304 7.6943 -31.9409
# 3 71.7485 40.5824 147.9640 10.2897 17.7535 -10.5165
# 4 -1.9496 -11.3304 10.2897 56.0219 -16.1529 -0.1772
# 5 21.7299 7.6943 17.7535 -16.1529 43.1102 6.1689
# 6 -15.1024 -31.9409 -10.5165 -0.1772 6.1689 42.5808
#
#
#
# Elastic Compliance Matrix: (Units=1/GPa)
#
#
# Indices 1 2 3 4 5 6 
#
# 1 0.033315 -0.006666 -0.012444 -0.001269 -0.011731 0.005436
# 2 -0.006666 0.007689 0.001054 0.001622 0.001671 0.003428
# 3 -0.012444 0.001054 0.012645 -0.002545 -0.000004 -0.000510
# 4 -0.001269 0.001622 -0.002545 0.021356 0.009566 -0.001159
# 5 -0.011731 0.001671 -0.000004 0.009566 0.033502 -0.007722
# 6 0.005436 0.003428 -0.000510 -0.001159 -0.007722 0.028973
#
#
# Mechanical properties :
#
#
# Convention : Reuss Voigt Hill
#
# Bulk Modulus (GPa) = 57.02520 85.16934 71.09727
# Shear Modulus (GPa) = 27.86489 44.74541 36.30515
#
# Velocity S-wave (km/s) = 3.12041 3.95418 3.56178
# Velocity P-wave (km/s) = 5.73665 7.11397 6.46211
#
# Compressibility (1/GPa) = 0.01753611
#
# Stress axis : x y z
#
# Youngs Moduli (GPa) = 30.01666 130.05144 79.08506
#
# Poissons Ratio (x) = 0.86696 0.98413
# Poissons Ratio (y) = 0.20010 -0.08335
# Poissons Ratio (z) = 0.37353 -0.13707
#
# Static dielectric constant tensor:
#      x y z
#    x 2.440650 0.196990 -0.016390 
#    y 0.196990 2.356300 0.007960 
#    z -0.016390 0.007960 2.198400 
# 
# From -- ./inp_files/190104.got.cif
#   From: 2010.05.17/outbox.cif.g08.bks.cpg/sg2_96_cif.got.tgz:190104.got - 2010.06.03 11:33:40.
