data_PCOD9061899
_publ_section_title
;
Structure prediction by ZEFSAII (Michael W. Deem and Ramdas Pophale) SiO2 
 PCOD9061899
Probable space group: P -1
;
_chemical_formula_sum "Si O2"
_cell_formula_units_Z 13
_cell_length_a 15.057959
_cell_length_b 16.669608
_cell_length_c 7.343872
_cell_angle_alpha 135.091597
_cell_angle_beta 123.182274
_cell_angle_gamma 25.790704
_cell_volume 541.145091
_symmetry_space_group_name_H-M "P -1"
_symmetry_group_IT_number 2
_symmetry_cell_setting 'triclinic'
loop_
_space_group_symop_operation_xyz
x,y,z
-x,-y,-z
loop_
_atom_site_type_symbol
_atom_site_label
_atom_site_fract_x
_atom_site_fract_y
_atom_site_fract_z
Si Si1 0.659897 0.195046 0.153843
Si Si2 0.513747 0.853190 0.302648
Si Si3 0.728729 0.261089 0.961414
Si Si4 0.267277 0.532510 0.478512
Si Si5 0.971788 0.405626 0.923906
Si Si6 0.000000 0.000000 0.500000
Si Si7 0.571586 0.060208 0.231484
O O1 0.418318 0.451648 0.365917
O O2 0.634858 0.084167 0.895397
O O3 0.825285 0.084696 0.313804
O O4 0.702974 0.210697 0.031127
O O5 0.459903 0.883537 0.500445
O O6 0.500000 0.000000 0.500000
O O7 0.758810 0.599611 0.117657
O O8 0.804420 0.313156 0.202706
O O9 0.500000 0.500000 0.000000
O O10 0.878618 0.076256 0.674464
O O11 0.068934 0.652091 0.364878
O O12 0.427041 0.287551 0.338191
O O13 0.176568 0.179976 0.905118
O O14 0.000000 0.500000 0.000000
O O15 0.500000 0.000000 0.000000
#
# Coordination Sequence:
#
# PCOD9061899 Si02
#       7
#     2   2   2   2   2   1   2
#     4  11  26  51  75 111 159 200 260 328 386 467
#     4  11  24  45  76 110 153 200 256 325 384 468
#     4  12  26  51  75 110 156 200 262 323 393 460
#     4  11  25  47  75 111 151 205 260 322 383 472
#     4  11  23  46  73 104 151 204 244 318 392 446
#     4  12  28  46  84 112 148 214 262 314 404 460
#     4  12  24  46  72 109 156 197 264 315 386 467
#
# _framework density 24.023133000000001
#
# number of rings (size 3 to 8) (size 9 to 14) (size 15 to 20)
#    0.000    0.615    4.615    2.769    2.154    1.846 
#    5.538    0.000    0.000    0.000    0.000    0.000 
#    0.000    0.000    0.000    0.000    0.000    0.000 
#
# Total GULP energy -72520.179818 kJ/mol
# GULP energy per Si atom -5578.475371 kJ/mol
# Density = 2.396845 g / cm^3
# Si number density = 24.023133 Si / 1000 Ang^3
#
#
#
# Elastic Constant Matrix: (Units=GPa)
#
#
# Indices 1 2 3 4 5 6 
#
# 1 107.9384 46.0254 58.8612 -13.5808 -4.9643 4.0661
# 2 46.0254 152.3140 49.2788 -31.5021 17.0793 -22.6691
# 3 58.8612 49.2788 134.1774 -40.5848 -7.1971 1.3888
# 4 -13.5808 -31.5021 -40.5848 54.3966 -4.5591 5.2566
# 5 -4.9643 17.0793 -7.1971 -4.5591 53.3061 -5.2493
# 6 4.0661 -22.6691 1.3888 5.2566 -5.2493 38.5303
#
#
#
# Elastic Compliance Matrix: (Units=1/GPa)
#
#
# Indices 1 2 3 4 5 6 
#
# 1 0.013423 -0.003349 -0.005205 -0.002107 0.001169 -0.002752
# 2 -0.003349 0.009776 -0.001419 0.003010 -0.002851 0.005357
# 3 -0.005205 -0.001419 0.012719 0.007697 0.002198 -0.001495
# 4 -0.002107 0.003010 0.007697 0.025651 0.001923 -0.001522
# 5 0.001169 -0.002851 0.002198 0.001923 0.020305 0.000624
# 6 -0.002752 0.005357 -0.001495 -0.001522 0.000624 0.029742
#
#
# Mechanical properties :
#
#
# Convention : Reuss Voigt Hill
#
# Bulk Modulus (GPa) = 62.60949 78.08449 70.34699
# Shear Modulus (GPa) = 36.52687 45.26422 40.89555
#
# Velocity S-wave (km/s) = 3.90357 4.34544 4.13042
# Velocity P-wave (km/s) = 6.81439 7.59944 7.21760
#
# Compressibility (1/GPa) = 0.01597202
#
# Stress axis : x y z
#
# Youngs Moduli (GPa) = 74.49864 102.29159 78.62414
#
# Poissons Ratio (x) = 0.34255 0.40922
# Poissons Ratio (y) = 0.24948 0.11159
# Poissons Ratio (z) = 0.38775 0.14518
#
# Static dielectric constant tensor:
#      x y z
#    x 2.028740 0.012880 0.048880 
#    y 0.012880 1.909580 0.007580 
#    z 0.048880 0.007580 1.889710 
# 
# From -- ./inp_files/337942.got.cif
#   From: 2010.05.17/outbox.cif.g08.bks.cpg/sg2_169_cif.got.tgz:337942.got - 2010.06.03 11:33:40.
