data_PCOD9061242
_publ_section_title
;
Structure prediction by ZEFSAII (Michael W. Deem and Ramdas Pophale) SiO2 
 PCOD9061242
Probable space group: P -1
;
_chemical_formula_sum "Si O2"
_cell_formula_units_Z 14
_cell_length_a 11.706904
_cell_length_b 10.966075
_cell_length_c 5.211881
_cell_angle_alpha 123.405581
_cell_angle_beta 109.295289
_cell_angle_gamma 75.583563
_cell_volume 525.269548
_symmetry_space_group_name_H-M "P -1"
_symmetry_group_IT_number 2
_symmetry_cell_setting 'triclinic'
loop_
_space_group_symop_operation_xyz
x,y,z
-x,-y,-z
loop_
_atom_site_type_symbol
_atom_site_label
_atom_site_fract_x
_atom_site_fract_y
_atom_site_fract_z
Si Si1 0.638778 0.623710 0.551499
Si Si2 0.895797 0.618257 0.445185
Si Si3 0.289280 0.702899 0.748367
Si Si4 0.933159 0.858101 0.362901
Si Si5 0.862268 0.338440 0.895376
Si Si6 0.349662 0.093647 0.774398
Si Si7 0.524970 0.179283 0.622553
O O1 0.770829 0.639137 0.535209
O O2 0.643757 0.456593 0.447093
O O3 0.521896 0.661426 0.327742
O O4 0.621685 0.757217 0.892568
O O5 0.938040 0.768494 0.533631
O O6 0.000000 0.500000 0.500000
O O7 0.857669 0.513807 0.055557
O O8 0.206228 0.735158 0.474885
O O9 0.203415 0.687664 0.916429
O O10 0.384472 0.806804 0.056593
O O11 0.792259 0.907120 0.292397
O O12 0.000504 0.735079 0.087943
O O13 0.000000 0.000000 0.500000
O O14 0.400247 0.117164 0.552141
O O15 0.413447 0.930388 0.671484
#
# Coordination Sequence:
#
# PCOD9061242 Si02
#       7
#     2   2   2   2   2   2   2
#     4  11  23  44  76 107 143 199 258 317 384 467
#     4  11  23  47  79 114 156 204 257 323 397 470
#     4  11  26  46  79 112 152 197 259 324 384 460
#     4  12  24  46  74 110 152 199 258 318 389 464
#     4  11  25  48  75 115 156 201 254 326 395 466
#     4  11  25  46  72 104 150 205 251 314 392 464
#     4  11  25  47  68 107 153 199 257 313 387 463
#
# _framework density 26.652982000000002
#
# number of rings (size 3 to 8) (size 9 to 14) (size 15 to 20)
#    0.000    0.857    1.429    5.571    4.000    0.571 
#    5.143    5.714    0.000    0.000    0.000    0.000 
#    0.000    0.000    0.000    0.000    0.000    0.000 
#
# Total GULP energy -78262.910359 kJ/mol
# GULP energy per Si atom -5590.207883 kJ/mol
# Density = 2.659232 g / cm^3
# Si number density = 26.652982 Si / 1000 Ang^3
#
#
#
# Elastic Constant Matrix: (Units=GPa)
#
#
# Indices 1 2 3 4 5 6 
#
# 1 153.7715 33.7933 58.2108 19.5395 -25.3321 -12.5153
# 2 33.7933 106.7877 51.8624 20.2324 -11.3314 -11.3625
# 3 58.2108 51.8624 136.5882 14.0391 -5.0501 -13.2800
# 4 19.5395 20.2324 14.0391 46.2379 -3.6659 -6.0332
# 5 -25.3321 -11.3314 -5.0501 -3.6659 46.0624 12.2453
# 6 -12.5153 -11.3625 -13.2800 -6.0332 12.2453 56.7165
#
#
#
# Elastic Compliance Matrix: (Units=1/GPa)
#
#
# Indices 1 2 3 4 5 6 
#
# 1 0.008778 -0.000340 -0.003228 -0.002251 0.004221 -0.000038
# 2 -0.000340 0.012440 -0.004051 -0.003832 0.001955 0.000639
# 3 -0.003228 -0.004051 0.010287 0.000027 -0.001992 0.001318
# 4 -0.002251 -0.003832 0.000027 0.024389 -0.000628 0.001472
# 5 0.004221 0.001955 -0.001992 -0.000628 0.025497 -0.004715
# 6 -0.000038 0.000639 0.001318 0.001472 -0.004715 0.019234
#
#
# Mechanical properties :
#
#
# Convention : Reuss Voigt Hill
#
# Bulk Modulus (GPa) = 61.46934 76.09781 68.78357
# Shear Modulus (GPa) = 41.22484 46.68876 43.95680
#
# Velocity S-wave (km/s) = 3.93711 4.18990 4.06547
# Velocity P-wave (km/s) = 6.61670 7.21252 6.92102
#
# Compressibility (1/GPa) = 0.01626827
#
# Stress axis : x y z
#
# Youngs Moduli (GPa) = 113.91829 80.38269 97.21199
#
# Poissons Ratio (x) = 0.02730 0.31383
# Poissons Ratio (y) = 0.03869 0.39377
# Poissons Ratio (z) = 0.36777 0.32560
#
# Static dielectric constant tensor:
#      x y z
#    x 2.074000 0.034050 0.084910 
#    y 0.034050 2.137220 -0.061390 
#    z 0.084910 -0.061390 2.279610 
# 
# From -- ./inp_files/72630.got.cif
#   From: 2010.05.17/outbox.cif.g08.bks.cpg/sg2_37_cif.got.tgz:72630.got - 2010.06.03 11:33:40.
