data_PCOD9061203
_publ_section_title
;
Structure prediction by ZEFSAII (Michael W. Deem and Ramdas Pophale) SiO2 
 PCOD9061203
Probable space group: P -1
;
_chemical_formula_sum "Si O2"
_cell_formula_units_Z 15
_cell_length_a 8.796692
_cell_length_b 12.172684
_cell_length_c 7.942389
_cell_angle_alpha 79.868024
_cell_angle_beta 49.695172
_cell_angle_gamma 63.381491
_cell_volume 571.684535
_symmetry_space_group_name_H-M "P -1"
_symmetry_group_IT_number 2
_symmetry_cell_setting 'triclinic'
loop_
_space_group_symop_operation_xyz
x,y,z
-x,-y,-z
loop_
_atom_site_type_symbol
_atom_site_label
_atom_site_fract_x
_atom_site_fract_y
_atom_site_fract_z
Si Si1 0.998808 0.236242 0.713238
Si Si2 0.869665 0.022481 0.764885
Si Si3 0.466114 0.141803 0.512013
Si Si4 0.500000 0.500000 0.500000
Si Si5 0.077801 0.575536 0.791983
Si Si6 0.411772 0.207115 0.934924
Si Si7 0.419183 0.596322 0.181122
Si Si8 0.155615 0.777553 0.817921
O O1 0.962578 0.111871 0.759954
O O2 0.847874 0.334185 0.658386
O O3 0.248073 0.214375 0.537536
O O4 0.916906 0.272817 0.953312
O O5 0.605465 0.078517 0.909659
O O6 0.000000 0.000000 0.500000
O O7 0.955924 0.894995 0.842097
O O8 0.436683 0.178947 0.722295
O O9 0.662355 0.172840 0.299866
O O10 0.500000 0.000000 0.500000
O O11 0.281261 0.471921 0.572119
O O12 0.552131 0.539261 0.267703
O O13 0.242882 0.651961 0.675220
O O14 0.000000 0.500000 0.000000
O O15 0.850662 0.698105 0.874482
O O16 0.521251 0.290029 0.914594
O O17 0.500000 0.500000 0.000000
#
# Coordination Sequence:
#
# PCOD9061203 Si02
#       8
#     2   2   2   1   2   2   2   2
#     4  11  25  46  72 115 162 193 270 338 394 489
#     4  11  23  44  74 115 160 205 268 331 400 502
#     4  12  24  46  78 118 162 214 269 334 410 497
#     4  12  26  52  88 104 160 222 268 334 434 448
#     4  12  27  48  80 116 158 211 279 338 399 497
#     4  11  24  47  76 114 169 207 263 353 397 473
#     4  11  26  51  80 119 161 212 280 348 394 506
#     4  12  25  45  80 108 159 216 255 327 424 468
#
# _framework density 26.238247000000001
#
# number of rings (size 3 to 8) (size 9 to 14) (size 15 to 20)
#    0.000    0.533    5.333    2.000    1.867    0.533 
#    4.800    0.667    0.000    0.000    0.000    0.000 
#    0.000    0.000    0.000    0.000    0.000    0.000 
#
# Total GULP energy -83530.074518 kJ/mol
# GULP energy per Si atom -5568.671635 kJ/mol
# Density = 2.617853 g / cm^3
# Si number density = 26.238247 Si / 1000 Ang^3
#
#
#
# Elastic Constant Matrix: (Units=GPa)
#
#
# Indices 1 2 3 4 5 6 
#
# 1 154.4952 91.5118 32.4176 4.3686 -37.1043 -33.1656
# 2 91.5118 146.2548 20.6261 5.2457 -18.2044 -23.7970
# 3 32.4176 20.6261 83.0794 9.1796 -29.5781 -13.0473
# 4 4.3686 5.2457 9.1796 36.4646 -2.4698 -1.6886
# 5 -37.1043 -18.2044 -29.5781 -2.4698 72.7853 19.3868
# 6 -33.1656 -23.7970 -13.0473 -1.6886 19.3868 75.1961
#
#
#
# Elastic Compliance Matrix: (Units=1/GPa)
#
#
# Indices 1 2 3 4 5 6 
#
# 1 0.011843 -0.006456 -0.001562 0.000219 0.003242 0.002078
# 2 -0.006456 0.010963 -0.000322 -0.000748 -0.000915 0.000785
# 3 -0.001562 -0.000322 0.014910 -0.003164 0.004956 0.000447
# 4 0.000219 -0.000748 -0.003164 0.028276 -0.000416 0.000053
# 5 0.003242 -0.000915 0.004956 -0.000416 0.017859 -0.002613
# 6 0.002078 0.000785 0.000447 0.000053 -0.002613 0.015216
#
#
# Mechanical properties :
#
#
# Convention : Reuss Voigt Hill
#
# Bulk Modulus (GPa) = 47.53812 74.77116 61.15464
# Shear Modulus (GPa) = 40.72971 52.84079 46.78525
#
# Velocity S-wave (km/s) = 3.94420 4.49250 4.22725
# Velocity P-wave (km/s) = 6.23695 7.44775 6.86908
#
# Compressibility (1/GPa) = 0.02103575
#
# Stress axis : x y z
#
# Youngs Moduli (GPa) = 84.43711 91.21449 67.06735
#
# Poissons Ratio (x) = 0.58889 0.10476
# Poissons Ratio (y) = 0.54514 0.02162
# Poissons Ratio (z) = 0.13189 0.02940
#
# Static dielectric constant tensor:
#      x y z
#    x 2.463480 -0.048140 0.207900 
#    y -0.048140 2.282710 0.094930 
#    z 0.207900 0.094930 2.369300 
# 
# From -- ./inp_files/185635.got.cif
#   From: 2010.05.17/outbox.cif.g08.bks.cpg/sg2_93_cif.got.tgz:185635.got - 2010.06.03 11:33:40.
