data_PCOD9061610
_publ_section_title
;
Structure prediction by ZEFSAII (Michael W. Deem and Ramdas Pophale) SiO2 
 PCOD9061610
Probable space group: P -1
;
_chemical_formula_sum "Si O2"
_cell_formula_units_Z 16
_cell_length_a 19.136297
_cell_length_b 9.225456
_cell_length_c 19.115076
_cell_angle_alpha 153.126579
_cell_angle_beta 27.270855
_cell_angle_gamma 146.447107
_cell_volume 685.426142
_symmetry_space_group_name_H-M "P -1"
_symmetry_group_IT_number 2
_symmetry_cell_setting 'triclinic'
loop_
_space_group_symop_operation_xyz
x,y,z
-x,-y,-z
loop_
_atom_site_type_symbol
_atom_site_label
_atom_site_fract_x
_atom_site_fract_y
_atom_site_fract_z
Si Si1 0.308528 0.650107 0.428199
Si Si2 0.122909 0.593147 0.072254
Si Si3 0.338018 0.232277 0.448535
Si Si4 0.659627 0.499366 0.898993
Si Si5 0.825714 0.294398 0.290040
Si Si6 0.121990 0.269061 0.305870
Si Si7 0.637556 0.569158 0.114608
Si Si8 0.677514 0.630621 0.319931
O O1 0.169871 0.628750 0.598280
O O2 0.248155 0.461842 0.330789
O O3 0.455904 0.524926 0.274857
O O4 0.365662 0.031198 0.522705
O O5 0.988687 0.352989 0.130045
O O6 0.064959 0.919490 0.241646
O O7 0.271096 0.664597 0.023967
O O8 0.186152 0.442793 0.882176
O O9 0.266098 0.450716 0.553069
O O10 0.525477 0.345658 0.328087
O O11 0.283861 0.312097 0.608543
O O12 0.296562 0.851602 0.304984
O O13 0.791306 0.767331 0.859974
O O14 0.500000 0.500000 0.000000
O O15 0.646875 0.543911 0.011927
O O16 0.725297 0.932542 0.214210
O O17 0.000000 0.500000 0.500000
#
# Coordination Sequence:
#
# PCOD9061610 Si02
#       8
#     2   2   2   2   2   2   2   2
#     4  12  25  49  76 102 149 193 238 301 358 425
#     4  12  29  46  72 110 146 193 240 297 361 434
#     4  11  24  44  74 105 144 190 237 300 359 429
#     4  12  25  47  73 109 143 189 246 298 358 426
#     4  12  27  47  70 107 147 191 238 296 370 421
#     4  12  29  50  72 106 151 195 235 296 370 431
#     4  12  26  48  75 109 144 187 246 305 355 427
#     4  11  23  45  74 107 141 188 249 291 356 428
#
# _framework density 23.343143999999999
#
# number of rings (size 3 to 8) (size 9 to 14) (size 15 to 20)
#    0.000    0.250    5.000    3.000    7.000    1.500 
#    0.000    0.000    0.000    0.000    0.000    0.000 
#    0.000    0.000    0.000    0.000    0.000    0.000 
#
# Total GULP energy -89646.809140 kJ/mol
# GULP energy per Si atom -5602.925571 kJ/mol
# Density = 2.329001 g / cm^3
# Si number density = 23.343144 Si / 1000 Ang^3
#
#
#
# Elastic Constant Matrix: (Units=GPa)
#
#
# Indices 1 2 3 4 5 6 
#
# 1 80.0185 11.1717 32.5601 -2.5137 2.3487 -22.0682
# 2 11.1717 74.5606 23.7406 -15.4110 3.4366 -11.4726
# 3 32.5601 23.7406 77.3009 -19.2648 3.1189 -6.0999
# 4 -2.5137 -15.4110 -19.2648 45.7560 -17.4903 1.8758
# 5 2.3487 3.4366 3.1189 -17.4903 57.0681 -6.5444
# 6 -22.0682 -11.4726 -6.0999 1.8758 -6.5444 36.3605
#
#
#
# Elastic Compliance Matrix: (Units=1/GPa)
#
#
# Indices 1 2 3 4 5 6 
#
# 1 0.018259 0.000796 -0.007727 -0.002376 0.000061 0.010170
# 2 0.000796 0.016071 -0.003935 0.003980 0.000992 0.004867
# 3 -0.007727 -0.003935 0.018808 0.006773 0.001271 -0.002897
# 4 -0.002376 0.003980 0.006773 0.029137 0.008531 0.000982
# 5 0.000061 0.000992 0.001271 0.008531 0.020442 0.003802
# 6 0.010170 0.004867 -0.002897 0.000982 0.003802 0.035358
#
#
# Mechanical properties :
#
#
# Convention : Reuss Voigt Hill
#
# Bulk Modulus (GPa) = 31.84254 40.75830 36.30042
# Shear Modulus (GPa) = 29.36400 38.79743 34.08072
#
# Velocity S-wave (km/s) = 3.55058 4.08125 3.82512
# Velocity P-wave (km/s) = 5.52082 6.30136 5.92396
#
# Compressibility (1/GPa) = 0.03140453
#
# Stress axis : x y z
#
# Youngs Moduli (GPa) = 54.76883 62.22250 53.16906
#
# Poissons Ratio (x) = -0.04950 0.41084
# Poissons Ratio (y) = -0.04357 0.20923
# Poissons Ratio (z) = 0.42321 0.24485
#
# Static dielectric constant tensor:
#      x y z
#    x 1.830350 -0.002470 -0.023160 
#    y -0.002470 1.868220 -0.027220 
#    z -0.023160 -0.027220 1.871030 
# 
# From -- ./inp_files/298266.got.cif
#   From: 2010.05.17/outbox.cif.g08.bks.cpg/sg2_150_cif.got.tgz:298266.got - 2010.06.03 11:33:40.
