data_PCOD9061258
_publ_section_title
;
Structure prediction by ZEFSAII (Michael W. Deem and Ramdas Pophale) SiO2 
 PCOD9061258
Probable space group: P -1
;
_chemical_formula_sum "Si O2"
_cell_formula_units_Z 14
_cell_length_a 11.261071
_cell_length_b 8.802247
_cell_length_c 11.512274
_cell_angle_alpha 116.183901
_cell_angle_beta 43.081426
_cell_angle_gamma 136.120731
_cell_volume 531.434899
_symmetry_space_group_name_H-M "P -1"
_symmetry_group_IT_number 2
_symmetry_cell_setting 'triclinic'
loop_
_space_group_symop_operation_xyz
x,y,z
-x,-y,-z
loop_
_atom_site_type_symbol
_atom_site_label
_atom_site_fract_x
_atom_site_fract_y
_atom_site_fract_z
Si Si1 0.912527 0.739296 0.551725
Si Si2 0.983409 0.659183 0.989088
Si Si3 0.348043 0.888311 0.184465
Si Si4 0.346857 0.241109 0.685270
Si Si5 0.397123 0.188346 0.877849
Si Si6 0.922431 0.706252 0.795009
Si Si7 0.337390 0.216937 0.428425
O O1 0.905119 0.645131 0.650684
O O2 0.690666 0.664734 0.615275
O O3 0.076617 0.746712 0.345638
O O4 0.064036 0.002116 0.568367
O O5 0.779965 0.658079 0.173380
O O6 0.204385 0.920067 0.932059
O O7 0.000000 0.500000 0.000000
O O8 0.946033 0.605593 0.859802
O O9 0.413438 0.753642 0.149876
O O10 0.433101 0.103384 0.271684
O O11 0.500000 0.000000 0.000000
O O12 0.446943 0.306647 0.506438
O O13 0.478865 0.259462 0.711163
O O14 0.148505 0.970099 0.731240
O O15 0.281487 0.289979 0.031682
#
# Coordination Sequence:
#
# PCOD9061258 Si02
#       7
#     2   2   2   2   2   2   2
#     4   8  15  26  42  64  95 119 142 176 228 273
#     4   9  17  28  47  68  89 120 157 185 212 264
#     4  10  18  24  41  73  96 114 144 189 230 258
#     4   8  15  28  45  65  90 117 145 179 231 262
#     4   9  17  27  45  71  95 111 148 188 223 266
#     4   8  14  29  45  66  88 119 145 180 226 270
#     4   8  15  26  42  64  96 120 141 176 229 271
#
# _framework density 26.343769999999999
#
# number of rings (size 3 to 8) (size 9 to 14) (size 15 to 20)
#    0.857    2.571    0.000    2.571    4.000    0.571 
#    0.000    0.000    0.000    1.714    0.000    5.000 
#    0.000    0.000    0.000    0.000    0.000    0.000 
#
# Total GULP energy -78139.611367 kJ/mol
# GULP energy per Si atom -5581.400812 kJ/mol
# Density = 2.628381 g / cm^3
# Si number density = 26.343770 Si / 1000 Ang^3
#
#
#
# Elastic Constant Matrix: (Units=GPa)
#
#
# Indices 1 2 3 4 5 6 
#
# 1 112.5313 35.3869 26.9431 -10.6662 15.2345 -22.8681
# 2 35.3869 135.1822 47.6668 -29.4704 17.2134 -34.0589
# 3 26.9431 47.6668 130.4296 -9.4824 35.6057 -24.6403
# 4 -10.6662 -29.4704 -9.4824 45.0304 -9.2188 10.8179
# 5 15.2345 17.2134 35.6057 -9.2188 36.3883 -3.2866
# 6 -22.8681 -34.0589 -24.6403 10.8179 -3.2866 50.9267
#
#
#
# Elastic Compliance Matrix: (Units=1/GPa)
#
#
# Indices 1 2 3 4 5 6 
#
# 1 0.010518 -0.001407 -0.000081 0.000024 -0.003334 0.003522
# 2 -0.001407 0.010885 -0.002322 0.005124 -0.000592 0.004397
# 3 -0.000081 -0.002322 0.012114 -0.002191 -0.010911 0.004033
# 4 0.000024 0.005124 -0.002191 0.027111 0.006310 -0.002974
# 5 -0.003334 -0.000592 -0.010911 0.006310 0.040902 -0.005873
# 6 0.003522 0.004397 0.004033 -0.002974 -0.005873 0.026362
#
#
# Mechanical properties :
#
#
# Convention : Reuss Voigt Hill
#
# Bulk Modulus (GPa) = 38.61763 66.45964 52.53863
# Shear Modulus (GPa) = 34.68709 44.34550 39.51630
#
# Velocity S-wave (km/s) = 3.63259 4.10730 3.87722
# Velocity P-wave (km/s) = 5.68200 6.91201 6.32697
#
# Compressibility (1/GPa) = 0.02589491
#
# Stress axis : x y z
#
# Youngs Moduli (GPa) = 95.07663 91.86861 82.55110
#
# Poissons Ratio (x) = 0.12930 0.00669
# Poissons Ratio (y) = 0.13382 0.19172
# Poissons Ratio (z) = 0.00770 0.21336
#
# Static dielectric constant tensor:
#      x y z
#    x 2.157610 0.183770 0.001380 
#    y 0.183770 2.253120 -0.075990 
#    z 0.001380 -0.075990 2.042110 
# 
# From -- ./inp_files/414605.got.cif
#   From: 2010.05.17/outbox.cif.g08.bks.cpg/sg2_208_cif.got.tgz:414605.got - 2010.06.03 11:33:40.
