data_PCOD9061672
_publ_section_title
;
Structure prediction by ZEFSAII (Michael W. Deem and Ramdas Pophale) SiO2 
 PCOD9061672
Probable space group: P -1
;
_chemical_formula_sum "Si O2"
_cell_formula_units_Z 11
_cell_length_a 12.409733
_cell_length_b 15.483307
_cell_length_c 8.973950
_cell_angle_alpha 135.614055
_cell_angle_beta 63.737493
_cell_angle_gamma 150.572995
_cell_volume 504.845858
_symmetry_space_group_name_H-M "P -1"
_symmetry_group_IT_number 2
_symmetry_cell_setting 'triclinic'
loop_
_space_group_symop_operation_xyz
x,y,z
-x,-y,-z
loop_
_atom_site_type_symbol
_atom_site_label
_atom_site_fract_x
_atom_site_fract_y
_atom_site_fract_z
Si Si1 0.199612 0.104076 0.110301
Si Si2 0.877128 0.230415 0.386027
Si Si3 0.244931 0.303040 0.602665
Si Si4 0.500000 0.500000 0.000000
Si Si5 0.394429 0.815723 0.708861
Si Si6 0.270157 0.024081 0.531804
O O1 0.154335 0.108925 0.311119
O O2 0.492663 0.403176 0.263324
O O3 0.154698 0.920811 0.881229
O O4 0.000000 0.000000 0.000000
O O5 0.737895 0.218000 0.376846
O O6 0.766773 0.099030 0.454273
O O7 0.179880 0.535479 0.572713
O O8 0.016935 0.193392 0.602073
O O9 0.327921 0.332290 0.748009
O O10 0.561029 0.705058 0.182917
O O11 0.598819 0.920615 0.622230
O O12 0.500000 0.000000 0.000000
#
# Coordination Sequence:
#
# PCOD9061672 Si02
#       6
#     2   2   2   1   2   2
#     4  11  23  45  76 110 149 196 246 303 387 445
#     4  11  26  51  73 106 150 202 247 313 370 444
#     4  11  25  42  73 115 150 196 239 312 375 454
#     4  12  26  44  68 120 150 184 244 310 376 448
#     4  11  30  49  75 107 146 204 258 308 365 445
#     4  12  27  48  78 111 150 195 252 309 379 447
#
# _framework density 21.788830000000001
#
# number of rings (size 3 to 8) (size 9 to 14) (size 15 to 20)
#    0.000    0.727    3.636    1.091   10.182    3.636 
#    0.000    0.000    0.000    0.000    0.000    0.000 
#    0.000    0.000    0.000    0.000    0.000    0.000 
#
# Total GULP energy -61324.149252 kJ/mol
# GULP energy per Si atom -5574.922659 kJ/mol
# Density = 2.173924 g / cm^3
# Si number density = 21.788830 Si / 1000 Ang^3
#
#
#
# Elastic Constant Matrix: (Units=GPa)
#
#
# Indices 1 2 3 4 5 6 
#
# 1 49.8641 22.8692 3.9330 -7.5866 8.4677 -0.2135
# 2 22.8692 148.2070 61.6913 -2.6531 -10.8629 7.7947
# 3 3.9330 61.6913 136.2900 -9.1711 2.4415 0.0689
# 4 -7.5866 -2.6531 -9.1711 33.6103 -16.6558 -4.1798
# 5 8.4677 -10.8629 2.4415 -16.6558 41.4831 -4.5839
# 6 -0.2135 7.7947 0.0689 -4.1798 -4.5839 47.0940
#
#
#
# Elastic Compliance Matrix: (Units=1/GPa)
#
#
# Indices 1 2 3 4 5 6 
#
# 1 0.023333 -0.004647 0.001724 0.003095 -0.004763 0.000684
# 2 -0.004647 0.009568 -0.004248 0.000204 0.003651 -0.001225
# 3 0.001724 -0.004248 0.009376 0.002190 -0.001049 0.000789
# 4 0.003095 0.000204 0.002190 0.039463 0.015691 0.005007
# 5 -0.004763 0.003651 -0.001049 0.015691 0.032834 0.003964
# 6 0.000684 -0.001225 0.000789 0.005007 0.003964 0.022269
#
#
# Mechanical properties :
#
#
# Convention : Reuss Voigt Hill
#
# Bulk Modulus (GPa) = 35.79946 56.81644 46.30795
# Shear Modulus (GPa) = 31.15282 40.82865 35.99074
#
# Velocity S-wave (km/s) = 3.78532 4.33348 4.06864
# Velocity P-wave (km/s) = 5.96412 7.15341 6.58567
#
# Compressibility (1/GPa) = 0.02793338
#
# Stress axis : x y z
#
# Youngs Moduli (GPa) = 42.85839 104.51107 106.65293
#
# Poissons Ratio (x) = 0.48571 -0.18382
# Poissons Ratio (y) = 0.19918 0.45307
# Poissons Ratio (z) = -0.07387 0.44397
#
# Static dielectric constant tensor:
#      x y z
#    x 1.802940 0.013320 0.000000 
#    y 0.013320 1.858680 0.009590 
#    z 0.000000 0.009590 1.747320 
# 
# From -- ./inp_files/22035.got.cif
#   From: 2010.05.17/outbox.cif.g08.bks.cpg/sg2_12_cif.got.tgz:22035.got - 2010.06.03 11:33:40.
