data_PCOD9061416
_publ_section_title
;
Structure prediction by ZEFSAII (Michael W. Deem and Ramdas Pophale) SiO2 
 PCOD9061416
Probable space group: P -1
;
_chemical_formula_sum "Si O2"
_cell_formula_units_Z 14
_cell_length_a 16.346994
_cell_length_b 9.041441
_cell_length_c 18.864820
_cell_angle_alpha 141.998332
_cell_angle_beta 22.875557
_cell_angle_gamma 128.995989
_cell_volume 610.364090
_symmetry_space_group_name_H-M "P -1"
_symmetry_group_IT_number 2
_symmetry_cell_setting 'triclinic'
loop_
_space_group_symop_operation_xyz
x,y,z
-x,-y,-z
loop_
_atom_site_type_symbol
_atom_site_label
_atom_site_fract_x
_atom_site_fract_y
_atom_site_fract_z
Si Si1 0.811609 0.516393 0.068575
Si Si2 0.321596 0.390027 0.631859
Si Si3 0.698160 0.479833 0.001465
Si Si4 0.098225 0.092902 0.219654
Si Si5 0.533271 0.902445 0.178987
Si Si6 0.710659 0.647437 0.711348
Si Si7 0.158757 0.139622 0.453892
O O1 0.675038 0.621493 0.290091
O O2 0.654316 0.629819 0.168041
O O3 0.050042 0.554891 0.894679
O O4 0.886316 0.197382 0.887028
O O5 0.500000 0.500000 0.500000
O O6 0.404354 0.113337 0.421489
O O7 0.621618 0.629465 0.045411
O O8 0.557099 0.296712 0.048229
O O9 0.974328 0.358275 0.733051
O O10 0.205576 0.200887 0.239277
O O11 0.852693 0.334430 0.493542
O O12 0.251334 0.064982 0.016848
O O13 0.359187 0.946567 0.269990
O O14 0.762170 0.725953 0.621975
O O15 0.000000 0.000000 0.500000
#
# Coordination Sequence:
#
# PCOD9061416 Si02
#       7
#     2   2   2   2   2   2   2
#     4  11  24  45  73 102 138 179 235 289 350 412
#     4  11  24  45  75 100 132 183 233 294 351 408
#     4  12  26  45  71 106 141 184 231 285 350 416
#     4  11  23  45  70 103 143 188 230 283 346 414
#     4  12  25  46  73 101 145 183 233 295 342 409
#     4  11  26  42  69 104 145 187 232 276 345 423
#     4  12  26  44  70 102 143 189 230 284 347 413
#
# _framework density 22.93713
#
# number of rings (size 3 to 8) (size 9 to 14) (size 15 to 20)
#    0.000    0.571    4.286    3.429    4.000    3.429 
#    0.000    0.714    0.000    0.000    0.000    0.000 
#    0.000    0.000    0.000    0.000    0.000    0.000 
#
# Total GULP energy -78297.825003 kJ/mol
# GULP energy per Si atom -5592.701786 kJ/mol
# Density = 2.288492 g / cm^3
# Si number density = 22.937130 Si / 1000 Ang^3
#
#
#
# Elastic Constant Matrix: (Units=GPa)
#
#
# Indices 1 2 3 4 5 6 
#
# 1 131.3684 29.3689 20.4085 -6.5008 5.8255 -24.3363
# 2 29.3689 97.3565 26.1755 -30.3348 -7.6566 -24.8325
# 3 20.4085 26.1755 90.4530 -19.2407 4.6937 -16.9323
# 4 -6.5008 -30.3348 -19.2407 43.7703 -4.5580 4.4833
# 5 5.8255 -7.6566 4.6937 -4.5580 43.9583 2.3883
# 6 -24.3363 -24.8325 -16.9323 4.4833 2.3883 37.4269
#
#
#
# Elastic Compliance Matrix: (Units=1/GPa)
#
#
# Indices 1 2 3 4 5 6 
#
# 1 0.009003 -0.001755 -0.000763 -0.000864 -0.001755 0.004560
# 2 -0.001755 0.016649 -0.000900 0.010467 0.003879 0.007997
# 3 -0.000763 -0.000900 0.013360 0.004546 -0.001255 0.004487
# 4 -0.000864 0.010467 0.004546 0.032001 0.004536 0.004317
# 5 -0.001755 0.003879 -0.001255 0.004536 0.024328 -0.001230
# 6 0.004560 0.007997 0.004487 0.004317 -0.001230 0.036581
#
#
# Mechanical properties :
#
#
# Convention : Reuss Voigt Hill
#
# Bulk Modulus (GPa) = 31.07780 52.34262 41.71021
# Shear Modulus (GPa) = 33.44876 41.24609 37.34743
#
# Velocity S-wave (km/s) = 3.82289 4.24515 4.03954
# Velocity P-wave (km/s) = 5.75017 6.84821 6.32307
#
# Compressibility (1/GPa) = 0.03217731
#
# Stress axis : x y z
#
# Youngs Moduli (GPa) = 111.07661 60.06309 74.85109
#
# Poissons Ratio (x) = 0.10541 0.05708
# Poissons Ratio (y) = 0.19493 0.06735
# Poissons Ratio (z) = 0.08470 0.05404
#
# Static dielectric constant tensor:
#      x y z
#    x 1.878180 0.017070 0.042050 
#    y 0.017070 1.853330 0.048140 
#    z 0.042050 0.048140 1.971920 
# 
# From -- ./inp_files/599597.got.cif
#   From: 2010.05.17/outbox.cif.g08.bks.cpg/sg2_300_cif.got.tgz:599597.got - 2010.06.03 11:33:40.
