data_PCOD9061640
_publ_section_title
;
Structure prediction by ZEFSAII (Michael W. Deem and Ramdas Pophale) SiO2 
 PCOD9061640
Probable space group: P -1
;
_chemical_formula_sum "Si O2"
_cell_formula_units_Z 10
_cell_length_a 11.680639
_cell_length_b 9.626812
_cell_length_c 9.245426
_cell_angle_alpha 126.576782
_cell_angle_beta 120.875286
_cell_angle_gamma 102.841600
_cell_volume 460.530795
_symmetry_space_group_name_H-M "P -1"
_symmetry_group_IT_number 2
_symmetry_cell_setting 'triclinic'
loop_
_space_group_symop_operation_xyz
x,y,z
-x,-y,-z
loop_
_atom_site_type_symbol
_atom_site_label
_atom_site_fract_x
_atom_site_fract_y
_atom_site_fract_z
Si Si1 0.658359 0.224705 0.122541
Si Si2 0.069039 0.804698 0.861013
Si Si3 0.621769 0.769880 0.162245
Si Si4 0.299573 0.310087 0.151147
Si Si5 0.008355 0.710547 0.096211
O O1 0.777100 0.184747 0.100846
O O2 0.835007 0.517258 0.492965
O O3 0.525227 0.208366 0.917896
O O4 0.500000 0.000000 0.000000
O O5 0.095408 0.823381 0.061059
O O6 0.123773 0.036531 0.960185
O O7 0.840726 0.038296 0.540885
O O8 0.500000 0.500000 0.000000
O O9 0.657483 0.745607 0.005314
O O10 0.500000 0.500000 0.500000
O O11 0.215495 0.417865 0.128935
O O12 0.000000 0.500000 0.000000
#
# Coordination Sequence:
#
# PCOD9061640 Si02
#       5
#     2   2   2   2   2
#     4  11  23  45  75 106 137 190 243 293 352 430
#     4  11  25  45  75 102 144 190 244 287 353 441
#     4  12  26  45  72 104 150 185 238 303 366 416
#     4  12  26  48  75 102 145 199 242 287 358 441
#     4  12  28  44  71 111 146 182 241 305 361 416
#
# _framework density 21.714072999999999
#
# number of rings (size 3 to 8) (size 9 to 14) (size 15 to 20)
#    0.000    0.400    2.000    6.000    8.400    0.800 
#    0.000    0.000    0.000    0.000    0.000    0.000 
#    0.000    0.000    0.000    0.000    0.000    0.000 
#
# Total GULP energy -56028.170098 kJ/mol
# GULP energy per Si atom -5602.817010 kJ/mol
# Density = 2.166465 g / cm^3
# Si number density = 21.714073 Si / 1000 Ang^3
#
#
#
# Elastic Constant Matrix: (Units=GPa)
#
#
# Indices 1 2 3 4 5 6 
#
# 1 77.3429 33.8173 53.5109 -6.4862 4.1000 -0.3264
# 2 33.8173 133.4488 37.9947 4.4111 3.5572 -9.8639
# 3 53.5109 37.9947 148.3561 -11.2725 0.9615 3.9832
# 4 -6.4862 4.4111 -11.2725 39.8048 2.5221 4.7462
# 5 4.1000 3.5572 0.9615 2.5221 43.8362 -16.9333
# 6 -0.3264 -9.8639 3.9832 4.7462 -16.9333 54.2999
#
#
#
# Elastic Compliance Matrix: (Units=1/GPa)
#
#
# Indices 1 2 3 4 5 6 
#
# 1 0.018489 -0.003141 -0.005684 0.001953 -0.001756 -0.000761
# 2 -0.003141 0.008887 -0.001366 -0.002160 0.000517 0.002046
# 3 -0.005684 -0.001366 0.009326 0.002016 -0.000136 -0.001185
# 4 0.001953 -0.002160 0.002016 0.026905 -0.003084 -0.003842
# 5 -0.001756 0.000517 -0.000136 -0.003084 0.026440 0.008608
# 6 -0.000761 0.002046 -0.001185 -0.003842 0.008608 0.021890
#
#
# Mechanical properties :
#
#
# Convention : Reuss Voigt Hill
#
# Bulk Modulus (GPa) = 61.27001 67.75485 64.51243
# Shear Modulus (GPa) = 36.29505 43.17649 39.73577
#
# Velocity S-wave (km/s) = 4.09283 4.46400 4.28244
# Velocity P-wave (km/s) = 7.11428 7.60530 7.36389
#
# Compressibility (1/GPa) = 0.01632120
#
# Stress axis : x y z
#
# Youngs Moduli (GPa) = 54.08561 112.52312 107.22225
#
# Poissons Ratio (x) = 0.35343 0.60948
# Poissons Ratio (y) = 0.16988 0.14641
# Poissons Ratio (z) = 0.30744 0.15365
#
# Static dielectric constant tensor:
#      x y z
#    x 1.795980 -0.047960 -0.010610 
#    y -0.047960 1.837810 0.049600 
#    z -0.010610 0.049600 1.797200 
# 
# From -- ./inp_files/15402.got.cif
#   From: 2010.05.17/outbox.cif.g08.bks.cpg/sg2_8_cif.got.tgz:15402.got - 2010.06.03 11:33:40.
