data_PCOD9061149
_publ_section_title
;
Structure prediction by ZEFSAII (Michael W. Deem and Ramdas Pophale) SiO2 
 PCOD9061149
Probable space group: P -1
;
_chemical_formula_sum "Si O2"
_cell_formula_units_Z 16
_cell_length_a 9.230082
_cell_length_b 17.928749
_cell_length_c 11.654006
_cell_angle_alpha 150.831517
_cell_angle_beta 49.657819
_cell_angle_gamma 131.808337
_cell_volume 689.215555
_symmetry_space_group_name_H-M "P -1"
_symmetry_group_IT_number 2
_symmetry_cell_setting 'triclinic'
loop_
_space_group_symop_operation_xyz
x,y,z
-x,-y,-z
loop_
_atom_site_type_symbol
_atom_site_label
_atom_site_fract_x
_atom_site_fract_y
_atom_site_fract_z
Si Si1 0.638267 0.668633 0.693382
Si Si2 0.410384 0.816459 0.834517
Si Si3 0.972464 0.647059 0.339093
Si Si4 0.692754 0.850612 0.128960
Si Si5 0.629529 0.413660 0.674020
Si Si6 0.813607 0.625364 0.147631
Si Si7 0.366840 0.834527 0.461287
Si Si8 0.951135 0.745816 0.010792
O O1 0.500000 0.500000 0.500000
O O2 0.551016 0.786691 0.822573
O O3 0.858598 0.676306 0.549517
O O4 0.631542 0.700868 0.874616
O O5 0.395383 0.687541 0.566507
O O6 0.184125 0.777069 0.939120
O O7 0.500000 0.000000 0.000000
O O8 0.844092 0.664541 0.318512
O O9 0.183506 0.770448 0.383874
O O10 0.033251 0.482078 0.093488
O O11 0.557934 0.844024 0.300750
O O12 0.660137 0.994839 0.264242
O O13 0.902956 0.860070 0.090822
O O14 0.420155 0.455447 0.856760
O O15 0.649546 0.286542 0.589547
O O16 0.816278 0.569042 0.802240
O O17 0.872630 0.758613 0.197806
#
# Coordination Sequence:
#
# PCOD9061149 Si02
#       8
#     2   2   2   2   2   2   2   2
#     4  12  27  46  70 103 141 186 234 291 348 415
#     4  12  29  48  68 103 147 187 231 294 363 424
#     4  11  25  42  72 104 138 185 230 292 353 410
#     4  11  27  45  70 107 145 184 234 289 355 431
#     4  12  23  48  75 105 138 187 241 297 344 423
#     4  11  23  44  73 107 140 177 244 295 346 417
#     4  11  25  46  72 104 144 186 231 290 358 421
#     4  12  25  44  74 104 137 188 241 292 349 417
#
# _framework density 23.2148
#
# number of rings (size 3 to 8) (size 9 to 14) (size 15 to 20)
#    0.000    0.500    3.750    3.750    8.750    0.500 
#    0.000    1.250    0.000    0.000    0.000    0.000 
#    0.000    0.000    0.000    0.000    0.000    0.000 
#
# Total GULP energy -89434.076392 kJ/mol
# GULP energy per Si atom -5589.629774 kJ/mol
# Density = 2.316196 g / cm^3
# Si number density = 23.214800 Si / 1000 Ang^3
#
#
#
# Elastic Constant Matrix: (Units=GPa)
#
#
# Indices 1 2 3 4 5 6 
#
# 1 84.0397 22.4091 16.1089 -2.9628 -9.0086 -9.3858
# 2 22.4091 70.8559 12.2738 1.6809 -18.3800 -0.9579
# 3 16.1089 12.2738 50.8910 -2.0990 -9.4471 -14.2402
# 4 -2.9628 1.6809 -2.0990 26.3001 0.4645 -7.3457
# 5 -9.0086 -18.3800 -9.4471 0.4645 32.7355 -9.1644
# 6 -9.3858 -0.9579 -14.2402 -7.3457 -9.1644 43.6670
#
#
#
# Elastic Compliance Matrix: (Units=1/GPa)
#
#
# Indices 1 2 3 4 5 6 
#
# 1 0.013900 -0.003500 -0.002238 0.002417 0.002023 0.003012
# 2 -0.003500 0.017812 -0.001385 -0.001581 0.008880 0.000784
# 3 -0.002238 -0.001385 0.025425 0.004615 0.008790 0.010401
# 4 0.002417 -0.001581 0.004615 0.041397 0.003218 0.009629
# 5 0.002023 0.008880 0.008790 0.003218 0.042191 0.012892
# 6 0.003012 0.000784 0.010401 0.009629 0.012892 0.031283
#
#
# Mechanical properties :
#
#
# Convention : Reuss Voigt Hill
#
# Bulk Modulus (GPa) = 23.31529 34.15223 28.73376
# Shear Modulus (GPa) = 24.93158 30.87348 27.90253
#
# Velocity S-wave (km/s) = 3.28068 3.65074 3.47065
# Velocity P-wave (km/s) = 4.94121 5.70210 5.33523
#
# Compressibility (1/GPa) = 0.04289032
#
# Stress axis : x y z
#
# Youngs Moduli (GPa) = 71.94321 56.14321 39.33186
#
# Poissons Ratio (x) = 0.19651 0.08801
# Poissons Ratio (y) = 0.25182 0.05448
# Poissons Ratio (z) = 0.16097 0.07777
#
# Static dielectric constant tensor:
#      x y z
#    x 1.724440 -0.052910 0.086630 
#    y -0.052910 1.894370 0.071210 
#    z 0.086630 0.071210 1.884270 
# 
# From -- ./inp_files/403500.got.cif
#   From: 2010.05.17/outbox.cif.g08.bks.cpg/sg2_202_cif.got.tgz:403500.got - 2010.06.03 11:33:40.
