data_PCOD9061433
_publ_section_title
;
Structure prediction by ZEFSAII (Michael W. Deem and Ramdas Pophale) SiO2 
 PCOD9061433
Probable space group: P -1
;
_chemical_formula_sum "Si O2"
_cell_formula_units_Z 14
_cell_length_a 10.799757
_cell_length_b 8.721608
_cell_length_c 13.856708
_cell_angle_alpha 31.434316
_cell_angle_beta 121.797767
_cell_angle_gamma 113.621006
_cell_volume 574.985713
_symmetry_space_group_name_H-M "P -1"
_symmetry_group_IT_number 2
_symmetry_cell_setting 'triclinic'
loop_
_space_group_symop_operation_xyz
x,y,z
-x,-y,-z
loop_
_atom_site_type_symbol
_atom_site_label
_atom_site_fract_x
_atom_site_fract_y
_atom_site_fract_z
Si Si1 0.113255 0.999247 0.388661
Si Si2 0.588444 0.273589 0.416408
Si Si3 0.091601 0.395228 0.796205
Si Si4 0.617804 0.680671 0.374145
Si Si5 0.573825 0.704509 0.996592
Si Si6 0.799630 0.446338 0.758125
Si Si7 0.156595 0.048202 0.820261
O O1 0.175281 0.265177 0.325962
O O2 0.241004 0.854122 0.448985
O O3 0.083488 0.748502 0.588807
O O4 0.966510 0.084547 0.222388
O O5 0.550654 0.430852 0.417642
O O6 0.500000 0.000000 0.500000
O O7 0.568270 0.527193 0.190250
O O8 0.082429 0.273080 0.749159
O O9 0.959620 0.322809 0.847705
O O10 0.253968 0.285242 0.960709
O O11 0.699840 0.530607 0.580344
O O12 0.739361 0.797012 0.291044
O O13 0.512142 0.971551 0.203977
O O14 0.500000 0.500000 0.000000
O O15 0.753421 0.204813 0.943322
#
# Coordination Sequence:
#
# PCOD9061433 Si02
#       7
#     2   2   2   2   2   2   2
#     4  11  23  45  70 109 144 186 241 307 355 428
#     4  11  26  46  74 105 146 193 247 296 366 434
#     4  11  23  46  69 101 148 189 239 295 366 430
#     4  12  25  50  76 104 151 194 237 311 362 428
#     4  11  26  45  74 105 147 195 237 297 373 428
#     4  12  27  43  75 110 142 191 245 297 364 436
#     4  12  25  44  76 106 145 187 246 296 370 429
#
# _framework density 24.34843
#
# number of rings (size 3 to 8) (size 9 to 14) (size 15 to 20)
#    0.000    0.571    4.286    4.714    4.000    2.286 
#    0.000    2.143    0.000    0.000    0.000    0.000 
#    0.000    0.000    0.000    0.000    0.000    0.000 
#
# Total GULP energy -78561.915950 kJ/mol
# GULP energy per Si atom -5611.565425 kJ/mol
# Density = 2.429301 g / cm^3
# Si number density = 24.348430 Si / 1000 Ang^3
#
#
#
# Elastic Constant Matrix: (Units=GPa)
#
#
# Indices 1 2 3 4 5 6 
#
# 1 124.9804 26.5157 46.0719 8.9799 -0.8118 -5.4927
# 2 26.5157 185.0576 62.1976 1.9695 13.6534 -10.8276
# 3 46.0719 62.1976 142.6765 3.0921 0.7702 -2.9904
# 4 8.9799 1.9695 3.0921 45.2763 5.1730 7.3023
# 5 -0.8118 13.6534 0.7702 5.1730 44.0831 -7.4432
# 6 -5.4927 -10.8276 -2.9904 7.3023 -7.4432 32.9552
#
#
#
# Elastic Compliance Matrix: (Units=1/GPa)
#
#
# Indices 1 2 3 4 5 6 
#
# 1 0.009334 -0.000335 -0.002790 -0.002043 0.000875 0.001843
# 2 -0.000335 0.006581 -0.002719 -0.000075 -0.001738 0.001484
# 3 -0.002790 -0.002719 0.009082 0.000056 0.000554 -0.000421
# 4 -0.002043 -0.000075 0.000056 0.024001 -0.003941 -0.006568
# 5 0.000875 -0.001738 0.000554 -0.003941 0.024718 0.006081
# 6 0.001843 0.001484 -0.000421 -0.006568 0.006081 0.033930
#
#
# Mechanical properties :
#
#
# Convention : Reuss Voigt Hill
#
# Bulk Modulus (GPa) = 75.12915 80.25387 77.69151
# Shear Modulus (GPa) = 40.39736 45.65823 43.02780
#
# Velocity S-wave (km/s) = 4.07767 4.33506 4.20833
# Velocity P-wave (km/s) = 7.28647 7.62162 7.45593
#
# Compressibility (1/GPa) = 0.01331041
#
# Stress axis : x y z
#
# Youngs Moduli (GPa) = 107.13200 151.94562 110.10802
#
# Poissons Ratio (x) = 0.05086 0.30721
# Poissons Ratio (y) = 0.03586 0.29936
# Poissons Ratio (z) = 0.29890 0.41311
#
# Static dielectric constant tensor:
#      x y z
#    x 1.935420 0.024340 0.012500 
#    y 0.024340 1.923450 -0.024780 
#    z 0.012500 -0.024780 1.911020 
# 
# From -- ./inp_files/190976.got.cif
#   From: 2010.05.17/outbox.cif.g08.bks.cpg/sg2_96_cif.got.tgz:190976.got - 2010.06.03 11:33:40.
