data_PCOD9061704
_publ_section_title
;
Structure prediction by ZEFSAII (Michael W. Deem and Ramdas Pophale) SiO2 
 PCOD9061704
Probable space group: P -1
;
_chemical_formula_sum "Si O2"
_cell_formula_units_Z 16
_cell_length_a 23.313912
_cell_length_b 6.224415
_cell_length_c 5.584035
_cell_angle_alpha 74.157276
_cell_angle_beta 93.469817
_cell_angle_gamma 123.367062
_cell_volume 646.988022
_symmetry_space_group_name_H-M "P -1"
_symmetry_group_IT_number 2
_symmetry_cell_setting 'triclinic'
loop_
_space_group_symop_operation_xyz
x,y,z
-x,-y,-z
loop_
_atom_site_type_symbol
_atom_site_label
_atom_site_fract_x
_atom_site_fract_y
_atom_site_fract_z
Si Si1 0.532404 0.819054 0.494584
Si Si2 0.288488 0.219116 0.855605
Si Si3 0.800085 0.292214 0.334828
Si Si4 0.934442 0.327013 0.371417
Si Si5 0.827561 0.793649 0.892043
Si Si6 0.389121 0.055702 0.017090
Si Si7 0.729294 0.429862 0.617551
Si Si8 0.029227 0.829583 0.978056
O O1 0.500000 0.500000 0.500000
O O2 0.575666 0.948164 0.219587
O O3 0.500000 0.000000 0.500000
O O4 0.568914 0.850621 0.750916
O O5 0.238611 0.201090 0.055678
O O6 0.357920 0.237625 0.925123
O O7 0.299612 0.444852 0.603981
O O8 0.239091 0.935364 0.800712
O O9 0.863157 0.278946 0.445657
O O10 0.825714 0.576235 0.134185
O O11 0.744221 0.237780 0.534005
O O12 0.000000 0.500000 0.500000
O O13 0.958979 0.531460 0.084706
O O14 0.940695 0.106196 0.303781
O O15 0.804376 0.661480 0.666320
O O16 0.902787 0.061796 0.869446
O O17 0.325148 0.749124 0.139645
O O18 0.000000 0.000000 0.000000
#
# Coordination Sequence:
#
# PCOD9061704 Si02
#       8
#     2   2   2   2   2   2   2   2
#     4  12  31  59  92 132 180 231 275 337 400 483
#     4  11  26  46  73 110 157 201 257 330 406 465
#     4  11  23  46  59 102 145 190 258 333 404 482
#     4  11  26  39  63  88 131 190 257 318 404 484
#     4  11  24  42  68  97 146 189 256 331 409 476
#     4  12  28  54  88 125 171 217 280 327 399 495
#     4  11  28  43  75 113 150 205 255 329 404 479
#     4  11  24  42  60  91 127 190 251 323 392 482
#
# _framework density 24.729977000000002
#
# number of rings (size 3 to 8) (size 9 to 14) (size 15 to 20)
#    0.000    0.750    3.750    1.500   10.500    0.500 
#    0.000    0.000    0.000    0.000    0.000    0.000 
#    0.000    0.000    0.000    0.000    0.000    0.000 
#
# Total GULP energy -89292.680634 kJ/mol
# GULP energy per Si atom -5580.792540 kJ/mol
# Density = 2.467369 g / cm^3
# Si number density = 24.729977 Si / 1000 Ang^3
#
#
#
# Elastic Constant Matrix: (Units=GPa)
#
#
# Indices 1 2 3 4 5 6 
#
# 1 169.9574 32.5644 70.9208 6.9660 16.2079 -23.1264
# 2 32.5644 91.3696 25.6138 8.8955 -5.9130 1.1626
# 3 70.9208 25.6138 97.9787 -5.2155 7.7382 2.3139
# 4 6.9660 8.8955 -5.2155 48.5966 18.7945 -0.4735
# 5 16.2079 -5.9130 7.7382 18.7945 53.3231 3.2985
# 6 -23.1264 1.1626 2.3139 -0.4735 3.2985 31.4286
#
#
#
# Elastic Compliance Matrix: (Units=1/GPa)
#
#
# Indices 1 2 3 4 5 6 
#
# 1 0.010838 -0.002003 -0.007362 -0.000847 -0.002697 0.008861
# 2 -0.002003 0.012993 -0.002409 -0.003882 0.003907 -0.002246
# 3 -0.007362 -0.002409 0.016623 0.003748 -0.001370 -0.006352
# 4 -0.000847 -0.003882 0.003748 0.025601 -0.009781 0.000656
# 5 -0.002697 0.003907 -0.001370 -0.009781 0.023943 -0.004689
# 6 0.008861 -0.002246 -0.006352 0.000656 -0.004689 0.039391
#
#
# Mechanical properties :
#
#
# Convention : Reuss Voigt Hill
#
# Bulk Modulus (GPa) = 59.15502 68.61153 63.88328
# Shear Modulus (GPa) = 31.53131 42.01679 36.77405
#
# Velocity S-wave (km/s) = 3.57462 4.12639 3.86038
# Velocity P-wave (km/s) = 6.40387 7.10685 6.76450
#
# Compressibility (1/GPa) = 0.01690474
#
# Stress axis : x y z
#
# Youngs Moduli (GPa) = 92.27150 76.96320 60.15848
#
# Poissons Ratio (x) = 0.15420 0.44290
# Poissons Ratio (y) = 0.18487 0.14490
# Poissons Ratio (z) = 0.67933 0.18538
#
# Static dielectric constant tensor:
#      x y z
#    x 2.118200 -0.271780 -0.079180 
#    y -0.271780 2.465940 -0.006320 
#    z -0.079180 -0.006320 2.247560 
# 
# From -- ./inp_files/14508.got.cif
#   From: 2010.05.17/outbox.cif.g08.bks.cpg/sg2_8_cif.got.tgz:14508.got - 2010.06.03 11:33:40.
