data_PCOD9061893
_publ_section_title
;
Structure prediction by ZEFSAII (Michael W. Deem and Ramdas Pophale) SiO2 
 PCOD9061893
Probable space group: P -1
;
_chemical_formula_sum "Si O2"
_cell_formula_units_Z 16
_cell_length_a 9.587829
_cell_length_b 9.030853
_cell_length_c 14.210053
_cell_angle_alpha 57.492408
_cell_angle_beta 77.003447
_cell_angle_gamma 118.717223
_cell_volume 689.023065
_symmetry_space_group_name_H-M "P -1"
_symmetry_group_IT_number 2
_symmetry_cell_setting 'triclinic'
loop_
_space_group_symop_operation_xyz
x,y,z
-x,-y,-z
loop_
_atom_site_type_symbol
_atom_site_label
_atom_site_fract_x
_atom_site_fract_y
_atom_site_fract_z
Si Si1 0.933684 0.271426 0.529838
Si Si2 0.176834 0.015715 0.985107
Si Si3 0.547039 0.133580 0.271612
Si Si4 0.108105 0.296117 0.304426
Si Si5 0.421759 0.210380 0.700627
Si Si6 0.535891 0.525263 0.095199
Si Si7 0.167289 0.187707 0.597037
Si Si8 0.011737 0.515193 0.877195
O O1 0.000000 0.500000 0.500000
O O2 0.079405 0.365512 0.384744
O O3 0.969834 0.143177 0.641652
O O4 0.697388 0.078175 0.593654
O O5 0.357053 0.202021 0.816987
O O6 0.290671 0.172470 0.009413
O O7 0.081779 0.741535 0.070095
O O8 0.000000 0.000000 0.000000
O O9 0.604489 0.386414 0.152832
O O10 0.741147 0.252093 0.267619
O O11 0.553076 0.976614 0.249955
O O12 0.321267 0.378218 0.233251
O O13 0.108029 0.431512 0.170655
O O14 0.900390 0.991596 0.420379
O O15 0.233202 0.115124 0.695241
O O16 0.633888 0.503889 0.543865
O O17 0.500000 0.500000 0.000000
O O18 0.000000 0.500000 0.000000
#
# Coordination Sequence:
#
# PCOD9061893 Si02
#       8
#     2   2   2   2   2   2   2   2
#     4  12  27  45  70 107 149 192 245 305 370 445
#     4  12  27  45  74 107 144 191 250 301 369 437
#     4  12  24  46  73 103 145 189 247 306 365 437
#     4  12  27  46  75 103 148 196 239 303 382 432
#     4  11  25  45  75 104 142 191 243 303 361 437
#     4  12  29  47  75 108 148 199 252 304 373 446
#     4  11  23  46  73 103 145 188 240 301 366 436
#     4  12  25  49  75 103 148 193 249 311 366 440
#
# _framework density 23.221285000000002
#
# number of rings (size 3 to 8) (size 9 to 14) (size 15 to 20)
#    0.000    0.250    6.250    1.875    3.500    3.000 
#    0.000    0.000    0.000    0.000    0.000    0.000 
#    0.000    0.000    0.000    0.000    0.000    0.000 
#
# Total GULP energy -89339.805279 kJ/mol
# GULP energy per Si atom -5583.737830 kJ/mol
# Density = 2.316843 g / cm^3
# Si number density = 23.221285 Si / 1000 Ang^3
#
#
#
# Elastic Constant Matrix: (Units=GPa)
#
#
# Indices 1 2 3 4 5 6 
#
# 1 131.7848 39.8483 21.1750 5.3455 -2.5119 -14.2371
# 2 39.8483 190.2044 35.1247 -9.5987 -0.2025 -5.7556
# 3 21.1750 35.1247 48.8817 1.3353 -12.0535 -5.9921
# 4 5.3455 -9.5987 1.3353 42.0476 -1.4972 -1.1754
# 5 -2.5119 -0.2025 -12.0535 -1.4972 33.7364 -8.8599
# 6 -14.2371 -5.7556 -5.9921 -1.1754 -8.8599 45.7726
#
#
#
# Elastic Compliance Matrix: (Units=1/GPa)
#
#
# Indices 1 2 3 4 5 6 
#
# 1 0.008688 -0.001375 -0.002387 -0.001268 0.000320 0.002246
# 2 -0.001375 0.006463 -0.004593 0.001719 -0.001763 -0.000513
# 3 -0.002387 -0.004593 0.028064 -0.001123 0.010939 0.004443
# 4 -0.001268 0.001719 -0.001123 0.024410 0.000713 0.000440
# 5 0.000320 -0.001763 0.010939 0.000713 0.035761 0.008250
# 6 0.002246 -0.000513 0.004443 0.000440 0.008250 0.024671
#
#
# Mechanical properties :
#
#
# Convention : Reuss Voigt Hill
#
# Bulk Modulus (GPa) = 37.72793 62.57409 50.15101
# Shear Modulus (GPa) = 32.55174 42.62617 37.58896
#
# Velocity S-wave (km/s) = 3.74813 4.28910 4.02771
# Velocity P-wave (km/s) = 5.91724 7.17871 6.57828
#
# Compressibility (1/GPa) = 0.02650556
#
# Stress axis : x y z
#
# Youngs Moduli (GPa) = 115.10698 154.72380 35.63234
#
# Poissons Ratio (x) = 0.21275 0.08504
# Poissons Ratio (y) = 0.15828 0.16367
# Poissons Ratio (z) = 0.27470 0.71068
#
# Static dielectric constant tensor:
#      x y z
#    x 1.892190 0.005810 0.020640 
#    y 0.005810 1.956340 -0.038820 
#    z 0.020640 -0.038820 1.927040 
# 
# From -- ./inp_files/494489.got.cif
#   From: 2010.05.17/outbox.cif.g08.bks.cpg/sg2_248_cif.got.tgz:494489.got - 2010.06.03 11:33:40.
