data_PCOD9061761
_publ_section_title
;
Structure prediction by ZEFSAII (Michael W. Deem and Ramdas Pophale) SiO2 
 PCOD9061761
Probable space group: P -1
;
_chemical_formula_sum "Si O2"
_cell_formula_units_Z 16
_cell_length_a 10.631151
_cell_length_b 8.132799
_cell_length_c 11.390395
_cell_angle_alpha 43.000341
_cell_angle_beta 92.915249
_cell_angle_gamma 84.616848
_cell_volume 658.258670
_symmetry_space_group_name_H-M "P -1"
_symmetry_group_IT_number 2
_symmetry_cell_setting 'triclinic'
loop_
_space_group_symop_operation_xyz
x,y,z
-x,-y,-z
loop_
_atom_site_type_symbol
_atom_site_label
_atom_site_fract_x
_atom_site_fract_y
_atom_site_fract_z
Si Si1 0.641861 0.846353 0.084130
Si Si2 0.646879 0.548080 0.477908
Si Si3 0.097857 0.862063 0.342167
Si Si4 0.197533 0.267557 0.234614
Si Si5 0.624996 0.985849 0.434090
Si Si6 0.298190 0.552325 0.906347
Si Si7 0.941241 0.367050 0.297240
Si Si8 0.895669 0.896345 0.122835
O O1 0.653401 0.667702 0.289176
O O2 0.654391 0.683108 0.051741
O O3 0.748447 0.016967 0.025222
O O4 0.500000 0.000000 0.000000
O O5 0.500000 0.500000 0.500000
O O6 0.776298 0.331822 0.597876
O O7 0.651998 0.750196 0.473293
O O8 0.063231 0.817528 0.499395
O O9 0.963709 0.866062 0.267709
O O10 0.140891 0.124845 0.201225
O O11 0.271003 0.060668 0.432877
O O12 0.282592 0.448175 0.089496
O O13 0.076700 0.393973 0.237165
O O14 0.500000 0.000000 0.500000
O O15 0.624478 0.232053 0.229794
O O16 0.154854 0.667488 0.793196
O O17 0.890682 0.626686 0.218763
O O18 0.000000 0.000000 0.000000
#
# Coordination Sequence:
#
# PCOD9061761 Si02
#       8
#     2   2   2   2   2   2   2   2
#     4  11  26  48  74 107 152 200 254 314 382 446
#     4  12  27  48  80 104 148 203 253 316 379 455
#     4  12  23  46  76 108 153 196 260 313 381 453
#     4  12  26  45  79 108 152 199 239 315 388 452
#     4  12  28  50  72 110 151 194 255 308 377 459
#     4  11  25  50  74 108 150 194 254 309 379 458
#     4  11  23  46  69 109 150 193 248 311 381 452
#     4  11  25  43  71 110 152 197 262 317 373 458
#
# _framework density 24.306553999999998
#
# number of rings (size 3 to 8) (size 9 to 14) (size 15 to 20)
#    0.000    0.500    3.750    4.875    7.000    1.500 
#    4.500    0.000    0.000    0.000    0.000    0.000 
#    0.000    0.000    0.000    0.000    0.000    0.000 
#
# Total GULP energy -89447.711630 kJ/mol
# GULP energy per Si atom -5590.481977 kJ/mol
# Density = 2.425123 g / cm^3
# Si number density = 24.306554 Si / 1000 Ang^3
#
#
#
# Elastic Constant Matrix: (Units=GPa)
#
#
# Indices 1 2 3 4 5 6 
#
# 1 171.9091 47.9769 37.6670 0.0454 -12.3888 -13.8795
# 2 47.9769 96.7677 18.5326 0.3102 -8.7483 -13.2220
# 3 37.6670 18.5326 101.1953 6.1509 -32.6084 -10.0152
# 4 0.0454 0.3102 6.1509 22.1650 -1.0175 -7.7109
# 5 -12.3888 -8.7483 -32.6084 -1.0175 51.3259 4.5239
# 6 -13.8795 -13.2220 -10.0152 -7.7109 4.5239 44.4929
#
#
#
# Elastic Compliance Matrix: (Units=1/GPa)
#
#
# Indices 1 2 3 4 5 6 
#
# 1 0.007206 -0.003040 -0.002151 0.000981 -0.000219 0.001052
# 2 -0.003040 0.012404 -0.000705 0.000993 0.000716 0.002678
# 3 -0.002151 -0.000705 0.013624 -0.003110 0.007880 0.000846
# 4 0.000981 0.000993 -0.003110 0.048861 -0.001351 0.008506
# 5 -0.000219 0.000716 0.007880 -0.001351 0.024604 -0.000818
# 6 0.001052 0.002678 0.000846 0.008506 -0.000818 0.025347
#
#
# Mechanical properties :
#
#
# Convention : Reuss Voigt Hill
#
# Bulk Modulus (GPa) = 46.63841 64.24721 55.44281
# Shear Modulus (GPa) = 33.11623 41.30980 37.21301
#
# Velocity S-wave (km/s) = 3.69513 4.12701 3.91703
# Velocity P-wave (km/s) = 6.11838 7.01421 6.58155
#
# Compressibility (1/GPa) = 0.02144156
#
# Stress axis : x y z
#
# Youngs Moduli (GPa) = 138.77941 80.62214 73.40200
#
# Poissons Ratio (x) = 0.24506 0.15792
# Poissons Ratio (y) = 0.42184 0.05171
# Poissons Ratio (z) = 0.29858 0.05680
#
# Static dielectric constant tensor:
#      x y z
#    x 1.830370 0.066510 0.057020 
#    y 0.066510 1.952030 -0.041090 
#    z 0.057020 -0.041090 1.973040 
# 
# From -- ./inp_files/490431.got.cif
#   From: 2010.05.17/outbox.cif.g08.bks.cpg/sg2_246_cif.got.tgz:490431.got - 2010.06.03 11:33:40.
