data_PCOD9061384
_publ_section_title
;
Structure prediction by ZEFSAII (Michael W. Deem and Ramdas Pophale) SiO2 
 PCOD9061384
Probable space group: P -1
;
_chemical_formula_sum "Si O2"
_cell_formula_units_Z 16
_cell_length_a 15.577012
_cell_length_b 16.271909
_cell_length_c 9.245193
_cell_angle_alpha 80.090922
_cell_angle_beta 100.129928
_cell_angle_gamma 28.967164
_cell_volume 815.296442
_symmetry_space_group_name_H-M "P -1"
_symmetry_group_IT_number 2
_symmetry_cell_setting 'triclinic'
loop_
_space_group_symop_operation_xyz
x,y,z
-x,-y,-z
loop_
_atom_site_type_symbol
_atom_site_label
_atom_site_fract_x
_atom_site_fract_y
_atom_site_fract_z
Si Si1 0.533825 0.234630 0.436624
Si Si2 0.625993 0.962396 0.464448
Si Si3 0.571608 0.022031 0.089223
Si Si4 0.934423 0.970228 0.825093
Si Si5 0.150017 0.950568 0.884099
Si Si6 0.828984 0.486711 0.251497
Si Si7 0.060411 0.681289 0.351910
Si Si8 0.379715 0.460615 0.034671
O O1 0.571828 0.101684 0.473059
O O2 0.281058 0.478059 0.368344
O O3 0.514042 0.293182 0.255244
O O4 0.748460 0.086755 0.633957
O O5 0.545246 0.037528 0.250117
O O6 0.500000 0.000000 0.500000
O O7 0.917032 0.692339 0.637325
O O8 0.394812 0.250773 0.905815
O O9 0.846874 0.806967 0.210503
O O10 0.500000 0.000000 0.000000
O O11 0.968565 0.036231 0.771613
O O12 0.201140 0.690446 0.974220
O O13 0.843342 0.048021 0.940155
O O14 0.411894 0.698026 0.967902
O O15 0.053782 0.124556 0.743568
O O16 0.845585 0.426117 0.428575
O O17 0.789557 0.454060 0.125308
#
# Coordination Sequence:
#
# PCOD9061384 Si02
#       8
#     2   2   2   2   2   2   2   2
#     4  12  25  43  67 100 132 173 227 270 334 399
#     4  11  26  42  65  99 132 169 223 275 328 398
#     4  11  26  44  66  97 129 175 222 269 335 398
#     4  11  26  45  68 100 136 177 221 278 334 397
#     4  11  24  47  67 100 138 173 226 275 333 398
#     4  11  23  45  69  90 137 175 216 277 331 394
#     4  11  25  43  68  98 132 177 220 275 331 400
#     4  12  22  46  69  98 132 179 224 272 335 393
#
# _framework density 19.624762
#
# number of rings (size 3 to 8) (size 9 to 14) (size 15 to 20)
#    0.000    0.750    5.000    1.875    3.500    3.500 
#    2.250    0.000    0.000    0.000    0.000    0.000 
#    0.000    0.000    0.000    0.000    0.000    0.000 
#
# Total GULP energy -89485.946864 kJ/mol
# GULP energy per Si atom -5592.871679 kJ/mol
# Density = 1.958010 g / cm^3
# Si number density = 19.624762 Si / 1000 Ang^3
#
#
#
# Elastic Constant Matrix: (Units=GPa)
#
#
# Indices 1 2 3 4 5 6 
#
# 1 136.1557 44.7221 65.1974 17.3831 10.3979 1.8870
# 2 44.7221 103.1173 32.8913 3.4349 7.7905 -18.9809
# 3 65.1974 32.8913 99.8883 6.7799 6.1745 -8.3753
# 4 17.3831 3.4349 6.7799 26.9085 4.3854 2.6308
# 5 10.3979 7.7905 6.1745 4.3854 15.7066 6.7630
# 6 1.8870 -18.9809 -8.3753 2.6308 6.7630 36.8514
#
#
#
# Elastic Compliance Matrix: (Units=1/GPa)
#
#
# Indices 1 2 3 4 5 6 
#
# 1 0.012704 -0.003719 -0.006951 -0.005507 -0.000738 -0.003618
# 2 -0.003719 0.013728 -0.000990 0.001376 -0.007958 0.008398
# 3 -0.006951 -0.000990 0.015306 0.000845 -0.002786 0.003775
# 4 -0.005507 0.001376 0.000845 0.041810 -0.008976 -0.000155
# 5 -0.000738 -0.007958 -0.002786 -0.008976 0.079752 -0.018690
# 6 -0.003618 0.008398 0.003775 -0.000155 -0.018690 0.035946
#
#
# Mechanical properties :
#
#
# Convention : Reuss Voigt Hill
#
# Bulk Modulus (GPa) = 54.29905 69.42035 61.85970
# Shear Modulus (GPa) = 21.86211 28.98332 25.42272
#
# Velocity S-wave (km/s) = 3.34129 3.84718 3.60313
# Velocity P-wave (km/s) = 6.52797 7.42867 6.99283
#
# Compressibility (1/GPa) = 0.01841653
#
# Stress axis : x y z
#
# Youngs Moduli (GPa) = 78.71287 72.84463 65.33491
#
# Poissons Ratio (x) = 0.27093 0.45417
# Poissons Ratio (y) = 0.29276 0.06468
# Poissons Ratio (z) = 0.54717 0.07211
#
# Static dielectric constant tensor:
#      x y z
#    x 1.670100 0.002160 -0.005290 
#    y 0.002160 1.692270 -0.004170 
#    z -0.005290 -0.004170 1.660580 
# 
# From -- ./inp_files/46510.got.cif
#   From: 2010.05.17/outbox.cif.g08.bks.cpg/sg2_24_cif.got.tgz:46510.got - 2010.06.03 11:33:40.
