data_PCOD9061902
_publ_section_title
;
Structure prediction by ZEFSAII (Michael W. Deem and Ramdas Pophale) SiO2 
 PCOD9061902
Probable space group: P -1
;
_chemical_formula_sum "Si O2"
_cell_formula_units_Z 10
_cell_length_a 6.931451
_cell_length_b 8.751017
_cell_length_c 15.447614
_cell_angle_alpha 42.280871
_cell_angle_beta 127.955245
_cell_angle_gamma 102.535677
_cell_volume 444.221067
_symmetry_space_group_name_H-M "P -1"
_symmetry_group_IT_number 2
_symmetry_cell_setting 'triclinic'
loop_
_space_group_symop_operation_xyz
x,y,z
-x,-y,-z
loop_
_atom_site_type_symbol
_atom_site_label
_atom_site_fract_x
_atom_site_fract_y
_atom_site_fract_z
Si Si1 0.945557 0.254489 0.079413
Si Si2 0.520120 0.748100 0.155116
Si Si3 0.577774 0.224289 0.682814
Si Si4 0.022402 0.297267 0.436135
Si Si5 0.182591 0.086145 0.397219
O O1 0.997300 0.149632 0.234924
O O2 0.156826 0.013172 0.182589
O O3 0.000000 0.500000 0.000000
O O4 0.651127 0.341028 0.919275
O O5 0.408451 0.763448 0.214844
O O6 0.841743 0.561392 0.321074
O O7 0.500000 0.000000 0.000000
O O8 0.500000 0.500000 0.500000
O O9 0.321871 0.168062 0.613373
O O10 0.068738 0.314130 0.339585
O O11 0.851492 0.140666 0.470749
O O12 0.500000 0.000000 0.500000
#
# Coordination Sequence:
#
# PCOD9061902 Si02
#       5
#     2   2   2   2   2
#     4  12  27  43  75 108 147 185 240 311 364 417
#     4  12  27  46  69 109 151 185 242 309 368 425
#     4  12  26  48  76 103 147 201 244 289 367 451
#     4  11  25  44  77 101 137 196 246 287 354 449
#     4  11  23  46  73 105 142 186 244 295 360 434
#
# _framework density 22.511312
#
# number of rings (size 3 to 8) (size 9 to 14) (size 15 to 20)
#    0.000    0.400    2.000    6.000    8.400    0.800 
#    0.000    0.000    0.000    0.000    0.000    0.000 
#    0.000    0.000    0.000    0.000    0.000    0.000 
#
# Total GULP energy -55912.305919 kJ/mol
# GULP energy per Si atom -5591.230592 kJ/mol
# Density = 2.246007 g / cm^3
# Si number density = 22.511312 Si / 1000 Ang^3
#
#
#
# Elastic Constant Matrix: (Units=GPa)
#
#
# Indices 1 2 3 4 5 6 
#
# 1 94.5751 29.5223 34.6393 4.2097 -17.7644 -0.1890
# 2 29.5223 81.2641 15.6406 23.1250 -20.2592 -7.4121
# 3 34.6393 15.6406 81.0392 6.0702 -9.3849 -20.8066
# 4 4.2097 23.1250 6.0702 62.0494 0.2046 -3.8079
# 5 -17.7644 -20.2592 -9.3849 0.2046 37.6783 11.4450
# 6 -0.1890 -7.4121 -20.8066 -3.8079 11.4450 50.4684
#
#
#
# Elastic Compliance Matrix: (Units=1/GPa)
#
#
# Indices 1 2 3 4 5 6 
#
# 1 0.014802 -0.003562 -0.006177 0.000664 0.004749 -0.004041
# 2 -0.003562 0.017335 -0.000444 -0.006189 0.007510 0.000180
# 3 -0.006177 -0.000444 0.016791 -0.000623 -0.001103 0.007037
# 4 0.000664 -0.006189 -0.000623 0.018515 -0.003589 0.001048
# 5 0.004749 0.007510 -0.001103 -0.003589 0.034842 -0.007506
# 6 -0.004041 0.000180 0.007037 0.001048 -0.007506 0.024508
#
#
# Mechanical properties :
#
#
# Convention : Reuss Voigt Hill
#
# Bulk Modulus (GPa) = 35.01034 46.27589 40.64311
# Shear Modulus (GPa) = 31.91212 41.84430 36.87821
#
# Velocity S-wave (km/s) = 3.76919 4.31607 4.05187
# Velocity P-wave (km/s) = 5.87610 6.74087 6.32328
#
# Compressibility (1/GPa) = 0.02856299
#
# Stress axis : x y z
#
# Youngs Moduli (GPa) = 67.55686 57.68714 59.55452
#
# Poissons Ratio (x) = 0.20550 0.36786
# Poissons Ratio (y) = 0.24066 0.02642
# Poissons Ratio (z) = 0.41729 0.02559
#
# Static dielectric constant tensor:
#      x y z
#    x 1.818600 -0.050260 -0.020690 
#    y -0.050260 1.875270 -0.087770 
#    z -0.020690 -0.087770 2.021700 
# 
# From -- ./inp_files/16229.got.cif
#   From: 2010.05.17/outbox.cif.g08.bks.cpg/sg2_9_cif.got.tgz:16229.got - 2010.06.03 11:33:40.
