data_PCOD9061735
_publ_section_title
;
Structure prediction by ZEFSAII (Michael W. Deem and Ramdas Pophale) SiO2 
 PCOD9061735
Probable space group: P -1
;
_chemical_formula_sum "Si O2"
_cell_formula_units_Z 16
_cell_length_a 10.009340
_cell_length_b 9.257029
_cell_length_c 9.503992
_cell_angle_alpha 63.726062
_cell_angle_beta 85.132034
_cell_angle_gamma 120.015370
_cell_volume 628.284633
_symmetry_space_group_name_H-M "P -1"
_symmetry_group_IT_number 2
_symmetry_cell_setting 'triclinic'
loop_
_space_group_symop_operation_xyz
x,y,z
-x,-y,-z
loop_
_atom_site_type_symbol
_atom_site_label
_atom_site_fract_x
_atom_site_fract_y
_atom_site_fract_z
Si Si1 0.398346 0.387207 0.199222
Si Si2 0.285755 0.774426 0.029486
Si Si3 0.792333 0.072146 0.579076
Si Si4 0.506111 0.957496 0.354560
Si Si5 0.079694 0.383707 0.585345
Si Si6 0.950960 0.686027 0.793351
Si Si7 0.563961 0.346621 0.699973
Si Si8 0.025903 0.830349 0.043629
O O1 0.212636 0.331057 0.230097
O O2 0.493829 0.541311 0.254056
O O3 0.348106 0.166264 0.315037
O O4 0.500000 0.500000 0.000000
O O5 0.213449 0.895725 0.028796
O O6 0.376764 0.850669 0.838226
O O7 0.120588 0.545000 0.121636
O O8 0.402120 0.770084 0.135878
O O9 0.689050 0.148726 0.614926
O O10 0.944982 0.155768 0.636374
O O11 0.887019 0.170049 0.381327
O O12 0.538580 0.802026 0.357295
O O13 0.500000 0.000000 0.500000
O O14 0.254058 0.480303 0.452917
O O15 0.000000 0.500000 0.500000
O O16 0.091465 0.356937 0.760084
O O17 0.991055 0.763006 0.914623
O O18 0.000000 0.000000 0.000000
#
# Coordination Sequence:
#
# PCOD9061735 Si02
#       8
#     2   2   2   2   2   2   2   2
#     4  11  25  45  70 105 145 189 236 294 359 427
#     4  11  23  46  67  99 138 185 238 282 356 425
#     4  12  22  45  73 100 140 187 244 290 351 430
#     4  12  27  43  69 103 144 184 234 297 365 423
#     4  12  22  44  74 110 132 187 246 295 342 430
#     4  11  24  42  69 102 135 184 237 291 348 419
#     4  11  24  44  73 100 136 189 245 284 348 436
#     4  12  26  39  68 106 144 176 231 301 357 405
#
# _framework density 25.466166999999999
#
# number of rings (size 3 to 8) (size 9 to 14) (size 15 to 20)
#    0.000    0.500    5.000    4.125    3.500    2.000 
#    0.000    0.625    0.000    0.000    0.000    0.000 
#    0.000    0.000    0.000    0.000    0.000    0.000 
#
# Total GULP energy -89538.493605 kJ/mol
# GULP energy per Si atom -5596.155850 kJ/mol
# Density = 2.540820 g / cm^3
# Si number density = 25.466167 Si / 1000 Ang^3
#
#
#
# Elastic Constant Matrix: (Units=GPa)
#
#
# Indices 1 2 3 4 5 6 
#
# 1 49.1192 6.5777 18.4096 -12.2368 -3.8039 -17.4096
# 2 6.5777 147.3364 58.5574 14.1046 -3.4613 -5.5370
# 3 18.4096 58.5574 214.7093 13.0128 -32.9959 -6.4008
# 4 -12.2368 14.1046 13.0128 44.0485 3.4497 -1.5125
# 5 -3.8039 -3.4613 -32.9959 3.4497 40.9469 2.5880
# 6 -17.4096 -5.5370 -6.4008 -1.5125 2.5880 36.1739
#
#
#
# Elastic Compliance Matrix: (Units=1/GPa)
#
#
# Indices 1 2 3 4 5 6 
#
# 1 0.028532 -0.000656 -0.002615 0.009469 -0.001172 0.013649
# 2 -0.000656 0.007834 -0.002091 -0.001981 -0.000948 0.000498
# 3 -0.002615 -0.002091 0.006325 -0.002343 0.004932 -0.000910
# 4 0.009469 -0.001981 -0.002343 0.027137 -0.003793 0.005245
# 5 -0.001172 -0.000948 0.004932 -0.003793 0.028656 -0.002045
# 6 0.013649 0.000498 -0.000910 0.005245 -0.002045 0.034494
#
#
# Mechanical properties :
#
#
# Convention : Reuss Voigt Hill
#
# Bulk Modulus (GPa) = 31.28167 64.25046 47.76607
# Shear Modulus (GPa) = 32.39275 46.07522 39.23399
#
# Velocity S-wave (km/s) = 3.57037 4.25817 3.92935
# Velocity P-wave (km/s) = 5.41359 7.03282 6.27565
#
# Compressibility (1/GPa) = 0.03196760
#
# Stress axis : x y z
#
# Youngs Moduli (GPa) = 35.04820 127.65434 158.11034
#
# Poissons Ratio (x) = 0.08370 0.41341
# Poissons Ratio (y) = 0.02298 0.33061
# Poissons Ratio (z) = 0.09164 0.26693
#
# Static dielectric constant tensor:
#      x y z
#    x 2.086080 -0.014660 0.065290 
#    y -0.014660 2.142190 -0.027050 
#    z 0.065290 -0.027050 2.001570 
# 
# From -- ./inp_files/242957.got.cif
#   From: 2010.05.17/outbox.cif.g08.bks.cpg/sg2_122_cif.got.tgz:242957.got - 2010.06.03 11:33:40.
