data_PCOD9061527
_publ_section_title
;
Structure prediction by ZEFSAII (Michael W. Deem and Ramdas Pophale) SiO2 
 PCOD9061527
Probable space group: P -1
;
_chemical_formula_sum "Si O2"
_cell_formula_units_Z 12
_cell_length_a 22.193189
_cell_length_b 5.155881
_cell_length_c 5.254352
_cell_angle_alpha 93.152654
_cell_angle_beta 108.193336
_cell_angle_gamma 122.906428
_cell_volume 460.126121
_symmetry_space_group_name_H-M "P -1"
_symmetry_group_IT_number 2
_symmetry_cell_setting 'triclinic'
loop_
_space_group_symop_operation_xyz
x,y,z
-x,-y,-z
loop_
_atom_site_type_symbol
_atom_site_label
_atom_site_fract_x
_atom_site_fract_y
_atom_site_fract_z
Si Si1 0.086017 0.651086 0.521048
Si Si2 0.367604 0.688411 0.801920
Si Si3 0.251251 0.068659 0.883085
Si Si4 0.499176 0.753962 0.679565
Si Si5 0.086713 0.139490 0.221368
Si Si6 0.251668 0.735883 0.345154
O O1 0.092890 0.358708 0.476163
O O2 0.000000 0.500000 0.500000
O O3 0.160137 0.919590 0.799273
O O4 0.091670 0.851013 0.291262
O O5 0.309775 0.443786 0.929345
O O6 0.423021 0.602140 0.749519
O O7 0.313453 0.670098 0.508083
O O8 0.426553 0.037166 0.024183
O O9 0.249644 0.917659 0.600484
O O10 0.276355 0.950237 0.140818
O O11 0.500000 0.500000 0.500000
O O12 0.500000 0.000000 0.500000
O O13 0.163816 0.408099 0.180088
O O14 0.000000 0.000000 0.000000
#
# Coordination Sequence:
#
# PCOD9061527 Si02
#       6
#     2   2   2   2   2   2
#     4  11  23  45  72 113 161 215 274 337 402 478
#     4  11  28  52  82 120 168 210 282 344 420 509
#     4  11  27  48  79 118 162 217 278 338 410 491
#     4  11  30  53  87 120 164 214 272 344 432 508
#     4  11  23  45  72 113 161 215 274 337 402 478
#     4  11  27  48  79 118 162 217 278 338 410 491
#
# _framework density 26.079806999999999
#
# number of rings (size 3 to 8) (size 9 to 14) (size 15 to 20)
#    0.000    1.000    1.667    2.000    9.333    4.000 
#    0.000    2.500    0.000    0.000    0.000    0.000 
#    0.000    0.000    0.000    0.000    0.000    0.000 
#
# Total GULP energy -67324.429992 kJ/mol
# GULP energy per Si atom -5610.369166 kJ/mol
# Density = 2.602045 g / cm^3
# Si number density = 26.079807 Si / 1000 Ang^3
#
#
#
# Elastic Constant Matrix: (Units=GPa)
#
#
# Indices 1 2 3 4 5 6 
#
# 1 122.3908 54.4606 71.7996 28.4070 13.5942 4.5503
# 2 54.4606 117.2025 90.2997 -9.7249 24.9242 3.1358
# 3 71.7996 90.2997 143.1865 -14.1911 15.6181 15.6616
# 4 28.4070 -9.7249 -14.1911 56.9612 -3.3199 0.8887
# 5 13.5942 24.9242 15.6181 -3.3199 52.4627 23.9693
# 6 4.5503 3.1358 15.6616 0.8887 23.9693 42.4186
#
#
#
# Elastic Compliance Matrix: (Units=1/GPa)
#
#
# Indices 1 2 3 4 5 6 
#
# 1 0.016569 -0.001393 -0.008532 -0.010885 -0.003449 0.003653
# 2 -0.001393 0.020120 -0.011823 0.000502 -0.009469 0.008367
# 3 -0.008532 -0.011823 0.019783 0.007708 0.006766 -0.009500
# 4 -0.010885 0.000502 0.007708 0.025289 0.003927 -0.004464
# 5 -0.003449 -0.009469 0.006766 0.003927 0.031514 -0.019318
# 6 0.003653 0.008367 -0.009500 -0.004464 -0.019318 0.037081
#
#
# Mechanical properties :
#
#
# Convention : Reuss Voigt Hill
#
# Bulk Modulus (GPa) = 77.06028 90.65550 83.85789
# Shear Modulus (GPa) = 25.22994 41.44981 33.33987
#
# Velocity S-wave (km/s) = 3.11370 3.99098 3.57932
# Velocity P-wave (km/s) = 6.52218 7.48823 7.02184
#
# Compressibility (1/GPa) = 0.01297685
#
# Stress axis : x y z
#
# Youngs Moduli (GPa) = 60.35193 49.70231 50.54819
#
# Poissons Ratio (x) = 0.06923 0.43129
# Poissons Ratio (y) = 0.08407 0.59761
# Poissons Ratio (z) = 0.51494 0.58761
#
# Static dielectric constant tensor:
#      x y z
#    x 2.080560 -0.008780 -0.039380 
#    y -0.008780 2.031930 0.030110 
#    z -0.039380 0.030110 2.045050 
# 
# From -- ./inp_files/120839.got.cif
#   From: 2010.05.17/outbox.cif.g08.bks.cpg/sg2_61_cif.got.tgz:120839.got - 2010.06.03 11:33:40.
