data_PCOD9061742
_publ_section_title
;
Structure prediction by ZEFSAII (Michael W. Deem and Ramdas Pophale) SiO2 
 PCOD9061742
Probable space group: P -1
;
_chemical_formula_sum "Si O2"
_cell_formula_units_Z 16
_cell_length_a 20.759465
_cell_length_b 11.345687
_cell_length_c 8.869928
_cell_angle_alpha 51.538779
_cell_angle_beta 143.962831
_cell_angle_gamma 147.005233
_cell_volume 658.908877
_symmetry_space_group_name_H-M "P -1"
_symmetry_group_IT_number 2
_symmetry_cell_setting 'triclinic'
loop_
_space_group_symop_operation_xyz
x,y,z
-x,-y,-z
loop_
_atom_site_type_symbol
_atom_site_label
_atom_site_fract_x
_atom_site_fract_y
_atom_site_fract_z
Si Si1 0.492952 0.955131 0.199593
Si Si2 0.693632 0.921435 0.762896
Si Si3 0.434995 0.509337 0.099283
Si Si4 0.966850 0.733842 0.982549
Si Si5 0.866335 0.734269 0.486482
Si Si6 0.234212 0.505745 0.952193
Si Si7 0.987784 0.578677 0.641460
Si Si8 0.678450 0.953124 0.064597
O O1 0.641078 0.013156 0.496909
O O2 0.462254 0.069024 0.151357
O O3 0.336993 0.694801 0.121257
O O4 0.500000 0.000000 0.000000
O O5 0.859486 0.030833 0.921604
O O6 0.708022 0.970552 0.928676
O O7 0.564436 0.660759 0.710522
O O8 0.299388 0.385525 0.810319
O O9 0.357826 0.533969 0.065201
O O10 0.604466 0.733941 0.179497
O O11 0.902116 0.716122 0.036753
O O12 0.987678 0.570956 0.148108
O O13 0.853935 0.684705 0.677637
O O14 0.923375 0.632719 0.601365
O O15 0.000000 0.000000 0.500000
O O16 0.138940 0.527126 0.648743
O O17 0.160561 0.823103 0.733567
#
# Coordination Sequence:
#
# PCOD9061742 Si02
#       8
#     2   2   2   2   2   2   2   2
#     4  12  26  48  70 105 147 183 236 289 352 418
#     4  12  28  46  71 108 139 188 237 283 355 418
#     4  11  26  49  70 102 146 188 231 285 355 424
#     4  12  24  42  73 105 138 180 239 288 348 410
#     4  11  23  46  68 103 145 183 235 288 347 417
#     4  11  26  45  72 106 139 189 227 294 352 413
#     4  11  24  44  74 104 139 181 241 287 352 410
#     4  12  25  46  75 104 140 187 232 296 347 409
#
# _framework density 24.282568000000001
#
# number of rings (size 3 to 8) (size 9 to 14) (size 15 to 20)
#    0.000    0.500    5.000    2.250    5.250    1.000 
#    0.000    0.000    0.000    0.000    0.000    0.000 
#    0.000    0.000    0.000    0.000    0.000    0.000 
#
# Total GULP energy -89571.798454 kJ/mol
# GULP energy per Si atom -5598.237403 kJ/mol
# Density = 2.422730 g / cm^3
# Si number density = 24.282568 Si / 1000 Ang^3
#
#
#
# Elastic Constant Matrix: (Units=GPa)
#
#
# Indices 1 2 3 4 5 6 
#
# 1 83.6359 6.1380 24.7884 -8.7036 -6.3096 15.0347
# 2 6.1380 107.8209 10.5654 1.1607 -9.8066 13.7199
# 3 24.7884 10.5654 59.8806 -14.7341 3.6150 7.8535
# 4 -8.7036 1.1607 -14.7341 30.1480 5.5004 -1.0094
# 5 -6.3096 -9.8066 3.6150 5.5004 26.9396 -6.8518
# 6 15.0347 13.7199 7.8535 -1.0094 -6.8518 39.1947
#
#
#
# Elastic Compliance Matrix: (Units=1/GPa)
#
#
# Indices 1 2 3 4 5 6 
#
# 1 0.014638 0.000520 -0.005624 0.000740 0.003180 -0.004095
# 2 0.000520 0.010207 -0.002464 -0.002257 0.003956 -0.002645
# 3 -0.005624 -0.002464 0.023075 0.011169 -0.008294 -0.002766
# 4 0.000740 -0.002257 0.011169 0.040877 -0.011162 -0.002630
# 5 0.003180 0.003956 -0.008294 -0.011162 0.044356 0.006524
# 6 -0.004095 -0.002645 -0.002766 -0.002630 0.006524 0.029638
#
#
# Mechanical properties :
#
#
# Convention : Reuss Voigt Hill
#
# Bulk Modulus (GPa) = 30.50200 37.14677 33.82439
# Shear Modulus (GPa) = 26.47531 33.24615 29.86073
#
# Velocity S-wave (km/s) = 3.30555 3.70420 3.51054
# Velocity P-wave (km/s) = 5.21128 5.79877 5.51286
#
# Compressibility (1/GPa) = 0.03278473
#
# Stress axis : x y z
#
# Youngs Moduli (GPa) = 68.31301 97.97032 43.33779
#
# Poissons Ratio (x) = -0.05096 0.24375
# Poissons Ratio (y) = -0.03554 0.10677
# Poissons Ratio (z) = 0.38422 0.24136
#
# Static dielectric constant tensor:
#      x y z
#    x 1.953780 -0.002220 0.012850 
#    y -0.002220 1.999600 -0.010360 
#    z 0.012850 -0.010360 1.885850 
# 
# From -- ./inp_files/158702.got.cif
#   From: 2010.05.17/outbox.cif.g08.bks.cpg/sg2_80_cif.got.tgz:158702.got - 2010.06.03 11:33:40.
