data_PCOD9061509
_publ_section_title
;
Structure prediction by ZEFSAII (Michael W. Deem and Ramdas Pophale) SiO2 
 PCOD9061509
Probable space group: P -1
;
_chemical_formula_sum "Si O2"
_cell_formula_units_Z 12
_cell_length_a 7.516697
_cell_length_b 9.469236
_cell_length_c 10.957494
_cell_angle_alpha 63.925368
_cell_angle_beta 136.664674
_cell_angle_gamma 100.745432
_cell_volume 469.394180
_symmetry_space_group_name_H-M "P -1"
_symmetry_group_IT_number 2
_symmetry_cell_setting 'triclinic'
loop_
_space_group_symop_operation_xyz
x,y,z
-x,-y,-z
loop_
_atom_site_type_symbol
_atom_site_label
_atom_site_fract_x
_atom_site_fract_y
_atom_site_fract_z
Si Si1 0.649840 0.912398 0.914301
Si Si2 0.881886 0.541650 0.216980
Si Si3 0.672078 0.597933 0.360534
Si Si4 0.149485 0.011182 0.250974
Si Si5 0.897257 0.917722 0.366156
Si Si6 0.120629 0.641932 0.952104
O O1 0.626848 0.991374 0.737456
O O2 0.381778 0.952314 0.843643
O O3 0.762171 0.720661 0.039951
O O4 0.881308 0.985414 0.061566
O O5 0.763526 0.527619 0.298193
O O6 0.819496 0.413402 0.137392
O O7 0.195313 0.515715 0.418941
O O8 0.792459 0.755207 0.384186
O O9 0.360752 0.648770 0.161697
O O10 0.083669 0.188053 0.209604
O O11 0.142135 0.889763 0.403878
O O12 0.000000 0.000000 0.500000
O O13 0.000000 0.500000 0.000000
#
# Coordination Sequence:
#
# PCOD9061509 Si02
#       6
#     2   2   2   2   2   2
#     4  11  23  45  74  99 143 189 236 298 351 427
#     4  11  24  45  72 105 138 192 236 290 367 416
#     4  11  25  46  71 106 146 181 242 303 346 437
#     4  11  23  45  72 102 138 189 242 287 366 417
#     4  12  25  45  76 106 143 190 238 300 364 425
#     4  12  24  44  70 105 145 190 229 293 365 425
#
# _framework density 25.564865999999999
#
# number of rings (size 3 to 8) (size 9 to 14) (size 15 to 20)
#    0.000    0.667    5.000    3.000    0.000    4.000 
#    0.000    1.667    0.000    0.000    0.000    0.000 
#    0.000    0.000    0.000    0.000    0.000    0.000 
#
# Total GULP energy -67038.311948 kJ/mol
# GULP energy per Si atom -5586.525996 kJ/mol
# Density = 2.550668 g / cm^3
# Si number density = 25.564866 Si / 1000 Ang^3
#
#
#
# Elastic Constant Matrix: (Units=GPa)
#
#
# Indices 1 2 3 4 5 6 
#
# 1 64.8278 -9.1457 8.0902 13.1321 -21.7877 7.0628
# 2 -9.1457 123.4456 6.2653 17.8354 -3.9869 -2.0106
# 3 8.0902 6.2653 82.6998 28.6975 4.3437 11.3698
# 4 13.1321 17.8354 28.6975 43.1543 -2.3034 -0.5336
# 5 -21.7877 -3.9869 4.3437 -2.3034 27.7383 5.3379
# 6 7.0628 -2.0106 11.3698 -0.5336 5.3379 37.7579
#
#
#
# Elastic Compliance Matrix: (Units=1/GPa)
#
#
# Indices 1 2 3 4 5 6 
#
# 1 0.025702 0.003671 0.000029 -0.008305 0.021519 -0.007781
# 2 0.003671 0.009194 0.000677 -0.005173 0.003866 -0.001021
# 3 0.000029 0.000677 0.016913 -0.011733 -0.002566 -0.004865
# 4 -0.008305 -0.005173 -0.011733 0.035520 -0.003601 0.005822
# 5 0.021519 0.003866 -0.002566 -0.003601 0.055724 -0.010975
# 6 -0.007781 -0.001021 -0.004865 0.005822 -0.010975 0.030985
#
#
# Mechanical properties :
#
#
# Convention : Reuss Voigt Hill
#
# Bulk Modulus (GPa) = 16.51191 31.26587 23.88889
# Shear Modulus (GPa) = 26.95826 39.44766 33.20296
#
# Velocity S-wave (km/s) = 3.25084 3.93242 3.60776
# Velocity P-wave (km/s) = 4.53469 5.73368 5.16907
#
# Compressibility (1/GPa) = 0.06056233
#
# Stress axis : x y z
#
# Youngs Moduli (GPa) = 38.90744 108.76647 59.12667
#
# Poissons Ratio (x) = -0.39927 -0.00172
# Poissons Ratio (y) = -0.14283 -0.04002
# Poissons Ratio (z) = -0.00113 -0.07361
#
# Static dielectric constant tensor:
#      x y z
#    x 2.177190 -0.020720 -0.068230 
#    y -0.020720 1.972140 -0.046860 
#    z -0.068230 -0.046860 2.195290 
# 
# From -- ./inp_files/204352.got.cif
#   From: 2010.05.17/outbox.cif.g08.bks.cpg/sg2_103_cif.got.tgz:204352.got - 2010.06.03 11:33:40.
