data_PCOD9061126
_publ_section_title
;
Structure prediction by ZEFSAII (Michael W. Deem and Ramdas Pophale) SiO2 
 PCOD9061126
Probable space group: P -1
;
_chemical_formula_sum "Si O2"
_cell_formula_units_Z 16
_cell_length_a 19.789708
_cell_length_b 15.624021
_cell_length_c 12.861958
_cell_angle_alpha 134.393181
_cell_angle_beta 26.316838
_cell_angle_gamma 151.940284
_cell_volume 745.402322
_symmetry_space_group_name_H-M "P -1"
_symmetry_group_IT_number 2
_symmetry_cell_setting 'triclinic'
loop_
_space_group_symop_operation_xyz
x,y,z
-x,-y,-z
loop_
_atom_site_type_symbol
_atom_site_label
_atom_site_fract_x
_atom_site_fract_y
_atom_site_fract_z
Si Si1 0.468454 0.286935 0.781905
Si Si2 0.626434 0.495461 0.955711
Si Si3 0.623216 0.015907 0.943919
Si Si4 0.774070 0.116241 0.253751
Si Si5 0.244236 0.164366 0.375841
Si Si6 0.246482 0.383651 0.688829
Si Si7 0.111224 0.457463 0.748487
Si Si8 0.867848 0.286357 0.493925
O O1 0.420243 0.393613 0.903935
O O2 0.710398 0.398351 0.473040
O O3 0.264702 0.052748 0.841057
O O4 0.523248 0.343025 0.876392
O O5 0.484128 0.365783 0.147971
O O6 0.931457 0.670856 0.687129
O O7 0.406738 0.880201 0.215509
O O8 0.685304 0.919026 0.747281
O O9 0.500000 0.000000 0.000000
O O10 0.876283 0.234606 0.831963
O O11 0.836703 0.212070 0.360024
O O12 0.500000 0.000000 0.500000
O O13 0.022081 0.299749 0.995956
O O14 0.153220 0.198608 0.616232
O O15 0.000000 0.000000 0.500000
O O16 0.500000 0.500000 0.500000
O O17 0.270422 0.482074 0.636582
O O18 0.000000 0.500000 0.000000
O O19 0.000000 0.500000 0.500000
#
# Coordination Sequence:
#
# PCOD9061126 Si02
#       8
#     2   2   2   2   2   2   2   2
#     4  11  24  45  74 101 142 184 239 292 360 424
#     4  11  23  44  73 102 136 188 233 298 355 423
#     4  12  27  45  74 108 139 188 240 296 361 429
#     4  12  27  46  72 105 143 191 238 294 361 429
#     4  12  23  46  74 100 142 183 244 295 354 430
#     4  12  27  46  74 105 142 194 241 292 363 426
#     4  12  26  48  68 104 148 186 236 301 362 430
#     4  12  25  44  71  99 143 182 236 288 353 426
#
# _framework density 21.464918000000001
#
# number of rings (size 3 to 8) (size 9 to 14) (size 15 to 20)
#    0.000    0.250    3.750    5.250    1.750    3.500 
#    0.000    0.000    0.000    0.000    0.000    0.000 
#    0.000    0.000    0.000    0.000    0.000    0.000 
#
# Total GULP energy -89431.071830 kJ/mol
# GULP energy per Si atom -5589.441989 kJ/mol
# Density = 2.141606 g / cm^3
# Si number density = 21.464918 Si / 1000 Ang^3
#
#
#
# Elastic Constant Matrix: (Units=GPa)
#
#
# Indices 1 2 3 4 5 6 
#
# 1 90.7366 31.9750 9.5413 14.0984 -9.3411 7.5501
# 2 31.9750 88.1872 -2.7523 19.7058 7.4615 12.5693
# 3 9.5413 -2.7523 80.3459 14.5500 8.4432 -2.0631
# 4 14.0984 19.7058 14.5500 54.0504 0.5461 1.7620
# 5 -9.3411 7.4615 8.4432 0.5461 46.1140 2.6845
# 6 7.5501 12.5693 -2.0631 1.7620 2.6845 36.0488
#
#
#
# Elastic Compliance Matrix: (Units=1/GPa)
#
#
# Indices 1 2 3 4 5 6 
#
# 1 0.013687 -0.004874 -0.002031 -0.001237 0.004036 -0.001524
# 2 -0.004874 0.015030 0.002218 -0.004652 -0.003561 -0.003600
# 3 -0.002031 0.002218 0.013860 -0.004005 -0.003312 0.000888
# 4 -0.001237 -0.004652 -0.004005 0.021571 0.000949 0.000527
# 5 0.004036 -0.003561 -0.003312 0.000949 0.023768 -0.001610
# 6 -0.001524 -0.003600 0.000888 0.000527 -0.001610 0.029460
#
#
# Mechanical properties :
#
#
# Convention : Reuss Voigt Hill
#
# Bulk Modulus (GPa) = 30.11961 37.42197 33.77079
# Shear Modulus (GPa) = 36.28003 41.94301 39.11152
#
# Velocity S-wave (km/s) = 4.11567 4.42523 4.27325
# Velocity P-wave (km/s) = 6.05371 6.60167 6.33362
#
# Compressibility (1/GPa) = 0.03320097
#
# Stress axis : x y z
#
# Youngs Moduli (GPa) = 73.06434 66.53452 72.15246
#
# Poissons Ratio (x) = 0.32427 0.14658
# Poissons Ratio (y) = 0.35610 -0.16002
# Poissons Ratio (z) = 0.14843 -0.14756
#
# Static dielectric constant tensor:
#      x y z
#    x 1.832830 -0.051970 -0.052740 
#    y -0.051970 1.774080 -0.071260 
#    z -0.052740 -0.071260 1.709250 
# 
# From -- ./inp_files/381264.got.cif
#   From: 2010.05.17/outbox.cif.g08.bks.cpg/sg2_191_cif.got.tgz:381264.got - 2010.06.03 11:33:40.
