data_PCOD9061352
_publ_section_title
;
Structure prediction by ZEFSAII (Michael W. Deem and Ramdas Pophale) SiO2 
 PCOD9061352
Probable space group: P -1
;
_chemical_formula_sum "Si O2"
_cell_formula_units_Z 15
_cell_length_a 13.227331
_cell_length_b 22.288524
_cell_length_c 9.797703
_cell_angle_alpha 29.306842
_cell_angle_beta 146.694691
_cell_angle_gamma 147.304566
_cell_volume 704.738976
_symmetry_space_group_name_H-M "P -1"
_symmetry_group_IT_number 2
_symmetry_cell_setting 'triclinic'
loop_
_space_group_symop_operation_xyz
x,y,z
-x,-y,-z
loop_
_atom_site_type_symbol
_atom_site_label
_atom_site_fract_x
_atom_site_fract_y
_atom_site_fract_z
Si Si1 0.386902 0.842183 0.219372
Si Si2 0.619620 0.660728 0.781791
Si Si3 0.979219 0.511188 0.793819
Si Si4 0.041693 0.872697 0.338057
Si Si5 0.263891 0.339768 0.795042
Si Si6 0.603644 0.257699 0.271302
Si Si7 0.500000 0.000000 0.500000
Si Si8 0.032930 0.269227 0.182839
O O1 0.482861 0.745497 0.451871
O O2 0.403202 0.820781 0.440844
O O3 0.156831 0.794939 0.005562
O O4 0.500000 0.000000 0.000000
O O5 0.761733 0.684372 0.764186
O O6 0.500000 0.500000 0.000000
O O7 0.757380 0.717030 0.962542
O O8 0.164699 0.646840 0.685048
O O9 0.770165 0.524430 0.505143
O O10 0.000000 0.500000 0.000000
O O11 0.004745 0.392682 0.977944
O O12 0.277259 0.913305 0.494515
O O13 0.984508 0.830242 0.514426
O O14 0.900443 0.754519 0.311259
O O15 0.000000 0.000000 0.000000
O O16 0.479014 0.348374 0.970522
O O17 0.500889 0.143358 0.270525
#
# Coordination Sequence:
#
# PCOD9061352 Si02
#       8
#     2   2   2   2   2   2   1   2
#     4  11  26  46  71 106 141 181 240 293 357 418
#     4  11  26  50  75 103 142 191 235 293 358 422
#     4  12  24  44  66 103 138 180 233 284 352 413
#     4  12  26  45  70 103 142 186 232 291 354 415
#     4  11  23  45  69 100 138 180 230 286 351 413
#     4  11  24  42  70 101 137 188 228 291 350 420
#     4  12  22  42  70  96 142 186 232 278 348 414
#     4  12  26  46  73 105 140 184 239 295 348 426
#
# _framework density 21.284476000000002
#
# number of rings (size 3 to 8) (size 9 to 14) (size 15 to 20)
#    0.000    0.533    4.000    4.000    1.867    4.800 
#    4.800    0.000    0.000    0.000    0.000    0.000 
#    0.000    0.000    0.000    0.000    0.000    0.000 
#
# Total GULP energy -83591.765192 kJ/mol
# GULP energy per Si atom -5572.784346 kJ/mol
# Density = 2.123603 g / cm^3
# Si number density = 21.284476 Si / 1000 Ang^3
#
#
#
# Elastic Constant Matrix: (Units=GPa)
#
#
# Indices 1 2 3 4 5 6 
#
# 1 147.0653 13.3296 64.6302 -0.9347 9.7368 26.7867
# 2 13.3296 48.9763 19.2886 -8.3099 4.6531 19.6437
# 3 64.6302 19.2886 136.0183 -10.8217 9.8345 15.2659
# 4 -0.9347 -8.3099 -10.8217 33.3575 -8.5396 1.8909
# 5 9.7368 4.6531 9.8345 -8.5396 26.6800 -10.2094
# 6 26.7867 19.6437 15.2659 1.8909 -10.2094 27.8158
#
#
#
# Elastic Compliance Matrix: (Units=1/GPa)
#
#
# Indices 1 2 3 4 5 6 
#
# 1 0.011898 0.006289 -0.003826 -0.001208 -0.011243 -0.017844
# 2 0.006289 0.039113 -0.001812 0.005953 -0.022343 -0.041289
# 3 -0.003826 -0.001812 0.009865 0.002286 -0.001657 -0.001214
# 4 -0.001208 0.005953 0.002286 0.034476 0.008207 -0.003627
# 5 -0.011243 -0.022343 -0.001657 0.008207 0.068680 0.052166
# 6 -0.017844 -0.041289 -0.001214 -0.003627 0.052166 0.102352
#
#
# Mechanical properties :
#
#
# Convention : Reuss Voigt Hill
#
# Bulk Modulus (GPa) = 16.08279 58.50629 37.29454
# Shear Modulus (GPa) = 17.49433 33.22477 25.35955
#
# Velocity S-wave (km/s) = 2.87004 3.95522 3.45549
# Velocity P-wave (km/s) = 4.30759 6.95743 5.78624
#
# Compressibility (1/GPa) = 0.06217827
#
# Stress axis : x y z
#
# Youngs Moduli (GPa) = 84.04990 25.56684 101.37298
#
# Poissons Ratio (x) = -0.16078 0.38781
# Poissons Ratio (y) = -0.52855 0.18364
# Poissons Ratio (z) = 0.32154 0.04632
#
# Static dielectric constant tensor:
#      x y z
#    x 1.752180 -0.039050 0.017230 
#    y -0.039050 1.802910 0.008790 
#    z 0.017230 0.008790 1.762330 
# 
# From -- ./inp_files/281441.got.cif
#   From: 2010.05.17/outbox.cif.g08.bks.cpg/sg2_141_cif.got.tgz:281441.got - 2010.06.03 11:33:40.
