data_PCOD9061336
_publ_section_title
;
Structure prediction by ZEFSAII (Michael W. Deem and Ramdas Pophale) SiO2 
 PCOD9061336
Probable space group: P -1
;
_chemical_formula_sum "Si O2"
_cell_formula_units_Z 14
_cell_length_a 12.022690
_cell_length_b 7.580413
_cell_length_c 9.635932
_cell_angle_alpha 60.588781
_cell_angle_beta 112.698472
_cell_angle_gamma 78.129228
_cell_volume 614.523249
_symmetry_space_group_name_H-M "P -1"
_symmetry_group_IT_number 2
_symmetry_cell_setting 'triclinic'
loop_
_space_group_symop_operation_xyz
x,y,z
-x,-y,-z
loop_
_atom_site_type_symbol
_atom_site_label
_atom_site_fract_x
_atom_site_fract_y
_atom_site_fract_z
Si Si1 0.152877 0.976109 0.059870
Si Si2 0.148718 0.278829 0.183478
Si Si3 0.366336 0.426198 0.355585
Si Si4 0.557055 0.308618 0.221192
Si Si5 0.142577 0.975784 0.534845
Si Si6 0.421901 0.131747 0.765701
Si Si7 0.855689 0.732321 0.324391
O O1 0.266738 0.704451 0.215896
O O2 0.196185 0.112202 0.138566
O O3 0.145502 0.118789 0.863899
O O4 0.000000 0.000000 0.000000
O O5 0.261935 0.335770 0.281790
O O6 0.113565 0.135318 0.329377
O O7 0.000000 0.500000 0.000000
O O8 0.474333 0.374566 0.301190
O O9 0.433376 0.297890 0.585149
O O10 0.714905 0.252469 0.340171
O O11 0.556237 0.083764 0.240314
O O12 0.500000 0.500000 0.000000
O O13 0.172897 0.094903 0.630640
O O14 0.000000 0.000000 0.500000
O O15 0.273524 0.306845 0.697655
O O16 0.500000 0.000000 0.000000
O O17 0.000000 0.500000 0.500000
#
# Coordination Sequence:
#
# PCOD9061336 Si02
#       7
#     2   2   2   2   2   2   2
#     4  12  25  43  73 112 151 197 254 311 384 457
#     4  12  25  44  77 112 146 201 246 311 391 442
#     4  12  25  50  75 108 159 196 260 320 374 465
#     4  11  26  47  74 106 152 198 247 316 387 454
#     4  11  25  46  70 103 148 191 247 305 382 451
#     4  11  26  47  72 104 146 201 248 312 382 443
#     4  11  23  45  68 105 148 183 251 313 364 449
#
# _framework density 22.781889
#
# number of rings (size 3 to 8) (size 9 to 14) (size 15 to 20)
#    0.000    0.571    4.286    4.714    4.000    2.286 
#    0.000    2.143    0.000    0.000    0.000    0.000 
#    0.000    0.000    0.000    0.000    0.000    0.000 
#
# Total GULP energy -78063.763615 kJ/mol
# GULP energy per Si atom -5575.983115 kJ/mol
# Density = 2.273004 g / cm^3
# Si number density = 22.781889 Si / 1000 Ang^3
#
#
#
# Elastic Constant Matrix: (Units=GPa)
#
#
# Indices 1 2 3 4 5 6 
#
# 1 173.0163 51.8533 86.2311 -3.7671 -16.6235 -40.9603
# 2 51.8533 141.2953 55.9655 -5.0861 -9.4891 -10.0779
# 3 86.2311 55.9655 202.7766 -17.4799 -33.9823 -29.7857
# 4 -3.7671 -5.0861 -17.4799 51.1468 -10.9323 4.1207
# 5 -16.6235 -9.4891 -33.9823 -10.9323 58.8043 2.2061
# 6 -40.9603 -10.0779 -29.7857 4.1207 2.2061 40.2544
#
#
#
# Elastic Compliance Matrix: (Units=1/GPa)
#
#
# Indices 1 2 3 4 5 6 
#
# 1 0.009281 -0.001962 -0.002307 -0.000768 0.000558 0.007294
# 2 -0.001962 0.008367 -0.001634 0.000205 -0.000069 -0.001129
# 3 -0.002307 -0.001634 0.007625 0.002926 0.003946 0.002370
# 4 -0.000768 0.000205 0.002926 0.021802 0.005601 -0.001104
# 5 0.000558 -0.000069 0.003946 0.005601 0.020407 0.001778
# 6 0.007294 -0.001129 0.002370 -0.001104 0.001778 0.033751
#
#
# Mechanical properties :
#
#
# Convention : Reuss Voigt Hill
#
# Bulk Modulus (GPa) = 74.25705 100.57643 87.41674
# Shear Modulus (GPa) = 42.54291 51.57698 47.05995
#
# Velocity S-wave (km/s) = 4.32603 4.76326 4.54990
# Velocity P-wave (km/s) = 7.59067 8.63104 8.12752
#
# Compressibility (1/GPa) = 0.01346673
#
# Stress axis : x y z
#
# Youngs Moduli (GPa) = 107.74478 119.51443 131.14547
#
# Poissons Ratio (x) = 0.23454 0.30250
# Poissons Ratio (y) = 0.21144 0.21434
# Poissons Ratio (z) = 0.24852 0.19533
#
# Static dielectric constant tensor:
#      x y z
#    x 1.731010 0.017310 0.011810 
#    y 0.017310 1.834700 -0.017530 
#    z 0.011810 -0.017530 1.802330 
# 
# From -- ./inp_files/242627.got.cif
#   From: 2010.05.17/outbox.cif.g08.bks.cpg/sg2_122_cif.got.tgz:242627.got - 2010.06.03 11:33:40.
