data_PCOD9061556
_publ_section_title
;
Structure prediction by ZEFSAII (Michael W. Deem and Ramdas Pophale) SiO2 
 PCOD9061556
Probable space group: P -1
;
_chemical_formula_sum "Si O2"
_cell_formula_units_Z 16
_cell_length_a 22.947363
_cell_length_b 20.190940
_cell_length_c 8.400061
_cell_angle_alpha 145.257335
_cell_angle_beta 45.169992
_cell_angle_gamma 158.752560
_cell_volume 768.110572
_symmetry_space_group_name_H-M "P -1"
_symmetry_group_IT_number 2
_symmetry_cell_setting 'triclinic'
loop_
_space_group_symop_operation_xyz
x,y,z
-x,-y,-z
loop_
_atom_site_type_symbol
_atom_site_label
_atom_site_fract_x
_atom_site_fract_y
_atom_site_fract_z
Si Si1 0.393732 0.042021 0.488215
Si Si2 0.892360 0.755288 0.259792
Si Si3 0.243689 0.870097 0.759586
Si Si4 0.740756 0.363088 0.574278
Si Si5 0.934994 0.204478 0.773859
Si Si6 0.530317 0.410923 0.351014
Si Si7 0.577242 0.717191 0.334872
Si Si8 0.151667 0.595219 0.888146
O O1 0.555063 0.185666 0.547771
O O2 0.445596 0.221738 0.647371
O O3 0.240393 0.865165 0.562897
O O4 0.323241 0.869460 0.148340
O O5 0.710534 0.582671 0.304083
O O6 0.004105 0.835309 0.338180
O O7 0.853997 0.602376 0.909836
O O8 0.000000 0.000000 0.500000
O O9 0.272767 0.772957 0.566574
O O10 0.109837 0.757041 0.923138
O O11 0.392587 0.147862 0.040395
O O12 0.823885 0.430803 0.380901
O O13 0.093648 0.435850 0.819909
O O14 0.772611 0.978336 0.529012
O O15 0.500000 0.500000 0.500000
O O16 0.514619 0.384130 0.518777
O O17 0.500000 0.500000 0.000000
O O18 0.000000 0.500000 0.000000
#
# Coordination Sequence:
#
# PCOD9061556 Si02
#       8
#     2   2   2   2   2   2   2   2
#     4  12  25  42  73 100 145 184 236 294 353 428
#     4  12  28  47  71 105 141 185 245 300 352 420
#     4  11  23  45  73 103 139 189 242 286 356 432
#     4  12  27  45  72 107 143 191 244 292 358 430
#     4  11  26  44  71 104 143 183 237 297 361 419
#     4  11  24  48  73  99 143 192 240 293 348 437
#     4  11  25  44  70 100 137 192 243 282 360 427
#     4  12  24  45  67 105 149 178 226 296 369 416
#
# _framework density 20.830335999999999
#
# number of rings (size 3 to 8) (size 9 to 14) (size 15 to 20)
#    0.000    0.500    3.750    4.500    7.000    2.000 
#    0.000    1.250    0.000    0.000    0.000    0.000 
#    0.000    0.000    0.000    0.000    0.000    0.000 
#
# Total GULP energy -89253.957353 kJ/mol
# GULP energy per Si atom -5578.372335 kJ/mol
# Density = 2.078293 g / cm^3
# Si number density = 20.830336 Si / 1000 Ang^3
#
#
#
# Elastic Constant Matrix: (Units=GPa)
#
#
# Indices 1 2 3 4 5 6 
#
# 1 138.6594 25.6209 50.0412 -0.1773 -36.9194 -24.7958
# 2 25.6209 80.4956 39.0878 -4.7687 -10.2821 -25.2550
# 3 50.0412 39.0878 119.9379 18.4320 -23.9882 -11.1075
# 4 -0.1773 -4.7687 18.4320 32.8707 -7.2181 -2.3556
# 5 -36.9194 -10.2821 -23.9882 -7.2181 35.8719 13.9344
# 6 -24.7958 -25.2550 -11.1075 -2.3556 13.9344 38.6446
#
#
#
# Elastic Compliance Matrix: (Units=1/GPa)
#
#
# Indices 1 2 3 4 5 6 
#
# 1 0.011441 0.000656 -0.003503 0.004376 0.009036 0.003771
# 2 0.000656 0.019710 -0.007016 0.007310 -0.001689 0.012340
# 3 -0.003503 -0.007016 0.013649 -0.008218 0.003701 -0.004745
# 4 0.004376 0.007310 -0.008218 0.037965 0.006762 0.005099
# 5 0.009036 -0.001689 0.003701 0.006762 0.044342 -0.009819
# 6 0.003771 0.012340 -0.004745 0.005099 -0.009819 0.038849
#
#
# Mechanical properties :
#
#
# Convention : Reuss Voigt Hill
#
# Bulk Modulus (GPa) = 39.88085 63.17699 51.52892
# Shear Modulus (GPa) = 25.76796 36.43363 31.10080
#
# Velocity S-wave (km/s) = 3.52097 4.18672 3.86820
# Velocity P-wave (km/s) = 5.97635 7.33258 6.68893
#
# Compressibility (1/GPa) = 0.02507469
#
# Stress axis : x y z
#
# Youngs Moduli (GPa) = 87.40593 50.73611 73.26326
#
# Poissons Ratio (x) = -0.03330 0.25667
# Poissons Ratio (y) = -0.05737 0.51400
# Poissons Ratio (z) = 0.30621 0.35595
#
# Static dielectric constant tensor:
#      x y z
#    x 1.760690 -0.025910 0.097530 
#    y -0.025910 1.779880 -0.086530 
#    z 0.097530 -0.086530 1.822320 
# 
# From -- ./inp_files/200832.got.cif
#   From: 2010.05.17/outbox.cif.g08.bks.cpg/sg2_101_cif.got.tgz:200832.got - 2010.06.03 11:33:40.
