data_PCOD9061039
_publ_section_title
;
Structure prediction by ZEFSAII (Michael W. Deem and Ramdas Pophale) SiO2 
 PCOD9061039
Probable space group: P -1
;
_chemical_formula_sum "Si O2"
_cell_formula_units_Z 16
_cell_length_a 6.719529
_cell_length_b 22.747645
_cell_length_c 23.670354
_cell_angle_alpha 19.345405
_cell_angle_beta 127.827776
_cell_angle_gamma 137.765151
_cell_volume 744.160405
_symmetry_space_group_name_H-M "P -1"
_symmetry_group_IT_number 2
_symmetry_cell_setting 'triclinic'
loop_
_space_group_symop_operation_xyz
x,y,z
-x,-y,-z
loop_
_atom_site_type_symbol
_atom_site_label
_atom_site_fract_x
_atom_site_fract_y
_atom_site_fract_z
Si Si1 0.426756 0.336525 0.293404
Si Si2 0.313460 0.917946 0.600658
Si Si3 0.413181 0.457654 0.751388
Si Si4 0.736085 0.127797 0.872117
Si Si5 0.339610 0.041665 0.108387
Si Si6 0.224106 0.110616 0.653200
Si Si7 0.542980 0.648424 0.925970
Si Si8 0.301734 0.256556 0.658080
O O1 0.648066 0.490110 0.244712
O O2 0.055352 0.198309 0.370923
O O3 0.459599 0.145412 0.455482
O O4 0.476131 0.495347 0.106955
O O5 0.500000 0.000000 0.500000
O O6 0.337547 0.738420 0.798685
O O7 0.649631 0.691431 0.548616
O O8 0.089769 0.306349 0.795540
O O9 0.529853 0.305449 0.915909
O O10 0.585970 0.238346 0.720174
O O11 0.712881 0.986009 0.943489
O O12 0.500000 0.000000 0.000000
O O13 0.524004 0.943422 0.247659
O O14 0.001443 0.909190 0.203134
O O15 0.175018 0.194365 0.628131
O O16 0.899599 0.879571 0.785326
O O17 0.500000 0.500000 0.000000
O O18 0.500000 0.500000 0.500000
#
# Coordination Sequence:
#
# PCOD9061039 Si02
#       8
#     2   2   2   2   2   2   2   2
#     4  11  27  45  74 108 137 185 236 286 359 425
#     4  11  24  49  73 104 141 178 233 294 353 424
#     4  12  25  45  73 101 141 185 234 289 352 419
#     4  11  24  42  68 103 138 184 237 278 346 423
#     4  11  25  46  70  99 146 185 233 288 351 414
#     4  11  28  45  66 110 137 180 245 288 347 427
#     4  12  26  47  75 100 144 189 233 295 361 414
#     4  11  23  44  71  99 143 184 230 290 351 413
#
# _framework density 21.500741000000001
#
# number of rings (size 3 to 8) (size 9 to 14) (size 15 to 20)
#    0.000    0.750    2.500    3.750    7.000    6.000 
#    0.000    0.000    0.000    0.000    0.000    0.000 
#    0.000    0.000    0.000    0.000    0.000    0.000 
#
# Total GULP energy -89381.006732 kJ/mol
# GULP energy per Si atom -5586.312921 kJ/mol
# Density = 2.145180 g / cm^3
# Si number density = 21.500741 Si / 1000 Ang^3
#
#
#
# Elastic Constant Matrix: (Units=GPa)
#
#
# Indices 1 2 3 4 5 6 
#
# 1 98.0588 33.0175 48.3508 -4.7446 10.0414 -22.1467
# 2 33.0175 87.4371 32.9487 -16.4379 9.4665 -31.2193
# 3 48.3508 32.9487 140.9579 -7.1252 11.3395 -22.6589
# 4 -4.7446 -16.4379 -7.1252 35.1137 -2.3667 1.7593
# 5 10.0414 9.4665 11.3395 -2.3667 46.5725 2.2008
# 6 -22.1467 -31.2193 -22.6589 1.7593 2.2008 40.8946
#
#
#
# Elastic Compliance Matrix: (Units=1/GPa)
#
#
# Indices 1 2 3 4 5 6 
#
# 1 0.013717 -0.002379 -0.003397 -0.000266 -0.001842 0.003841
# 2 -0.002379 0.018918 -0.000955 0.007493 -0.003309 0.012480
# 3 -0.003397 -0.000955 0.009025 0.000710 -0.001352 0.002474
# 4 -0.000266 0.007493 0.000710 0.031848 -0.000238 0.004612
# 5 -0.001842 -0.003309 -0.001352 -0.000238 0.023119 -0.005506
# 6 0.003841 0.012480 0.002474 0.004612 -0.005506 0.037530
#
#
# Mechanical properties :
#
#
# Convention : Reuss Voigt Hill
#
# Bulk Modulus (GPa) = 35.46283 61.67641 48.56962
# Shear Modulus (GPa) = 31.84363 38.65861 35.25112
#
# Velocity S-wave (km/s) = 3.85261 4.24490 4.05350
# Velocity P-wave (km/s) = 6.02659 7.26454 6.67433
#
# Compressibility (1/GPa) = 0.02819854
#
# Stress axis : x y z
#
# Youngs Moduli (GPa) = 72.90135 52.86006 110.80196
#
# Poissons Ratio (x) = 0.12575 0.37639
# Poissons Ratio (y) = 0.17343 0.10580
# Poissons Ratio (z) = 0.24765 0.05047
#
# Static dielectric constant tensor:
#      x y z
#    x 1.700170 -0.121900 -0.028890 
#    y -0.121900 1.460320 -0.007100 
#    z -0.028890 -0.007100 1.759630 
# 
# From -- ./inp_files/90932.got.cif
#   From: 2010.05.17/outbox.cif.g08.bks.cpg/sg2_46_cif.got.tgz:90932.got - 2010.06.03 11:33:40.
