data_PCOD9061169
_publ_section_title
;
Structure prediction by ZEFSAII (Michael W. Deem and Ramdas Pophale) SiO2 
 PCOD9061169
Probable space group: P -1
;
_chemical_formula_sum "Si O2"
_cell_formula_units_Z 14
_cell_length_a 9.416852
_cell_length_b 12.883195
_cell_length_c 8.525083
_cell_angle_alpha 127.398254
_cell_angle_beta 59.910063
_cell_angle_gamma 128.664597
_cell_volume 629.043742
_symmetry_space_group_name_H-M "P -1"
_symmetry_group_IT_number 2
_symmetry_cell_setting 'triclinic'
loop_
_space_group_symop_operation_xyz
x,y,z
-x,-y,-z
loop_
_atom_site_type_symbol
_atom_site_label
_atom_site_fract_x
_atom_site_fract_y
_atom_site_fract_z
Si Si1 0.384339 0.359856 0.084304
Si Si2 0.065424 0.721477 0.354065
Si Si3 0.347419 0.638314 0.285933
Si Si4 0.789947 0.065408 0.825266
Si Si5 0.065422 0.104049 0.209770
Si Si6 0.613087 0.196256 0.257985
Si Si7 0.650031 0.468729 0.296512
O O1 0.297400 0.468029 0.191629
O O2 0.257528 0.238820 0.167332
O O3 0.583126 0.459958 0.147943
O O4 0.445812 0.295572 0.843435
O O5 0.206074 0.659980 0.269705
O O6 0.121601 0.813290 0.246526
O O7 0.061837 0.826950 0.592348
O O8 0.857321 0.590895 0.328132
O O9 0.349774 0.718850 0.520829
O O10 0.904234 0.982479 0.741413
O O11 0.590894 0.942067 0.760028
O O12 0.753262 0.136408 0.068247
O O13 0.000000 0.000000 0.000000
O O14 0.626513 0.312675 0.224801
O O15 0.500000 0.500000 0.500000
#
# Coordination Sequence:
#
# PCOD9061169 Si02
#       7
#     2   2   2   2   2   2   2
#     4  11  25  47  72 105 143 189 235 291 365 415
#     4  12  27  45  75 109 140 187 244 294 348 422
#     4  11  26  44  73 109 140 184 240 299 350 414
#     4  11  26  44  69 108 141 191 237 281 363 424
#     4  12  26  45  70 103 146 186 236 296 354 421
#     4  11  23  44  73  99 148 188 232 292 353 427
#     4  12  22  47  75  97 141 191 237 291 352 418
#
# _framework density 22.256004999999998
#
# number of rings (size 3 to 8) (size 9 to 14) (size 15 to 20)
#    0.000    0.571    4.286    2.143    4.000    8.571 
#    0.000    0.000    0.000    0.000    0.000    0.000 
#    0.000    0.000    0.000    0.000    0.000    0.000 
#
# Total GULP energy -78329.474802 kJ/mol
# GULP energy per Si atom -5594.962486 kJ/mol
# Density = 2.220535 g / cm^3
# Si number density = 22.256005 Si / 1000 Ang^3
#
#
#
# Elastic Constant Matrix: (Units=GPa)
#
#
# Indices 1 2 3 4 5 6 
#
# 1 106.7746 53.2514 43.1256 1.8049 -22.8509 -26.7343
# 2 53.2514 108.7824 30.3656 -4.4547 -8.0937 -9.5915
# 3 43.1256 30.3656 123.8183 -2.2657 -11.2056 4.2313
# 4 1.8049 -4.4547 -2.2657 23.4834 -11.7264 0.3443
# 5 -22.8509 -8.0937 -11.2056 -11.7264 36.1270 1.8777
# 6 -26.7343 -9.5915 4.2313 0.3443 1.8777 30.1030
#
#
#
# Elastic Compliance Matrix: (Units=1/GPa)
#
#
# Indices 1 2 3 4 5 6 
#
# 1 0.021073 -0.006557 -0.005404 0.001217 0.009707 0.016766
# 2 -0.006557 0.012509 -0.000741 0.002493 -0.000676 -0.001720
# 3 -0.005404 -0.000741 0.010442 0.001642 0.000529 -0.006555
# 4 0.001217 0.002493 0.001642 0.052564 0.018906 -0.000136
# 5 0.009707 -0.000676 0.000529 0.018906 0.039676 0.005640
# 6 0.016766 -0.001720 -0.006555 -0.000136 0.005640 0.048132
#
#
# Mechanical properties :
#
#
# Convention : Reuss Voigt Hill
#
# Bulk Modulus (GPa) = 53.70209 65.87338 59.78774
# Shear Modulus (GPa) = 23.14743 32.11818 27.63281
#
# Velocity S-wave (km/s) = 3.22848 3.80297 3.52744
# Velocity P-wave (km/s) = 6.17083 6.99612 6.59639
#
# Compressibility (1/GPa) = 0.01862125
#
# Stress axis : x y z
#
# Youngs Moduli (GPa) = 47.45436 79.93982 95.76658
#
# Poissons Ratio (x) = 0.52416 0.51750
# Poissons Ratio (y) = 0.31115 0.07095
# Poissons Ratio (z) = 0.25643 0.05923
#
# Static dielectric constant tensor:
#      x y z
#    x 1.808580 -0.010180 0.024470 
#    y -0.010180 1.800350 0.000580 
#    z 0.024470 0.000580 1.894970 
# 
# From -- ./inp_files/182994.got.cif
#   From: 2010.05.17/outbox.cif.g08.bks.cpg/sg2_92_cif.got.tgz:182994.got - 2010.06.03 11:33:40.
