data_PCOD9061580
_publ_section_title
;
Structure prediction by ZEFSAII (Michael W. Deem and Ramdas Pophale) SiO2 
 PCOD9061580
Probable space group: P -1
;
_chemical_formula_sum "Si O2"
_cell_formula_units_Z 14
_cell_length_a 12.499659
_cell_length_b 18.551859
_cell_length_c 8.529648
_cell_angle_alpha 133.987133
_cell_angle_beta 142.901849
_cell_angle_gamma 26.677409
_cell_volume 534.436800
_symmetry_space_group_name_H-M "P -1"
_symmetry_group_IT_number 2
_symmetry_cell_setting 'triclinic'
loop_
_space_group_symop_operation_xyz
x,y,z
-x,-y,-z
loop_
_atom_site_type_symbol
_atom_site_label
_atom_site_fract_x
_atom_site_fract_y
_atom_site_fract_z
Si Si1 0.364213 0.427322 0.637207
Si Si2 0.455662 0.438941 0.095704
Si Si3 0.636347 0.022654 0.526368
Si Si4 0.110736 0.851599 0.592008
Si Si5 0.561389 0.771035 0.839272
Si Si6 0.236799 0.255616 0.654619
Si Si7 0.859303 0.785835 0.000435
O O1 0.466125 0.483067 0.751921
O O2 0.405321 0.321162 0.401881
O O3 0.873631 0.407321 0.003716
O O4 0.497253 0.358917 0.861615
O O5 0.650818 0.312133 0.272435
O O6 0.970427 0.409043 0.476844
O O7 0.845562 0.987820 0.602348
O O8 0.786409 0.852179 0.493195
O O9 0.532621 0.130301 0.717721
O O10 0.338877 0.122932 0.246154
O O11 0.258273 0.881034 0.728638
O O12 0.998669 0.824765 0.288226
O O13 0.647145 0.837741 0.963932
O O14 0.763150 0.679900 0.089669
#
# Coordination Sequence:
#
# PCOD9061580 Si02
#       7
#     2   2   2   2   2   2   2
#     4  11  23  45  73 113 137 182 241 296 347 422
#     4  11  24  44  74 103 147 186 235 288 357 410
#     4  11  25  49  74  97 152 190 230 282 363 423
#     4  12  26  46  71 108 141 189 232 294 349 420
#     4  12  28  42  76 107 143 179 246 292 350 411
#     4  11  24  45  73 107 139 193 231 289 353 429
#     4  12  25  48  72 105 143 191 231 294 351 417
#
# _framework density 26.195802
#
# number of rings (size 3 to 8) (size 9 to 14) (size 15 to 20)
#    0.000    0.571    5.714    1.286    4.000    2.857 
#    0.000    0.000    0.000    0.000    0.000    0.000 
#    0.000    0.000    0.000    0.000    0.000    0.000 
#
# Total GULP energy -78475.892799 kJ/mol
# GULP energy per Si atom -5605.420914 kJ/mol
# Density = 2.613618 g / cm^3
# Si number density = 26.195802 Si / 1000 Ang^3
#
#
#
# Elastic Constant Matrix: (Units=GPa)
#
#
# Indices 1 2 3 4 5 6 
#
# 1 126.9128 45.8524 37.7020 15.7094 16.4933 -14.9026
# 2 45.8524 105.0079 39.0885 -12.7537 -8.2615 -2.3010
# 3 37.7020 39.0885 114.0723 0.3390 -14.3860 9.9274
# 4 15.7094 -12.7537 0.3390 43.8437 -3.5000 -9.8790
# 5 16.4933 -8.2615 -14.3860 -3.5000 44.6684 4.7387
# 6 -14.9026 -2.3010 9.9274 -9.8790 4.7387 47.0352
#
#
#
# Elastic Compliance Matrix: (Units=1/GPa)
#
#
# Indices 1 2 3 4 5 6 
#
# 1 0.013427 -0.005715 -0.003872 -0.006122 -0.008201 0.004332
# 2 -0.005715 0.014076 -0.002426 0.006588 0.004414 0.000329
# 3 -0.003872 -0.002426 0.011927 0.000022 0.005290 -0.004391
# 4 -0.006122 0.006588 0.000022 0.028189 0.005296 0.003765
# 5 -0.008201 0.004414 0.005290 0.005296 0.028913 -0.005300
# 6 0.004332 0.000329 -0.004391 0.003765 -0.005300 0.024901
#
#
# Mechanical properties :
#
#
# Convention : Reuss Voigt Hill
#
# Bulk Modulus (GPa) = 64.92459 65.69764 65.31111
# Shear Modulus (GPa) = 33.20167 41.99948 37.60057
#
# Velocity S-wave (km/s) = 3.56398 4.00846 3.79273
# Velocity P-wave (km/s) = 6.46329 6.82331 6.64573
#
# Compressibility (1/GPa) = 0.01540248
#
# Stress axis : x y z
#
# Youngs Moduli (GPa) = 74.47630 71.04088 83.84493
#
# Poissons Ratio (x) = 0.40603 0.32469
# Poissons Ratio (y) = 0.42566 0.20341
# Poissons Ratio (z) = 0.28841 0.17235
#
# Static dielectric constant tensor:
#      x y z
#    x 2.040950 0.006960 0.009760 
#    y 0.006960 2.054400 -0.001120 
#    z 0.009760 -0.001120 2.051330 
# 
# From -- ./inp_files/319122.got.cif
#   From: 2010.05.17/outbox.cif.g08.bks.cpg/sg2_160_cif.got.tgz:319122.got - 2010.06.03 11:33:40.
