data_PCOD9061517
_publ_section_title
;
Structure prediction by ZEFSAII (Michael W. Deem and Ramdas Pophale) SiO2 
 PCOD9061517
Probable space group: P -1
;
_chemical_formula_sum "Si O2"
_cell_formula_units_Z 14
_cell_length_a 9.472006
_cell_length_b 15.046962
_cell_length_c 14.899800
_cell_angle_alpha 27.745554
_cell_angle_beta 138.592825
_cell_angle_gamma 141.128585
_cell_volume 606.771089
_symmetry_space_group_name_H-M "P -1"
_symmetry_group_IT_number 2
_symmetry_cell_setting 'triclinic'
loop_
_space_group_symop_operation_xyz
x,y,z
-x,-y,-z
loop_
_atom_site_type_symbol
_atom_site_label
_atom_site_fract_x
_atom_site_fract_y
_atom_site_fract_z
Si Si1 0.760952 0.820221 0.082503
Si Si2 0.986801 0.004763 0.595436
Si Si3 0.997608 0.390569 0.502928
Si Si4 0.946481 0.528663 0.747205
Si Si5 0.502628 0.941739 0.452191
Si Si6 0.613020 0.133105 0.020882
Si Si7 0.443473 0.602907 0.972162
O O1 0.830813 0.726720 0.289202
O O2 0.572547 0.906037 0.953601
O O3 0.628190 0.634784 0.113249
O O4 0.000000 0.000000 0.000000
O O5 0.031972 0.236009 0.443215
O O6 0.174469 0.927554 0.793873
O O7 0.000000 0.000000 0.500000
O O8 0.718575 0.875273 0.602812
O O9 0.740951 0.227974 0.526758
O O10 0.000000 0.500000 0.500000
O O11 0.046688 0.504914 0.327731
O O12 0.164625 0.505560 0.923406
O O13 0.721794 0.370274 0.829036
O O14 0.500000 0.000000 0.500000
O O15 0.525299 0.155812 0.227976
O O16 0.500000 0.000000 0.000000
O O17 0.500000 0.500000 0.000000
#
# Coordination Sequence:
#
# PCOD9061517 Si02
#       7
#     2   2   2   2   2   2   2
#     4  12  28  47  74 113 150 189 257 308 370 453
#     4  11  26  48  78 107 150 200 247 308 374 441
#     4  12  26  45  76 110 150 196 245 315 373 441
#     4  11  27  49  72 113 149 197 261 298 373 465
#     4  11  23  45  72 106 145 191 252 296 362 445
#     4  12  30  48  77 109 156 201 240 319 385 436
#     4  11  24  42  77 107 146 194 246 311 364 441
#
# _framework density 23.072952000000001
#
# number of rings (size 3 to 8) (size 9 to 14) (size 15 to 20)
#    0.000    0.571    4.286    3.429    6.000    5.714 
#    0.000    0.000    0.000    0.000    0.000    0.000 
#    0.000    0.000    0.000    0.000    0.000    0.000 
#
# Total GULP energy -78127.057191 kJ/mol
# GULP energy per Si atom -5580.504085 kJ/mol
# Density = 2.302044 g / cm^3
# Si number density = 23.072952 Si / 1000 Ang^3
#
#
#
# Elastic Constant Matrix: (Units=GPa)
#
#
# Indices 1 2 3 4 5 6 
#
# 1 136.5558 62.2588 15.9815 20.2662 6.2831 -0.0059
# 2 62.2588 162.6645 29.6905 30.7246 -9.2831 -8.6614
# 3 15.9815 29.6905 96.0944 31.1592 8.2892 9.5794
# 4 20.2662 30.7246 31.1592 39.6904 -1.3231 -0.7925
# 5 6.2831 -9.2831 8.2892 -1.3231 37.7004 5.8921
# 6 -0.0059 -8.6614 9.5794 -0.7925 5.8921 50.5387
#
#
#
# Elastic Compliance Matrix: (Units=1/GPa)
#
#
# Indices 1 2 3 4 5 6 
#
# 1 0.009288 -0.003316 0.000641 -0.002772 -0.002534 -0.000437
# 2 -0.003316 0.008591 -0.001191 -0.003909 0.002584 0.001335
# 3 0.000641 -0.001191 0.014923 -0.011297 -0.003642 -0.002785
# 4 -0.002772 -0.003909 -0.011297 0.038642 0.003071 0.001719
# 5 -0.002534 0.002584 -0.003642 0.003071 0.028833 -0.002180
# 6 -0.000437 0.001335 -0.002785 0.001719 -0.002180 0.020825
#
#
# Mechanical properties :
#
#
# Convention : Reuss Voigt Hill
#
# Bulk Modulus (GPa) = 39.89045 67.90847 53.89946
# Shear Modulus (GPa) = 36.44530 44.74482 40.59506
#
# Velocity S-wave (km/s) = 3.97869 4.40850 4.19910
# Velocity P-wave (km/s) = 6.19944 7.44373 6.84989
#
# Compressibility (1/GPa) = 0.02506866
#
# Stress axis : x y z
#
# Youngs Moduli (GPa) = 107.66721 116.39693 67.01032
#
# Poissons Ratio (x) = 0.38600 -0.04294
# Poissons Ratio (y) = 0.35705 0.07984
# Poissons Ratio (z) = -0.06899 0.13868
#
# Static dielectric constant tensor:
#      x y z
#    x 1.832220 0.005240 0.067950 
#    y 0.005240 1.857950 0.002650 
#    z 0.067950 0.002650 1.835180 
# 
# From -- ./inp_files/505179.got.cif
#   From: 2010.05.17/outbox.cif.g08.bks.cpg/sg2_253_cif.got.tgz:505179.got - 2010.06.03 11:33:40.
