data_PCOD9061247
_publ_section_title
;
Structure prediction by ZEFSAII (Michael W. Deem and Ramdas Pophale) SiO2 
 PCOD9061247
Probable space group: P -1
;
_chemical_formula_sum "Si O2"
_cell_formula_units_Z 16
_cell_length_a 12.333964
_cell_length_b 9.177239
_cell_length_c 9.160662
_cell_angle_alpha 52.828059
_cell_angle_beta 115.091405
_cell_angle_gamma 111.972480
_cell_volume 738.206830
_symmetry_space_group_name_H-M "P -1"
_symmetry_group_IT_number 2
_symmetry_cell_setting 'triclinic'
loop_
_space_group_symop_operation_xyz
x,y,z
-x,-y,-z
loop_
_atom_site_type_symbol
_atom_site_label
_atom_site_fract_x
_atom_site_fract_y
_atom_site_fract_z
Si Si1 0.142768 0.466214 0.667151
Si Si2 0.107360 0.114793 0.400990
Si Si3 0.659438 0.055063 0.284643
Si Si4 0.533054 0.309370 0.572557
Si Si5 0.921824 0.505281 0.701472
Si Si6 0.583853 0.389429 0.213250
Si Si7 0.757260 0.202833 0.941815
Si Si8 0.943635 0.961427 0.146402
O O1 0.138428 0.564894 0.447065
O O2 0.281949 0.487976 0.777171
O O3 0.062959 0.532594 0.713719
O O4 0.079841 0.259020 0.712282
O O5 0.123720 0.314323 0.366908
O O6 0.044736 0.086720 0.226278
O O7 0.223976 0.015404 0.536393
O O8 0.000000 0.000000 0.500000
O O9 0.601259 0.196594 0.265322
O O10 0.564751 0.866238 0.326995
O O11 0.701945 0.165718 0.093295
O O12 0.500000 0.500000 0.500000
O O13 0.461254 0.660800 0.617188
O O14 0.657616 0.265290 0.740722
O O15 0.877612 0.354886 0.891454
O O16 0.500000 0.500000 0.000000
O O17 0.810977 0.017790 0.048337
O O18 0.000000 0.000000 0.000000
#
# Coordination Sequence:
#
# PCOD9061247 Si02
#       8
#     2   2   2   2   2   2   2   2
#     4  11  24  44  74 105 148 190 241 300 369 432
#     4  12  24  46  72 105 150 185 240 297 369 427
#     4  12  28  48  74 107 148 191 244 306 361 435
#     4  12  28  51  77 103 142 196 250 304 363 433
#     4  11  23  44  76 108 145 192 239 302 365 441
#     4  12  29  50  74 107 146 193 249 301 365 434
#     4  12  25  45  76 107 143 191 246 295 371 431
#     4  12  27  43  71 112 145 192 233 299 365 444
#
# _framework density 21.674143000000001
#
# number of rings (size 3 to 8) (size 9 to 14) (size 15 to 20)
#    0.000    0.250    5.000    3.000    7.000    2.500 
#    0.000    0.000    0.000    0.000    0.000    0.000 
#    0.000    0.000    0.000    0.000    0.000    0.000 
#
# Total GULP energy -89340.172254 kJ/mol
# GULP energy per Si atom -5583.760766 kJ/mol
# Density = 2.162481 g / cm^3
# Si number density = 21.674143 Si / 1000 Ang^3
#
#
#
# Elastic Constant Matrix: (Units=GPa)
#
#
# Indices 1 2 3 4 5 6 
#
# 1 116.8405 42.7021 67.3312 3.3623 -9.8400 -13.1595
# 2 42.7021 102.3494 41.9182 -13.7380 -3.5361 -21.1297
# 3 67.3312 41.9182 137.8648 4.7871 -1.2098 -15.7733
# 4 3.3623 -13.7380 4.7871 35.5218 -3.6688 1.7939
# 5 -9.8400 -3.5361 -1.2098 -3.6688 63.7508 3.3532
# 6 -13.1595 -21.1297 -15.7733 1.7939 3.3532 49.8976
#
#
#
# Elastic Compliance Matrix: (Units=1/GPa)
#
#
# Indices 1 2 3 4 5 6 
#
# 1 0.013031 -0.003410 -0.005221 -0.001697 0.001610 0.000295
# 2 -0.003410 0.013718 -0.002249 0.005763 0.000315 0.003971
# 3 -0.005221 -0.002249 0.010682 -0.001968 -0.000903 0.001179
# 4 -0.001697 0.005763 -0.001968 0.030985 0.001796 0.000136
# 5 0.001610 0.000315 -0.000903 0.001796 0.016084 -0.000873
# 6 0.000295 0.003971 0.001179 0.000136 -0.000873 0.022227
#
#
# Mechanical properties :
#
#
# Convention : Reuss Voigt Hill
#
# Bulk Modulus (GPa) = 63.80384 73.43971 68.62178
# Shear Modulus (GPa) = 37.39418 43.50760 40.45089
#
# Velocity S-wave (km/s) = 4.15817 4.48521 4.32478
# Velocity P-wave (km/s) = 7.24952 7.79615 7.52779
#
# Compressibility (1/GPa) = 0.01567304
#
# Stress axis : x y z
#
# Youngs Moduli (GPa) = 76.74015 72.89502 93.61378
#
# Poissons Ratio (x) = 0.24857 0.48871
# Poissons Ratio (y) = 0.26168 0.21052
# Poissons Ratio (z) = 0.40062 0.16393
#
# Static dielectric constant tensor:
#      x y z
#    x 3.511350 -7.049720 6.424450 
#    y -7.049720 30.864720 -26.478010 
#    z 6.424450 -26.478010 25.873750 
# 
# From -- ./inp_files/242710.got.cif
#   From: 2010.05.17/outbox.cif.g08.bks.cpg/sg2_122_cif.got.tgz:242710.got - 2010.06.03 11:33:40.
