data_PCOD9061314
_publ_section_title
;
Structure prediction by ZEFSAII (Michael W. Deem and Ramdas Pophale) SiO2 
 PCOD9061314
Probable space group: P -1
;
_chemical_formula_sum "Si O2"
_cell_formula_units_Z 14
_cell_length_a 9.791655
_cell_length_b 5.564865
_cell_length_c 21.765091
_cell_angle_alpha 110.249877
_cell_angle_beta 38.524940
_cell_angle_gamma 117.885174
_cell_volume 652.490665
_symmetry_space_group_name_H-M "P -1"
_symmetry_group_IT_number 2
_symmetry_cell_setting 'triclinic'
loop_
_space_group_symop_operation_xyz
x,y,z
-x,-y,-z
loop_
_atom_site_type_symbol
_atom_site_label
_atom_site_fract_x
_atom_site_fract_y
_atom_site_fract_z
Si Si1 0.743435 0.638909 0.961382
Si Si2 0.213031 0.692200 0.401353
Si Si3 0.495228 0.100943 0.441240
Si Si4 0.974662 0.603373 0.755241
Si Si5 0.970469 0.843685 0.384894
Si Si6 0.682924 0.681762 0.755707
Si Si7 0.771991 0.264774 0.032999
O O1 0.934237 0.635756 0.843320
O O2 0.500000 0.500000 0.000000
O O3 0.740142 0.423740 0.996791
O O4 0.782291 0.957030 0.993740
O O5 0.375442 0.587447 0.288998
O O6 0.000000 0.500000 0.500000
O O7 0.084616 0.818520 0.407077
O O8 0.379421 0.878367 0.410339
O O9 0.761282 0.235438 0.341121
O O10 0.306937 0.258380 0.521463
O O11 0.500000 0.000000 0.500000
O O12 0.945883 0.307385 0.712758
O O13 0.784336 0.677724 0.787717
O O14 0.085609 0.148346 0.348436
O O15 0.458087 0.771336 0.847810
O O16 0.000000 0.500000 0.000000
#
# Coordination Sequence:
#
# PCOD9061314 Si02
#       7
#     2   2   2   2   2   2   2
#     4  12  26  50  78 107 144 194 248 305 366 433
#     4  11  24  43  66  99 136 186 227 278 353 431
#     4  12  23  42  67 101 140 173 234 288 341 422
#     4  11  25  41  71 102 136 181 236 293 354 417
#     4  11  23  45  67  97 141 184 223 282 361 428
#     4  11  24  45  71  95 141 186 227 287 364 430
#     4  12  29  49  75 109 150 189 249 307 366 434
#
# _framework density 21.456246
#
# number of rings (size 3 to 8) (size 9 to 14) (size 15 to 20)
#    0.000    0.571    4.286    3.429    6.000    1.143 
#    0.000    0.000    0.000    0.000    0.000    0.000 
#    0.000    0.000    0.000    0.000    0.000    0.000 
#
# Total GULP energy -78007.204437 kJ/mol
# GULP energy per Si atom -5571.943174 kJ/mol
# Density = 2.140741 g / cm^3
# Si number density = 21.456246 Si / 1000 Ang^3
#
#
#
# Elastic Constant Matrix: (Units=GPa)
#
#
# Indices 1 2 3 4 5 6 
#
# 1 90.5625 15.0097 14.8443 12.7836 13.6987 13.1701
# 2 15.0097 70.1961 19.9912 8.6365 7.1221 16.2145
# 3 14.8443 19.9912 134.1005 6.5634 4.0674 8.8642
# 4 12.7836 8.6365 6.5634 28.1631 5.0965 1.5506
# 5 13.6987 7.1221 4.0674 5.0965 35.4185 -11.6225
# 6 13.1701 16.2145 8.8642 1.5506 -11.6225 29.9641
#
#
#
# Elastic Compliance Matrix: (Units=1/GPa)
#
#
# Indices 1 2 3 4 5 6 
#
# 1 0.014229 0.000636 -0.000593 -0.004567 -0.007947 -0.009269
# 2 0.000636 0.018680 -0.001620 -0.003600 -0.007435 -0.012606
# 3 -0.000593 -0.001620 0.007923 -0.000875 -0.000699 -0.001433
# 4 -0.004567 -0.003600 -0.000875 0.039313 -0.002694 0.001135
# 5 -0.007947 -0.007435 -0.000699 -0.002694 0.041079 0.023796
# 6 -0.009269 -0.012606 -0.001433 0.001135 0.023796 0.053864
#
#
# Mechanical properties :
#
#
# Convention : Reuss Voigt Hill
#
# Bulk Modulus (GPa) = 26.54103 43.83885 35.18994
# Shear Modulus (GPa) = 26.20518 35.04340 30.62429
#
# Velocity S-wave (km/s) = 3.49855 4.04573 3.78205
# Velocity P-wave (km/s) = 5.35877 6.50385 5.95888
#
# Compressibility (1/GPa) = 0.03767751
#
# Stress axis : x y z
#
# Youngs Moduli (GPa) = 70.28107 53.53203 126.21566
#
# Poissons Ratio (x) = -0.03402 0.07479
# Poissons Ratio (y) = -0.04466 0.20449
# Poissons Ratio (z) = 0.04164 0.08673
#
# Static dielectric constant tensor:
#      x y z
#    x 1.799390 -0.022960 0.028550 
#    y -0.022960 1.855320 0.044840 
#    z 0.028550 0.044840 1.866410 
# 
# From -- ./inp_files/40103.got.cif
#   From: 2010.05.17/outbox.cif.g08.bks.cpg/sg2_21_cif.got.tgz:40103.got - 2010.06.03 11:33:40.
