data_PCOD9061980
_publ_section_title
;
Structure prediction by ZEFSAII (Michael W. Deem and Ramdas Pophale) SiO2 
 PCOD9061980
Probable space group: P -1
;
_chemical_formula_sum "Si O2"
_cell_formula_units_Z 16
_cell_length_a 21.882848
_cell_length_b 12.343261
_cell_length_c 13.121887
_cell_angle_alpha 34.774251
_cell_angle_beta 152.087572
_cell_angle_gamma 155.409433
_cell_volume 687.512276
_symmetry_space_group_name_H-M "P -1"
_symmetry_group_IT_number 2
_symmetry_cell_setting 'triclinic'
loop_
_space_group_symop_operation_xyz
x,y,z
-x,-y,-z
loop_
_atom_site_type_symbol
_atom_site_label
_atom_site_fract_x
_atom_site_fract_y
_atom_site_fract_z
Si Si1 0.195874 0.297937 0.314797
Si Si2 0.695485 0.204456 0.182604
Si Si3 0.403403 0.747393 0.805195
Si Si4 0.496893 0.458324 0.259833
Si Si5 0.598435 0.920913 0.753075
Si Si6 0.201537 0.256085 0.125247
Si Si7 0.987062 0.452818 0.897338
Si Si8 0.013215 0.269324 0.502420
O O1 0.339388 0.435218 0.510353
O O2 0.250544 0.276289 0.300490
O O3 0.037020 0.001956 0.350488
O O4 0.141951 0.461188 0.089694
O O5 0.649797 0.135116 0.289009
O O6 0.850217 0.217631 0.360092
O O7 0.772646 0.494626 0.055012
O O8 0.500000 0.000000 0.000000
O O9 0.550933 0.901752 0.815391
O O10 0.211605 0.496576 0.666773
O O11 0.490948 0.675396 0.062022
O O12 0.482774 0.342652 0.219543
O O13 0.322652 0.252279 0.231530
O O14 0.500000 0.000000 0.500000
O O15 0.803769 0.151755 0.847355
O O16 0.000000 0.000000 0.000000
O O17 0.984891 0.636043 0.681041
O O18 0.000000 0.500000 0.000000
#
# Coordination Sequence:
#
# PCOD9061980 Si02
#       8
#     2   2   2   2   2   2   2   2
#     4  12  26  47  76 107 148 191 241 307 364 433
#     4  11  25  45  75 111 148 186 245 313 368 434
#     4  11  25  46  71 104 144 190 245 296 363 441
#     4  11  26  45  71 106 143 192 240 300 364 437
#     4  12  25  46  70 102 145 193 239 298 366 431
#     4  11  23  46  76 106 148 192 246 305 372 436
#     4  12  28  48  74 107 148 190 246 301 360 442
#     4  12  25  48  77 108 143 192 245 299 372 429
#
# _framework density 23.272311999999999
#
# number of rings (size 3 to 8) (size 9 to 14) (size 15 to 20)
#    0.000    0.500    2.500    6.375    3.500    2.500 
#    0.000    0.000    0.000    0.000    0.000    0.000 
#    0.000    0.000    0.000    0.000    0.000    0.000 
#
# Total GULP energy -89461.052400 kJ/mol
# GULP energy per Si atom -5591.315775 kJ/mol
# Density = 2.321934 g / cm^3
# Si number density = 23.272312 Si / 1000 Ang^3
#
#
#
# Elastic Constant Matrix: (Units=GPa)
#
#
# Indices 1 2 3 4 5 6 
#
# 1 109.6397 -12.4992 -8.1807 -8.6944 -24.1712 2.5604
# 2 -12.4992 46.1236 -12.1339 -1.5392 2.0577 -3.8892
# 3 -8.1807 -12.1339 68.3954 -2.9629 -3.4632 2.5797
# 4 -8.6944 -1.5392 -2.9629 34.2263 4.5255 -2.2773
# 5 -24.1712 2.0577 -3.4632 4.5255 38.0577 0.3404
# 6 2.5604 -3.8892 2.5797 -2.2773 0.3404 30.5217
#
#
#
# Elastic Compliance Matrix: (Units=1/GPa)
#
#
# Indices 1 2 3 4 5 6 
#
# 1 0.011449 0.003460 0.002463 0.002304 0.007040 -0.000634
# 2 0.003460 0.024119 0.004752 0.002410 0.001016 0.002550
# 3 0.002463 0.004752 0.015999 0.001831 0.002553 -0.000845
# 4 0.002304 0.002410 0.001831 0.030504 -0.002148 0.002259
# 5 0.007040 0.001016 0.002553 -0.002148 0.031191 -0.001185
# 6 -0.000634 0.002550 -0.000845 0.002259 -0.001185 0.033395
#
#
# Mechanical properties :
#
#
# Convention : Reuss Voigt Hill
#
# Bulk Modulus (GPa) = 13.71407 17.61456 15.66431
# Shear Modulus (GPa) = 33.42015 37.69264 35.55640
#
# Velocity S-wave (km/s) = 3.79363 4.02883 3.91300
# Velocity P-wave (km/s) = 5.00944 5.40623 5.21162
#
# Compressibility (1/GPa) = 0.07291783
#
# Stress axis : x y z
#
# Youngs Moduli (GPa) = 87.34699 41.46142 62.50352
#
# Poissons Ratio (x) = -0.14345 -0.15397
# Poissons Ratio (y) = -0.30221 -0.29704
# Poissons Ratio (z) = -0.21517 -0.19704
#
# Static dielectric constant tensor:
#      x y z
#    x 1.587690 -0.059230 -0.054880 
#    y -0.059230 1.840040 -0.028200 
#    z -0.054880 -0.028200 1.837220 
# 
# From -- ./inp_files/471145.got.cif
#   From: 2010.05.17/outbox.cif.g08.bks.cpg/sg2_236_cif.got.tgz:471145.got - 2010.06.03 11:33:40.
