data_PCOD9061952
_publ_section_title
;
Structure prediction by ZEFSAII (Michael W. Deem and Ramdas Pophale) SiO2 
 PCOD9061952
Probable space group: P -1
;
_chemical_formula_sum "Si O2"
_cell_formula_units_Z 14
_cell_length_a 21.920329
_cell_length_b 8.923635
_cell_length_c 9.099213
_cell_angle_alpha 54.446080
_cell_angle_beta 44.163626
_cell_angle_gamma 30.417666
_cell_volume 624.353890
_symmetry_space_group_name_H-M "P -1"
_symmetry_group_IT_number 2
_symmetry_cell_setting 'triclinic'
loop_
_space_group_symop_operation_xyz
x,y,z
-x,-y,-z
loop_
_atom_site_type_symbol
_atom_site_label
_atom_site_fract_x
_atom_site_fract_y
_atom_site_fract_z
Si Si1 0.615475 0.348937 0.197874
Si Si2 0.657584 0.520498 0.777002
Si Si3 0.599957 0.784036 0.113998
Si Si4 0.042325 0.116214 0.776473
Si Si5 0.096833 0.305517 0.802061
Si Si6 0.645517 0.489098 0.471061
Si Si7 0.842056 0.466587 0.654472
O O1 0.585846 0.598785 0.179648
O O2 0.489355 0.412114 0.393755
O O3 0.761631 0.030918 0.192268
O O4 0.626772 0.377989 0.988985
O O5 0.651333 0.524067 0.612272
O O6 0.803784 0.346913 0.696934
O O7 0.541533 0.863738 0.832724
O O8 0.647054 0.668803 0.265404
O O9 0.716511 0.692959 0.864420
O O10 0.004550 0.339777 0.826533
O O11 0.975888 0.232709 0.663506
O O12 0.210481 0.853535 0.619271
O O13 0.000000 0.000000 0.000000
O O14 0.145582 0.398749 0.567265
O O15 0.000000 0.500000 0.000000
#
# Coordination Sequence:
#
# PCOD9061952 Si02
#       7
#     2   2   2   2   2   2   2
#     4  11  24  48  69 105 140 185 235 291 350 409
#     4  11  26  43  75 108 138 186 231 297 340 419
#     4  11  23  46  75 101 141 183 234 290 355 413
#     4  12  26  49  71 104 140 190 231 288 357 417
#     4  12  29  48  74 103 140 187 236 292 347 419
#     4  12  25  43  76 104 145 182 235 289 350 413
#     4  11  25  46  71 101 143 183 236 285 348 418
#
# _framework density 22.423178
#
# number of rings (size 3 to 8) (size 9 to 14) (size 15 to 20)
#    0.000    0.571    2.857    5.143    8.000    1.714 
#    0.000    0.000    0.000    0.000    0.000    0.000 
#    0.000    0.000    0.000    0.000    0.000    0.000 
#
# Total GULP energy -78272.962148 kJ/mol
# GULP energy per Si atom -5590.925868 kJ/mol
# Density = 2.237214 g / cm^3
# Si number density = 22.423178 Si / 1000 Ang^3
#
#
#
# Elastic Constant Matrix: (Units=GPa)
#
#
# Indices 1 2 3 4 5 6 
#
# 1 91.4025 40.8319 57.9166 10.8787 12.0711 -23.4491
# 2 40.8319 82.9557 42.3062 0.3685 15.9284 -19.0876
# 3 57.9166 42.3062 185.8574 -16.2473 30.7996 0.2678
# 4 10.8787 0.3685 -16.2473 30.8918 -12.4235 4.1980
# 5 12.0711 15.9284 30.7996 -12.4235 40.9247 -14.6256
# 6 -23.4491 -19.0876 0.2678 4.1980 -14.6256 31.6328
#
#
#
# Elastic Compliance Matrix: (Units=1/GPa)
#
#
# Indices 1 2 3 4 5 6 
#
# 1 0.024143 -0.003718 -0.008481 -0.014220 0.003218 0.019100
# 2 -0.003718 0.017213 -0.002670 -0.001924 -0.001619 0.007160
# 3 -0.008481 -0.002670 0.010333 0.007582 -0.006166 -0.011842
# 4 -0.014220 -0.001924 0.007582 0.046670 0.008369 -0.014090
# 5 0.003218 -0.001619 -0.006166 0.008369 0.037642 0.017754
# 6 0.019100 0.007160 -0.011842 -0.014090 0.017754 0.060271
#
#
# Mechanical properties :
#
#
# Convention : Reuss Voigt Hill
#
# Bulk Modulus (GPa) = 45.55572 71.36946 58.46259
# Shear Modulus (GPa) = 21.42922 35.30058 28.36490
#
# Velocity S-wave (km/s) = 3.09475 3.97204 3.56052
# Velocity P-wave (km/s) = 5.75590 7.27555 6.55988
#
# Compressibility (1/GPa) = 0.02195114
#
# Stress axis : x y z
#
# Youngs Moduli (GPa) = 41.41969 58.09512 96.78014
#
# Poissons Ratio (x) = 0.21602 0.82078
# Poissons Ratio (y) = 0.15401 0.25837
# Poissons Ratio (z) = 0.35128 0.15510
#
# Static dielectric constant tensor:
#      x y z
#    x 1.874100 -0.017110 -0.004190 
#    y -0.017110 1.864450 -0.001570 
#    z -0.004190 -0.001570 1.899820 
# 
# From -- ./inp_files/296510.got.cif
#   From: 2010.05.17/outbox.cif.g08.bks.cpg/sg2_149_cif.got.tgz:296510.got - 2010.06.03 11:33:40.
