data_PCOD9061244
_publ_section_title
;
Structure prediction by ZEFSAII (Michael W. Deem and Ramdas Pophale) SiO2 
 PCOD9061244
Probable space group: P -1
;
_chemical_formula_sum "Si O2"
_cell_formula_units_Z 14
_cell_length_a 9.849678
_cell_length_b 12.908680
_cell_length_c 19.503188
_cell_angle_alpha 25.025340
_cell_angle_beta 35.886585
_cell_angle_gamma 36.659530
_cell_volume 591.269370
_symmetry_space_group_name_H-M "P -1"
_symmetry_group_IT_number 2
_symmetry_cell_setting 'triclinic'
loop_
_space_group_symop_operation_xyz
x,y,z
-x,-y,-z
loop_
_atom_site_type_symbol
_atom_site_label
_atom_site_fract_x
_atom_site_fract_y
_atom_site_fract_z
Si Si1 0.189500 0.704428 0.951753
Si Si2 0.265145 0.912724 0.040594
Si Si3 0.726465 0.503366 0.107746
Si Si4 0.426368 0.250597 0.656841
Si Si5 0.011811 0.495309 0.580348
Si Si6 0.334434 0.186464 0.258067
Si Si7 0.726132 0.993858 0.459402
O O1 0.154527 0.451117 0.151949
O O2 0.301018 0.611915 0.887408
O O3 0.392745 0.780616 0.868537
O O4 0.939438 0.921870 0.924313
O O5 0.537216 0.774094 0.035317
O O6 0.169144 0.659475 0.220749
O O7 0.290510 0.107522 0.852410
O O8 0.710863 0.288324 0.296257
O O9 0.000000 0.500000 0.000000
O O10 0.500000 0.500000 0.500000
O O11 0.264489 0.341926 0.600751
O O12 0.658023 0.028188 0.672046
O O13 0.000000 0.500000 0.500000
O O14 0.944094 0.788029 0.456967
O O15 0.283938 0.111307 0.398694
O O16 0.500000 0.000000 0.500000
#
# Coordination Sequence:
#
# PCOD9061244 Si02
#       7
#     2   2   2   2   2   2   2
#     4  11  23  45  75 108 139 191 252 298 364 452
#     4  12  25  48  75 104 145 204 247 299 378 448
#     4  12  28  47  69 106 155 189 244 314 376 438
#     4  12  28  47  72 112 154 193 249 316 374 439
#     4  12  25  46  77 111 148 196 258 303 363 466
#     4  11  23  44  76 107 146 187 251 306 361 449
#     4  12  23  43  73 106 142 197 246 304 369 441
#
# _framework density 23.677871
#
# number of rings (size 3 to 8) (size 9 to 14) (size 15 to 20)
#    0.000    0.286    5.714    3.000    4.000    1.714 
#    0.000    2.143    0.000    0.000    0.000    0.000 
#    0.000    0.000    0.000    0.000    0.000    0.000 
#
# Total GULP energy -78249.423031 kJ/mol
# GULP energy per Si atom -5589.244502 kJ/mol
# Density = 2.362398 g / cm^3
# Si number density = 23.677871 Si / 1000 Ang^3
#
#
#
# Elastic Constant Matrix: (Units=GPa)
#
#
# Indices 1 2 3 4 5 6 
#
# 1 42.3248 12.0982 38.3215 -8.6597 -3.2883 -0.5006
# 2 12.0982 157.0768 27.5030 -30.5473 12.4463 -8.5969
# 3 38.3215 27.5030 125.1946 -16.7642 29.4818 5.1204
# 4 -8.6597 -30.5473 -16.7642 39.0319 -1.0332 8.5937
# 5 -3.2883 12.4463 29.4818 -1.0332 35.3798 1.3939
# 6 -0.5006 -8.5969 5.1204 8.5937 1.3939 41.0943
#
#
#
# Elastic Compliance Matrix: (Units=1/GPa)
#
#
# Indices 1 2 3 4 5 6 
#
# 1 0.040133 -0.001387 -0.016020 0.001100 0.017546 0.001370
# 2 -0.001387 0.007807 0.000112 0.005662 -0.002823 0.000514
# 3 -0.016020 0.000112 0.017206 0.004090 -0.015642 -0.002641
# 4 0.001100 0.005662 0.004090 0.033295 -0.004084 -0.006136
# 5 0.017546 -0.002823 -0.015642 -0.004084 0.043767 0.000942
# 6 0.001370 0.000514 -0.002641 -0.006136 0.000942 0.026039
#
#
# Mechanical properties :
#
#
# Convention : Reuss Voigt Hill
#
# Bulk Modulus (GPa) = 32.72936 53.38241 43.05589
# Shear Modulus (GPa) = 23.47175 39.54610 31.50892
#
# Velocity S-wave (km/s) = 3.15190 4.09121 3.65188
# Velocity P-wave (km/s) = 5.20564 6.70161 6.00043
#
# Compressibility (1/GPa) = 0.03055360
#
# Stress axis : x y z
#
# Youngs Moduli (GPa) = 24.91734 128.09798 58.11917
#
# Poissons Ratio (x) = 0.17772 0.93108
# Poissons Ratio (y) = 0.03457 -0.00649
# Poissons Ratio (z) = 0.39918 -0.01430
#
# Static dielectric constant tensor:
#      x y z
#    x 1.919080 0.014640 -0.044880 
#    y 0.014640 1.915860 -0.016500 
#    z -0.044880 -0.016500 1.927160 
# 
# From -- ./inp_files/575976.got.cif
#   From: 2010.05.17/outbox.cif.g08.bks.cpg/sg2_288_cif.got.tgz:575976.got - 2010.06.03 11:33:40.
