data_PCOD9061208
_publ_section_title
;
Structure prediction by ZEFSAII (Michael W. Deem and Ramdas Pophale) SiO2 
 PCOD9061208
Probable space group: P -1
;
_chemical_formula_sum "Si O2"
_cell_formula_units_Z 12
_cell_length_a 13.193478
_cell_length_b 6.946112
_cell_length_c 13.590595
_cell_angle_alpha 140.061044
_cell_angle_beta 43.903222
_cell_angle_gamma 121.422631
_cell_volume 553.099953
_symmetry_space_group_name_H-M "P -1"
_symmetry_group_IT_number 2
_symmetry_cell_setting 'triclinic'
loop_
_space_group_symop_operation_xyz
x,y,z
-x,-y,-z
loop_
_atom_site_type_symbol
_atom_site_label
_atom_site_fract_x
_atom_site_fract_y
_atom_site_fract_z
Si Si1 0.625127 0.673173 0.719343
Si Si2 0.829268 0.762326 0.965012
Si Si3 0.416236 0.657427 0.030691
Si Si4 0.661792 0.381670 0.377484
Si Si5 0.094250 0.191639 0.295921
Si Si6 0.042985 0.422106 0.827578
O O1 0.494860 0.572422 0.839164
O O2 0.672153 0.443343 0.511051
O O3 0.753650 0.764498 0.737777
O O4 0.575578 0.987245 0.825078
O O5 0.880787 0.843582 0.851988
O O6 0.960833 0.672492 0.912528
O O7 0.743865 0.458827 0.900652
O O8 0.713733 0.033683 0.185070
O O9 0.500000 0.500000 0.000000
O O10 0.500000 0.500000 0.500000
O O11 0.784935 0.565089 0.308574
O O12 0.000000 0.500000 0.500000
O O13 0.014038 0.906651 0.280167
O O14 0.000000 0.500000 0.000000
#
# Coordination Sequence:
#
# PCOD9061208 Si02
#       6
#     2   2   2   2   2   2
#     4  11  26  45  71 109 147 184 247 302 365 434
#     4  12  26  49  75 110 150 197 249 304 371 446
#     4  11  23  44  75 103 144 192 238 304 366 431
#     4  12  29  48  75 113 153 195 249 304 375 444
#     4  12  27  46  78 109 141 194 254 304 370 441
#     4  12  28  50  77 105 154 199 245 308 371 442
#
# _framework density 21.695898
#
# number of rings (size 3 to 8) (size 9 to 14) (size 15 to 20)
#    0.000    0.333    5.000    2.500    9.333    3.333 
#    0.000    0.000    0.000    0.000    0.000    0.000 
#    0.000    0.000    0.000    0.000    0.000    0.000 
#
# Total GULP energy -67163.155177 kJ/mol
# GULP energy per Si atom -5596.929598 kJ/mol
# Density = 2.164652 g / cm^3
# Si number density = 21.695898 Si / 1000 Ang^3
#
#
#
# Elastic Constant Matrix: (Units=GPa)
#
#
# Indices 1 2 3 4 5 6 
#
# 1 118.5931 33.7498 27.2212 0.7260 -19.1912 -16.6544
# 2 33.7498 123.2129 28.9972 3.2178 -11.9048 -6.2492
# 3 27.2212 28.9972 117.2075 10.8461 1.8473 -17.7446
# 4 0.7260 3.2178 10.8461 33.1416 0.7521 -9.1388
# 5 -19.1912 -11.9048 1.8473 0.7521 43.4259 -4.3776
# 6 -16.6544 -6.2492 -17.7446 -9.1388 -4.3776 40.7144
#
#
#
# Elastic Compliance Matrix: (Units=1/GPa)
#
#
# Indices 1 2 3 4 5 6 
#
# 1 0.010682 -0.001930 -0.001578 0.001531 0.004659 0.004230
# 2 -0.001930 0.009255 -0.001849 -0.000306 0.001763 -0.000054
# 3 -0.001578 -0.001849 0.010007 -0.002264 -0.001310 0.002783
# 4 0.001531 -0.000306 -0.002264 0.032836 0.000831 0.007052
# 5 0.004659 0.001763 -0.001310 0.000831 0.026074 0.004595
# 6 0.004230 -0.000054 0.002783 0.007052 0.004595 0.029573
#
#
# Mechanical properties :
#
#
# Convention : Reuss Voigt Hill
#
# Bulk Modulus (GPa) = 52.00055 59.88333 55.94194
# Shear Modulus (GPa) = 36.88565 41.39273 39.13919
#
# Velocity S-wave (km/s) = 4.12773 4.37264 4.25195
# Velocity P-wave (km/s) = 6.83648 7.29071 7.06725
#
# Compressibility (1/GPa) = 0.01923057
#
# Stress axis : x y z
#
# Youngs Moduli (GPa) = 93.61347 108.04444 99.92627
#
# Poissons Ratio (x) = 0.20852 0.15770
# Poissons Ratio (y) = 0.18067 0.18478
# Poissons Ratio (z) = 0.14773 0.19980
#
# Static dielectric constant tensor:
#      x y z
#    x 1.844550 0.004620 -0.007100 
#    y 0.004620 1.760680 0.018120 
#    z -0.007100 0.018120 1.791010 
# 
# From -- ./inp_files/27435.got.cif
#   From: 2010.05.17/outbox.cif.g08.bks.cpg/sg2_14_cif.got.tgz:27435.got - 2010.06.03 11:33:40.
