data_PCOD9061635
_publ_section_title
;
Structure prediction by ZEFSAII (Michael W. Deem and Ramdas Pophale) SiO2 
 PCOD9061635
Probable space group: P -1
;
_chemical_formula_sum "Si O2"
_cell_formula_units_Z 16
_cell_length_a 18.167639
_cell_length_b 11.639268
_cell_length_c 8.641059
_cell_angle_alpha 128.903574
_cell_angle_beta 129.326817
_cell_angle_gamma 27.559482
_cell_volume 642.675783
_symmetry_space_group_name_H-M "P -1"
_symmetry_group_IT_number 2
_symmetry_cell_setting 'triclinic'
loop_
_space_group_symop_operation_xyz
x,y,z
-x,-y,-z
loop_
_atom_site_type_symbol
_atom_site_label
_atom_site_fract_x
_atom_site_fract_y
_atom_site_fract_z
Si Si1 0.240682 0.042727 0.724424
Si Si2 0.604457 0.009842 0.825160
Si Si3 0.702704 0.772231 0.253721
Si Si4 0.055448 0.753954 0.980415
Si Si5 0.778824 0.141353 0.716630
Si Si6 0.868610 0.510776 0.568032
Si Si7 0.495931 0.386943 0.762948
Si Si8 0.869760 0.168739 0.335439
O O1 0.334222 0.030981 0.717580
O O2 0.049508 0.325406 0.705374
O O3 0.241582 0.883215 0.507317
O O4 0.316525 0.974629 0.934878
O O5 0.740017 0.723659 0.706618
O O6 0.455190 0.117071 0.803335
O O7 0.544208 0.172661 0.729608
O O8 0.810545 0.657413 0.454720
O O9 0.813429 0.540231 0.083797
O O10 0.169388 0.754236 0.104863
O O11 0.931570 0.964045 0.126909
O O12 0.932064 0.869799 0.775095
O O13 0.620045 0.290334 0.720880
O O14 0.866247 0.336073 0.396324
O O15 0.310517 0.617952 0.659924
O O16 0.500000 0.500000 0.000000
O O17 0.000000 0.000000 0.500000
#
# Coordination Sequence:
#
# PCOD9061635 Si02
#       8
#     2   2   2   2   2   2   2   2
#     4  12  27  44  74 110 145 194 253 296 363 440
#     4  12  29  47  71 111 154 187 245 314 366 428
#     4  12  25  47  76 105 145 203 242 301 373 435
#     4  11  23  47  74 104 149 190 241 305 369 435
#     4  11  23  45  75 104 145 190 247 299 361 445
#     4  12  25  49  73 107 147 197 247 303 365 439
#     4  12  26  46  76 106 145 196 242 301 374 436
#     4  12  28  47  76 111 147 192 245 306 374 437
#
# _framework density 24.895914000000001
#
# number of rings (size 3 to 8) (size 9 to 14) (size 15 to 20)
#    0.000    0.250    5.000    3.750    7.000    1.000 
#    0.000    1.875    0.000    0.000    0.000    0.000 
#    0.000    0.000    0.000    0.000    0.000    0.000 
#
# Total GULP energy -89644.025212 kJ/mol
# GULP energy per Si atom -5602.751576 kJ/mol
# Density = 2.483925 g / cm^3
# Si number density = 24.895914 Si / 1000 Ang^3
#
#
#
# Elastic Constant Matrix: (Units=GPa)
#
#
# Indices 1 2 3 4 5 6 
#
# 1 113.5780 63.2002 19.9994 -6.5643 6.2826 -30.6866
# 2 63.2002 106.9745 55.9563 -11.3826 -8.1381 -39.6732
# 3 19.9994 55.9563 115.9501 -8.4465 -12.7696 -10.8443
# 4 -6.5643 -11.3826 -8.4465 53.0690 -1.9745 0.2466
# 5 6.2826 -8.1381 -12.7696 -1.9745 36.5362 -5.6720
# 6 -30.6866 -39.6732 -10.8443 0.2466 -5.6720 47.9518
#
#
#
# Elastic Compliance Matrix: (Units=1/GPa)
#
#
# Indices 1 2 3 4 5 6 
#
# 1 0.014064 -0.008794 0.001578 -0.000036 -0.003570 0.001659
# 2 -0.008794 0.024755 -0.008208 0.003092 0.006459 0.013745
# 3 0.001578 -0.008208 0.012283 0.000469 0.001785 -0.002795
# 4 -0.000036 0.003092 0.000469 0.019651 0.002358 0.002819
# 5 -0.003570 0.006459 0.001785 0.002358 0.031284 0.007151
# 6 0.001659 0.013745 -0.002795 0.002819 0.007151 0.033487
#
#
# Mechanical properties :
#
#
# Convention : Reuss Voigt Hill
#
# Bulk Modulus (GPa) = 49.37643 68.31270 58.84456
# Shear Modulus (GPa) = 28.88113 40.66782 34.77448
#
# Velocity S-wave (km/s) = 3.40968 4.04606 3.74143
# Velocity P-wave (km/s) = 5.94789 7.02327 6.50783
#
# Compressibility (1/GPa) = 0.02025258
#
# Stress axis : x y z
#
# Youngs Moduli (GPa) = 71.10387 40.39613 81.41644
#
# Poissons Ratio (x) = 0.35526 -0.12845
# Poissons Ratio (y) = 0.62532 0.66823
# Poissons Ratio (z) = -0.11218 0.33155
#
# Static dielectric constant tensor:
#      x y z
#    x 2.835900 -0.242160 -0.051420 
#    y -0.242160 2.050590 0.061360 
#    z -0.051420 0.061360 1.978560 
# 
# From -- ./inp_files/333824.got.cif
#   From: 2010.05.17/outbox.cif.g08.bks.cpg/sg2_167_cif.got.tgz:333824.got - 2010.06.03 11:33:40.
