data_PCOD9061694
_publ_section_title
;
Structure prediction by ZEFSAII (Michael W. Deem and Ramdas Pophale) SiO2 
 PCOD9061694
Probable space group: P -1
;
_chemical_formula_sum "Si O2"
_cell_formula_units_Z 12
_cell_length_a 8.857285
_cell_length_b 8.291089
_cell_length_c 11.733933
_cell_angle_alpha 135.125074
_cell_angle_beta 131.924609
_cell_angle_gamma 70.388472
_cell_volume 436.480254
_symmetry_space_group_name_H-M "P -1"
_symmetry_group_IT_number 2
_symmetry_cell_setting 'triclinic'
loop_
_space_group_symop_operation_xyz
x,y,z
-x,-y,-z
loop_
_atom_site_type_symbol
_atom_site_label
_atom_site_fract_x
_atom_site_fract_y
_atom_site_fract_z
Si Si1 0.599196 0.336123 0.626952
Si Si2 0.823144 0.859765 0.931532
Si Si3 0.120981 0.170048 0.367059
Si Si4 0.380769 0.945457 0.710878
Si Si5 0.991399 0.563104 0.370347
Si Si6 0.688102 0.563365 0.033172
O O1 0.703018 0.579381 0.731982
O O2 0.345685 0.237914 0.454469
O O3 0.654236 0.121877 0.475908
O O4 0.652073 0.413458 0.823536
O O5 0.621840 0.968087 0.874992
O O6 0.000000 0.000000 0.000000
O O7 0.975116 0.908690 0.143854
O O8 0.980535 0.326497 0.314212
O O9 0.139622 0.274313 0.554258
O O10 0.230855 0.712855 0.574656
O O11 0.303313 0.159733 0.831326
O O12 0.893962 0.521320 0.175826
O O13 0.500000 0.500000 0.000000
#
# Coordination Sequence:
#
# PCOD9061694 Si02
#       6
#     2   2   2   2   2   2
#     4  12  26  49  77 112 147 195 252 305 370 440
#     4  12  24  43  76 115 148 190 254 310 363 436
#     4  11  23  45  78 109 147 193 253 307 367 437
#     4  12  26  46  76 108 148 197 250 307 367 442
#     4  11  24  46  73 108 153 195 243 312 365 439
#     4  12  27  48  73 109 155 196 245 302 378 442
#
# _framework density 27.492652
#
# number of rings (size 3 to 8) (size 9 to 14) (size 15 to 20)
#    0.000    0.333    5.000    4.000    2.333    2.667 
#    0.000    0.000    0.000    0.000    0.000    0.000 
#    0.000    0.000    0.000    0.000    0.000    0.000 
#
# Total GULP energy -67091.715352 kJ/mol
# GULP energy per Si atom -5590.976279 kJ/mol
# Density = 2.743008 g / cm^3
# Si number density = 27.492652 Si / 1000 Ang^3
#
#
#
# Elastic Constant Matrix: (Units=GPa)
#
#
# Indices 1 2 3 4 5 6 
#
# 1 160.4195 27.1830 55.1202 1.2422 3.9834 10.0642
# 2 27.1830 52.7942 43.5588 0.3510 -1.5358 -9.7589
# 3 55.1202 43.5588 195.9059 -3.8704 8.6196 4.6202
# 4 1.2422 0.3510 -3.8704 39.3464 2.0415 1.3237
# 5 3.9834 -1.5358 8.6196 2.0415 67.5939 7.4730
# 6 10.0642 -9.7589 4.6202 1.3237 7.4730 37.4509
#
#
#
# Elastic Compliance Matrix: (Units=1/GPa)
#
#
# Indices 1 2 3 4 5 6 
#
# 1 0.007397 -0.003221 -0.001306 -0.000242 -0.000042 -0.002649
# 2 -0.003221 0.026468 -0.005219 -0.000957 0.000565 0.008327
# 3 -0.001306 -0.005219 0.006722 0.000845 -0.000734 -0.001722
# 4 -0.000242 -0.000957 0.000845 0.025590 -0.000773 -0.001039
# 5 -0.000042 0.000565 -0.000734 -0.000773 0.015232 -0.002763
# 6 -0.002649 0.008327 -0.001722 -0.001039 -0.002763 0.030384
#
#
# Mechanical properties :
#
#
# Convention : Reuss Voigt Hill
#
# Bulk Modulus (GPa) = 47.40184 73.42709 60.41446
# Shear Modulus (GPa) = 36.14931 47.76208 41.95569
#
# Velocity S-wave (km/s) = 3.63005 4.17258 3.91073
# Velocity P-wave (km/s) = 5.90328 7.06963 6.51262
#
# Compressibility (1/GPa) = 0.02109623
#
# Stress axis : x y z
#
# Youngs Moduli (GPa) = 135.18760 37.78151 148.76873
#
# Poissons Ratio (x) = 0.12169 0.19423
# Poissons Ratio (y) = 0.43541 0.77642
# Poissons Ratio (z) = 0.17650 0.19718
#
# Static dielectric constant tensor:
#      x y z
#    x 2.241530 0.038210 -0.168150 
#    y 0.038210 2.307820 -0.030600 
#    z -0.168150 -0.030600 2.201930 
# 
# From -- ./inp_files/377383.got.cif
#   From: 2010.05.17/outbox.cif.g08.bks.cpg/sg2_189_cif.got.tgz:377383.got - 2010.06.03 11:33:40.
