data_PCOD9061663
_publ_section_title
;
Structure prediction by ZEFSAII (Michael W. Deem and Ramdas Pophale) SiO2 
 PCOD9061663
Probable space group: P -1
;
_chemical_formula_sum "Si O2"
_cell_formula_units_Z 16
_cell_length_a 9.438594
_cell_length_b 8.970584
_cell_length_c 11.414577
_cell_angle_alpha 59.791851
_cell_angle_beta 54.232963
_cell_angle_gamma 55.340515
_cell_volume 623.569658
_symmetry_space_group_name_H-M "P -1"
_symmetry_group_IT_number 2
_symmetry_cell_setting 'triclinic'
loop_
_space_group_symop_operation_xyz
x,y,z
-x,-y,-z
loop_
_atom_site_type_symbol
_atom_site_label
_atom_site_fract_x
_atom_site_fract_y
_atom_site_fract_z
Si Si1 0.621198 0.602266 0.155891
Si Si2 0.098578 0.830777 0.608940
Si Si3 0.783195 0.568848 0.349722
Si Si4 0.822201 0.109939 0.959022
Si Si5 0.535595 0.246487 0.386516
Si Si6 0.268656 0.964832 0.206092
Si Si7 0.200733 0.502830 0.124747
Si Si8 0.530624 0.907476 0.757523
O O1 0.706053 0.601257 0.242514
O O2 0.523992 0.450338 0.265479
O O3 0.473311 0.813446 0.116156
O O4 0.782126 0.527311 0.010562
O O5 0.190267 0.646666 0.557522
O O6 0.260026 0.837257 0.614940
O O7 0.000000 0.000000 0.500000
O O8 0.913962 0.832757 0.768945
O O9 0.633274 0.703009 0.458332
O O10 0.989795 0.571263 0.251009
O O11 0.851094 0.098284 0.809741
O O12 0.735907 0.327379 0.947813
O O13 0.666948 0.027765 0.102683
O O14 0.000000 0.000000 0.000000
O O15 0.514769 0.115385 0.346065
O O16 0.358351 0.972035 0.289842
O O17 0.335971 0.306978 0.190940
#
# Coordination Sequence:
#
# PCOD9061663 Si02
#       8
#     2   2   2   2   2   2   2   2
#     4  11  23  45  76 106 146 195 241 301 370 435
#     4  11  23  47  72 108 144 195 244 308 367 435
#     4  11  25  44  75 111 142 199 247 300 367 439
#     4  12  27  45  72 108 146 191 242 300 375 432
#     4  11  24  48  76 103 150 197 248 292 371 449
#     4  12  25  43  73 106 144 186 246 308 364 427
#     4  12  25  46  74 107 152 189 248 301 367 442
#     4  12  25  47  72 108 147 192 246 303 363 439
#
# _framework density 25.658719999999999
#
# number of rings (size 3 to 8) (size 9 to 14) (size 15 to 20)
#    0.000    0.500    3.750    5.625    3.500    0.500 
#    2.250    1.250    0.000    0.000    0.000    0.000 
#    0.000    0.000    0.000    0.000    0.000    0.000 
#
# Total GULP energy -89201.821103 kJ/mol
# GULP energy per Si atom -5575.113819 kJ/mol
# Density = 2.560032 g / cm^3
# Si number density = 25.658720 Si / 1000 Ang^3
#
#
#
# Elastic Constant Matrix: (Units=GPa)
#
#
# Indices 1 2 3 4 5 6 
#
# 1 160.3235 49.2056 51.7795 13.8693 5.3470 0.8865
# 2 49.2056 129.6397 32.1314 10.9000 12.8048 4.3069
# 3 51.7795 32.1314 87.0726 9.6093 -1.3848 7.9063
# 4 13.8693 10.9000 9.6093 37.7604 -11.5450 0.8823
# 5 5.3470 12.8048 -1.3848 -11.5450 47.8364 13.5131
# 6 0.8865 4.3069 7.9063 0.8823 13.5131 48.5519
#
#
#
# Elastic Compliance Matrix: (Units=1/GPa)
#
#
# Indices 1 2 3 4 5 6 
#
# 1 0.008373 -0.001885 -0.004195 -0.001893 -0.001320 0.001099
# 2 -0.001885 0.009470 -0.002195 -0.002444 -0.003108 0.000461
# 3 -0.004195 -0.002195 0.015182 -0.001004 0.002030 -0.002748
# 4 -0.001893 -0.002444 -0.001004 0.030973 0.009067 -0.002671
# 5 -0.001320 -0.003108 0.002030 0.009067 0.026250 -0.007501
# 6 0.001099 0.000461 -0.002748 -0.002671 -0.007501 0.023119
#
#
# Mechanical properties :
#
#
# Convention : Reuss Voigt Hill
#
# Bulk Modulus (GPa) = 60.70242 71.47430 66.08836
# Shear Modulus (GPa) = 36.92475 43.09101 40.00788
#
# Velocity S-wave (km/s) = 3.79763 4.10248 3.95299
# Velocity P-wave (km/s) = 6.55273 7.09625 6.82990
#
# Compressibility (1/GPa) = 0.01647381
#
# Stress axis : x y z
#
# Youngs Moduli (GPa) = 119.43797 105.59182 65.86670
#
# Poissons Ratio (x) = 0.19905 0.27632
# Poissons Ratio (y) = 0.22515 0.14460
# Poissons Ratio (z) = 0.50107 0.23182
#
# Static dielectric constant tensor:
#      x y z
#    x 1.961910 -0.014490 -0.032460 
#    y -0.014490 2.006680 -0.048110 
#    z -0.032460 -0.048110 2.230080 
# 
# From -- ./inp_files/381608.got.cif
#   From: 2010.05.17/outbox.cif.g08.bks.cpg/sg2_191_cif.got.tgz:381608.got - 2010.06.03 11:33:40.
