data_PCOD9061452
_publ_section_title
;
Structure prediction by ZEFSAII (Michael W. Deem and Ramdas Pophale) SiO2 
 PCOD9061452
Probable space group: P -1
;
_chemical_formula_sum "Si O2"
_cell_formula_units_Z 15
_cell_length_a 12.050813
_cell_length_b 9.185383
_cell_length_c 6.140923
_cell_angle_alpha 75.106080
_cell_angle_beta 89.167258
_cell_angle_gamma 95.670412
_cell_volume 653.131573
_symmetry_space_group_name_H-M "P -1"
_symmetry_group_IT_number 2
_symmetry_cell_setting 'triclinic'
loop_
_space_group_symop_operation_xyz
x,y,z
-x,-y,-z
loop_
_atom_site_type_symbol
_atom_site_label
_atom_site_fract_x
_atom_site_fract_y
_atom_site_fract_z
Si Si1 0.380547 0.408748 0.994032
Si Si2 0.848116 0.945588 0.244131
Si Si3 0.968315 0.783704 0.945181
Si Si4 0.546251 0.898362 0.852875
Si Si5 0.000000 0.500000 0.000000
Si Si6 0.184295 0.350846 0.353458
Si Si7 0.668713 0.106424 0.413296
Si Si8 0.209430 0.576889 0.651449
O O1 0.404299 0.242346 0.983247
O O2 0.303568 0.379280 0.222157
O O3 0.500000 0.500000 0.000000
O O4 0.307667 0.493720 0.796223
O O5 0.840853 0.814263 0.475560
O O6 0.738168 0.027650 0.256312
O O7 0.873559 0.859058 0.052672
O O8 0.951094 0.078284 0.206780
O O9 0.911302 0.652975 0.828755
O O10 0.026592 0.658752 0.120416
O O11 0.442400 0.845375 0.716443
O O12 0.633561 0.991881 0.654498
O O13 0.500000 0.000000 0.000000
O O14 0.892957 0.428466 0.181019
O O15 0.178066 0.479305 0.478312
O O16 0.742442 0.250550 0.452025
#
# Coordination Sequence:
#
# PCOD9061452 Si02
#       8
#     2   2   2   2   1   2   2   2
#     4  12  26  47  69 103 140 184 230 285 355 405
#     4  11  23  45  70  99 140 180 230 286 340 419
#     4  11  25  44  69 103 139 182 229 289 344 405
#     4  11  27  45  71 102 138 176 234 291 342 412
#     4  12  22  46  66 104 142 176 230 286 344 406
#     4  12  25  45  70 100 139 187 230 278 356 409
#     4  11  25  46  70 104 135 183 232 283 348 413
#     4  12  27  46  71 104 144 181 233 286 344 419
#
# _framework density 22.966276000000001
#
# number of rings (size 3 to 8) (size 9 to 14) (size 15 to 20)
#    0.000    0.533    6.667    0.400    5.600    1.067 
#    0.000    0.000    0.000    0.000    0.000    0.000 
#    0.000    0.000    0.000    0.000    0.000    0.000 
#
# Total GULP energy -83735.320485 kJ/mol
# GULP energy per Si atom -5582.354699 kJ/mol
# Density = 2.291400 g / cm^3
# Si number density = 22.966276 Si / 1000 Ang^3
#
#
#
# Elastic Constant Matrix: (Units=GPa)
#
#
# Indices 1 2 3 4 5 6 
#
# 1 132.9519 65.9801 56.6338 -4.2305 -38.6095 4.1429
# 2 65.9801 174.3944 44.9449 2.4075 -21.4559 4.9206
# 3 56.6338 44.9449 65.6463 -3.6656 -21.0850 11.2887
# 4 -4.2305 2.4075 -3.6656 43.0906 -4.0519 -8.3691
# 5 -38.6095 -21.4559 -21.0850 -4.0519 26.4081 3.2824
# 6 4.1429 4.9206 11.2887 -8.3691 3.2824 47.4914
#
#
#
# Elastic Compliance Matrix: (Units=1/GPa)
#
#
# Indices 1 2 3 4 5 6 
#
# 1 0.016984 -0.002457 -0.007108 0.002806 0.017622 -0.000261
# 2 -0.002457 0.007453 -0.003086 -0.000930 -0.000146 0.000022
# 3 -0.007108 -0.003086 0.027987 0.001646 0.010463 -0.006146
# 4 0.002806 -0.000930 0.001646 0.025081 0.008097 0.003321
# 5 0.017622 -0.000146 0.010463 0.008097 0.074066 -0.007701
# 6 -0.000261 0.000022 -0.006146 0.003321 -0.007701 0.023655
#
#
# Mechanical properties :
#
#
# Convention : Reuss Voigt Hill
#
# Bulk Modulus (GPa) = 36.86956 78.67890 57.77423
# Shear Modulus (GPa) = 23.85849 37.09361 30.47605
#
# Velocity S-wave (km/s) = 3.22661 4.02323 3.64674
# Velocity P-wave (km/s) = 5.47449 7.47761 6.55304
#
# Compressibility (1/GPa) = 0.02712264
#
# Stress axis : x y z
#
# Youngs Moduli (GPa) = 58.88034 134.17015 35.73024
#
# Poissons Ratio (x) = 0.32965 0.25398
# Poissons Ratio (y) = 0.14467 0.11025
# Poissons Ratio (z) = 0.41854 0.41400
#
# Static dielectric constant tensor:
#      x y z
#    x 1.962630 -0.065300 0.100460 
#    y -0.065300 1.926570 -0.004760 
#    z 0.100460 -0.004760 1.912790 
# 
# From -- ./inp_files/60369.got.cif
#   From: 2010.05.17/outbox.cif.g08.bks.cpg/sg2_31_cif.got.tgz:60369.got - 2010.06.03 11:33:40.
