data_PCOD9061633
_publ_section_title
;
Structure prediction by ZEFSAII (Michael W. Deem and Ramdas Pophale) SiO2 
 PCOD9061633
Probable space group: P -1
;
_chemical_formula_sum "Si O2"
_cell_formula_units_Z 14
_cell_length_a 9.745447
_cell_length_b 8.096786
_cell_length_c 10.188698
_cell_angle_alpha 111.588169
_cell_angle_beta 43.026772
_cell_angle_gamma 109.472001
_cell_volume 507.459085
_symmetry_space_group_name_H-M "P -1"
_symmetry_group_IT_number 2
_symmetry_cell_setting 'triclinic'
loop_
_space_group_symop_operation_xyz
x,y,z
-x,-y,-z
loop_
_atom_site_type_symbol
_atom_site_label
_atom_site_fract_x
_atom_site_fract_y
_atom_site_fract_z
Si Si1 0.152721 0.854778 0.864189
Si Si2 0.244412 0.547195 0.553369
Si Si3 0.624188 0.999901 0.602628
Si Si4 0.325908 0.231666 0.262095
Si Si5 0.718845 0.688060 0.288663
Si Si6 0.216452 0.631222 0.999223
Si Si7 0.422105 0.694502 0.117612
O O1 0.129077 0.717178 0.717946
O O2 0.113182 0.750234 0.001339
O O3 0.385256 0.940643 0.736233
O O4 0.000000 0.000000 0.000000
O O5 0.209326 0.407232 0.416766
O O6 0.477147 0.628150 0.434769
O O7 0.200034 0.417137 0.673819
O O8 0.271668 0.104452 0.615670
O O9 0.629721 0.211713 0.684712
O O10 0.721170 0.928362 0.649622
O O11 0.547378 0.308923 0.182061
O O12 0.608748 0.812602 0.944622
O O13 0.793804 0.580258 0.080280
O O14 0.223417 0.680752 0.160765
O O15 0.500000 0.500000 0.000000
#
# Coordination Sequence:
#
# PCOD9061633 Si02
#       7
#     2   2   2   2   2   2   2
#     4   9  15  23  42  67  86 103 135 174 201 236
#     4   7  10  20  37  59  79 101 127 162 211 236
#     4   9  15  25  43  65  83 103 136 168 208 247
#     4   7  13  24  42  58  80 106 129 163 211 244
#     4   7  10  21  39  59  75 104 129 163 206 246
#     4   7  14  25  40  60  84 105 128 163 215 241
#     4  10  18  26  39  64  90 107 129 170 215 243
#
# _framework density 27.588428
#
# number of rings (size 3 to 8) (size 9 to 14) (size 15 to 20)
#    0.857    3.143    0.000    3.857    0.000    0.000 
#    0.000    0.714    0.000    1.714    0.000    1.000 
#    0.000    0.000    0.000    0.000    0.000    0.000 
#
# Total GULP energy -78037.703448 kJ/mol
# GULP energy per Si atom -5574.121675 kJ/mol
# Density = 2.752564 g / cm^3
# Si number density = 27.588428 Si / 1000 Ang^3
#
#
#
# Elastic Constant Matrix: (Units=GPa)
#
#
# Indices 1 2 3 4 5 6 
#
# 1 55.7103 28.9136 37.4639 14.1292 1.9513 -6.8897
# 2 28.9136 81.9241 60.0323 39.0143 3.0672 -16.0745
# 3 37.4639 60.0323 180.5493 55.6831 16.0604 -4.0212
# 4 14.1292 39.0143 55.6831 64.6235 -2.8153 -2.7309
# 5 1.9513 3.0672 16.0604 -2.8153 40.2917 5.7283
# 6 -6.8897 -16.0745 -4.0212 -2.7309 5.7283 35.1358
#
#
#
# Elastic Compliance Matrix: (Units=1/GPa)
#
#
# Indices 1 2 3 4 5 6 
#
# 1 0.023135 -0.006352 -0.003211 0.001623 0.000572 0.001296
# 2 -0.006352 0.022971 -0.002958 -0.009663 -0.002149 0.008524
# 3 -0.003211 -0.002958 0.009235 -0.005659 -0.003585 -0.000782
# 4 0.001623 -0.009663 -0.005659 0.025905 0.005233 -0.003590
# 5 0.000572 -0.002149 -0.003585 0.005233 0.027511 -0.005360
# 6 0.001296 0.008524 -0.000782 -0.003590 -0.005360 0.033120
#
#
# Mechanical properties :
#
#
# Convention : Reuss Voigt Hill
#
# Bulk Modulus (GPa) = 33.00581 63.44481 48.22531
# Shear Modulus (GPa) = 28.24523 40.79513 34.52018
#
# Velocity S-wave (km/s) = 3.20317 3.84956 3.54115
# Velocity P-wave (km/s) = 5.06656 6.54260 5.85131
#
# Compressibility (1/GPa) = 0.03029769
#
# Stress axis : x y z
#
# Youngs Moduli (GPa) = 43.22523 43.53265 108.28026
#
# Poissons Ratio (x) = 0.27653 0.34769
# Poissons Ratio (y) = 0.27458 0.32035
# Poissons Ratio (z) = 0.13880 0.12879
#
# Static dielectric constant tensor:
#      x y z
#    x 2.167450 -0.007060 -0.052090 
#    y -0.007060 2.290420 -0.089350 
#    z -0.052090 -0.089350 2.194370 
# 
# From -- ./inp_files/413386.got.cif
#   From: 2010.05.17/outbox.cif.g08.bks.cpg/sg2_207_cif.got.tgz:413386.got - 2010.06.03 11:33:40.
