data_PCOD9061682
_publ_section_title
;
Structure prediction by ZEFSAII (Michael W. Deem and Ramdas Pophale) SiO2 
 PCOD9061682
Probable space group: P -1
;
_chemical_formula_sum "Si O2"
_cell_formula_units_Z 13
_cell_length_a 18.053013
_cell_length_b 11.903945
_cell_length_c 21.265316
_cell_angle_alpha 21.128664
_cell_angle_beta 161.068947
_cell_angle_gamma 148.617810
_cell_volume 518.199016
_symmetry_space_group_name_H-M "P -1"
_symmetry_group_IT_number 2
_symmetry_cell_setting 'triclinic'
loop_
_space_group_symop_operation_xyz
x,y,z
-x,-y,-z
loop_
_atom_site_type_symbol
_atom_site_label
_atom_site_fract_x
_atom_site_fract_y
_atom_site_fract_z
Si Si1 0.745294 0.238620 0.323453
Si Si2 0.224020 0.728112 0.245193
Si Si3 0.936108 0.557137 0.846318
Si Si4 0.000000 0.500000 0.500000
Si Si5 0.832968 0.586355 0.094543
Si Si6 0.607031 0.565527 0.247969
Si Si7 0.563547 0.325688 0.814581
O O1 0.897714 0.274114 0.487442
O O2 0.729350 0.874356 0.500761
O O3 0.500000 0.500000 0.000000
O O4 0.864141 0.312601 0.315662
O O5 0.142920 0.713775 0.115868
O O6 0.474854 0.508001 0.583606
O O7 0.207873 0.083107 0.071932
O O8 0.039642 0.579266 0.214958
O O9 0.000000 0.500000 0.000000
O O10 0.181051 0.636329 0.978830
O O11 0.836479 0.417705 0.469704
O O12 0.602410 0.562261 0.883775
O O13 0.610217 0.512826 0.352657
O O14 0.559941 0.953496 0.999213
#
# Coordination Sequence:
#
# PCOD9061682 Si02
#       7
#     2   2   2   1   2   2   2
#     4  12  27  46  75 109 149 203 249 310 379 457
#     4  11  27  48  76 108 157 196 254 319 384 452
#     4  12  29  50  76 113 154 204 257 319 385 454
#     4  12  24  42  72 112 144 192 246 316 366 450
#     4  11  25  48  74 113 147 203 250 317 382 459
#     4  11  23  45  77 109 152 196 261 308 385 461
#     4  11  25  47  76 111 146 207 252 322 380 455
#
# _framework density 25.086887000000001
#
# number of rings (size 3 to 8) (size 9 to 14) (size 15 to 20)
#    0.000    0.615    4.615    1.846    6.462    2.462 
#    0.000    0.000    0.000    0.000    0.000    0.000 
#    0.000    0.000    0.000    0.000    0.000    0.000 
#
# Total GULP energy -72574.975499 kJ/mol
# GULP energy per Si atom -5582.690423 kJ/mol
# Density = 2.502979 g / cm^3
# Si number density = 25.086887 Si / 1000 Ang^3
#
#
#
# Elastic Constant Matrix: (Units=GPa)
#
#
# Indices 1 2 3 4 5 6 
#
# 1 140.1799 26.7870 26.4312 1.1286 -16.4258 -13.4770
# 2 26.7870 124.2245 24.1781 14.9668 -4.1259 -28.5846
# 3 26.4312 24.1781 81.2534 -0.9860 -7.3146 -7.9525
# 4 1.1286 14.9668 -0.9860 22.3790 7.3455 -7.8560
# 5 -16.4258 -4.1259 -7.3146 7.3455 32.3162 11.2389
# 6 -13.4770 -28.5846 -7.9525 -7.8560 11.2389 51.6251
#
#
#
# Elastic Compliance Matrix: (Units=1/GPa)
#
#
# Indices 1 2 3 4 5 6 
#
# 1 0.008181 -0.001080 -0.001991 -0.000875 0.003664 0.000300
# 2 -0.001080 0.010393 -0.002390 -0.005506 0.000005 0.004266
# 3 -0.001991 -0.002390 0.013834 0.002014 0.001244 0.000324
# 4 -0.000875 -0.005506 0.002014 0.057422 -0.017041 0.009481
# 5 0.003664 0.000005 0.001244 -0.017041 0.040533 -0.010266
# 6 0.000300 0.004266 0.000324 0.009481 -0.010266 0.025538
#
#
# Mechanical properties :
#
#
# Convention : Reuss Voigt Hill
#
# Bulk Modulus (GPa) = 46.54419 55.60558 51.07488
# Shear Modulus (GPa) = 28.73806 39.14816 33.94311
#
# Velocity S-wave (km/s) = 3.38826 3.95461 3.68234
# Velocity P-wave (km/s) = 5.82241 6.56241 6.20345
#
# Compressibility (1/GPa) = 0.02148496
#
# Stress axis : x y z
#
# Youngs Moduli (GPa) = 122.23749 96.21746 72.28490
#
# Poissons Ratio (x) = 0.10395 0.14393
# Poissons Ratio (y) = 0.13206 0.17277
# Poissons Ratio (z) = 0.24339 0.22997
#
# Static dielectric constant tensor:
#      x y z
#    x 1.996850 0.044860 0.028000 
#    y 0.044860 1.968510 0.009210 
#    z 0.028000 0.009210 2.021960 
# 
# From -- ./inp_files/237358.got.cif
#   From: 2010.05.17/outbox.cif.g08.bks.cpg/sg2_119_cif.got.tgz:237358.got - 2010.06.03 11:33:40.
