data_PCOD9061894
_publ_section_title
;
Structure prediction by ZEFSAII (Michael W. Deem and Ramdas Pophale) SiO2 
 PCOD9061894
Probable space group: P -1
;
_chemical_formula_sum "Si O2"
_cell_formula_units_Z 16
_cell_length_a 12.426424
_cell_length_b 9.458224
_cell_length_c 12.511978
_cell_angle_alpha 123.198833
_cell_angle_beta 88.975784
_cell_angle_gamma 50.715610
_cell_volume 787.228967
_symmetry_space_group_name_H-M "P -1"
_symmetry_group_IT_number 2
_symmetry_cell_setting 'triclinic'
loop_
_space_group_symop_operation_xyz
x,y,z
-x,-y,-z
loop_
_atom_site_type_symbol
_atom_site_label
_atom_site_fract_x
_atom_site_fract_y
_atom_site_fract_z
Si Si1 0.377457 0.132355 0.213236
Si Si2 0.014084 0.429258 0.592097
Si Si3 0.446607 0.052919 0.647541
Si Si4 0.133000 0.597496 0.803256
Si Si5 0.204009 0.880129 0.855663
Si Si6 0.662055 0.193838 0.397488
Si Si7 0.170127 0.891732 0.425097
Si Si8 0.480995 0.309120 0.133621
O O1 0.179481 0.371056 0.288370
O O2 0.453002 0.212894 0.193619
O O3 0.417849 0.070552 0.313361
O O4 0.462549 0.873982 0.042366
O O5 0.000000 0.500000 0.500000
O O6 0.094253 0.481840 0.682937
O O7 0.121897 0.129136 0.474062
O O8 0.282826 0.369864 0.787380
O O9 0.500000 0.000000 0.500000
O O10 0.389116 0.932964 0.624491
O O11 0.192170 0.691002 0.775043
O O12 0.961480 0.853162 0.971820
O O13 0.217670 0.939585 0.761975
O O14 0.370166 0.741987 0.858290
O O15 0.500000 0.500000 0.500000
O O16 0.745046 0.174705 0.490795
O O17 0.307003 0.617649 0.244941
O O18 0.000000 0.000000 0.500000
#
# Coordination Sequence:
#
# PCOD9061894 Si02
#       8
#     2   2   2   2   2   2   2   2
#     4  11  24  45  74 101 142 188 228 293 366 416
#     4  12  26  46  68 102 145 184 229 293 360 415
#     4  12  25  44  70 106 138 181 237 289 357 422
#     4  11  26  46  69 102 139 187 237 292 347 427
#     4  11  24  46  72  99 142 183 240 290 353 420
#     4  12  24  43  72  99 137 187 233 290 350 419
#     4  12  26  44  69 109 138 178 242 292 346 428
#     4  11  23  46  73 104 140 182 237 294 355 423
#
# _framework density 20.324456000000001
#
# number of rings (size 3 to 8) (size 9 to 14) (size 15 to 20)
#    0.000    0.500    6.250    1.500    1.750    1.500 
#    2.250    1.250    0.000    0.000    0.000    0.000 
#    0.000    0.000    0.000    0.000    0.000    0.000 
#
# Total GULP energy -89502.594204 kJ/mol
# GULP energy per Si atom -5593.912138 kJ/mol
# Density = 2.027820 g / cm^3
# Si number density = 20.324456 Si / 1000 Ang^3
#
#
#
# Elastic Constant Matrix: (Units=GPa)
#
#
# Indices 1 2 3 4 5 6 
#
# 1 106.3647 38.4330 28.1070 8.1874 -6.2883 9.8070
# 2 38.4330 126.8408 42.7412 11.2843 1.8162 6.2234
# 3 28.1070 42.7412 93.0334 16.2682 -5.3855 11.6370
# 4 8.1874 11.2843 16.2682 45.0254 -0.2136 -3.8881
# 5 -6.2883 1.8162 -5.3855 -0.2136 30.5439 0.6617
# 6 9.8070 6.2234 11.6370 -3.8881 0.6617 42.7884
#
#
#
# Elastic Compliance Matrix: (Units=1/GPa)
#
#
# Indices 1 2 3 4 5 6 
#
# 1 0.011176 -0.002701 -0.001616 -0.000921 0.002210 -0.001847
# 2 -0.002701 0.010066 -0.003823 -0.000645 -0.001837 0.000164
# 3 -0.001616 -0.003823 0.014291 -0.004192 0.002458 -0.003379
# 4 -0.000921 -0.000645 -0.004192 0.024367 -0.000799 0.003671
# 5 0.002210 -0.001837 0.002458 -0.000799 0.033764 -0.001503
# 6 -0.001847 0.000164 -0.003379 0.003671 -0.001503 0.025046
#
#
# Mechanical properties :
#
#
# Convention : Reuss Voigt Hill
#
# Bulk Modulus (GPa) = 51.93503 60.53348 56.23425
# Shear Modulus (GPa) = 35.35874 38.13540 36.74707
#
# Velocity S-wave (km/s) = 4.17551 4.33636 4.25670
# Velocity P-wave (km/s) = 6.98963 7.41082 7.20331
#
# Compressibility (1/GPa) = 0.01925483
#
# Stress axis : x y z
#
# Youngs Moduli (GPa) = 89.47410 99.34381 69.97352
#
# Poissons Ratio (x) = 0.26834 0.11305
# Poissons Ratio (y) = 0.24169 0.26748
# Poissons Ratio (z) = 0.14456 0.37975
#
# Static dielectric constant tensor:
#      x y z
#    x 1.779590 -0.005240 -0.028560 
#    y -0.005240 1.695300 0.008150 
#    z -0.028560 0.008150 1.728940 
# 
# From -- ./inp_files/298328.got.cif
#   From: 2010.05.17/outbox.cif.g08.bks.cpg/sg2_150_cif.got.tgz:298328.got - 2010.06.03 11:33:40.
