data_PCOD9061410
_publ_section_title
;
Structure prediction by ZEFSAII (Michael W. Deem and Ramdas Pophale) SiO2 
 PCOD9061410
Probable space group: P -1
;
_chemical_formula_sum "Si O2"
_cell_formula_units_Z 13
_cell_length_a 6.352203
_cell_length_b 14.426520
_cell_length_c 11.706861
_cell_angle_alpha 29.684859
_cell_angle_beta 80.636406
_cell_angle_gamma 78.823426
_cell_volume 521.179110
_symmetry_space_group_name_H-M "P -1"
_symmetry_group_IT_number 2
_symmetry_cell_setting 'triclinic'
loop_
_space_group_symop_operation_xyz
x,y,z
-x,-y,-z
loop_
_atom_site_type_symbol
_atom_site_label
_atom_site_fract_x
_atom_site_fract_y
_atom_site_fract_z
Si Si1 0.514534 0.342546 0.766568
Si Si2 0.740324 0.597833 0.615928
Si Si3 0.666728 0.306740 0.289680
Si Si4 0.049046 0.995118 0.658853
Si Si5 0.500000 0.000000 0.500000
Si Si6 0.126662 0.399502 0.922151
Si Si7 0.197707 0.020265 0.880300
O O1 0.500000 0.500000 0.500000
O O2 0.703830 0.407247 0.759634
O O3 0.308381 0.352820 0.857373
O O4 0.599463 0.131306 0.949932
O O5 0.531466 0.660862 0.640737
O O6 0.950586 0.554768 0.718394
O O7 0.754741 0.764740 0.346924
O O8 0.569151 0.217954 0.281897
O O9 0.777524 0.498375 0.086957
O O10 0.837564 0.137963 0.501194
O O11 0.117523 0.993901 0.786138
O O12 0.258702 0.054933 0.513428
O O13 0.981649 0.791293 0.844558
O O14 0.000000 0.000000 0.000000
#
# Coordination Sequence:
#
# PCOD9061410 Si02
#       7
#     2   2   2   2   1   2   2
#     4  11  26  42  68 109 146 192 241 293 357 424
#     4  11  23  45  70 102 148 185 239 294 352 429
#     4  11  24  47  73 106 139 189 233 301 364 424
#     4  12  26  47  73 106 145 192 241 296 364 425
#     4  12  26  48  78 104 148 180 244 306 362 432
#     4  11  24  44  73 102 144 189 239 296 354 434
#     4  12  25  43  73 106 146 193 237 293 355 428
#
# _framework density 24.943439000000001
#
# number of rings (size 3 to 8) (size 9 to 14) (size 15 to 20)
#    0.000    0.615    4.615    2.308    4.308    2.462 
#    0.000    3.846    0.000    0.000    0.000    0.000 
#    0.000    0.000    0.000    0.000    0.000    0.000 
#
# Total GULP energy -72525.799133 kJ/mol
# GULP energy per Si atom -5578.907626 kJ/mol
# Density = 2.488667 g / cm^3
# Si number density = 24.943439 Si / 1000 Ang^3
#
#
#
# Elastic Constant Matrix: (Units=GPa)
#
#
# Indices 1 2 3 4 5 6 
#
# 1 120.1750 49.8013 74.3821 -20.3906 -9.0988 -14.7251
# 2 49.8013 67.2552 31.2121 -16.4817 -6.2372 -13.3079
# 3 74.3821 31.2121 122.6630 -29.7800 1.0347 -18.1906
# 4 -20.3906 -16.4817 -29.7800 40.5002 0.2961 1.6248
# 5 -9.0988 -6.2372 1.0347 0.2961 64.7661 -12.3854
# 6 -14.7251 -13.3079 -18.1906 1.6248 -12.3854 55.5696
#
#
#
# Elastic Compliance Matrix: (Units=1/GPa)
#
#
# Indices 1 2 3 4 5 6 
#
# 1 0.017179 -0.008927 -0.008444 -0.001207 0.001707 0.000066
# 2 -0.008927 0.023135 0.001509 0.005863 0.001663 0.003868
# 3 -0.008444 0.001509 0.015074 0.007346 -0.000806 0.002664
# 4 -0.001207 0.005863 0.007346 0.031758 0.000650 0.002705
# 5 0.001707 0.001663 -0.000806 0.000650 0.016669 0.004283
# 6 0.000066 0.003868 0.002664 0.002705 0.004283 0.020687
#
#
# Mechanical properties :
#
#
# Convention : Reuss Voigt Hill
#
# Bulk Modulus (GPa) = 42.25509 68.98711 55.62110
# Shear Modulus (GPa) = 30.46708 42.48035 36.47371
#
# Velocity S-wave (km/s) = 3.49871 4.13130 3.82810
# Velocity P-wave (km/s) = 5.77048 7.10453 6.47197
#
# Compressibility (1/GPa) = 0.02366579
#
# Stress axis : x y z
#
# Youngs Moduli (GPa) = 58.21019 43.22505 66.34038
#
# Poissons Ratio (x) = 0.38586 0.56015
# Poissons Ratio (y) = 0.51963 -0.10014
# Poissons Ratio (z) = 0.49150 -0.06525
#
# Static dielectric constant tensor:
#      x y z
#    x 1.950380 0.080630 -0.000950 
#    y 0.080630 1.968070 -0.030850 
#    z -0.000950 -0.030850 1.945330 
# 
# From -- ./inp_files/78449.got.cif
#   From: 2010.05.17/outbox.cif.g08.bks.cpg/sg2_40_cif.got.tgz:78449.got - 2010.06.03 11:33:40.
