data_PCOD9061218
_publ_section_title
;
Structure prediction by ZEFSAII (Michael W. Deem and Ramdas Pophale) SiO2 
 PCOD9061218
Probable space group: P -1
;
_chemical_formula_sum "Si O2"
_cell_formula_units_Z 16
_cell_length_a 9.178655
_cell_length_b 5.913619
_cell_length_c 16.426307
_cell_angle_alpha 52.934591
_cell_angle_beta 115.559429
_cell_angle_gamma 105.239528
_cell_volume 641.825076
_symmetry_space_group_name_H-M "P -1"
_symmetry_group_IT_number 2
_symmetry_cell_setting 'triclinic'
loop_
_space_group_symop_operation_xyz
x,y,z
-x,-y,-z
loop_
_atom_site_type_symbol
_atom_site_label
_atom_site_fract_x
_atom_site_fract_y
_atom_site_fract_z
Si Si1 0.898523 0.152001 0.252968
Si Si2 0.379492 0.382275 0.926341
Si Si3 0.886094 0.667569 0.877971
Si Si4 0.794769 0.744456 0.586179
Si Si5 0.392419 0.758055 0.133703
Si Si6 0.329653 0.856732 0.266306
Si Si7 0.559913 0.206192 0.523702
Si Si8 0.177941 0.369791 0.565198
O O1 0.775426 0.414986 0.164079
O O2 0.001876 0.163166 0.193830
O O3 0.041679 0.159292 0.352919
O O4 0.806648 0.858705 0.310331
O O5 0.475506 0.374634 0.865773
O O6 0.500000 0.500000 0.000000
O O7 0.346377 0.057611 0.015478
O O8 0.763956 0.444712 0.856358
O O9 0.779725 0.895481 0.849219
O O10 0.000000 0.500000 0.000000
O O11 0.777871 0.413666 0.676332
O O12 0.806940 0.789423 0.483419
O O13 0.617954 0.870237 0.544855
O O14 0.445420 0.787408 0.234287
O O15 0.397670 0.964244 0.345626
O O16 0.500000 0.500000 0.500000
O O17 0.696496 0.372315 0.468118
O O18 0.000000 0.500000 0.500000
#
# Coordination Sequence:
#
# PCOD9061218 Si02
#       8
#     2   2   2   2   2   2   2   2
#     4  12  25  48  76 111 152 200 252 321 389 445
#     4  11  27  51  73 113 157 193 257 320 388 460
#     4  12  26  45  78 110 148 199 260 317 374 464
#     4  11  24  47  70 108 147 195 254 303 375 458
#     4  11  25  48  76 106 152 203 253 313 386 461
#     4  11  23  44  75 109 149 197 258 306 379 453
#     4  11  25  47  76 108 154 200 257 312 371 466
#     4  11  24  46  71 111 154 195 250 319 375 452
#
# _framework density 24.928910999999999
#
# number of rings (size 3 to 8) (size 9 to 14) (size 15 to 20)
#    0.000    0.750    1.250    7.125    1.750    5.000 
#    9.000    0.000    0.000    0.000    0.000    0.000 
#    0.000    0.000    0.000    0.000    0.000    0.000 
#
# Total GULP energy -89529.341897 kJ/mol
# GULP energy per Si atom -5595.583869 kJ/mol
# Density = 2.487217 g / cm^3
# Si number density = 24.928911 Si / 1000 Ang^3
#
#
#
# Elastic Constant Matrix: (Units=GPa)
#
#
# Indices 1 2 3 4 5 6 
#
# 1 173.5230 61.0483 57.2279 7.3150 -1.2752 -3.3311
# 2 61.0483 101.5416 35.0677 9.7398 -12.1448 0.3237
# 3 57.2279 35.0677 86.1475 -7.2406 -12.1616 10.0021
# 4 7.3150 9.7398 -7.2406 46.7983 -19.0989 -8.0576
# 5 -1.2752 -12.1448 -12.1616 -19.0989 60.5687 2.8035
# 6 -3.3311 0.3237 10.0021 -8.0576 2.8035 46.6522
#
#
#
# Elastic Compliance Matrix: (Units=1/GPa)
#
#
# Indices 1 2 3 4 5 6 
#
# 1 0.008802 -0.003630 -0.005041 -0.002069 -0.002277 0.001514
# 2 -0.003630 0.013450 -0.003042 -0.002188 0.001327 -0.000158
# 3 -0.005041 -0.003042 0.017730 0.005500 0.004739 -0.003475
# 4 -0.002069 -0.002188 0.005500 0.027186 0.009063 0.002839
# 5 -0.002277 0.001327 0.004739 0.009063 0.020577 -0.000859
# 6 0.001514 -0.000158 -0.003475 0.002839 -0.000859 0.022831
#
#
# Mechanical properties :
#
#
# Convention : Reuss Voigt Hill
#
# Bulk Modulus (GPa) = 60.39901 74.21111 67.30506
# Shear Modulus (GPa) = 35.83718 44.66171 40.24944
#
# Velocity S-wave (km/s) = 3.79565 4.23728 4.02253
# Velocity P-wave (km/s) = 6.59472 7.33301 6.97365
#
# Compressibility (1/GPa) = 0.01655656
#
# Stress axis : x y z
#
# Youngs Moduli (GPa) = 113.61191 74.34863 56.40291
#
# Poissons Ratio (x) = 0.26987 0.28431
# Poissons Ratio (y) = 0.41238 0.17158
# Poissons Ratio (z) = 0.57268 0.22618
#
# Static dielectric constant tensor:
#      x y z
#    x 2.294500 0.481720 -0.119050 
#    y 0.481720 3.191340 -0.288330 
#    z -0.119050 -0.288330 2.091600 
# 
# From -- ./inp_files/459429.got.cif
#   From: 2010.05.17/outbox.cif.g08.bks.cpg/sg2_230_cif.got.tgz:459429.got - 2010.06.03 11:33:40.
