data_PCOD9061545
_publ_section_title
;
Structure prediction by ZEFSAII (Michael W. Deem and Ramdas Pophale) SiO2 
 PCOD9061545
Probable space group: P -1
;
_chemical_formula_sum "Si O2"
_cell_formula_units_Z 16
_cell_length_a 17.094907
_cell_length_b 12.508913
_cell_length_c 9.259059
_cell_angle_alpha 149.655134
_cell_angle_beta 59.534733
_cell_angle_gamma 131.444311
_cell_volume 738.953840
_symmetry_space_group_name_H-M "P -1"
_symmetry_group_IT_number 2
_symmetry_cell_setting 'triclinic'
loop_
_space_group_symop_operation_xyz
x,y,z
-x,-y,-z
loop_
_atom_site_type_symbol
_atom_site_label
_atom_site_fract_x
_atom_site_fract_y
_atom_site_fract_z
Si Si1 0.164342 0.666834 0.421827
Si Si2 0.026246 0.833033 0.877210
Si Si3 0.395228 0.775341 0.409312
Si Si4 0.089480 0.967914 0.304933
Si Si5 0.456876 0.774687 0.662895
Si Si6 0.369151 0.347484 0.753687
Si Si7 0.809530 0.203936 0.766867
Si Si8 0.699909 0.500535 0.280340
O O1 0.127307 0.848662 0.724353
O O2 0.286149 0.750170 0.426696
O O3 0.139880 0.633512 0.234473
O O4 0.084621 0.427488 0.311021
O O5 0.056799 0.893431 0.085028
O O6 0.000000 0.000000 0.000000
O O7 0.404777 0.817235 0.620800
O O8 0.500000 0.000000 0.500000
O O9 0.389832 0.519351 0.073081
O O10 0.113695 0.792733 0.177511
O O11 0.196680 0.232000 0.506401
O O12 0.000000 0.000000 0.500000
O O13 0.544148 0.720762 0.453400
O O14 0.371392 0.542821 0.564825
O O15 0.500000 0.000000 0.000000
O O16 0.360758 0.507418 0.817828
O O17 0.261128 0.080952 0.552330
O O18 0.734577 0.297424 0.008860
#
# Coordination Sequence:
#
# PCOD9061545 Si02
#       8
#     2   2   2   2   2   2   2   2
#     4  11  26  46  73 101 145 191 239 305 353 438
#     4  11  27  46  71 105 145 191 242 297 368 427
#     4  12  27  46  74 108 145 192 245 292 371 438
#     4  11  26  42  70 106 138 187 237 296 366 423
#     4  12  25  44  71 102 146 186 238 303 354 435
#     4  11  24  46  71 102 144 193 235 294 365 428
#     4  11  23  45  73 101 144 182 243 293 358 428
#     4  11  24  42  71 103 139 185 235 299 357 429
#
# _framework density 21.652232999999999
#
# number of rings (size 3 to 8) (size 9 to 14) (size 15 to 20)
#    0.000    0.750    2.500    3.750    7.000    4.000 
#    0.000    0.000    0.000    0.000    0.000    0.000 
#    0.000    0.000    0.000    0.000    0.000    0.000 
#
# Total GULP energy -89444.966785 kJ/mol
# GULP energy per Si atom -5590.310424 kJ/mol
# Density = 2.160295 g / cm^3
# Si number density = 21.652233 Si / 1000 Ang^3
#
#
#
# Elastic Constant Matrix: (Units=GPa)
#
#
# Indices 1 2 3 4 5 6 
#
# 1 146.3298 37.5954 44.4678 -11.7172 -12.5468 -16.2956
# 2 37.5954 92.1804 -8.0818 -8.8693 -1.3412 1.9177
# 3 44.4678 -8.0818 68.8586 -13.1048 -7.6296 0.4766
# 4 -11.7172 -8.8693 -13.1048 38.6659 -2.1031 -0.2895
# 5 -12.5468 -1.3412 -7.6296 -2.1031 35.6389 -3.0633
# 6 -16.2956 1.9177 0.4766 -0.2895 -3.0633 44.5376
#
#
#
# Elastic Compliance Matrix: (Units=1/GPa)
#
#
# Indices 1 2 3 4 5 6 
#
# 1 0.011253 -0.005349 -0.007699 -0.000256 0.002492 0.004600
# 2 -0.005349 0.013923 0.005756 0.003496 -0.000145 -0.002605
# 3 -0.007699 0.005756 0.021665 0.006430 0.002257 -0.003100
# 4 -0.000256 0.003496 0.006430 0.028937 0.003133 0.000091
# 5 0.002492 -0.000145 0.002257 0.003133 0.029854 0.002968
# 6 0.004600 -0.002605 -0.003100 0.000091 0.002968 0.024486
#
#
# Mechanical properties :
#
#
# Convention : Reuss Voigt Hill
#
# Bulk Modulus (GPa) = 31.00151 50.59239 40.79695
# Shear Modulus (GPa) = 32.16338 39.32764 35.74551
#
# Velocity S-wave (km/s) = 3.85834 4.26647 4.06753
# Velocity P-wave (km/s) = 5.84791 6.90557 6.39863
#
# Compressibility (1/GPa) = 0.03225649
#
# Stress axis : x y z
#
# Youngs Moduli (GPa) = 88.86297 71.82432 46.15656
#
# Poissons Ratio (x) = 0.38417 0.35538
# Poissons Ratio (y) = 0.47530 -0.26566
# Poissons Ratio (z) = 0.68419 -0.41339
#
# Static dielectric constant tensor:
#      x y z
#    x 1.772270 0.032590 0.002720 
#    y 0.032590 1.761090 0.043140 
#    z 0.002720 0.043140 1.819210 
# 
# From -- ./inp_files/49075.got.cif
#   From: 2010.05.17/outbox.cif.g08.bks.cpg/sg2_25_cif.got.tgz:49075.got - 2010.06.03 11:33:40.
