data_PCOD9061311
_publ_section_title
;
Structure prediction by ZEFSAII (Michael W. Deem and Ramdas Pophale) SiO2 
 PCOD9061311
Probable space group: P -1
;
_chemical_formula_sum "Si O2"
_cell_formula_units_Z 16
_cell_length_a 10.683260
_cell_length_b 8.724549
_cell_length_c 8.903271
_cell_angle_alpha 51.602877
_cell_angle_beta 74.502899
_cell_angle_gamma 82.779872
_cell_volume 625.832574
_symmetry_space_group_name_H-M "P -1"
_symmetry_group_IT_number 2
_symmetry_cell_setting 'triclinic'
loop_
_space_group_symop_operation_xyz
x,y,z
-x,-y,-z
loop_
_atom_site_type_symbol
_atom_site_label
_atom_site_fract_x
_atom_site_fract_y
_atom_site_fract_z
Si Si1 0.764821 0.963675 0.710266
Si Si2 0.503420 0.276873 0.078159
Si Si3 0.841470 0.638017 0.079564
Si Si4 0.042847 0.442754 0.355567
Si Si5 0.219759 0.682966 0.952626
Si Si6 0.338680 0.280808 0.637761
Si Si7 0.144137 0.043735 0.628500
Si Si8 0.596597 0.265014 0.716772
O O1 0.635647 0.830201 0.786926
O O2 0.814201 0.048214 0.485718
O O3 0.715050 0.127970 0.736570
O O4 0.862702 0.819478 0.846146
O O5 0.636783 0.214100 0.148096
O O6 0.500000 0.500000 0.000000
O O7 0.532050 0.253654 0.906874
O O8 0.784486 0.465538 0.094907
O O9 0.744553 0.725926 0.178179
O O10 0.948583 0.531159 0.207492
O O11 0.047036 0.208595 0.509480
O O12 0.000000 0.500000 0.500000
O O13 0.179316 0.550847 0.191090
O O14 0.122766 0.859248 0.858097
O O15 0.256664 0.176605 0.596159
O O16 0.481529 0.207042 0.670236
O O17 0.359311 0.511095 0.459853
#
# Coordination Sequence:
#
# PCOD9061311 Si02
#       8
#     2   2   2   2   2   2   2   2
#     4  12  25  44  72 111 148 194 240 296 368 437
#     4  12  22  41  72 107 154 190 235 296 367 434
#     4  12  25  47  73 102 148 187 244 303 356 434
#     4  12  27  52  75 102 146 191 246 313 357 422
#     4  12  27  47  75 110 142 194 245 295 368 436
#     4  11  23  45  67 106 146 190 243 299 360 433
#     4  12  27  49  74 107 145 194 246 301 366 432
#     4  11  24  39  71 105 150 194 238 294 366 439
#
# _framework density 25.565946
#
# number of rings (size 3 to 8) (size 9 to 14) (size 15 to 20)
#    0.000    0.250    5.000    3.750    1.750    5.000 
#    2.250    0.000    0.000    0.000    0.000    0.000 
#    0.000    0.000    0.000    0.000    0.000    0.000 
#
# Total GULP energy -89609.914403 kJ/mol
# GULP energy per Si atom -5600.619650 kJ/mol
# Density = 2.550776 g / cm^3
# Si number density = 25.565946 Si / 1000 Ang^3
#
#
#
# Elastic Constant Matrix: (Units=GPa)
#
#
# Indices 1 2 3 4 5 6 
#
# 1 103.0120 24.3363 5.0891 -3.4611 37.7015 14.1610
# 2 24.3363 106.9182 41.0201 -3.6219 16.3870 -4.4562
# 3 5.0891 41.0201 119.4920 -10.8919 20.1470 1.5254
# 4 -3.4611 -3.6219 -10.8919 53.4560 -8.2841 11.5966
# 5 37.7015 16.3870 20.1470 -8.2841 38.7784 0.5721
# 6 14.1610 -4.4562 1.5254 11.5966 0.5721 38.9064
#
#
#
# Elastic Compliance Matrix: (Units=1/GPa)
#
#
# Indices 1 2 3 4 5 6 
#
# 1 0.017488 -0.002847 0.003272 0.000370 -0.017322 -0.006675
# 2 -0.002847 0.011649 -0.003935 -0.000852 -0.000334 0.002784
# 3 0.003272 -0.003935 0.010908 0.001648 -0.006797 -0.002461
# 4 0.000370 -0.000852 0.001648 0.021023 0.003733 -0.006618
# 5 -0.017322 -0.000334 -0.006797 0.003733 0.047029 0.004729
# 6 -0.006675 0.002784 -0.002461 -0.006618 0.004729 0.030451
#
#
# Mechanical properties :
#
#
# Convention : Reuss Voigt Hill
#
# Bulk Modulus (GPa) = 30.27904 52.25702 41.26803
# Shear Modulus (GPa) = 31.93362 43.49328 37.71345
#
# Velocity S-wave (km/s) = 3.53805 4.12906 3.84493
# Velocity P-wave (km/s) = 5.34412 6.57394 5.99067
#
# Compressibility (1/GPa) = 0.03302615
#
# Stress axis : x y z
#
# Youngs Moduli (GPa) = 57.18116 85.84614 91.67772
#
# Poissons Ratio (x) = 0.24438 -0.29997
# Poissons Ratio (y) = 0.16278 0.36071
# Poissons Ratio (z) = -0.18709 0.33777
#
# Static dielectric constant tensor:
#      x y z
#    x 2.149050 -0.023690 -0.007060 
#    y -0.023690 1.949060 -0.019420 
#    z -0.007060 -0.019420 1.961040 
# 
# From -- ./inp_files/241999.got.cif
#   From: 2010.05.17/outbox.cif.g08.bks.cpg/sg2_121_cif.got.tgz:241999.got - 2010.06.03 11:33:40.
