data_PCOD9061078
_publ_section_title
;
Structure prediction by ZEFSAII (Michael W. Deem and Ramdas Pophale) SiO2 
 PCOD9061078
Probable space group: P -1
;
_chemical_formula_sum "Si O2"
_cell_formula_units_Z 12
_cell_length_a 11.865991
_cell_length_b 8.727056
_cell_length_c 15.590465
_cell_angle_alpha 46.814669
_cell_angle_beta 156.146402
_cell_angle_gamma 122.914352
_cell_volume 457.032563
_symmetry_space_group_name_H-M "P -1"
_symmetry_group_IT_number 2
_symmetry_cell_setting 'triclinic'
loop_
_space_group_symop_operation_xyz
x,y,z
-x,-y,-z
loop_
_atom_site_type_symbol
_atom_site_label
_atom_site_fract_x
_atom_site_fract_y
_atom_site_fract_z
Si Si1 0.905205 0.087007 0.626030
Si Si2 0.697745 0.535002 0.918788
Si Si3 0.050774 0.858154 0.998555
Si Si4 0.724973 0.726852 0.312113
Si Si5 0.611726 0.910753 0.342983
Si Si6 0.235888 0.407944 0.874941
O O1 0.610823 0.286968 0.343996
O O2 0.820700 0.922657 0.561991
O O3 0.174182 0.156975 0.743196
O O4 0.944039 0.998387 0.783787
O O5 0.578167 0.335402 0.880541
O O6 0.884930 0.670144 0.948601
O O7 0.867945 0.490936 0.143744
O O8 0.398656 0.761348 0.271459
O O9 0.000000 0.000000 0.000000
O O10 0.978466 0.503762 0.593555
O O11 0.734168 0.867569 0.349374
O O12 0.377712 0.151562 0.081684
O O13 0.500000 0.500000 0.000000
#
# Coordination Sequence:
#
# PCOD9061078 Si02
#       6
#     2   2   2   2   2   2
#     4  11  24  43  77 105 140 193 241 294 364 422
#     4  11  25  41  73 105 144 194 239 291 360 431
#     4  12  25  46  72 103 146 198 242 288 357 434
#     4  12  26  45  75 114 144 180 243 304 357 425
#     4  11  26  46  74 108 147 190 233 300 362 423
#     4  11  23  44  72 105 147 184 237 295 360 422
#
# _framework density 26.256335
#
# number of rings (size 3 to 8) (size 9 to 14) (size 15 to 20)
#    0.000    0.667    6.667    2.500    2.333    2.667 
#    0.000    1.667    0.000    0.000    0.000    0.000 
#    0.000    0.000    0.000    0.000    0.000    0.000 
#
# Total GULP energy -67123.759039 kJ/mol
# GULP energy per Si atom -5593.646587 kJ/mol
# Density = 2.619657 g / cm^3
# Si number density = 26.256335 Si / 1000 Ang^3
#
#
#
# Elastic Constant Matrix: (Units=GPa)
#
#
# Indices 1 2 3 4 5 6 
#
# 1 149.9705 54.7774 40.8553 13.2593 -40.3018 0.0760
# 2 54.7774 144.6707 50.1038 35.3922 -15.4661 10.9824
# 3 40.8553 50.1038 122.9484 22.8879 -30.0007 9.7763
# 4 13.2593 35.3922 22.8879 43.4072 2.2629 11.6497
# 5 -40.3018 -15.4661 -30.0007 2.2629 51.9602 2.6327
# 6 0.0760 10.9824 9.7763 11.6497 2.6327 66.0748
#
#
#
# Elastic Compliance Matrix: (Units=1/GPa)
#
#
# Indices 1 2 3 4 5 6 
#
# 1 0.009530 -0.002556 -0.000389 -0.001065 0.006432 0.000403
# 2 -0.002556 0.010190 -0.002057 -0.006379 0.000154 -0.000268
# 3 -0.000389 -0.002057 0.011408 -0.004307 0.005902 -0.000821
# 4 -0.001065 -0.006379 -0.004307 0.032168 -0.006424 -0.003717
# 5 0.006432 0.000154 0.005902 -0.006424 0.028013 -0.000890
# 6 0.000403 -0.000268 -0.000821 -0.003717 -0.000890 0.015991
#
#
# Mechanical properties :
#
#
# Convention : Reuss Voigt Hill
#
# Bulk Modulus (GPa) = 47.33957 78.78476 63.06216
# Shear Modulus (GPa) = 40.21081 50.41199 45.31140
#
# Velocity S-wave (km/s) = 3.91765 4.38653 4.15870
# Velocity P-wave (km/s) = 6.20748 7.46503 6.86511
#
# Compressibility (1/GPa) = 0.02112398
#
# Stress axis : x y z
#
# Youngs Moduli (GPa) = 104.93029 98.13776 87.65649
#
# Poissons Ratio (x) = 0.25083 0.03414
# Poissons Ratio (y) = 0.26819 0.18028
# Poissons Ratio (z) = 0.04087 0.20184
#
# Static dielectric constant tensor:
#      x y z
#    x 2.177810 0.040010 -0.129410 
#    y 0.040010 2.233830 -0.126590 
#    z -0.129410 -0.126590 2.356740 
# 
# From -- ./inp_files/515139.got.cif
#   From: 2010.05.17/outbox.cif.g08.bks.cpg/sg2_258_cif.got.tgz:515139.got - 2010.06.03 11:33:40.
