data_PCOD9061911
_publ_section_title
;
Structure prediction by ZEFSAII (Michael W. Deem and Ramdas Pophale) SiO2 
 PCOD9061911
Probable space group: P -1
;
_chemical_formula_sum "Si O2"
_cell_formula_units_Z 15
_cell_length_a 12.926080
_cell_length_b 9.724972
_cell_length_c 9.009453
_cell_angle_alpha 133.253562
_cell_angle_beta 126.818146
_cell_angle_gamma 66.716729
_cell_volume 660.106374
_symmetry_space_group_name_H-M "P -1"
_symmetry_group_IT_number 2
_symmetry_cell_setting 'triclinic'
loop_
_space_group_symop_operation_xyz
x,y,z
-x,-y,-z
loop_
_atom_site_type_symbol
_atom_site_label
_atom_site_fract_x
_atom_site_fract_y
_atom_site_fract_z
Si Si1 0.601461 0.886348 0.095644
Si Si2 0.425824 0.496519 0.089769
Si Si3 0.848267 0.938655 0.818650
Si Si4 0.091126 0.663642 0.487387
Si Si5 0.000000 0.500000 0.000000
Si Si6 0.168530 0.450607 0.662853
Si Si7 0.613848 0.096048 0.572110
Si Si8 0.140395 0.102876 0.864682
O O1 0.738272 0.876040 0.124204
O O2 0.624015 0.985951 0.346639
O O3 0.537606 0.680825 0.914787
O O4 0.500000 0.000000 0.000000
O O5 0.429790 0.690688 0.324048
O O6 0.500000 0.500000 0.000000
O O7 0.279214 0.461942 0.886658
O O8 0.832301 0.748046 0.569689
O O9 0.751041 0.084248 0.767512
O O10 0.809769 0.897047 0.923204
O O11 0.000000 0.000000 0.000000
O O12 0.183521 0.610241 0.665790
O O13 0.961900 0.552756 0.354921
O O14 0.079160 0.889654 0.635293
O O15 0.108672 0.569973 0.273333
O O16 0.047286 0.278091 0.890366
O O17 0.500000 0.000000 0.500000
#
# Coordination Sequence:
#
# PCOD9061911 Si02
#       8
#     2   2   2   2   1   2   2   2
#     4  12  29  50  76 114 156 200 261 324 392 456
#     4  12  26  48  82 108 145 201 261 318 377 459
#     4  12  24  45  79 112 150 204 260 317 382 460
#     4  11  25  43  70 103 148 197 241 311 368 462
#     4  12  26  42  66 102 152 196 238 296 400 446
#     4  11  23  46  73 108 143 193 264 304 373 455
#     4  12  26  52  82 109 150 206 265 318 384 469
#     4  12  27  46  70 109 158 197 250 319 389 452
#
# _framework density 22.723609
#
# number of rings (size 3 to 8) (size 9 to 14) (size 15 to 20)
#    0.000    0.267    5.333    2.800    3.733    4.800 
#    0.000    0.000    0.000    0.000    0.000    0.000 
#    0.000    0.000    0.000    0.000    0.000    0.000 
#
# Total GULP energy -83686.198373 kJ/mol
# GULP energy per Si atom -5579.079892 kJ/mol
# Density = 2.267189 g / cm^3
# Si number density = 22.723609 Si / 1000 Ang^3
#
#
#
# Elastic Constant Matrix: (Units=GPa)
#
#
# Indices 1 2 3 4 5 6 
#
# 1 77.2589 22.5667 1.3457 1.3788 -8.5379 14.9402
# 2 22.5667 189.0296 27.0065 28.7285 3.4750 -2.4970
# 3 1.3457 27.0065 75.7790 20.3750 -9.4911 1.6307
# 4 1.3788 28.7285 20.3750 51.0214 -4.5954 -1.5875
# 5 -8.5379 3.4750 -9.4911 -4.5954 28.2226 -0.0042
# 6 14.9402 -2.4970 1.6307 -1.5875 -0.0042 23.9711
#
#
#
# Elastic Compliance Matrix: (Units=1/GPa)
#
#
# Indices 1 2 3 4 5 6 
#
# 1 0.016298 -0.002479 0.001385 0.000599 0.005797 -0.010470
# 2 -0.002479 0.006372 -0.001803 -0.002971 -0.002624 0.002134
# 3 0.001385 -0.001803 0.015848 -0.004963 0.005162 -0.002457
# 4 0.000599 -0.002971 -0.004963 0.023520 0.002708 0.001213
# 5 0.005797 -0.002624 0.005162 0.002708 0.039686 -0.004051
# 6 -0.010470 0.002134 -0.002457 0.001213 -0.004051 0.048711
#
#
# Mechanical properties :
#
#
# Convention : Reuss Voigt Hill
#
# Bulk Modulus (GPa) = 30.55989 49.32282 39.94135
# Shear Modulus (GPa) = 29.91561 40.05293 34.98427
#
# Velocity S-wave (km/s) = 3.63230 4.20290 3.92797
# Velocity P-wave (km/s) = 5.57397 6.73091 6.17958
#
# Compressibility (1/GPa) = 0.03272263
#
# Stress axis : x y z
#
# Youngs Moduli (GPa) = 61.35643 156.94538 63.10031
#
# Poissons Ratio (x) = 0.38914 -0.08736
# Poissons Ratio (y) = 0.15213 0.11374
# Poissons Ratio (z) = -0.08495 0.28291
#
# Static dielectric constant tensor:
#      x y z
#    x 1.852040 0.002270 0.020820 
#    y 0.002270 1.854740 -0.020690 
#    z 0.020820 -0.020690 1.852460 
# 
# From -- ./inp_files/246189.got.cif
#   From: 2010.05.17/outbox.cif.g08.bks.cpg/sg2_124_cif.got.tgz:246189.got - 2010.06.03 11:33:40.
