data_PCOD9061964
_publ_section_title
;
Structure prediction by ZEFSAII (Michael W. Deem and Ramdas Pophale) SiO2 
 PCOD9061964
Probable space group: P -1
;
_chemical_formula_sum "Si O2"
_cell_formula_units_Z 16
_cell_length_a 7.261085
_cell_length_b 18.991873
_cell_length_c 11.667247
_cell_angle_alpha 26.583073
_cell_angle_beta 76.241865
_cell_angle_gamma 80.455002
_cell_volume 695.255129
_symmetry_space_group_name_H-M "P -1"
_symmetry_group_IT_number 2
_symmetry_cell_setting 'triclinic'
loop_
_space_group_symop_operation_xyz
x,y,z
-x,-y,-z
loop_
_atom_site_type_symbol
_atom_site_label
_atom_site_fract_x
_atom_site_fract_y
_atom_site_fract_z
Si Si1 0.835247 0.324344 0.606465
Si Si2 0.186148 0.567356 0.208134
Si Si3 0.345390 0.165937 0.899715
Si Si4 0.918025 0.142695 0.065535
Si Si5 0.349930 0.117946 0.393921
Si Si6 0.400233 0.370001 0.824411
Si Si7 0.377905 0.815331 0.362510
Si Si8 0.389497 0.646405 0.833352
O O1 0.715034 0.476438 0.391151
O O2 0.791734 0.218820 0.654304
O O3 0.049355 0.406237 0.476494
O O4 0.790341 0.203537 0.893798
O O5 0.385777 0.579327 0.231346
O O6 0.073562 0.709199 0.064820
O O7 0.235404 0.598715 0.022983
O O8 0.398084 0.282869 0.828463
O O9 0.437274 0.228296 0.674008
O O10 0.120019 0.123841 0.007490
O O11 0.421268 0.993419 0.142348
O O12 0.827901 0.989750 0.369594
O O13 0.459157 0.221150 0.326339
O O14 0.500000 0.000000 0.500000
O O15 0.313113 0.238212 0.121569
O O16 0.318338 0.708710 0.634719
O O17 0.500000 0.500000 0.000000
#
# Coordination Sequence:
#
# PCOD9061964 Si02
#       8
#     2   2   2   2   2   2   2   2
#     4  12  28  46  76 113 148 191 250 304 366 443
#     4  11  25  47  74 112 144 188 252 307 363 427
#     4  11  27  45  74 106 148 191 243 306 369 441
#     4  12  26  45  77 112 143 190 252 315 360 426
#     4  11  23  46  75 108 146 193 248 306 368 431
#     4  11  24  47  81 105 144 194 244 312 363 429
#     4  11  27  47  68 107 151 196 238 294 380 446
#     4  11  25  44  76 105 149 199 239 300 372 447
#
# _framework density 23.013134000000001
#
# number of rings (size 3 to 8) (size 9 to 14) (size 15 to 20)
#    0.000    0.750    3.750    3.375    7.000    4.500 
#    0.000    0.000    0.000    0.000    0.000    0.000 
#    0.000    0.000    0.000    0.000    0.000    0.000 
#
# Total GULP energy -89502.401489 kJ/mol
# GULP energy per Si atom -5593.900093 kJ/mol
# Density = 2.296075 g / cm^3
# Si number density = 23.013134 Si / 1000 Ang^3
#
#
#
# Elastic Constant Matrix: (Units=GPa)
#
#
# Indices 1 2 3 4 5 6 
#
# 1 76.9233 27.0267 37.8543 5.5112 -7.1784 -6.9059
# 2 27.0267 139.8394 44.8413 7.1651 7.1218 6.8802
# 3 37.8543 44.8413 135.6730 14.8895 -3.2121 7.9877
# 4 5.5112 7.1651 14.8895 47.0721 11.7025 -2.2489
# 5 -7.1784 7.1218 -3.2121 11.7025 40.7481 2.7522
# 6 -6.9059 6.8802 7.9877 -2.2489 2.7522 32.3742
#
#
#
# Elastic Compliance Matrix: (Units=1/GPa)
#
#
# Indices 1 2 3 4 5 6 
#
# 1 0.016497 -0.002249 -0.003974 -0.000832 0.002909 0.004672
# 2 -0.002249 0.008440 -0.002121 0.000059 -0.001949 -0.001580
# 3 -0.003974 -0.002121 0.009704 -0.002789 0.001447 -0.003108
# 4 -0.000832 0.000059 -0.002789 0.024220 -0.007523 0.002820
# 5 0.002909 -0.001949 0.001447 -0.007523 0.027818 -0.002210
# 6 0.004672 -0.001580 -0.003108 0.002820 -0.002210 0.033372
#
#
# Mechanical properties :
#
#
# Convention : Reuss Voigt Hill
#
# Bulk Modulus (GPa) = 55.70831 63.54227 59.62529
# Shear Modulus (GPa) = 35.03270 40.21978 37.62624
#
# Velocity S-wave (km/s) = 3.90589 4.18507 4.04789
# Velocity P-wave (km/s) = 6.67840 7.14313 6.91467
#
# Compressibility (1/GPa) = 0.01795064
#
# Stress axis : x y z
#
# Youngs Moduli (GPa) = 60.61871 118.48257 103.04997
#
# Poissons Ratio (x) = 0.26651 0.40954
# Poissons Ratio (y) = 0.13635 0.21862
# Poissons Ratio (z) = 0.24091 0.25136
#
# Static dielectric constant tensor:
#      x y z
#    x 1.900030 -0.018680 -0.007600 
#    y -0.018680 1.835710 0.043410 
#    z -0.007600 0.043410 1.906020 
# 
# From -- ./inp_files/401640.got.cif
#   From: 2010.05.17/outbox.cif.g08.bks.cpg/sg2_201_cif.got.tgz:401640.got - 2010.06.03 11:33:40.
