data_PCOD9061391
_publ_section_title
;
Structure prediction by ZEFSAII (Michael W. Deem and Ramdas Pophale) SiO2 
 PCOD9061391
Probable space group: P -1
;
_chemical_formula_sum "Si O2"
_cell_formula_units_Z 16
_cell_length_a 9.164292
_cell_length_b 18.391419
_cell_length_c 20.354822
_cell_angle_alpha 30.110092
_cell_angle_beta 31.609293
_cell_angle_gamma 28.218125
_cell_volume 753.769699
_symmetry_space_group_name_H-M "P -1"
_symmetry_group_IT_number 2
_symmetry_cell_setting 'triclinic'
loop_
_space_group_symop_operation_xyz
x,y,z
-x,-y,-z
loop_
_atom_site_type_symbol
_atom_site_label
_atom_site_fract_x
_atom_site_fract_y
_atom_site_fract_z
Si Si1 0.795269 0.636579 0.119294
Si Si2 0.109224 0.680935 0.363038
Si Si3 0.326294 0.257551 0.182049
Si Si4 0.152376 0.029509 0.353631
Si Si5 0.212543 0.327366 0.643635
Si Si6 0.792211 0.400824 0.878250
Si Si7 0.643020 0.012083 0.367113
Si Si8 0.859258 0.215180 0.193497
O O1 0.419585 0.700675 0.226223
O O2 0.983299 0.444087 0.166647
O O3 0.997627 0.620771 0.120345
O O4 0.850207 0.753647 0.957194
O O5 0.217680 0.498355 0.496650
O O6 0.977769 0.684330 0.337670
O O7 0.821685 0.837081 0.394124
O O8 0.329582 0.128842 0.228721
O O9 0.364822 0.165704 0.308483
O O10 0.617110 0.293625 0.035110
O O11 0.878284 0.150935 0.310167
O O12 0.419967 0.845197 0.363515
O O13 0.000000 0.000000 0.500000
O O14 0.020422 0.345759 0.769663
O O15 0.486759 0.602131 0.830422
O O16 0.891406 0.071178 0.244804
O O17 0.500000 0.000000 0.500000
#
# Coordination Sequence:
#
# PCOD9061391 Si02
#       8
#     2   2   2   2   2   2   2   2
#     4  11  24  46  70 103 135 174 227 278 331 406
#     4  11  27  44  70  98 138 179 223 275 340 398
#     4  11  23  45  69  99 136 177 224 277 331 395
#     4  12  27  45  69  99 138 178 229 275 331 407
#     4  11  27  47  64 101 139 178 219 282 337 395
#     4  11  24  45  72  99 140 173 222 281 336 398
#     4  12  23  44  70  97 132 182 222 273 334 394
#     4  11  25  44  72 101 133 180 225 277 335 394
#
# _framework density 21.226641999999998
#
# number of rings (size 3 to 8) (size 9 to 14) (size 15 to 20)
#    0.000    0.750    3.750    3.000    8.750    3.500 
#    0.000    0.000    0.000    0.000    0.000    0.000 
#    0.000    0.000    0.000    0.000    0.000    0.000 
#
# Total GULP energy -89554.867169 kJ/mol
# GULP energy per Si atom -5597.179198 kJ/mol
# Density = 2.117833 g / cm^3
# Si number density = 21.226642 Si / 1000 Ang^3
#
#
#
# Elastic Constant Matrix: (Units=GPa)
#
#
# Indices 1 2 3 4 5 6 
#
# 1 68.1668 9.3982 37.4510 -7.3901 11.8053 3.0518
# 2 9.3982 74.4951 52.9411 1.0243 -0.5374 23.0287
# 3 37.4510 52.9411 100.4534 3.7013 9.2767 4.1489
# 4 -7.3901 1.0243 3.7013 41.1687 6.4820 -1.9148
# 5 11.8053 -0.5374 9.2767 6.4820 38.1231 3.3482
# 6 3.0518 23.0287 4.1489 -1.9148 3.3482 33.6588
#
#
#
# Elastic Compliance Matrix: (Units=1/GPa)
#
#
# Indices 1 2 3 4 5 6 
#
# 1 0.021234 0.006117 -0.010756 0.005129 -0.004387 -0.004057
# 2 0.006117 0.032887 -0.019214 0.000225 0.005067 -0.021178
# 3 -0.010756 -0.019214 0.024026 -0.002558 -0.003348 0.011347
# 4 0.005129 0.000225 -0.002558 0.026400 -0.005605 0.001756
# 5 -0.004387 0.005067 -0.003348 -0.005605 0.029952 -0.005954
# 6 -0.004057 -0.021178 0.011347 0.001756 -0.005954 0.043861
#
#
# Mechanical properties :
#
#
# Convention : Reuss Voigt Hill
#
# Bulk Modulus (GPa) = 32.85161 49.18843 41.02002
# Shear Modulus (GPa) = 21.16731 32.14513 26.65622
#
# Velocity S-wave (km/s) = 3.16128 3.89572 3.54756
# Velocity P-wave (km/s) = 5.36983 6.59233 6.01223
#
# Compressibility (1/GPa) = 0.03043991
#
# Stress axis : x y z
#
# Youngs Moduli (GPa) = 47.09535 30.40678 41.62106
#
# Poissons Ratio (x) = -0.18601 0.44770
# Poissons Ratio (y) = -0.28810 0.79973
# Poissons Ratio (z) = 0.50658 0.58425
#
# Static dielectric constant tensor:
#      x y z
#    x 1.775590 -0.013400 -0.024100 
#    y -0.013400 1.720660 -0.014360 
#    z -0.024100 -0.014360 1.764660 
# 
# From -- ./inp_files/205032.got.cif
#   From: 2010.05.17/outbox.cif.g08.bks.cpg/sg2_103_cif.got.tgz:205032.got - 2010.06.03 11:33:40.
