data_PCOD9061378
_publ_section_title
;
Structure prediction by ZEFSAII (Michael W. Deem and Ramdas Pophale) SiO2 
 PCOD9061378
Probable space group: P -1
;
_chemical_formula_sum "Si O2"
_cell_formula_units_Z 16
_cell_length_a 18.289352
_cell_length_b 13.160073
_cell_length_c 5.679634
_cell_angle_alpha 72.366596
_cell_angle_beta 129.313623
_cell_angle_gamma 139.284055
_cell_volume 645.949124
_symmetry_space_group_name_H-M "P -1"
_symmetry_group_IT_number 2
_symmetry_cell_setting 'triclinic'
loop_
_space_group_symop_operation_xyz
x,y,z
-x,-y,-z
loop_
_atom_site_type_symbol
_atom_site_label
_atom_site_fract_x
_atom_site_fract_y
_atom_site_fract_z
Si Si1 0.684274 0.381633 0.676695
Si Si2 0.270223 0.690197 0.693271
Si Si3 0.074468 0.273350 0.225032
Si Si4 0.387653 0.190804 0.334416
Si Si5 0.810749 0.024343 0.537426
Si Si6 0.050564 0.672709 0.683657
Si Si7 0.651795 0.084845 0.645760
Si Si8 0.171791 0.147483 0.681769
O O1 0.686197 0.338415 0.439712
O O2 0.840393 0.574534 0.883286
O O3 0.551778 0.349124 0.469339
O O4 0.666038 0.294237 0.938247
O O5 0.331456 0.858459 0.625843
O O6 0.092050 0.527925 0.482794
O O7 0.189267 0.282622 0.531721
O O8 0.014798 0.291271 0.305850
O O9 0.932178 0.102374 0.929364
O O10 0.350132 0.123790 0.571034
O O11 0.345818 0.040717 0.229062
O O12 0.290545 0.210368 0.067896
O O13 0.870295 0.189871 0.454488
O O14 0.817079 0.936323 0.425962
O O15 0.191950 0.740246 0.047551
O O16 0.500000 0.000000 0.500000
O O17 0.000000 0.000000 0.500000
#
# Coordination Sequence:
#
# PCOD9061378 Si02
#       8
#     2   2   2   2   2   2   2   2
#     4  11  27  48  70 106 145 189 233 296 356 424
#     4  11  26  47  75 100 145 190 240 292 353 424
#     4  11  23  45  71 101 139 184 233 291 353 426
#     4  12  27  43  67 104 144 182 236 296 351 426
#     4  12  21  41  74  97 140 180 233 296 347 415
#     4  11  23  45  69 105 140 182 236 296 349 420
#     4  12  24  46  70 104 142 189 236 293 357 418
#     4  12  23  42  70 105 137 180 238 289 357 421
#
# _framework density 24.769755
#
# number of rings (size 3 to 8) (size 9 to 14) (size 15 to 20)
#    0.000    0.500    7.500    0.750    3.500    2.000 
#    0.000    3.125    0.000    0.000    0.000    0.000 
#    0.000    0.000    0.000    0.000    0.000    0.000 
#
# Total GULP energy -89317.758356 kJ/mol
# GULP energy per Si atom -5582.359897 kJ/mol
# Density = 2.471338 g / cm^3
# Si number density = 24.769755 Si / 1000 Ang^3
#
#
#
# Elastic Constant Matrix: (Units=GPa)
#
#
# Indices 1 2 3 4 5 6 
#
# 1 129.2837 42.3946 24.3820 -4.5293 20.4462 39.0432
# 2 42.3946 91.8490 17.1107 -16.2430 5.2775 31.1695
# 3 24.3820 17.1107 79.0134 -24.1214 14.1126 9.2490
# 4 -4.5293 -16.2430 -24.1214 46.7557 -4.0104 3.6184
# 5 20.4462 5.2775 14.1126 -4.0104 30.0675 -0.9719
# 6 39.0432 31.1695 9.2490 3.6184 -0.9719 41.8177
#
#
#
# Elastic Compliance Matrix: (Units=1/GPa)
#
#
# Indices 1 2 3 4 5 6 
#
# 1 0.013142 -0.001549 -0.000719 0.000491 -0.008624 -0.011199
# 2 -0.001549 0.016797 0.000583 0.006760 -0.001649 -0.011826
# 3 -0.000719 0.000583 0.017128 0.008746 -0.006631 -0.004463
# 4 0.000491 0.006760 0.008746 0.028889 -0.002095 -0.009980
# 5 -0.008624 -0.001649 -0.006631 -0.002095 0.042630 0.011919
# 6 -0.011199 -0.011826 -0.004463 -0.009980 0.011919 0.045312
#
#
# Mechanical properties :
#
#
# Convention : Reuss Voigt Hill
#
# Bulk Modulus (GPa) = 22.88438 51.99117 37.43777
# Shear Modulus (GPa) = 27.49778 38.14544 32.82161
#
# Velocity S-wave (km/s) = 3.33548 3.92854 3.64410
# Velocity P-wave (km/s) = 4.90845 6.45083 5.73176
#
# Compressibility (1/GPa) = 0.04369793
#
# Stress axis : x y z
#
# Youngs Moduli (GPa) = 76.09471 59.53350 58.38275
#
# Poissons Ratio (x) = 0.09222 0.04196
# Poissons Ratio (y) = 0.11787 -0.03404
# Poissons Ratio (z) = 0.05468 -0.03471
#
# Static dielectric constant tensor:
#      x y z
#    x 1.992630 -0.064190 0.007320 
#    y -0.064190 2.040870 -0.097710 
#    z 0.007320 -0.097710 2.112550 
# 
# From -- ./inp_files/81753.got.cif
#   From: 2010.05.17/outbox.cif.g08.bks.cpg/sg2_41_cif.got.tgz:81753.got - 2010.06.03 11:33:40.
