data_PCOD9061495
_publ_section_title
;
Structure prediction by ZEFSAII (Michael W. Deem and Ramdas Pophale) SiO2 
 PCOD9061495
Probable space group: P -1
;
_chemical_formula_sum "Si O2"
_cell_formula_units_Z 16
_cell_length_a 19.487315
_cell_length_b 19.271355
_cell_length_c 9.424527
_cell_angle_alpha 151.831150
_cell_angle_beta 140.767950
_cell_angle_gamma 29.039473
_cell_volume 810.925086
_symmetry_space_group_name_H-M "P -1"
_symmetry_group_IT_number 2
_symmetry_cell_setting 'triclinic'
loop_
_space_group_symop_operation_xyz
x,y,z
-x,-y,-z
loop_
_atom_site_type_symbol
_atom_site_label
_atom_site_fract_x
_atom_site_fract_y
_atom_site_fract_z
Si Si1 0.911611 0.693806 0.612113
Si Si2 0.868810 0.058118 0.308166
Si Si3 0.565767 0.337078 0.925828
Si Si4 0.121793 0.824455 0.781520
Si Si5 0.388685 0.524447 0.263853
Si Si6 0.949992 0.693354 0.334956
Si Si7 0.388784 0.034397 0.763436
Si Si8 0.619995 0.805257 0.257395
O O1 0.961961 0.685209 0.513530
O O2 0.763129 0.749360 0.443103
O O3 0.000000 0.500000 0.500000
O O4 0.881577 0.871655 0.969236
O O5 0.876200 0.119041 0.272884
O O6 0.738731 0.248457 0.524199
O O7 0.000000 0.000000 0.500000
O O8 0.561500 0.171354 0.572973
O O9 0.500000 0.500000 0.000000
O O10 0.724840 0.258298 0.066046
O O11 0.465534 0.439120 0.084515
O O12 0.066626 0.706211 0.485328
O O13 0.000000 0.000000 0.000000
O O14 0.500000 0.500000 0.500000
O O15 0.364853 0.380780 0.024789
O O16 0.784493 0.846481 0.291167
O O17 0.000000 0.500000 0.000000
O O18 0.398942 0.139710 0.838971
O O19 0.500000 0.000000 0.000000
O O20 0.500000 0.000000 0.500000
#
# Coordination Sequence:
#
# PCOD9061495 Si02
#       8
#     2   2   2   2   2   2   2   2
#     4  11  25  47  69 102 140 180 235 290 351 424
#     4  12  27  45  73 108 142 184 241 290 360 423
#     4  12  28  47  72 107 143 190 240 291 362 422
#     4  12  24  50  72  98 148 190 236 296 350 421
#     4  12  26  46  73 103 141 187 237 293 352 422
#     4  11  27  45  74 101 140 190 236 293 358 416
#     4  11  26  47  68 107 142 183 240 292 354 425
#     4  11  23  45  71  95 140 184 225 287 352 410
#
# _framework density 19.730554000000001
#
# number of rings (size 3 to 8) (size 9 to 14) (size 15 to 20)
#    0.000    0.500    5.000    2.250   10.500    2.000 
#    0.000    0.000    0.000    0.000    0.000    0.000 
#    0.000    0.000    0.000    0.000    0.000    0.000 
#
# Total GULP energy -89177.731201 kJ/mol
# GULP energy per Si atom -5573.608200 kJ/mol
# Density = 1.968565 g / cm^3
# Si number density = 19.730554 Si / 1000 Ang^3
#
#
#
# Elastic Constant Matrix: (Units=GPa)
#
#
# Indices 1 2 3 4 5 6 
#
# 1 101.0170 68.8611 65.2674 -1.5655 12.7921 0.5412
# 2 68.8611 177.3154 80.8406 -15.6198 -8.9696 4.3860
# 3 65.2674 80.8406 204.8668 8.0977 12.3269 1.1843
# 4 -1.5655 -15.6198 8.0977 47.8435 -3.4020 -4.9036
# 5 12.7921 -8.9696 12.3269 -3.4020 38.5736 5.9763
# 6 0.5412 4.3860 1.1843 -4.9036 5.9763 30.9266
#
#
#
# Elastic Compliance Matrix: (Units=1/GPa)
#
#
# Indices 1 2 3 4 5 6 
#
# 1 0.016058 -0.005535 -0.002526 -0.001126 -0.006154 0.001611
# 2 -0.005535 0.009537 -0.002457 0.003565 0.005407 -0.001641
# 3 -0.002526 -0.002457 0.006870 -0.002180 -0.002152 0.000200
# 4 -0.001126 0.003565 -0.002180 0.022909 0.003525 0.002549
# 5 -0.006154 0.005407 -0.002152 0.003525 0.031157 -0.006039
# 6 0.001611 -0.001641 0.000200 0.002549 -0.006039 0.034103
#
#
# Mechanical properties :
#
#
# Convention : Reuss Voigt Hill
#
# Bulk Modulus (GPa) = 87.49409 101.45971 94.47690
# Shear Modulus (GPa) = 34.36919 41.35074 37.85996
#
# Velocity S-wave (km/s) = 4.17817 4.58293 4.38522
# Velocity P-wave (km/s) = 8.22902 8.91844 8.58066
#
# Compressibility (1/GPa) = 0.01142934
#
# Stress axis : x y z
#
# Youngs Moduli (GPa) = 62.27590 104.85079 145.55880
#
# Poissons Ratio (x) = 0.58031 0.36772
# Poissons Ratio (y) = 0.34468 0.35763
# Poissons Ratio (z) = 0.15732 0.25761
#
# Static dielectric constant tensor:
#      x y z
#    x 1.304420 0.134060 -0.191880 
#    y 0.134060 1.630560 0.062970 
#    z -0.191880 0.062970 1.525030 
# 
# From -- ./inp_files/186630.got.cif
#   From: 2010.05.17/outbox.cif.g08.bks.cpg/sg2_94_cif.got.tgz:186630.got - 2010.06.03 11:33:40.
