data_PCOD9061703
_publ_section_title
;
Structure prediction by ZEFSAII (Michael W. Deem and Ramdas Pophale) SiO2 
 PCOD9061703
Probable space group: P -1
;
_chemical_formula_sum "Si O2"
_cell_formula_units_Z 10
_cell_length_a 5.195796
_cell_length_b 9.807942
_cell_length_c 12.186936
_cell_angle_alpha 43.445295
_cell_angle_beta 77.676798
_cell_angle_gamma 69.919092
_cell_volume 400.489563
_symmetry_space_group_name_H-M "P -1"
_symmetry_group_IT_number 2
_symmetry_cell_setting 'triclinic'
loop_
_space_group_symop_operation_xyz
x,y,z
-x,-y,-z
loop_
_atom_site_type_symbol
_atom_site_label
_atom_site_fract_x
_atom_site_fract_y
_atom_site_fract_z
Si Si1 0.014034 0.112465 0.766895
Si Si2 0.224904 0.957818 0.406521
Si Si3 0.692553 0.636124 0.942459
Si Si4 0.673913 0.619031 0.480944
Si Si5 0.369740 0.831914 0.055919
O O1 0.770460 0.256798 0.779347
O O2 0.293049 0.178308 0.704904
O O3 0.923286 0.083161 0.669634
O O4 0.116214 0.904778 0.949752
O O5 0.321162 0.162720 0.250050
O O6 0.482010 0.748265 0.521678
O O7 0.000000 0.000000 0.500000
O O8 0.500000 0.500000 0.000000
O O9 0.605041 0.694141 0.041575
O O10 0.000000 0.500000 0.000000
O O11 0.500000 0.500000 0.500000
O O12 0.000000 0.500000 0.500000
O O13 0.500000 0.000000 0.000000
#
# Coordination Sequence:
#
# PCOD9061703 Si02
#       5
#     2   2   2   2   2
#     4  11  23  47  80 109 152 200 272 317 408 461
#     4  12  28  53  80 115 169 217 263 340 411 485
#     4  12  28  50  77 120 160 207 270 328 404 481
#     4  12  26  48  77 114 154 205 269 328 400 486
#     4  11  23  45  84 108 150 209 260 334 394 475
#
# _framework density 24.969438
#
# number of rings (size 3 to 8) (size 9 to 14) (size 15 to 20)
#    0.000    0.400    6.000    1.200    2.800    4.000 
#    0.000    0.000    0.000    0.000    0.000    0.000 
#    0.000    0.000    0.000    0.000    0.000    0.000 
#
# Total GULP energy -55747.157753 kJ/mol
# GULP energy per Si atom -5574.715775 kJ/mol
# Density = 2.491261 g / cm^3
# Si number density = 24.969438 Si / 1000 Ang^3
#
#
#
# Elastic Constant Matrix: (Units=GPa)
#
#
# Indices 1 2 3 4 5 6 
#
# 1 190.1553 97.8966 39.6026 0.9405 -23.6866 -13.7560
# 2 97.8966 220.7862 42.6176 20.4818 -19.5982 -40.3403
# 3 39.6026 42.6176 41.2047 24.4640 -6.9577 -5.1429
# 4 0.9405 20.4818 24.4640 50.4873 -9.4115 -5.5921
# 5 -23.6866 -19.5982 -6.9577 -9.4115 71.5548 -11.7004
# 6 -13.7560 -40.3403 -5.1429 -5.5921 -11.7004 76.3912
#
#
#
# Elastic Compliance Matrix: (Units=1/GPa)
#
#
# Indices 1 2 3 4 5 6 
#
# 1 0.008519 -0.002364 -0.008520 0.005372 0.002121 0.000430
# 2 -0.002364 0.007147 -0.004437 -0.000113 0.001257 0.003234
# 3 -0.008520 -0.004437 0.049946 -0.023022 -0.002633 -0.002603
# 4 0.005372 -0.000113 -0.023022 0.031927 0.004088 0.002321
# 5 0.002121 0.001257 -0.002633 0.004088 0.015892 0.003602
# 6 0.000430 0.003234 -0.002603 0.002321 0.003602 0.015422
#
#
# Mechanical properties :
#
#
# Convention : Reuss Voigt Hill
#
# Bulk Modulus (GPa) = 28.59596 90.26441 59.43018
# Shear Modulus (GPa) = 29.21348 57.82197 43.51773
#
# Velocity S-wave (km/s) = 3.42419 4.81740 4.17926
# Velocity P-wave (km/s) = 5.20679 8.19583 6.86594
#
# Compressibility (1/GPa) = 0.03496998
#
# Stress axis : x y z
#
# Youngs Moduli (GPa) = 117.38061 139.91936 20.02150
#
# Poissons Ratio (x) = 0.33081 0.17059
# Poissons Ratio (y) = 0.27752 0.08883
# Poissons Ratio (z) = 1.00013 0.62077
#
# Static dielectric constant tensor:
#      x y z
#    x 1.791090 -0.049480 0.517990 
#    y -0.049480 2.068550 -0.216690 
#    z 0.517990 -0.216690 0.970830 
# 
# From -- ./inp_files/143694.got.cif
#   From: 2010.05.17/outbox.cif.g08.bks.cpg/sg2_72_cif.got.tgz:143694.got - 2010.06.03 11:33:40.
