data_PCOD9061937
_publ_section_title
;
Structure prediction by ZEFSAII (Michael W. Deem and Ramdas Pophale) SiO2 
 PCOD9061937
Probable space group: P -1
;
_chemical_formula_sum "Si O2"
_cell_formula_units_Z 16
_cell_length_a 12.399491
_cell_length_b 12.415176
_cell_length_c 11.479957
_cell_angle_alpha 70.152494
_cell_angle_beta 22.136410
_cell_angle_gamma 64.197684
_cell_volume 588.877426
_symmetry_space_group_name_H-M "P -1"
_symmetry_group_IT_number 2
_symmetry_cell_setting 'triclinic'
loop_
_space_group_symop_operation_xyz
x,y,z
-x,-y,-z
loop_
_atom_site_type_symbol
_atom_site_label
_atom_site_fract_x
_atom_site_fract_y
_atom_site_fract_z
Si Si1 0.465887 0.757786 0.990812
Si Si2 0.129294 0.322252 0.051732
Si Si3 0.609406 0.094601 0.778970
Si Si4 0.601204 0.885944 0.582137
Si Si5 0.495810 0.527268 0.295984
Si Si6 0.970043 0.043089 0.200476
Si Si7 0.117444 0.593460 0.418036
Si Si8 0.489030 0.272413 0.479603
O O1 0.278470 0.833667 0.258799
O O2 0.291784 0.671057 0.147171
O O3 0.546273 0.831495 0.779945
O O4 0.794091 0.688070 0.744008
O O5 0.217381 0.430507 0.986405
O O6 0.228429 0.315882 0.821699
O O7 0.768416 0.366631 0.410380
O O8 0.768278 0.168003 0.298554
O O9 0.863878 0.045983 0.441171
O O10 0.500000 0.000000 0.000000
O O11 0.323860 0.191947 0.960977
O O12 0.891724 0.927445 0.271998
O O13 0.602498 0.791625 0.516112
O O14 0.316160 0.012662 0.825431
O O15 0.354863 0.537902 0.303881
O O16 0.555012 0.392587 0.330526
O O17 0.000000 0.500000 0.500000
#
# Coordination Sequence:
#
# PCOD9061937 Si02
#       8
#     2   2   2   2   2   2   2   2
#     4  12  25  45  72 108 144 182 239 285 358 431
#     4  11  26  46  71 107 140 184 238 300 345 421
#     4  11  23  46  74 106 141 186 236 291 360 417
#     4  12  26  47  70 104 146 186 236 296 356 426
#     4  12  24  47  72 104 144 184 240 293 351 420
#     4  11  27  45  71 104 143 187 239 298 349 420
#     4  12  25  45  71 107 148 186 227 289 356 431
#     4  11  27  46  73 101 140 195 239 288 358 418
#
# _framework density 27.170342000000002
#
# number of rings (size 3 to 8) (size 9 to 14) (size 15 to 20)
#    0.000    0.500    3.750    3.375    0.000    9.500 
#    0.000    0.000    0.000    0.000    0.000    0.000 
#    0.000    0.000    0.000    0.000    0.000    0.000 
#
# Total GULP energy -89815.609308 kJ/mol
# GULP energy per Si atom -5613.475582 kJ/mol
# Density = 2.710850 g / cm^3
# Si number density = 27.170342 Si / 1000 Ang^3
#
#
#
# Elastic Constant Matrix: (Units=GPa)
#
#
# Indices 1 2 3 4 5 6 
#
# 1 105.9643 46.7449 -6.7453 -1.0431 4.1225 5.0987
# 2 46.7449 123.1536 10.8897 -27.2686 0.5777 1.0570
# 3 -6.7453 10.8897 68.3456 -16.1792 -13.2115 5.6136
# 4 -1.0431 -27.2686 -16.1792 48.9351 6.1635 5.9305
# 5 4.1225 0.5777 -13.2115 6.1635 28.3840 -0.6852
# 6 5.0987 1.0570 5.6136 5.9305 -0.6852 59.9637
#
#
#
# Elastic Compliance Matrix: (Units=1/GPa)
#
#
# Indices 1 2 3 4 5 6 
#
# 1 0.011786 -0.005011 0.001486 -0.001877 -0.000532 -0.000873
# 2 -0.005011 0.011487 -0.001112 0.006134 -0.001363 -0.000295
# 3 0.001486 -0.001112 0.017559 0.004603 0.006929 -0.002127
# 4 -0.001877 0.006134 0.004603 0.026135 -0.003458 -0.003004
# 5 -0.000532 -0.001363 0.006929 -0.003458 0.039317 0.000212
# 6 -0.000873 -0.000295 -0.002127 -0.003004 0.000212 0.017255
#
#
# Mechanical properties :
#
#
# Convention : Reuss Voigt Hill
#
# Bulk Modulus (GPa) = 31.68565 44.36025 38.02295
# Shear Modulus (GPa) = 34.88411 43.89485 39.38948
#
# Velocity S-wave (km/s) = 3.58705 4.02374 3.81165
# Velocity P-wave (km/s) = 5.37057 6.16032 5.77895
#
# Compressibility (1/GPa) = 0.03156003
#
# Stress axis : x y z
#
# Youngs Moduli (GPa) = 84.84357 87.05293 56.95088
#
# Poissons Ratio (x) = 0.43619 -0.08465
# Poissons Ratio (y) = 0.42512 0.06333
# Poissons Ratio (z) = -0.12611 0.09680
#
# Static dielectric constant tensor:
#      x y z
#    x 2.162390 -0.002480 -0.017380 
#    y -0.002480 2.152330 0.039230 
#    z -0.017380 0.039230 2.039370 
# 
# From -- ./inp_files/434013.got.cif
#   From: 2010.05.17/outbox.cif.g08.bks.cpg/sg2_218_cif.got.tgz:434013.got - 2010.06.03 11:33:40.
