data_PCOD9061080
_publ_section_title
;
Structure prediction by ZEFSAII (Michael W. Deem and Ramdas Pophale) SiO2 
 PCOD9061080
Probable space group: P -1
;
_chemical_formula_sum "Si O2"
_cell_formula_units_Z 16
_cell_length_a 13.898670
_cell_length_b 12.783118
_cell_length_c 8.632455
_cell_angle_alpha 102.848852
_cell_angle_beta 147.200915
_cell_angle_gamma 91.337380
_cell_volume 743.036706
_symmetry_space_group_name_H-M "P -1"
_symmetry_group_IT_number 2
_symmetry_cell_setting 'triclinic'
loop_
_space_group_symop_operation_xyz
x,y,z
-x,-y,-z
loop_
_atom_site_type_symbol
_atom_site_label
_atom_site_fract_x
_atom_site_fract_y
_atom_site_fract_z
Si Si1 0.343646 0.737809 0.391795
Si Si2 0.831668 0.378245 0.182258
Si Si3 0.654577 0.885173 0.606431
Si Si4 0.858282 0.710926 0.393775
Si Si5 0.018547 0.021349 0.349612
Si Si6 0.517103 0.569718 0.701405
Si Si7 0.404136 0.352259 0.687460
Si Si8 0.346205 0.960206 0.635837
O O1 0.486330 0.820819 0.480896
O O2 0.434903 0.668785 0.601362
O O3 0.300536 0.830563 0.467651
O O4 0.196803 0.637720 0.047729
O O5 0.000000 0.500000 0.500000
O O6 0.927153 0.286071 0.317598
O O7 0.629760 0.363686 0.987454
O O8 0.705017 0.777393 0.576811
O O9 0.600778 0.949258 0.409784
O O10 0.826224 0.976952 0.970667
O O11 0.872834 0.840600 0.469147
O O12 0.710107 0.647315 0.311206
O O13 0.742456 0.639458 0.067129
O O14 0.150439 0.960960 0.438728
O O15 0.000000 0.000000 0.500000
O O16 0.500000 0.500000 0.500000
O O17 0.410855 0.465503 0.642369
O O18 0.500000 0.000000 0.000000
#
# Coordination Sequence:
#
# PCOD9061080 Si02
#       8
#     2   2   2   2   2   2   2   2
#     4  11  25  44  74 106 145 189 240 305 372 436
#     4  11  23  44  72 106 137 185 246 293 359 436
#     4  11  23  46  72 102 144 193 237 298 372 431
#     4  12  25  46  74 100 144 190 247 291 371 438
#     4  12  27  46  71 106 147 192 244 302 369 447
#     4  12  22  45  71 102 144 190 236 300 364 431
#     4  11  25  44  77 102 144 193 237 299 366 435
#     4  12  25  44  70 106 147 184 247 304 361 436
#
# _framework density 21.533256000000002
#
# number of rings (size 3 to 8) (size 9 to 14) (size 15 to 20)
#    0.000    0.500    5.000    4.125    1.750    3.000 
#    0.000    0.625    0.000    0.000    0.000    0.000 
#    0.000    0.000    0.000    0.000    0.000    0.000 
#
# Total GULP energy -89286.269280 kJ/mol
# GULP energy per Si atom -5580.391830 kJ/mol
# Density = 2.148425 g / cm^3
# Si number density = 21.533256 Si / 1000 Ang^3
#
#
#
# Elastic Constant Matrix: (Units=GPa)
#
#
# Indices 1 2 3 4 5 6 
#
# 1 109.9219 63.4239 32.9572 -4.4400 -2.8462 -8.5745
# 2 63.4239 144.8847 33.8667 -13.2164 -5.5930 0.4647
# 3 32.9572 33.8667 116.3290 2.0193 -22.1006 12.4261
# 4 -4.4400 -13.2164 2.0193 39.5024 -6.6673 -2.3184
# 5 -2.8462 -5.5930 -22.1006 -6.6673 22.2251 -0.0285
# 6 -8.5745 0.4647 12.4261 -2.3184 -0.0285 41.9881
#
#
#
# Elastic Compliance Matrix: (Units=1/GPa)
#
#
# Indices 1 2 3 4 5 6 
#
# 1 0.013256 -0.005218 -0.003169 -0.000362 -0.002870 0.003681
# 2 -0.005218 0.009763 -0.001025 0.002971 0.001660 -0.000705
# 3 -0.003169 -0.001025 0.012504 0.000416 0.011889 -0.004305
# 4 -0.000362 0.002971 0.000416 0.027927 0.009494 0.001319
# 5 -0.002870 0.001660 0.011889 0.009494 0.059711 -0.003558
# 6 0.003681 -0.000705 -0.004305 0.001319 -0.003558 0.025920
#
#
# Mechanical properties :
#
#
# Convention : Reuss Voigt Hill
#
# Bulk Modulus (GPa) = 59.88014 70.18124 65.03069
# Shear Modulus (GPa) = 28.82326 36.80231 32.81278
#
# Velocity S-wave (km/s) = 3.66258 4.13860 3.90785
# Velocity P-wave (km/s) = 6.76422 7.44984 7.11529
#
# Compressibility (1/GPa) = 0.01670003
#
# Stress axis : x y z
#
# Youngs Moduli (GPa) = 75.43575 102.42571 79.97526
#
# Poissons Ratio (x) = 0.53445 0.25342
# Poissons Ratio (y) = 0.39362 0.08197
# Poissons Ratio (z) = 0.23904 0.10498
#
# Static dielectric constant tensor:
#      x y z
#    x 1.653490 -0.048700 0.055440 
#    y -0.048700 1.825140 -0.014860 
#    z 0.055440 -0.014860 1.774910 
# 
# From -- ./inp_files/307853.got.cif
#   From: 2010.05.17/outbox.cif.g08.bks.cpg/sg2_154_cif.got.tgz:307853.got - 2010.06.03 11:33:40.
