data_PCOD9061504
_publ_section_title
;
Structure prediction by ZEFSAII (Michael W. Deem and Ramdas Pophale) SiO2 
 PCOD9061504
Probable space group: P -1
;
_chemical_formula_sum "Si O2"
_cell_formula_units_Z 16
_cell_length_a 9.184725
_cell_length_b 11.542378
_cell_length_c 13.896998
_cell_angle_alpha 104.686566
_cell_angle_beta 133.924332
_cell_angle_gamma 109.906208
_cell_volume 689.135509
_symmetry_space_group_name_H-M "P -1"
_symmetry_group_IT_number 2
_symmetry_cell_setting 'triclinic'
loop_
_space_group_symop_operation_xyz
x,y,z
-x,-y,-z
loop_
_atom_site_type_symbol
_atom_site_label
_atom_site_fract_x
_atom_site_fract_y
_atom_site_fract_z
Si Si1 0.161660 0.309051 0.802086
Si Si2 0.320166 0.758764 0.405171
Si Si3 0.334982 0.177237 0.149785
Si Si4 0.298764 0.516567 0.456982
Si Si5 0.077337 0.855320 0.156545
Si Si6 0.213592 0.076989 0.704109
Si Si7 0.735878 0.290379 0.850590
Si Si8 0.719423 0.144735 0.213727
O O1 0.152085 0.163576 0.760839
O O2 0.912270 0.274215 0.624972
O O3 0.983090 0.266474 0.809248
O O4 0.500000 0.500000 0.000000
O O5 0.237724 0.586564 0.360161
O O6 0.431273 0.792131 0.347443
O O7 0.639748 0.944385 0.637456
O O8 0.512378 0.332056 0.341773
O O9 0.531713 0.153514 0.196869
O O10 0.231487 0.213574 0.019882
O O11 0.000000 0.000000 0.000000
O O12 0.500000 0.500000 0.500000
O O13 0.999317 0.333355 0.330901
O O14 0.155389 0.797611 0.096185
O O15 0.539611 0.240888 0.840893
O O16 0.177961 0.930541 0.700284
O O17 0.000000 0.000000 0.500000
O O18 0.000000 0.500000 0.000000
O O19 0.500000 0.000000 0.000000
#
# Coordination Sequence:
#
# PCOD9061504 Si02
#       8
#     2   2   2   2   2   2   2   2
#     4  11  25  43  71 106 141 191 238 308 370 445
#     4  11  25  48  73 102 149 195 252 300 384 447
#     4  12  25  49  76 108 151 199 253 312 386 458
#     4  12  30  49  78 108 154 203 257 317 385 466
#     4  11  23  45  72 100 144 194 245 299 380 454
#     4  12  26  44  74 103 147 184 245 309 373 441
#     4  11  25  42  71 107 140 189 245 307 364 451
#     4  12  30  49  77 116 156 203 256 318 390 466
#
# _framework density 23.217496000000001
#
# number of rings (size 3 to 8) (size 9 to 14) (size 15 to 20)
#    0.000    0.500    1.250    7.125   12.250    1.000 
#    0.000    0.000    0.000    0.000    0.000    0.000 
#    0.000    0.000    0.000    0.000    0.000    0.000 
#
# Total GULP energy -89199.902066 kJ/mol
# GULP energy per Si atom -5574.993879 kJ/mol
# Density = 2.316465 g / cm^3
# Si number density = 23.217496 Si / 1000 Ang^3
#
#
#
# Elastic Constant Matrix: (Units=GPa)
#
#
# Indices 1 2 3 4 5 6 
#
# 1 161.8368 77.0704 41.2861 -5.1068 16.3649 -25.7779
# 2 77.0704 389.7323 46.0743 -119.5712 67.8190 -23.9366
# 3 41.2861 46.0743 115.6994 11.9924 5.2738 -0.6616
# 4 -5.1068 -119.5712 11.9924 108.5989 -16.1431 15.7459
# 5 16.3649 67.8190 5.2738 -16.1431 54.2322 3.1493
# 6 -25.7779 -23.9366 -0.6616 15.7459 3.1493 44.8395
#
#
#
# Elastic Compliance Matrix: (Units=1/GPa)
#
#
# Indices 1 2 3 4 5 6 
#
# 1 0.008204 -0.001419 -0.002088 -0.001816 -0.001310 0.004658
# 2 -0.001419 0.005713 -0.002131 0.005656 -0.004858 0.000558
# 3 -0.002088 -0.002131 0.010502 -0.003233 0.001377 -0.001144
# 4 -0.001816 0.005656 -0.003233 0.016051 -0.001222 -0.003623
# 5 -0.001310 -0.004858 0.001377 -0.001222 0.024681 -0.004630
# 6 0.004658 0.000558 -0.001144 -0.003623 -0.004630 0.026858
#
#
# Mechanical properties :
#
#
# Convention : Reuss Voigt Hill
#
# Bulk Modulus (GPa) = 76.07247 110.68113 93.37680
# Shear Modulus (GPa) = 46.43992 75.05662 60.74827
#
# Velocity S-wave (km/s) = 4.47723 5.69191 5.12071
# Velocity P-wave (km/s) = 7.71775 9.53792 8.67570
#
# Compressibility (1/GPa) = 0.01314536
#
# Stress axis : x y z
#
# Youngs Moduli (GPa) = 121.88473 175.03449 95.21574
#
# Poissons Ratio (x) = 0.24831 0.19883
# Poissons Ratio (y) = 0.17291 0.20286
# Poissons Ratio (z) = 0.25452 0.37291
#
# Static dielectric constant tensor:
#      x y z
#    x 1.888190 0.082220 0.010700 
#    y 0.082220 1.821430 0.079110 
#    z 0.010700 0.079110 1.936960 
# 
# From -- ./inp_files/381348.got.cif
#   From: 2010.05.17/outbox.cif.g08.bks.cpg/sg2_191_cif.got.tgz:381348.got - 2010.06.03 11:33:40.
