data_PCOD9061717
_publ_section_title
;
Structure prediction by ZEFSAII (Michael W. Deem and Ramdas Pophale) SiO2 
 PCOD9061717
Probable space group: P -1
;
_chemical_formula_sum "Si O2"
_cell_formula_units_Z 12
_cell_length_a 7.458476
_cell_length_b 12.370304
_cell_length_c 7.030845
_cell_angle_alpha 58.226674
_cell_angle_beta 59.335392
_cell_angle_gamma 85.355610
_cell_volume 458.490292
_symmetry_space_group_name_H-M "P -1"
_symmetry_group_IT_number 2
_symmetry_cell_setting 'triclinic'
loop_
_space_group_symop_operation_xyz
x,y,z
-x,-y,-z
loop_
_atom_site_type_symbol
_atom_site_label
_atom_site_fract_x
_atom_site_fract_y
_atom_site_fract_z
Si Si1 0.626087 0.687015 0.418566
Si Si2 0.993110 0.177416 0.315977
Si Si3 0.028657 0.620864 0.150029
Si Si4 0.500715 0.056489 0.655808
Si Si5 0.098789 0.966987 0.174346
Si Si6 0.351751 0.587426 0.300650
O O1 0.559956 0.804802 0.442349
O O2 0.522331 0.676192 0.269859
O O3 0.549065 0.537540 0.678598
O O4 0.882282 0.701654 0.265131
O O5 0.746802 0.092641 0.550300
O O6 0.055781 0.157931 0.516244
O O7 0.977570 0.316503 0.112051
O O8 0.099642 0.093671 0.191472
O O9 0.255655 0.636358 0.117796
O O10 0.869623 0.475510 0.399582
O O11 0.500000 0.000000 0.500000
O O12 0.333177 0.961176 0.974495
O O13 0.000000 0.000000 0.000000
#
# Coordination Sequence:
#
# PCOD9061717 Si02
#       6
#     2   2   2   2   2   2
#     4   9  18  38  67 102 140 183 235 293 350 421
#     4  11  24  41  70 102 134 187 239 285 362 422
#     4   9  17  39  68 104 137 178 235 297 367 406
#     4  12  24  43  66 101 145 186 230 288 360 426
#     4  11  23  46  66  93 147 182 236 293 348 430
#     4   8  17  37  74  98 141 185 229 308 350 414
#
# _framework density 26.172854999999998
#
# number of rings (size 3 to 8) (size 9 to 14) (size 15 to 20)
#    1.000    1.000    3.333    0.500    0.000    1.333 
#    6.000    1.667    0.000    0.000    0.000    0.000 
#    0.000    0.000    0.000    0.000    0.000    0.000 
#
# Total GULP energy -66922.260237 kJ/mol
# GULP energy per Si atom -5576.855020 kJ/mol
# Density = 2.611328 g / cm^3
# Si number density = 26.172855 Si / 1000 Ang^3
#
#
#
# Elastic Constant Matrix: (Units=GPa)
#
#
# Indices 1 2 3 4 5 6 
#
# 1 102.6362 27.2653 -0.9017 -1.1587 22.6547 -16.2349
# 2 27.2653 128.5631 30.5068 20.9536 15.7731 -16.5888
# 3 -0.9017 30.5068 144.4160 1.5948 31.5629 0.6507
# 4 -1.1587 20.9536 1.5948 40.6476 -10.0257 0.7700
# 5 22.6547 15.7731 31.5629 -10.0257 46.2725 -1.5355
# 6 -16.2349 -16.5888 0.6507 0.7700 -1.5355 28.6855
#
#
#
# Elastic Compliance Matrix: (Units=1/GPa)
#
#
# Indices 1 2 3 4 5 6 
#
# 1 0.012587 -0.001353 0.001869 -0.000847 -0.006962 0.005949
# 2 -0.001353 0.010510 -0.001514 -0.006255 -0.003065 0.005350
# 3 0.001869 -0.001514 0.008712 -0.001129 -0.006597 -0.000338
# 4 -0.000847 -0.006255 -0.001129 0.030332 0.009744 -0.004363
# 5 -0.006962 -0.003065 -0.006597 0.009744 0.032540 -0.004083
# 6 0.005949 0.005350 -0.000338 -0.004363 -0.004083 0.041228
#
#
# Mechanical properties :
#
#
# Convention : Reuss Voigt Hill
#
# Bulk Modulus (GPa) = 33.54285 54.37290 43.95788
# Shear Modulus (GPa) = 33.81955 44.37077 39.09516
#
# Velocity S-wave (km/s) = 3.59856 4.12187 3.86907
# Velocity P-wave (km/s) = 5.48725 6.59338 6.06558
#
# Compressibility (1/GPa) = 0.02981261
#
# Stress axis : x y z
#
# Youngs Moduli (GPa) = 79.44595 95.14494 114.78844
#
# Poissons Ratio (x) = 0.12873 -0.21449
# Poissons Ratio (y) = 0.10749 0.17376
# Poissons Ratio (z) = -0.14845 0.14403
#
# Static dielectric constant tensor:
#      x y z
#    x 1.617370 0.024890 -0.488870 
#    y 0.024890 2.041580 -0.050710 
#    z -0.488870 -0.050710 1.714820 
# 
# From -- ./inp_files/34007.got.cif
#   From: 2010.05.17/outbox.cif.g08.bks.cpg/sg2_18_cif.got.tgz:34007.got - 2010.06.03 11:33:40.
