data_PCOD9061546
_publ_section_title
;
Structure prediction by ZEFSAII (Michael W. Deem and Ramdas Pophale) SiO2 
 PCOD9061546
Probable space group: P -1
;
_chemical_formula_sum "Si O2"
_cell_formula_units_Z 16
_cell_length_a 11.618369
_cell_length_b 7.927248
_cell_length_c 12.305909
_cell_angle_alpha 127.902102
_cell_angle_beta 103.588573
_cell_angle_gamma 52.168935
_cell_volume 687.817714
_symmetry_space_group_name_H-M "P -1"
_symmetry_group_IT_number 2
_symmetry_cell_setting 'triclinic'
loop_
_space_group_symop_operation_xyz
x,y,z
-x,-y,-z
loop_
_atom_site_type_symbol
_atom_site_label
_atom_site_fract_x
_atom_site_fract_y
_atom_site_fract_z
Si Si1 0.259475 0.374843 0.805429
Si Si2 0.022444 0.855985 0.616611
Si Si3 0.632687 0.723922 0.864373
Si Si4 0.387422 0.983991 0.226434
Si Si5 0.320479 0.349462 0.557736
Si Si6 0.219031 0.741387 0.113876
Si Si7 0.577409 0.366388 0.577888
Si Si8 0.901624 0.835519 0.378266
O O1 0.433189 0.169554 0.801529
O O2 0.270549 0.355339 0.670050
O O3 0.148553 0.297759 0.766042
O O4 0.193539 0.658111 0.959288
O O5 0.194610 0.649760 0.605224
O O6 0.984294 0.711772 0.463591
O O7 0.003812 0.097591 0.642213
O O8 0.916412 0.986340 0.749074
O O9 0.735641 0.506046 0.894442
O O10 0.571051 0.582577 0.734277
O O11 0.689120 0.816676 0.816231
O O12 0.500000 0.000000 0.000000
O O13 0.348374 0.776963 0.142681
O O14 0.330836 0.156528 0.392689
O O15 0.481523 0.282667 0.574484
O O16 0.500000 0.500000 0.500000
O O17 0.746442 0.113586 0.493901
#
# Coordination Sequence:
#
# PCOD9061546 Si02
#       8
#     2   2   2   2   2   2   2   2
#     4  12  26  45  71 109 143 190 245 304 358 426
#     4  11  26  47  71 105 147 196 234 298 367 441
#     4  12  25  43  73 107 145 193 235 296 372 426
#     4  12  25  47  74 110 146 190 246 308 359 421
#     4  12  26  43  77 108 139 191 246 304 360 425
#     4  12  28  48  69 108 158 193 234 298 372 440
#     4  12  21  43  72 107 137 178 253 303 344 423
#     4  11  23  45  73 101 144 182 245 300 352 424
#
# _framework density 23.261979
#
# number of rings (size 3 to 8) (size 9 to 14) (size 15 to 20)
#    0.000    0.250    6.250    2.250    3.500    3.000 
#    0.000    0.000    0.000    0.000    0.000    0.000 
#    0.000    0.000    0.000    0.000    0.000    0.000 
#
# Total GULP energy -89491.336669 kJ/mol
# GULP energy per Si atom -5593.208542 kJ/mol
# Density = 2.320903 g / cm^3
# Si number density = 23.261979 Si / 1000 Ang^3
#
#
#
# Elastic Constant Matrix: (Units=GPa)
#
#
# Indices 1 2 3 4 5 6 
#
# 1 86.5800 0.2617 27.3922 -1.6693 6.4207 -1.1284
# 2 0.2617 57.0351 -3.9181 -5.7891 -16.7495 9.6192
# 3 27.3922 -3.9181 148.6382 9.6698 1.5474 2.8955
# 4 -1.6693 -5.7891 9.6698 27.2508 9.0515 -5.4784
# 5 6.4207 -16.7495 1.5474 9.0515 28.6096 -0.8776
# 6 -1.1284 9.6192 2.8955 -5.4784 -0.8776 29.7056
#
#
#
# Elastic Compliance Matrix: (Units=1/GPa)
#
#
# Indices 1 2 3 4 5 6 
#
# 1 0.012804 -0.001551 -0.002597 0.003253 -0.004618 0.001705
# 2 -0.001551 0.022786 0.000999 -0.001741 0.013957 -0.007444
# 3 -0.002597 0.000999 0.007480 -0.003564 0.001837 -0.001754
# 4 0.003253 -0.001741 -0.003564 0.044686 -0.015424 0.008820
# 5 -0.004618 0.013957 0.001837 -0.015424 0.048748 -0.006278
# 6 0.001705 -0.007444 -0.001754 0.008820 -0.006278 0.037751
#
#
# Mechanical properties :
#
#
# Convention : Reuss Voigt Hill
#
# Bulk Modulus (GPa) = 27.19416 37.74721 32.47068
# Shear Modulus (GPa) = 25.93224 35.01437 30.47331
#
# Velocity S-wave (km/s) = 3.34247 3.88392 3.62333
# Velocity P-wave (km/s) = 5.15867 6.03120 5.61192
#
# Compressibility (1/GPa) = 0.03677260
#
# Stress axis : x y z
#
# Youngs Moduli (GPa) = 78.10175 43.88622 133.69661
#
# Poissons Ratio (x) = 0.06805 0.34724
# Poissons Ratio (y) = 0.12111 -0.13362
# Poissons Ratio (z) = 0.20285 -0.04386
#
# Static dielectric constant tensor:
#      x y z
#    x 2.977330 0.041110 0.296860 
#    y 0.041110 1.929860 -0.018850 
#    z 0.296860 -0.018850 1.929050 
# 
# From -- ./inp_files/243956.got.cif
#   From: 2010.05.17/outbox.cif.g08.bks.cpg/sg2_122_cif.got.tgz:243956.got - 2010.06.03 11:33:40.
