data_PCOD9061981
_publ_section_title
;
Structure prediction by ZEFSAII (Michael W. Deem and Ramdas Pophale) SiO2 
 PCOD9061981
Probable space group: P -1
;
_chemical_formula_sum "Si O2"
_cell_formula_units_Z 13
_cell_length_a 8.697810
_cell_length_b 5.746038
_cell_length_c 16.823260
_cell_angle_alpha 90.439812
_cell_angle_beta 122.047807
_cell_angle_gamma 124.152047
_cell_volume 530.861002
_symmetry_space_group_name_H-M "P -1"
_symmetry_group_IT_number 2
_symmetry_cell_setting 'triclinic'
loop_
_space_group_symop_operation_xyz
x,y,z
-x,-y,-z
loop_
_atom_site_type_symbol
_atom_site_label
_atom_site_fract_x
_atom_site_fract_y
_atom_site_fract_z
Si Si1 0.849771 0.320227 0.722846
Si Si2 0.496281 0.450925 0.865318
Si Si3 0.580437 0.707732 0.445324
Si Si4 0.287475 0.627384 0.939309
Si Si5 0.486560 0.287839 0.290782
Si Si6 0.171997 0.803440 0.682843
Si Si7 0.000000 0.000000 0.500000
O O1 0.636298 0.321119 0.646351
O O2 0.025944 0.512998 0.847074
O O3 0.021342 0.501001 0.695738
O O4 0.725673 0.966301 0.707306
O O5 0.359227 0.509753 0.887847
O O6 0.590079 0.657981 0.811941
O O7 0.308409 0.098289 0.780650
O O8 0.699642 0.499900 0.974772
O O9 0.500000 0.500000 0.500000
O O10 0.660398 0.610831 0.389935
O O11 0.839813 0.048713 0.518340
O O12 0.500000 0.000000 0.000000
O O13 0.624890 0.173803 0.305651
O O14 0.017800 0.821868 0.580031
#
# Coordination Sequence:
#
# PCOD9061981 Si02
#       7
#     2   2   2   2   2   2   1
#     4  12  26  45  74 107 147 186 250 303 357 438
#     4  11  23  46  76 106 149 192 243 298 371 434
#     4  12  28  46  71 109 146 190 250 303 364 435
#     4  11  24  44  78 111 143 197 242 301 369 427
#     4  12  26  47  72 108 146 194 241 307 367 433
#     4  12  25  49  73 108 150 189 246 305 364 435
#     4  12  24  50  76 100 150 194 240 300 372 434
#
# _framework density 24.488517999999999
#
# number of rings (size 3 to 8) (size 9 to 14) (size 15 to 20)
#    0.000    0.308    7.692    0.000    2.154    3.077 
#    2.769    5.385    0.000    0.000    0.000    0.000 
#    0.000    0.000    0.000    0.000    0.000    0.000 
#
# Total GULP energy -72582.465135 kJ/mol
# GULP energy per Si atom -5583.266549 kJ/mol
# Density = 2.443278 g / cm^3
# Si number density = 24.488518 Si / 1000 Ang^3
#
#
#
# Elastic Constant Matrix: (Units=GPa)
#
#
# Indices 1 2 3 4 5 6 
#
# 1 24.2743 17.8282 19.2095 -9.4380 -2.6066 9.5766
# 2 17.8282 132.1176 71.8719 -30.9255 -13.7594 22.9424
# 3 19.2095 71.8719 172.9925 -59.6116 11.5886 -4.6734
# 4 -9.4380 -30.9255 -59.6116 65.0803 -13.1826 -14.5251
# 5 -2.6066 -13.7594 11.5886 -13.1826 54.6023 1.7910
# 6 9.5766 22.9424 -4.6734 -14.5251 1.7910 47.7657
#
#
#
# Elastic Compliance Matrix: (Units=1/GPa)
#
#
# Indices 1 2 3 4 5 6 
#
# 1 0.051170 -0.001861 -0.005386 0.000072 0.003462 -0.010000
# 2 -0.001861 0.012257 -0.005252 0.000267 0.004379 -0.006111
# 3 -0.005386 -0.005252 0.012002 0.008961 -0.002213 0.007585
# 4 0.000072 0.000267 0.008961 0.026506 0.004285 0.008633
# 5 0.003462 0.004379 -0.002213 0.004285 0.021170 -0.002505
# 6 -0.010000 -0.006111 0.007585 0.008633 -0.002505 0.029337
#
#
# Mechanical properties :
#
#
# Convention : Reuss Voigt Hill
#
# Bulk Modulus (GPa) = 19.82929 60.80041 40.31485
# Shear Modulus (GPa) = 25.74011 48.18799 36.96405
#
# Velocity S-wave (km/s) = 3.24560 4.44078 3.88937
# Velocity P-wave (km/s) = 4.70746 7.15374 6.05542
#
# Compressibility (1/GPa) = 0.05043046
#
# Stress axis : x y z
#
# Youngs Moduli (GPa) = 19.54275 81.58544 83.32101
#
# Poissons Ratio (x) = 0.15182 0.44877
# Poissons Ratio (y) = 0.03637 0.43762
# Poissons Ratio (z) = 0.10526 0.42850
#
# Static dielectric constant tensor:
#      x y z
#    x 2.089330 0.087980 0.155140 
#    y 0.087980 2.085440 0.167240 
#    z 0.155140 0.167240 2.109040 
# 
# From -- ./inp_files/33056.got.cif
#   From: 2010.05.17/outbox.cif.g08.bks.cpg/sg2_17_cif.got.tgz:33056.got - 2010.06.03 11:33:40.
