data_PCOD9061506
_publ_section_title
;
Structure prediction by ZEFSAII (Michael W. Deem and Ramdas Pophale) SiO2 
 PCOD9061506
Probable space group: P -1
;
_chemical_formula_sum "Si O2"
_cell_formula_units_Z 12
_cell_length_a 21.054643
_cell_length_b 16.475654
_cell_length_c 5.022481
_cell_angle_alpha 115.188342
_cell_angle_beta 117.610052
_cell_angle_gamma 16.730154
_cell_volume 443.279555
_symmetry_space_group_name_H-M "P -1"
_symmetry_group_IT_number 2
_symmetry_cell_setting 'triclinic'
loop_
_space_group_symop_operation_xyz
x,y,z
-x,-y,-z
loop_
_atom_site_type_symbol
_atom_site_label
_atom_site_fract_x
_atom_site_fract_y
_atom_site_fract_z
Si Si1 0.778609 0.844337 0.720639
Si Si2 0.547940 0.607518 0.011852
Si Si3 0.085882 0.639933 0.990360
Si Si4 0.590321 0.985775 0.040111
Si Si5 0.990302 0.926288 0.572208
Si Si6 0.317254 0.812789 0.341779
O O1 0.573260 0.158581 0.793138
O O2 0.756374 0.833033 0.366018
O O3 0.721571 0.834054 0.804885
O O4 0.994763 0.650827 0.927319
O O5 0.810958 0.301472 0.146073
O O6 0.442814 0.660881 0.092329
O O7 0.466924 0.689236 0.669508
O O8 0.920479 0.855022 0.719077
O O9 0.351350 0.322000 0.013552
O O10 0.031107 0.787661 0.286067
O O11 0.500000 0.000000 0.000000
O O12 0.759954 0.184585 0.649408
O O13 0.000000 0.000000 0.500000
#
# Coordination Sequence:
#
# PCOD9061506 Si02
#       6
#     2   2   2   2   2   2
#     4  11  23  45  72 101 143 182 231 282 352 417
#     4  11  24  45  72 100 138 189 232 286 345 416
#     4  11  26  46  75 101 143 191 233 285 353 417
#     4  12  27  45  73 108 140 179 232 292 352 417
#     4  12  27  45  72 108 142 186 240 291 345 414
#     4  11  24  46  68 103 136 188 236 286 349 409
#
# _framework density 27.070951999999998
#
# number of rings (size 3 to 8) (size 9 to 14) (size 15 to 20)
#    0.000    0.667    5.000    3.500    2.333    3.333 
#    0.000    0.000    0.000    0.000    0.000    0.000 
#    0.000    0.000    0.000    0.000    0.000    0.000 
#
# Total GULP energy -67346.866541 kJ/mol
# GULP energy per Si atom -5612.238878 kJ/mol
# Density = 2.700934 g / cm^3
# Si number density = 27.070952 Si / 1000 Ang^3
#
#
#
# Elastic Constant Matrix: (Units=GPa)
#
#
# Indices 1 2 3 4 5 6 
#
# 1 161.1905 31.4900 23.4764 -9.5228 3.8981 -27.1422
# 2 31.4900 99.4838 41.1947 -14.4963 -5.7957 -24.4873
# 3 23.4764 41.1947 164.9738 -31.5451 -13.8179 1.6164
# 4 -9.5228 -14.4963 -31.5451 31.3382 -4.3704 7.8444
# 5 3.8981 -5.7957 -13.8179 -4.3704 52.4605 1.5107
# 6 -27.1422 -24.4873 1.6164 7.8444 1.5107 53.5044
#
#
#
# Elastic Compliance Matrix: (Units=1/GPa)
#
#
# Indices 1 2 3 4 5 6 
#
# 1 0.007105 -0.001207 -0.000859 -0.000187 -0.000994 0.003134
# 2 -0.001207 0.013165 -0.002765 0.001747 0.000811 0.005217
# 3 -0.000859 -0.002765 0.008777 0.008521 0.002875 -0.003297
# 4 -0.000187 0.001747 0.008521 0.043646 0.006264 -0.006129
# 5 -0.000994 0.000811 0.002875 0.006264 0.020554 -0.001718
# 6 0.003134 0.005217 -0.003297 -0.006129 -0.001718 0.023714
#
#
# Mechanical properties :
#
#
# Convention : Reuss Voigt Hill
#
# Bulk Modulus (GPa) = 51.58756 68.66336 60.12546
# Shear Modulus (GPa) = 37.57014 49.42642 43.49828
#
# Velocity S-wave (km/s) = 3.72941 4.27759 4.01287
# Velocity P-wave (km/s) = 6.13535 7.05806 6.61282
#
# Compressibility (1/GPa) = 0.01938452
#
# Stress axis : x y z
#
# Youngs Moduli (GPa) = 140.73732 75.96012 113.93976
#
# Poissons Ratio (x) = 0.09169 0.09792
# Poissons Ratio (y) = 0.16989 0.31500
# Poissons Ratio (z) = 0.12095 0.21000
#
# Static dielectric constant tensor:
#      x y z
#    x 2.239870 0.060690 0.027340 
#    y 0.060690 2.120630 0.003590 
#    z 0.027340 0.003590 2.021390 
# 
# From -- ./inp_files/119609.got.cif
#   From: 2010.05.17/outbox.cif.g08.bks.cpg/sg2_60_cif.got.tgz:119609.got - 2010.06.03 11:33:40.
