data_PCOD9061734
_publ_section_title
;
Structure prediction by ZEFSAII (Michael W. Deem and Ramdas Pophale) SiO2 
 PCOD9061734
Probable space group: P -1
;
_chemical_formula_sum "Si O2"
_cell_formula_units_Z 16
_cell_length_a 20.930435
_cell_length_b 5.502294
_cell_length_c 17.413915
_cell_angle_alpha 102.186274
_cell_angle_beta 19.378829
_cell_angle_gamma 99.937576
_cell_volume 648.264903
_symmetry_space_group_name_H-M "P -1"
_symmetry_group_IT_number 2
_symmetry_cell_setting 'triclinic'
loop_
_space_group_symop_operation_xyz
x,y,z
-x,-y,-z
loop_
_atom_site_type_symbol
_atom_site_label
_atom_site_fract_x
_atom_site_fract_y
_atom_site_fract_z
Si Si1 0.199897 0.122794 0.270669
Si Si2 0.974583 0.788170 0.233180
Si Si3 0.558091 0.280037 0.097025
Si Si4 0.814488 0.673447 0.871079
Si Si5 0.409605 0.875940 0.783641
Si Si6 0.325205 0.056546 0.643147
Si Si7 0.802817 0.578519 0.553958
Si Si8 0.935060 0.235397 0.181992
O O1 0.192774 0.210635 0.196872
O O2 0.214292 0.329084 0.333156
O O3 0.000000 0.000000 0.500000
O O4 0.385035 0.922836 0.045590
O O5 0.918834 0.519930 0.247343
O O6 0.868259 0.798413 0.437886
O O7 0.935207 0.014270 0.232046
O O8 0.206260 0.764335 0.986682
O O9 0.401427 0.480759 0.252681
O O10 0.500628 0.181269 0.238200
O O11 0.752035 0.400677 0.908103
O O12 0.030411 0.642220 0.654467
O O13 0.666659 0.829525 0.104744
O O14 0.570618 0.806670 0.534133
O O15 0.233353 0.823190 0.690595
O O16 0.500000 0.000000 0.500000
O O17 0.142028 0.195977 0.901908
#
# Coordination Sequence:
#
# PCOD9061734 Si02
#       8
#     2   2   2   2   2   2   2   2
#     4  11  23  46  67  97 146 186 243 307 370 432
#     4  12  25  50  77 106 155 196 248 306 377 440
#     4  11  25  44  68 104 138 194 243 303 368 447
#     4  11  24  46  68 102 146 186 246 306 370 435
#     4  11  24  48  73 105 150 195 243 308 376 445
#     4  11  25  49  78 109 149 195 243 308 373 449
#     4  12  24  43  73 102 141 194 242 307 364 441
#     4  11  28  51  73 116 149 196 249 309 371 452
#
# _framework density 24.681269
#
# number of rings (size 3 to 8) (size 9 to 14) (size 15 to 20)
#    0.000    0.750    3.750    3.000    1.750    3.000 
#   13.500    0.000    0.000    0.000    0.000    0.000 
#    0.000    0.000    0.000    0.000    0.000    0.000 
#
# Total GULP energy -89481.350553 kJ/mol
# GULP energy per Si atom -5592.584410 kJ/mol
# Density = 2.462509 g / cm^3
# Si number density = 24.681269 Si / 1000 Ang^3
#
#
#
# Elastic Constant Matrix: (Units=GPa)
#
#
# Indices 1 2 3 4 5 6 
#
# 1 110.6173 31.8092 42.7725 6.3761 -17.4081 9.1841
# 2 31.8092 78.4050 4.7122 8.7881 1.5210 6.8845
# 3 42.7725 4.7122 90.6872 1.1869 -4.3908 -8.4576
# 4 6.3761 8.7881 1.1869 24.9696 -5.8055 -4.1003
# 5 -17.4081 1.5210 -4.3908 -5.8055 57.4520 -6.8858
# 6 9.1841 6.8845 -8.4576 -4.1003 -6.8858 30.8924
#
#
#
# Elastic Compliance Matrix: (Units=1/GPa)
#
#
# Indices 1 2 3 4 5 6 
#
# 1 0.013877 -0.004742 -0.006532 -0.001547 0.003152 -0.004360
# 2 -0.004742 0.015545 0.001083 -0.005442 -0.002685 -0.003079
# 3 -0.006532 0.001083 0.014579 0.001554 -0.000031 0.005892
# 4 -0.001547 -0.005442 0.001554 0.045083 0.005464 0.009300
# 5 0.003152 -0.002685 -0.000031 0.005464 0.019549 0.004735
# 6 -0.004360 -0.003079 0.005892 0.009300 0.004735 0.038256
#
#
# Mechanical properties :
#
#
# Convention : Reuss Voigt Hill
#
# Bulk Modulus (GPa) = 42.33969 48.69970 45.51969
# Shear Modulus (GPa) = 28.54771 36.02382 32.28577
#
# Velocity S-wave (km/s) = 3.40465 3.82457 3.62070
# Velocity P-wave (km/s) = 5.71379 6.26716 5.99686
#
# Compressibility (1/GPa) = 0.02361850
#
# Stress axis : x y z
#
# Youngs Moduli (GPa) = 72.06179 64.32746 68.59054
#
# Poissons Ratio (x) = 0.30506 0.44806
# Poissons Ratio (y) = 0.34174 -0.07429
# Poissons Ratio (z) = 0.47074 -0.06967
#
# Static dielectric constant tensor:
#      x y z
#    x 1.979030 -0.056090 0.020260 
#    y -0.056090 1.982240 -0.026610 
#    z 0.020260 -0.026610 1.955240 
# 
# From -- ./inp_files/576806.got.cif
#   From: 2010.05.17/outbox.cif.g08.bks.cpg/sg2_289_cif.got.tgz:576806.got - 2010.06.03 11:33:40.
