data_PCOD9061306
_publ_section_title
;
Structure prediction by ZEFSAII (Michael W. Deem and Ramdas Pophale) SiO2 
 PCOD9061306
Probable space group: P -1
;
_chemical_formula_sum "Si O2"
_cell_formula_units_Z 16
_cell_length_a 8.728740
_cell_length_b 16.849350
_cell_length_c 5.142444
_cell_angle_alpha 89.380875
_cell_angle_beta 87.373777
_cell_angle_gamma 54.064892
_cell_volume 611.612841
_symmetry_space_group_name_H-M "P -1"
_symmetry_group_IT_number 2
_symmetry_cell_setting 'triclinic'
loop_
_space_group_symop_operation_xyz
x,y,z
-x,-y,-z
loop_
_atom_site_type_symbol
_atom_site_label
_atom_site_fract_x
_atom_site_fract_y
_atom_site_fract_z
Si Si1 0.908643 0.967335 0.700940
Si Si2 0.756233 0.705407 0.282716
Si Si3 0.161723 0.559012 0.022780
Si Si4 0.690211 0.145461 0.089372
Si Si5 0.098262 0.193446 0.393720
Si Si6 0.564163 0.888850 0.956202
Si Si7 0.421333 0.363189 0.295776
Si Si8 0.273719 0.618044 0.509683
O O1 0.840289 0.913553 0.539635
O O2 0.092968 0.891537 0.865549
O O3 0.000000 0.000000 0.500000
O O4 0.748613 0.060480 0.869959
O O5 0.834326 0.752643 0.452217
O O6 0.591023 0.800461 0.135098
O O7 0.679115 0.659558 0.475757
O O8 0.938485 0.623457 0.101637
O O9 0.271568 0.446979 0.106509
O O10 0.248029 0.598511 0.215740
O O11 0.204164 0.573075 0.725690
O O12 0.571420 0.262657 0.133704
O O13 0.560811 0.118252 0.258575
O O14 0.875210 0.266195 0.430139
O O15 0.210245 0.168475 0.117165
O O16 0.500000 0.000000 0.000000
O O17 0.527946 0.404250 0.425359
#
# Coordination Sequence:
#
# PCOD9061306 Si02
#       8
#     2   2   2   2   2   2   2   2
#     4  11  26  45  70 101 142 194 240 311 379 444
#     4  11  27  45  72 107 151 197 249 314 383 449
#     4  11  26  50  78 108 155 201 254 313 391 448
#     4  11  26  43  67 104 142 176 249 298 371 444
#     4  11  23  45  67 101 145 192 243 307 376 450
#     4  12  25  43  70  99 145 194 245 303 373 455
#     4  12  25  47  73 114 143 194 256 316 374 457
#     4  11  25  49  75 110 149 202 251 314 382 457
#
# _framework density 26.160339
#
# number of rings (size 3 to 8) (size 9 to 14) (size 15 to 20)
#    0.000    0.750    5.000    1.125    3.500    4.500 
#    0.000    2.500    0.000    0.000    0.000    0.000 
#    0.000    0.000    0.000    0.000    0.000    0.000 
#
# Total GULP energy -89230.086365 kJ/mol
# GULP energy per Si atom -5576.880398 kJ/mol
# Density = 2.610080 g / cm^3
# Si number density = 26.160339 Si / 1000 Ang^3
#
#
#
# Elastic Constant Matrix: (Units=GPa)
#
#
# Indices 1 2 3 4 5 6 
#
# 1 91.4327 17.9739 -9.9239 9.2377 8.8917 20.1612
# 2 17.9739 187.4024 22.1058 13.8055 3.1159 -25.8617
# 3 -9.9239 22.1058 49.3155 3.5155 -5.5956 11.2223
# 4 9.2377 13.8055 3.5155 35.8961 0.3525 -10.3357
# 5 8.8917 3.1159 -5.5956 0.3525 32.3812 3.7085
# 6 20.1612 -25.8617 11.2223 -10.3357 3.7085 46.3848
#
#
#
# Elastic Compliance Matrix: (Units=1/GPa)
#
#
# Indices 1 2 3 4 5 6 
#
# 1 0.016145 -0.003694 0.008136 -0.007131 -0.001158 -0.012542
# 2 -0.003694 0.007398 -0.006013 0.000872 -0.001606 0.007508
# 3 0.008136 -0.006013 0.029395 -0.007337 0.005343 -0.016062
# 4 -0.007131 0.000872 -0.007337 0.033832 -0.001251 0.012999
# 5 -0.001158 -0.001606 0.005343 -0.001251 0.032817 -0.004587
# 6 -0.012542 0.007508 -0.016062 0.012999 -0.004587 0.038346
#
#
# Mechanical properties :
#
#
# Convention : Reuss Voigt Hill
#
# Bulk Modulus (GPa) = 20.08216 43.16246 31.62231
# Shear Modulus (GPa) = 28.14162 42.79874 35.47018
#
# Velocity S-wave (km/s) = 3.28340 4.04916 3.68622
# Velocity P-wave (km/s) = 4.69761 6.19644 5.49834
#
# Compressibility (1/GPa) = 0.04979543
#
# Stress axis : x y z
#
# Youngs Moduli (GPa) = 61.93915 135.16662 34.01993
#
# Poissons Ratio (x) = 0.49936 -0.27678
# Poissons Ratio (y) = 0.22883 0.20455
# Poissons Ratio (z) = -0.50393 0.81270
#
# Static dielectric constant tensor:
#      x y z
#    x 2.432850 -0.180970 0.305650 
#    y -0.180970 2.099840 -0.239290 
#    z 0.305650 -0.239290 2.209900 
# 
# From -- ./inp_files/47424.got.cif
#   From: 2010.05.17/outbox.cif.g08.bks.cpg/sg2_24_cif.got.tgz:47424.got - 2010.06.03 11:33:40.
