data_PCOD9061594
_publ_section_title
;
Structure prediction by ZEFSAII (Michael W. Deem and Ramdas Pophale) SiO2 
 PCOD9061594
Probable space group: P -1
;
_chemical_formula_sum "Si O2"
_cell_formula_units_Z 16
_cell_length_a 9.066708
_cell_length_b 22.863202
_cell_length_c 16.576485
_cell_angle_alpha 164.659783
_cell_angle_beta 131.592925
_cell_angle_gamma 49.553384
_cell_volume 679.222998
_symmetry_space_group_name_H-M "P -1"
_symmetry_group_IT_number 2
_symmetry_cell_setting 'triclinic'
loop_
_space_group_symop_operation_xyz
x,y,z
-x,-y,-z
loop_
_atom_site_type_symbol
_atom_site_label
_atom_site_fract_x
_atom_site_fract_y
_atom_site_fract_z
Si Si1 0.275901 0.544870 0.443658
Si Si2 0.650935 0.115341 0.847474
Si Si3 0.283247 0.395726 0.074330
Si Si4 0.152401 0.962118 0.355527
Si Si5 0.010677 0.671809 0.660343
Si Si6 0.754730 0.185390 0.497463
Si Si7 0.364214 0.720821 0.248260
Si Si8 0.622117 0.974398 0.926428
O O1 0.500000 0.500000 0.500000
O O2 0.228527 0.404157 0.159890
O O3 0.107669 0.546473 0.452322
O O4 0.281455 0.794772 0.746314
O O5 0.728826 0.054133 0.705798
O O6 0.508441 0.926753 0.573558
O O7 0.519588 0.343520 0.094528
O O8 0.830383 0.149671 0.018345
O O9 0.230269 0.618638 0.301977
O O10 0.200804 0.189565 0.721975
O O11 0.923631 0.995623 0.296040
O O12 0.224481 0.766653 0.181370
O O13 0.795952 0.789268 0.733690
O O14 0.000000 0.500000 0.500000
O O15 0.759374 0.279482 0.714737
O O16 0.545664 0.078813 0.268785
O O17 0.500000 0.500000 0.000000
O O18 0.500000 0.000000 0.000000
#
# Coordination Sequence:
#
# PCOD9061594 Si02
#       8
#     2   2   2   2   2   2   2   2
#     4  12  25  47  73 106 147 185 241 303 367 433
#     4  11  23  47  74 101 146 187 239 296 359 434
#     4  11  23  45  74 103 143 190 230 298 368 425
#     4  11  25  45  72 103 142 191 240 290 358 425
#     4  12  26  48  75 108 142 193 246 298 367 431
#     4  12  24  45  68 102 145 179 244 292 351 432
#     4  11  24  45  71 105 141 184 235 294 363 428
#     4  12  25  46  70 105 144 190 240 295 359 428
#
# _framework density 23.556327
#
# number of rings (size 3 to 8) (size 9 to 14) (size 15 to 20)
#    0.000    0.500    2.500    7.125    1.750    0.000 
#    4.500    0.000    0.000    0.000    0.000    0.000 
#    0.000    0.000    0.000    0.000    0.000    0.000 
#
# Total GULP energy -89647.576609 kJ/mol
# GULP energy per Si atom -5602.973538 kJ/mol
# Density = 2.350271 g / cm^3
# Si number density = 23.556327 Si / 1000 Ang^3
#
#
#
# Elastic Constant Matrix: (Units=GPa)
#
#
# Indices 1 2 3 4 5 6 
#
# 1 179.7850 76.4216 27.5120 4.7250 -45.5107 8.8214
# 2 76.4216 127.6337 32.3933 9.3331 -18.5228 -8.8669
# 3 27.5120 32.3933 64.0498 1.4597 -18.2866 2.7769
# 4 4.7250 9.3331 1.4597 46.0437 3.2017 -4.5350
# 5 -45.5107 -18.5228 -18.2866 3.2017 45.7758 -12.8244
# 6 8.8214 -8.8669 2.7769 -4.5350 -12.8244 54.4446
#
#
#
# Elastic Compliance Matrix: (Units=1/GPa)
#
#
# Indices 1 2 3 4 5 6 
#
# 1 0.009432 -0.004674 0.000514 -0.000621 0.007571 -0.000584
# 2 -0.004674 0.011914 -0.004298 -0.001491 -0.000703 0.002627
# 3 0.000514 -0.004298 0.019434 -0.000275 0.006478 -0.000272
# 4 -0.000621 -0.001491 -0.000275 0.022384 -0.002580 0.001128
# 5 0.007571 -0.000703 0.006478 -0.002580 0.033541 0.006014
# 6 -0.000584 0.002627 -0.000272 0.001128 0.006014 0.020414
#
#
# Mechanical properties :
#
#
# Convention : Reuss Voigt Hill
#
# Bulk Modulus (GPa) = 41.90846 71.56914 56.73880
# Shear Modulus (GPa) = 35.21347 44.92893 40.07120
#
# Velocity S-wave (km/s) = 3.87054 4.37200 4.12889
# Velocity P-wave (km/s) = 6.14851 7.47890 6.84610
#
# Compressibility (1/GPa) = 0.02386153
#
# Stress axis : x y z
#
# Youngs Moduli (GPa) = 106.02242 83.93379 51.45713
#
# Poissons Ratio (x) = 0.39233 -0.02643
# Poissons Ratio (y) = 0.49558 0.22119
# Poissons Ratio (z) = -0.05445 0.36079
#
# Static dielectric constant tensor:
#      x y z
#    x 2.052790 -0.114720 -0.211710 
#    y -0.114720 1.977200 0.130830 
#    z -0.211710 0.130830 2.303130 
# 
# From -- ./inp_files/508227.got.cif
#   From: 2010.05.17/outbox.cif.g08.bks.cpg/sg2_255_cif.got.tgz:508227.got - 2010.06.03 11:33:40.
