data_PCOD9061021
_publ_section_title
;
Structure prediction by ZEFSAII (Michael W. Deem and Ramdas Pophale) SiO2 
 PCOD9061021
Probable space group: P -1
;
_chemical_formula_sum "Si O2"
_cell_formula_units_Z 16
_cell_length_a 16.433438
_cell_length_b 9.486749
_cell_length_c 7.687288
_cell_angle_alpha 100.155404
_cell_angle_beta 88.292603
_cell_angle_gamma 146.874833
_cell_volume 628.988138
_symmetry_space_group_name_H-M "P -1"
_symmetry_group_IT_number 2
_symmetry_cell_setting 'triclinic'
loop_
_space_group_symop_operation_xyz
x,y,z
-x,-y,-z
loop_
_atom_site_type_symbol
_atom_site_label
_atom_site_fract_x
_atom_site_fract_y
_atom_site_fract_z
Si Si1 0.717497 0.312989 0.621307
Si Si2 0.687085 0.043564 0.284684
Si Si3 0.777953 0.719452 0.819533
Si Si4 0.076009 0.295629 0.775511
Si Si5 0.952543 0.246790 0.434941
Si Si6 0.347837 0.859523 0.041935
Si Si7 0.266302 0.338376 0.779763
Si Si8 0.520484 0.528069 0.708993
O O1 0.653599 0.139990 0.414304
O O2 0.706777 0.468660 0.686230
O O3 0.899750 0.557292 0.650553
O O4 0.646429 0.119954 0.746454
O O5 0.851471 0.233145 0.385869
O O6 0.677506 0.057143 0.083686
O O7 0.571355 0.744280 0.269057
O O8 0.691742 0.739888 0.785468
O O9 0.947865 0.003144 0.802708
O O10 0.761210 0.679660 0.018545
O O11 0.002875 0.294161 0.641322
O O12 0.184921 0.535119 0.957289
O O13 0.199352 0.374858 0.691043
O O14 0.834751 0.943022 0.338967
O O15 0.500000 0.000000 0.000000
O O16 0.440556 0.552635 0.787810
O O17 0.500000 0.500000 0.500000
#
# Coordination Sequence:
#
# PCOD9061021 Si02
#       8
#     2   2   2   2   2   2   2   2
#     4  12  25  46  78 106 149 197 248 310 366 443
#     4  11  27  51  71 109 157 195 248 308 377 449
#     4  12  24  45  74 114 144 196 257 306 373 437
#     4  12  24  45  78 109 147 193 254 304 370 449
#     4  11  24  46  73 111 146 197 247 308 373 439
#     4  12  28  48  71 110 149 199 248 302 376 446
#     4  11  23  44  71 109 154 187 248 314 366 448
#     4  11  27  48  73 107 148 200 247 308 382 442
#
# _framework density 25.437681999999999
#
# number of rings (size 3 to 8) (size 9 to 14) (size 15 to 20)
#    0.000    0.500    3.750    4.500    1.750    3.500 
#    9.000    0.000    0.000    0.000    0.000    0.000 
#    0.000    0.000    0.000    0.000    0.000    0.000 
#
# Total GULP energy -89556.153455 kJ/mol
# GULP energy per Si atom -5597.259591 kJ/mol
# Density = 2.537978 g / cm^3
# Si number density = 25.437682 Si / 1000 Ang^3
#
#
#
# Elastic Constant Matrix: (Units=GPa)
#
#
# Indices 1 2 3 4 5 6 
#
# 1 129.4630 7.5416 17.7161 -6.5582 22.5747 21.7669
# 2 7.5416 77.7263 21.0732 -11.4690 8.5001 1.1229
# 3 17.7161 21.0732 78.6630 -11.1983 16.9794 8.5139
# 4 -6.5582 -11.4690 -11.1983 45.1648 -4.4052 6.3375
# 5 22.5747 8.5001 16.9794 -4.4052 34.1400 -0.9234
# 6 21.7669 1.1229 8.5139 6.3375 -0.9234 46.0610
#
#
#
# Elastic Compliance Matrix: (Units=1/GPa)
#
#
# Indices 1 2 3 4 5 6 
#
# 1 0.009743 0.000065 -0.000098 0.001478 -0.006353 -0.004919
# 2 0.000065 0.014284 -0.003052 0.002743 -0.001734 -0.000227
# 3 -0.000098 -0.003052 0.015785 0.002936 -0.006738 -0.003336
# 4 0.001478 0.002743 0.002936 0.024426 -0.000095 -0.004670
# 5 -0.006353 -0.001734 -0.006738 -0.000095 0.037399 0.005052
# 6 -0.004919 -0.000227 -0.003336 -0.004670 0.005052 0.025401
#
#
# Mechanical properties :
#
#
# Convention : Reuss Voigt Hill
#
# Bulk Modulus (GPa) = 29.72366 42.05711 35.89039
# Shear Modulus (GPa) = 34.62047 41.04126 37.83087
#
# Velocity S-wave (km/s) = 3.69316 4.02108 3.86060
# Velocity P-wave (km/s) = 5.46774 6.17479 5.83199
#
# Compressibility (1/GPa) = 0.03364323
#
# Stress axis : x y z
#
# Youngs Moduli (GPa) = 102.63425 70.00626 63.34960
#
# Poissons Ratio (x) = -0.00455 0.00620
# Poissons Ratio (y) = -0.00667 0.19335
# Poissons Ratio (z) = 0.01004 0.21366
#
# Static dielectric constant tensor:
#      x y z
#    x 2.129690 -0.053390 -0.038180 
#    y -0.053390 2.055060 0.057150 
#    z -0.038180 0.057150 1.995620 
# 
# From -- ./inp_files/299201.got.cif
#   From: 2010.05.17/outbox.cif.g08.bks.cpg/sg2_150_cif.got.tgz:299201.got - 2010.06.03 11:33:40.
