data_PCOD9061436
_publ_section_title
;
Structure prediction by ZEFSAII (Michael W. Deem and Ramdas Pophale) SiO2 
 PCOD9061436
Probable space group: P -1
;
_chemical_formula_sum "Si O2"
_cell_formula_units_Z 11
_cell_length_a 8.796835
_cell_length_b 8.694560
_cell_length_c 7.064020
_cell_angle_alpha 73.619917
_cell_angle_beta 83.406561
_cell_angle_gamma 83.306466
_cell_volume 512.918731
_symmetry_space_group_name_H-M "P -1"
_symmetry_group_IT_number 2
_symmetry_cell_setting 'triclinic'
loop_
_space_group_symop_operation_xyz
x,y,z
-x,-y,-z
loop_
_atom_site_type_symbol
_atom_site_label
_atom_site_fract_x
_atom_site_fract_y
_atom_site_fract_z
Si Si1 0.544481 0.872301 0.201124
Si Si2 0.000000 0.500000 0.000000
Si Si3 0.825948 0.035984 0.236155
Si Si4 0.359848 0.465924 0.892428
Si Si5 0.924005 0.245267 0.812450
Si Si6 0.274220 0.735011 0.508828
O O1 0.672822 0.945425 0.284942
O O2 0.606574 0.708997 0.143694
O O3 0.400668 0.835730 0.361036
O O4 0.500000 0.000000 0.000000
O O5 0.981767 0.631209 0.129660
O O6 0.808640 0.513526 0.994099
O O7 0.965469 0.900387 0.242192
O O8 0.832638 0.149844 0.376867
O O9 0.826840 0.153647 0.013087
O O10 0.350620 0.595136 0.678371
O O11 0.500000 0.500000 0.000000
O O12 0.824141 0.325623 0.628899
#
# Coordination Sequence:
#
# PCOD9061436 Si02
#       6
#     2   1   2   2   2   2
#     4  12  24  46  73 106 149 200 252 312 379 446
#     4  12  24  50  78 104 152 204 244 312 382 442
#     4  11  23  45  70 110 148 194 251 311 374 450
#     4  12  27  50  75 113 153 199 258 316 373 451
#     4  11  24  46  73 108 152 189 255 316 366 456
#     4  12  25  47  75 110 150 200 253 310 382 451
#
# _framework density 21.445891
#
# number of rings (size 3 to 8) (size 9 to 14) (size 15 to 20)
#    0.000    0.364    5.455    3.818    0.000    0.727 
#    6.545    0.000    0.000    0.000    0.000    0.000 
#    0.000    0.000    0.000    0.000    0.000    0.000 
#
# Total GULP energy -61286.785562 kJ/mol
# GULP energy per Si atom -5571.525960 kJ/mol
# Density = 2.139708 g / cm^3
# Si number density = 21.445891 Si / 1000 Ang^3
#
#
#
# Elastic Constant Matrix: (Units=GPa)
#
#
# Indices 1 2 3 4 5 6 
#
# 1 105.7729 19.7592 45.7871 7.3308 17.2755 6.7476
# 2 19.7592 115.5990 59.4503 9.9433 17.1097 -0.9463
# 3 45.7871 59.4503 116.0258 -8.8712 19.7804 -8.7249
# 4 7.3308 9.9433 -8.8712 31.0293 -2.5338 3.2079
# 5 17.2755 17.1097 19.7804 -2.5338 39.0013 21.4576
# 6 6.7476 -0.9463 -8.7249 3.2079 21.4576 34.6930
#
#
#
# Elastic Compliance Matrix: (Units=1/GPa)
#
#
# Indices 1 2 3 4 5 6 
#
# 1 0.012624 0.001744 -0.005941 -0.005287 -0.002743 -0.001717
# 2 0.001744 0.013343 -0.007242 -0.007262 -0.004253 0.001505
# 3 -0.005941 -0.007242 0.017211 0.007060 -0.007595 0.009331
# 4 -0.005287 -0.007262 0.007060 0.039037 0.007632 -0.005724
# 5 -0.002743 -0.004253 -0.007595 0.007632 0.051959 -0.034335
# 6 -0.001717 0.001505 0.009331 -0.005724 -0.034335 0.053311
#
#
# Mechanical properties :
#
#
# Convention : Reuss Voigt Hill
#
# Bulk Modulus (GPa) = 49.26242 65.26566 57.26404
# Shear Modulus (GPa) = 23.02767 35.10479 29.06623
#
# Velocity S-wave (km/s) = 3.28038 4.05025 3.68547
# Velocity P-wave (km/s) = 6.11296 7.23682 6.69850
#
# Compressibility (1/GPa) = 0.02029945
#
# Stress axis : x y z
#
# Youngs Moduli (GPa) = 79.21344 74.94316 58.10406
#
# Poissons Ratio (x) = -0.13072 0.34521
# Poissons Ratio (y) = -0.13817 0.42081
# Poissons Ratio (z) = 0.47063 0.54276
#
# Static dielectric constant tensor:
#      x y z
#    x 1.793890 -0.009550 -0.000740 
#    y -0.009550 1.769750 0.003100 
#    z -0.000740 0.003100 1.770430 
# 
# From -- ./inp_files/16998.got.cif
#   From: 2010.05.17/outbox.cif.g08.bks.cpg/sg2_9_cif.got.tgz:16998.got - 2010.06.03 11:33:40.
