data_PCOD9061235
_publ_section_title
;
Structure prediction by ZEFSAII (Michael W. Deem and Ramdas Pophale) SiO2 
 PCOD9061235
Probable space group: P -1
;
_chemical_formula_sum "Si O2"
_cell_formula_units_Z 16
_cell_length_a 19.185657
_cell_length_b 9.416513
_cell_length_c 11.356450
_cell_angle_alpha 70.656318
_cell_angle_beta 46.900778
_cell_angle_gamma 33.782256
_cell_volume 676.830559
_symmetry_space_group_name_H-M "P -1"
_symmetry_group_IT_number 2
_symmetry_cell_setting 'triclinic'
loop_
_space_group_symop_operation_xyz
x,y,z
-x,-y,-z
loop_
_atom_site_type_symbol
_atom_site_label
_atom_site_fract_x
_atom_site_fract_y
_atom_site_fract_z
Si Si1 0.859773 0.118530 0.880633
Si Si2 0.923158 0.787960 0.189251
Si Si3 0.776051 0.306203 0.270507
Si Si4 0.411173 0.766488 0.718187
Si Si5 0.325430 0.087427 0.931131
Si Si6 0.268771 0.861757 0.192361
Si Si7 0.836887 0.839089 0.542942
Si Si8 0.586616 0.720332 0.145035
O O1 0.861669 0.068723 0.756208
O O2 0.703820 0.212845 0.092194
O O3 0.755183 0.423008 0.943788
O O4 0.073827 0.818562 0.779069
O O5 0.908848 0.780096 0.346221
O O6 0.896705 0.004333 0.151274
O O7 0.747034 0.958053 0.271621
O O8 0.130249 0.434192 0.004692
O O9 0.607143 0.459038 0.503200
O O10 0.658806 0.560028 0.234797
O O11 0.451178 0.835516 0.752142
O O12 0.426141 0.082514 0.887008
O O13 0.252859 0.053077 0.107369
O O14 0.202158 0.968747 0.374652
O O15 0.500000 0.500000 0.000000
O O16 0.000000 0.500000 0.500000
O O17 0.622721 0.057271 0.713055
#
# Coordination Sequence:
#
# PCOD9061235 Si02
#       8
#     2   2   2   2   2   2   2   2
#     4  11  23  44  76 103 144 185 236 295 356 422
#     4  12  22  44  71 105 142 190 232 292 358 434
#     4  12  24  42  76 113 142 182 241 292 366 431
#     4  11  24  43  69 107 145 185 230 294 363 421
#     4  11  26  43  71 104 142 182 235 300 364 415
#     4  11  25  48  70  96 142 200 239 287 351 421
#     4  12  26  46  71 100 142 195 246 284 352 424
#     4  12  23  46  73 105 144 184 232 304 358 425
#
# _framework density 23.639595
#
# number of rings (size 3 to 8) (size 9 to 14) (size 15 to 20)
#    0.000    0.500    6.250    2.625    1.750    3.000 
#    2.250    0.625    0.000    0.000    0.000    0.000 
#    0.000    0.000    0.000    0.000    0.000    0.000 
#
# Total GULP energy -89556.084220 kJ/mol
# GULP energy per Si atom -5597.255264 kJ/mol
# Density = 2.358579 g / cm^3
# Si number density = 23.639595 Si / 1000 Ang^3
#
#
#
# Elastic Constant Matrix: (Units=GPa)
#
#
# Indices 1 2 3 4 5 6 
#
# 1 162.8541 11.7083 17.0009 2.2207 10.1826 -6.2747
# 2 11.7083 67.7158 -2.4276 9.7019 3.4246 -2.2179
# 3 17.0009 -2.4276 42.3417 14.5495 2.9252 -5.8595
# 4 2.2207 9.7019 14.5495 35.5271 -7.7621 -1.4352
# 5 10.1826 3.4246 2.9252 -7.7621 43.0805 8.1309
# 6 -6.2747 -2.2179 -5.8595 -1.4352 8.1309 43.4924
#
#
#
# Elastic Compliance Matrix: (Units=1/GPa)
#
#
# Indices 1 2 3 4 5 6 
#
# 1 0.006625 -0.001279 -0.002831 0.000850 -0.001265 0.000774
# 2 -0.001279 0.016266 0.004103 -0.006580 -0.002736 0.001492
# 3 -0.002831 0.004103 0.030985 -0.014596 -0.005235 0.004472
# 4 0.000850 -0.006580 -0.014596 0.037640 0.008575 -0.002540
# 5 -0.001265 -0.002736 -0.005235 0.008575 0.026712 -0.005738
# 6 0.000774 0.001492 0.004472 -0.002540 -0.005738 0.024772
#
#
# Mechanical properties :
#
#
# Convention : Reuss Voigt Hill
#
# Bulk Modulus (GPa) = 18.56624 36.16386 27.36505
# Shear Modulus (GPa) = 31.06187 40.86199 35.96193
#
# Velocity S-wave (km/s) = 3.62881 4.16208 3.90456
# Velocity P-wave (km/s) = 5.04268 6.19907 5.65054
#
# Compressibility (1/GPa) = 0.05386120
#
# Stress axis : x y z
#
# Youngs Moduli (GPa) = 150.93640 61.47849 32.27336
#
# Poissons Ratio (x) = 0.07866 0.09136
# Poissons Ratio (y) = 0.19311 -0.13241
# Poissons Ratio (z) = 0.42730 -0.25223
#
# Static dielectric constant tensor:
#      x y z
#    x 1.911910 -0.003120 -0.013790 
#    y -0.003120 1.943280 -0.052280 
#    z -0.013790 -0.052280 1.893510 
# 
# From -- ./inp_files/189816.got.cif
#   From: 2010.05.17/outbox.cif.g08.bks.cpg/sg2_95_cif.got.tgz:189816.got - 2010.06.03 11:33:40.
