data_PCOD9061577
_publ_section_title
;
Structure prediction by ZEFSAII (Michael W. Deem and Ramdas Pophale) SiO2 
 PCOD9061577
Probable space group: P -1
;
_chemical_formula_sum "Si O2"
_cell_formula_units_Z 16
_cell_length_a 24.239610
_cell_length_b 27.047192
_cell_length_c 6.754834
_cell_angle_alpha 116.304998
_cell_angle_beta 115.827937
_cell_angle_gamma 9.965827
_cell_volume 687.037537
_symmetry_space_group_name_H-M "P -1"
_symmetry_group_IT_number 2
_symmetry_cell_setting 'triclinic'
loop_
_space_group_symop_operation_xyz
x,y,z
-x,-y,-z
loop_
_atom_site_type_symbol
_atom_site_label
_atom_site_fract_x
_atom_site_fract_y
_atom_site_fract_z
Si Si1 0.341662 0.199787 0.606363
Si Si2 0.655287 0.721854 0.898424
Si Si3 0.169821 0.188094 0.625290
Si Si4 0.113044 0.672589 0.662551
Si Si5 0.888980 0.246445 0.571331
Si Si6 0.600634 0.157158 0.049937
Si Si7 0.459157 0.686221 0.958018
Si Si8 0.852944 0.190247 0.087441
O O1 0.000000 0.500000 0.500000
O O2 0.500000 0.000000 0.500000
O O3 0.586387 0.020470 0.543488
O O4 0.302112 0.262946 0.869102
O O5 0.985208 0.408480 0.764459
O O6 0.382703 0.977814 0.767659
O O7 0.552956 0.759810 0.940704
O O8 0.902786 0.378084 0.497900
O O9 0.095830 0.721765 0.522730
O O10 0.416012 0.425061 0.820625
O O11 0.819584 0.943728 0.832032
O O12 0.588180 0.523608 0.735006
O O13 0.868613 0.207558 0.352796
O O14 0.192457 0.991202 0.730273
O O15 0.389174 0.391822 0.036120
O O16 0.080885 0.020529 0.984828
O O17 0.500000 0.500000 0.000000
O O18 0.000000 0.000000 0.000000
#
# Coordination Sequence:
#
# PCOD9061577 Si02
#       8
#     2   2   2   2   2   2   2   2
#     4  12  28  50  74 103 152 203 248 297 352 432
#     4  12  27  46  74 114 145 187 249 301 371 441
#     4  12  27  45  76 110 148 193 239 310 366 432
#     4  11  23  45  73 110 148 184 238 306 388 431
#     4  11  25  47  74 105 145 187 235 310 372 430
#     4  11  24  43  75 111 141 184 242 305 378 437
#     4  11  27  44  76 107 145 192 243 305 369 445
#     4  12  29  50  72 104 147 199 249 293 358 447
#
# _framework density 23.288392999999999
#
# number of rings (size 3 to 8) (size 9 to 14) (size 15 to 20)
#    0.000    0.500    3.750    3.000   10.500    5.000 
#    0.000    0.000    0.000    0.000    0.000    0.000 
#    0.000    0.000    0.000    0.000    0.000    0.000 
#
# Total GULP energy -89615.529760 kJ/mol
# GULP energy per Si atom -5600.970610 kJ/mol
# Density = 2.323539 g / cm^3
# Si number density = 23.288393 Si / 1000 Ang^3
#
#
#
# Elastic Constant Matrix: (Units=GPa)
#
#
# Indices 1 2 3 4 5 6 
#
# 1 80.3436 11.7101 31.7994 -0.4916 16.2855 12.0732
# 2 11.7101 103.6444 42.7575 17.9371 7.2310 4.1112
# 3 31.7994 42.7575 157.4831 11.8252 24.1206 12.3463
# 4 -0.4916 17.9371 11.8252 24.8522 12.4884 1.4896
# 5 16.2855 7.2310 24.1206 12.4884 45.7510 8.7452
# 6 12.0732 4.1112 12.3463 1.4896 8.7452 35.9805
#
#
#
# Elastic Compliance Matrix: (Units=1/GPa)
#
#
# Indices 1 2 3 4 5 6 
#
# 1 0.014900 -0.001186 -0.002068 0.004685 -0.004691 -0.003208
# 2 -0.001186 0.012290 -0.002785 -0.008753 0.002389 -0.000269
# 3 -0.002068 -0.002785 0.008061 -0.000418 -0.002755 -0.001067
# 4 0.004685 -0.008753 -0.000418 0.054373 -0.015095 0.000989
# 5 -0.004691 0.002389 -0.002755 -0.015095 0.029547 -0.004310
# 6 -0.003208 -0.000269 -0.001067 0.000989 -0.004310 0.030273
#
#
# Mechanical properties :
#
#
# Convention : Reuss Voigt Hill
#
# Bulk Modulus (GPa) = 43.15629 57.11166 50.13397
# Shear Modulus (GPa) = 29.54294 38.33036 33.93665
#
# Velocity S-wave (km/s) = 3.56556 4.06137 3.82152
# Velocity P-wave (km/s) = 5.96007 6.82421 6.40673
#
# Compressibility (1/GPa) = 0.02317160
#
# Stress axis : x y z
#
# Youngs Moduli (GPa) = 67.11545 81.36631 124.06002
#
# Poissons Ratio (x) = 0.09653 0.25658
# Poissons Ratio (y) = 0.07963 0.34548
# Poissons Ratio (z) = 0.13881 0.22659
#
# Static dielectric constant tensor:
#      x y z
#    x 1.916360 0.001040 0.010800 
#    y 0.001040 1.884540 0.027210 
#    z 0.010800 0.027210 1.831510 
# 
# From -- ./inp_files/127857.got.cif
#   From: 2010.05.17/outbox.cif.g08.bks.cpg/sg2_64_cif.got.tgz:127857.got - 2010.06.03 11:33:40.
