data_PCOD9061482
_publ_section_title
;
Structure prediction by ZEFSAII (Michael W. Deem and Ramdas Pophale) SiO2 
 PCOD9061482
Probable space group: P -1
;
_chemical_formula_sum "Si O2"
_cell_formula_units_Z 16
_cell_length_a 13.378108
_cell_length_b 16.199981
_cell_length_c 5.530380
_cell_angle_alpha 91.679518
_cell_angle_beta 75.766032
_cell_angle_gamma 145.423349
_cell_volume 625.806032
_symmetry_space_group_name_H-M "P -1"
_symmetry_group_IT_number 2
_symmetry_cell_setting 'triclinic'
loop_
_space_group_symop_operation_xyz
x,y,z
-x,-y,-z
loop_
_atom_site_type_symbol
_atom_site_label
_atom_site_fract_x
_atom_site_fract_y
_atom_site_fract_z
Si Si1 0.961486 0.323141 0.059004
Si Si2 0.526347 0.446984 0.178193
Si Si3 0.114716 0.494735 0.479976
Si Si4 0.534930 0.072851 0.240519
Si Si5 0.216948 0.165590 0.658031
Si Si6 0.923516 0.764557 0.189637
Si Si7 0.781255 0.002818 0.625988
Si Si8 0.485610 0.267885 0.880819
O O1 0.080014 0.431759 0.759029
O O2 0.763437 0.239547 0.129014
O O3 0.950660 0.215905 0.035556
O O4 0.041230 0.393059 0.284164
O O5 0.572498 0.388383 0.037143
O O6 0.703602 0.590394 0.256928
O O7 0.500000 0.500000 0.000000
O O8 0.319916 0.289980 0.402250
O O9 0.340426 0.663468 0.331973
O O10 0.000000 0.500000 0.500000
O O11 0.386083 0.047911 0.355965
O O12 0.500000 0.000000 0.500000
O O13 0.500000 0.000000 0.000000
O O14 0.167926 0.044101 0.563277
O O15 0.385184 0.259545 0.750505
O O16 0.930239 0.868141 0.145062
O O17 0.021526 0.821689 0.398307
O O18 0.677481 0.897027 0.919235
#
# Coordination Sequence:
#
# PCOD9061482 Si02
#       8
#     2   2   2   2   2   2   2   2
#     4  12  27  46  78 116 143 201 259 323 378 456
#     4  11  23  45  71 105 145 196 258 313 380 449
#     4  12  27  47  77 110 152 194 261 323 385 453
#     4  12  27  52  77 110 156 201 254 318 396 457
#     4  11  26  45  72 106 150 205 251 317 388 457
#     4  12  24  47  73 109 153 194 263 309 385 464
#     4  11  28  48  73 108 153 203 258 313 392 469
#     4  11  25  46  71 107 151 203 249 318 389 453
#
# _framework density 25.567025999999998
#
# number of rings (size 3 to 8) (size 9 to 14) (size 15 to 20)
#    0.000    0.500    3.750    3.375    7.000    0.500 
#    2.250    0.000    0.000    0.000    0.000    0.000 
#    0.000    0.000    0.000    0.000    0.000    0.000 
#
# Total GULP energy -89474.233617 kJ/mol
# GULP energy per Si atom -5592.139601 kJ/mol
# Density = 2.550883 g / cm^3
# Si number density = 25.567026 Si / 1000 Ang^3
#
#
#
# Elastic Constant Matrix: (Units=GPa)
#
#
# Indices 1 2 3 4 5 6 
#
# 1 193.2492 41.0985 35.8526 -4.8281 -8.5919 9.2893
# 2 41.0985 120.8692 31.5877 23.1329 -11.6618 6.6047
# 3 35.8526 31.5877 133.2306 -1.0558 4.5130 -1.5899
# 4 -4.8281 23.1329 -1.0558 31.7949 0.5335 -13.7682
# 5 -8.5919 -11.6618 4.5130 0.5335 37.5139 -0.8624
# 6 9.2893 6.6047 -1.5899 -13.7682 -0.8624 47.7009
#
#
#
# Elastic Compliance Matrix: (Units=1/GPa)
#
#
# Indices 1 2 3 4 5 6 
#
# 1 0.005924 -0.002059 -0.001119 0.002241 0.000814 -0.000244
# 2 -0.002059 0.012525 -0.002692 -0.011617 0.003803 -0.004707
# 3 -0.001119 -0.002692 0.008559 0.002825 -0.002125 0.001653
# 4 0.002241 -0.011617 0.002825 0.046765 -0.003765 0.014696
# 5 0.000814 0.003803 -0.002125 -0.003765 0.028304 -0.001331
# 6 -0.000244 -0.004707 0.001653 0.014696 -0.001331 0.025936
#
#
# Mechanical properties :
#
#
# Convention : Reuss Voigt Hill
#
# Bulk Modulus (GPa) = 65.49821 73.82519 69.66170
# Shear Modulus (GPa) = 34.52037 45.98929 40.25483
#
# Velocity S-wave (km/s) = 3.67848 4.24580 3.97228
# Velocity P-wave (km/s) = 6.61177 7.27829 6.95302
#
# Compressibility (1/GPa) = 0.01526759
#
# Stress axis : x y z
#
# Youngs Moduli (GPa) = 168.80440 79.84314 116.83228
#
# Poissons Ratio (x) = 0.16440 0.13070
# Poissons Ratio (y) = 0.34756 0.31456
# Poissons Ratio (z) = 0.18885 0.21497
#
# Static dielectric constant tensor:
#      x y z
#    x 2.077290 -0.034490 -0.072530 
#    y -0.034490 2.141280 0.048350 
#    z -0.072530 0.048350 1.978840 
# 
# From -- ./inp_files/51040.got.cif
#   From: 2010.05.17/outbox.cif.g08.bks.cpg/sg2_26_cif.got.tgz:51040.got - 2010.06.03 11:33:40.
