data_PCOD9061307
_publ_section_title
;
Structure prediction by ZEFSAII (Michael W. Deem and Ramdas Pophale) SiO2 
 PCOD9061307
Probable space group: P -1
;
_chemical_formula_sum "Si O2"
_cell_formula_units_Z 14
_cell_length_a 6.740789
_cell_length_b 23.050916
_cell_length_c 9.868916
_cell_angle_alpha 33.788397
_cell_angle_beta 45.831631
_cell_angle_gamma 53.475586
_cell_volume 611.205710
_symmetry_space_group_name_H-M "P -1"
_symmetry_group_IT_number 2
_symmetry_cell_setting 'triclinic'
loop_
_space_group_symop_operation_xyz
x,y,z
-x,-y,-z
loop_
_atom_site_type_symbol
_atom_site_label
_atom_site_fract_x
_atom_site_fract_y
_atom_site_fract_z
Si Si1 0.060273 0.101099 0.685986
Si Si2 0.069868 0.095251 0.377065
Si Si3 0.532569 0.622679 0.224805
Si Si4 0.564551 0.241835 0.245138
Si Si5 0.652035 0.644445 0.604858
Si Si6 0.522630 0.224995 0.798422
Si Si7 0.081276 0.539057 0.034281
O O1 0.351886 0.153313 0.475340
O O2 0.047594 0.071506 0.591986
O O3 0.814682 0.186009 0.674144
O O4 0.000000 0.000000 0.000000
O O5 0.847007 0.187861 0.268324
O O6 0.000000 0.000000 0.500000
O O7 0.373936 0.132161 0.124925
O O8 0.500000 0.500000 0.500000
O O9 0.453583 0.685011 0.276277
O O10 0.860543 0.625032 0.027978
O O11 0.391715 0.679563 0.052752
O O12 0.422761 0.305659 0.311915
O O13 0.676988 0.733242 0.308949
O O14 0.894828 0.558891 0.683445
O O15 0.384617 0.583914 0.798733
O O16 0.000000 0.500000 0.000000
#
# Coordination Sequence:
#
# PCOD9061307 Si02
#       7
#     2   2   2   2   2   2   2
#     4  12  29  52  79 110 151 196 251 322 391 446
#     4  12  29  51  77 114 150 191 257 320 382 461
#     4  12  27  43  72 111 154 201 250 303 368 445
#     4  12  26  49  76 108 155 197 249 314 376 454
#     4  11  25  42  74 101 141 201 244 301 370 437
#     4  12  27  49  75 110 153 196 254 307 381 455
#     4  11  23  45  67 101 151 195 249 302 358 431
#
# _framework density 22.905546999999999
#
# number of rings (size 3 to 8) (size 9 to 14) (size 15 to 20)
#    0.000    0.286    4.286    3.429   10.000    2.857 
#    0.000    0.000    0.000    0.000    0.000    0.000 
#    0.000    0.000    0.000    0.000    0.000    0.000 
#
# Total GULP energy -78458.367355 kJ/mol
# GULP energy per Si atom -5604.169097 kJ/mol
# Density = 2.285341 g / cm^3
# Si number density = 22.905547 Si / 1000 Ang^3
#
#
#
# Elastic Constant Matrix: (Units=GPa)
#
#
# Indices 1 2 3 4 5 6 
#
# 1 93.2268 19.6459 29.6330 8.4485 13.3256 19.1717
# 2 19.6459 97.7933 14.7295 9.6678 1.8495 35.9829
# 3 29.6330 14.7295 131.7844 7.6926 17.1586 27.0558
# 4 8.4485 9.6678 7.6926 37.4257 8.3204 -0.6172
# 5 13.3256 1.8495 17.1586 8.3204 52.9007 2.4661
# 6 19.1717 35.9829 27.0558 -0.6172 2.4661 53.2957
#
#
#
# Elastic Compliance Matrix: (Units=1/GPa)
#
#
# Indices 1 2 3 4 5 6 
#
# 1 0.012548 -0.000976 -0.001734 -0.001795 -0.002147 -0.002896
# 2 -0.000976 0.014268 0.000781 -0.003912 0.000563 -0.009750
# 3 -0.001734 0.000781 0.009164 -0.001289 -0.002152 -0.004472
# 4 -0.001795 -0.003912 -0.001289 0.029321 -0.003812 0.004457
# 5 -0.002147 0.000563 -0.002152 -0.003812 0.020700 0.000482
# 6 -0.002896 -0.009750 -0.004472 0.004457 0.000482 0.028687
#
#
# Mechanical properties :
#
#
# Convention : Reuss Voigt Hill
#
# Bulk Modulus (GPa) = 31.12969 50.09126 40.61048
# Shear Modulus (GPa) = 38.68401 45.97748 42.33075
#
# Velocity S-wave (km/s) = 4.11402 4.48511 4.30357
# Velocity P-wave (km/s) = 6.01555 6.98124 6.51631
#
# Compressibility (1/GPa) = 0.03212367
#
# Stress axis : x y z
#
# Youngs Moduli (GPa) = 79.69132 70.08924 109.12164
#
# Poissons Ratio (x) = 0.06841 0.18917
# Poissons Ratio (y) = 0.07778 -0.08527
# Poissons Ratio (z) = 0.13815 -0.05477
#
# Static dielectric constant tensor:
#      x y z
#    x 1.804070 0.014520 0.011650 
#    y 0.014520 1.731640 -0.037280 
#    z 0.011650 -0.037280 1.897880 
# 
# From -- ./inp_files/140969.got.cif
#   From: 2010.05.17/outbox.cif.g08.bks.cpg/sg2_71_cif.got.tgz:140969.got - 2010.06.03 11:33:40.
