data_PCOD9061268
_publ_section_title
;
Structure prediction by ZEFSAII (Michael W. Deem and Ramdas Pophale) SiO2 
 PCOD9061268
Probable space group: P -1
;
_chemical_formula_sum "Si O2"
_cell_formula_units_Z 16
_cell_length_a 11.592061
_cell_length_b 5.312361
_cell_length_c 22.759168
_cell_angle_alpha 69.388979
_cell_angle_beta 148.012185
_cell_angle_gamma 103.064036
_cell_volume 687.450633
_symmetry_space_group_name_H-M "P -1"
_symmetry_group_IT_number 2
_symmetry_cell_setting 'triclinic'
loop_
_space_group_symop_operation_xyz
x,y,z
-x,-y,-z
loop_
_atom_site_type_symbol
_atom_site_label
_atom_site_fract_x
_atom_site_fract_y
_atom_site_fract_z
Si Si1 0.360971 0.379577 0.401767
Si Si2 0.945450 0.100288 0.782077
Si Si3 0.414634 0.293041 0.308266
Si Si4 0.593748 0.442961 0.110890
Si Si5 0.384779 0.919312 0.060871
Si Si6 0.031871 0.044756 0.330700
Si Si7 0.856191 0.294003 0.924465
Si Si8 0.906441 0.213655 0.492943
O O1 0.500000 0.500000 0.500000
O O2 0.146993 0.587626 0.273301
O O3 0.496766 0.352471 0.403422
O O4 0.268804 0.134856 0.413571
O O5 0.748444 0.931761 0.730803
O O6 0.002253 0.075806 0.739170
O O7 0.159669 0.998549 0.920689
O O8 0.259499 0.553186 0.193827
O O9 0.638648 0.229504 0.373184
O O10 0.543101 0.717119 0.104005
O O11 0.845231 0.307436 0.233538
O O12 0.466688 0.193910 0.095340
O O13 0.500000 0.500000 0.000000
O O14 0.333461 0.751770 0.108727
O O15 0.026058 0.887119 0.402732
O O16 0.000000 0.500000 0.000000
O O17 0.000000 0.000000 0.000000
O O18 0.000000 0.500000 0.500000
O O19 0.000000 0.000000 0.500000
#
# Coordination Sequence:
#
# PCOD9061268 Si02
#       8
#     2   2   2   2   2   2   2   2
#     4  11  24  45  81 106 143 184 259 317 373 426
#     4  11  23  44  78 106 145 183 248 317 365 443
#     4  11  27  48  73 112 146 198 251 313 377 436
#     4  12  26  45  71 108 152 192 240 302 368 452
#     4  12  26  44  70 110 148 194 239 295 380 438
#     4  11  27  46  74 108 145 196 253 304 377 430
#     4  12  26  46  75 109 151 191 245 305 376 451
#     4  12  32  52  74 104 150 200 251 300 366 454
#
# _framework density 23.274398999999999
#
# number of rings (size 3 to 8) (size 9 to 14) (size 15 to 20)
#    0.000    0.500    2.500    4.125   12.250    2.000 
#    0.000    0.000    0.000    0.000    0.000    0.000 
#    0.000    0.000    0.000    0.000    0.000    0.000 
#
# Total GULP energy -89476.778326 kJ/mol
# GULP energy per Si atom -5592.298645 kJ/mol
# Density = 2.322143 g / cm^3
# Si number density = 23.274399 Si / 1000 Ang^3
#
#
#
# Elastic Constant Matrix: (Units=GPa)
#
#
# Indices 1 2 3 4 5 6 
#
# 1 144.6657 50.8861 57.1972 -13.0191 -5.3413 13.6567
# 2 50.8861 105.0001 31.4596 -8.2014 -5.5479 16.2968
# 3 57.1972 31.4596 120.9025 -25.1212 -5.2551 3.6683
# 4 -13.0191 -8.2014 -25.1212 50.8670 3.7886 5.5624
# 5 -5.3413 -5.5479 -5.2551 3.7886 49.5901 -11.7775
# 6 13.6567 16.2968 3.6683 5.5624 -11.7775 46.2738
#
#
#
# Elastic Compliance Matrix: (Units=1/GPa)
#
#
# Indices 1 2 3 4 5 6 
#
# 1 0.009682 -0.003369 -0.003596 0.000323 -0.000083 -0.001446
# 2 -0.003369 0.012114 -0.001290 0.000809 0.000019 -0.003262
# 3 -0.003596 -0.001290 0.011226 0.004366 0.000371 0.000195
# 4 0.000323 0.000809 0.004366 0.022619 -0.002084 -0.003976
# 5 -0.000083 0.000019 0.000371 -0.002084 0.021727 0.005769
# 6 -0.001446 -0.003262 0.000195 -0.003976 0.005769 0.025117
#
#
# Mechanical properties :
#
#
# Convention : Reuss Voigt Hill
#
# Bulk Modulus (GPa) = 60.57103 72.18378 66.37741
# Shear Modulus (GPa) = 40.16100 44.74789 42.45445
#
# Velocity S-wave (km/s) = 4.15847 4.38953 4.27556
# Velocity P-wave (km/s) = 7.00988 7.53473 7.27704
#
# Compressibility (1/GPa) = 0.01650954
#
# Stress axis : x y z
#
# Youngs Moduli (GPa) = 103.28367 82.55071 89.08174
#
# Poissons Ratio (x) = 0.27815 0.32037
# Poissons Ratio (y) = 0.34801 0.11493
# Poissons Ratio (z) = 0.37144 0.10650
#
# Static dielectric constant tensor:
#      x y z
#    x 2.252460 0.067960 1.811250 
#    y 0.067960 1.941820 0.387210 
#    z 1.811250 0.387210 10.347490 
# 
# From -- ./inp_files/609147.got.cif
#   From: 2010.05.17/outbox.cif.g08.bks.cpg/sg2_305_cif.got.tgz:609147.got - 2010.06.03 11:33:40.
