data_PCOD9061914
_publ_section_title
;
Structure prediction by ZEFSAII (Michael W. Deem and Ramdas Pophale) SiO2 
 PCOD9061914
Probable space group: P -1
;
_chemical_formula_sum "Si O2"
_cell_formula_units_Z 14
_cell_length_a 8.149966
_cell_length_b 18.974754
_cell_length_c 10.228250
_cell_angle_alpha 22.432064
_cell_angle_beta 70.459900
_cell_angle_gamma 70.440871
_cell_volume 567.363500
_symmetry_space_group_name_H-M "P -1"
_symmetry_group_IT_number 2
_symmetry_cell_setting 'triclinic'
loop_
_space_group_symop_operation_xyz
x,y,z
-x,-y,-z
loop_
_atom_site_type_symbol
_atom_site_label
_atom_site_fract_x
_atom_site_fract_y
_atom_site_fract_z
Si Si1 0.104661 0.645385 0.640650
Si Si2 0.529705 0.190362 0.741685
Si Si3 0.858882 0.336088 0.682434
Si Si4 0.219027 0.464526 0.398622
Si Si5 0.498158 0.977697 0.379197
Si Si6 0.883369 0.148573 0.362681
Si Si7 0.134200 0.095541 0.628386
O O1 0.287013 0.730228 0.484514
O O2 0.150763 0.565679 0.622507
O O3 0.956690 0.816844 0.368988
O O4 0.000000 0.500000 0.000000
O O5 0.375048 0.346662 0.491315
O O6 0.517896 0.141373 0.984562
O O7 0.500000 0.000000 0.000000
O O8 0.732876 0.444192 0.632958
O O9 0.056702 0.339551 0.678008
O O10 0.833426 0.122029 0.034084
O O11 0.139295 0.641339 0.039032
O O12 0.500000 0.000000 0.500000
O O13 0.313584 0.910093 0.498794
O O14 0.670794 0.839415 0.546021
O O15 0.986734 0.152947 0.463062
O O16 0.000000 0.000000 0.500000
#
# Coordination Sequence:
#
# PCOD9061914 Si02
#       7
#     2   2   2   2   2   2   2
#     4  12  28  48  75 113 159 212 265 333 402 486
#     4  12  29  53  81 118 163 216 273 337 412 490
#     4  11  23  46  73 111 150 205 255 333 398 472
#     4  11  26  45  81 114 160 203 265 335 407 480
#     4  12  26  46  83 117 153 212 268 331 401 489
#     4  12  24  47  75 115 161 200 260 330 405 475
#     4  12  25  50  78 111 165 207 269 329 409 479
#
# _framework density 24.675539000000001
#
# number of rings (size 3 to 8) (size 9 to 14) (size 15 to 20)
#    0.000    0.286    4.286    3.857    6.000    1.714 
#    0.000    2.143    0.000    0.000    0.000    0.000 
#    0.000    0.000    0.000    0.000    0.000    0.000 
#
# Total GULP energy -78167.343398 kJ/mol
# GULP energy per Si atom -5583.381671 kJ/mol
# Density = 2.461938 g / cm^3
# Si number density = 24.675539 Si / 1000 Ang^3
#
#
#
# Elastic Constant Matrix: (Units=GPa)
#
#
# Indices 1 2 3 4 5 6 
#
# 1 175.2862 38.6852 49.0396 -8.4885 -15.5124 -28.0477
# 2 38.6852 79.7303 33.6223 -12.8123 6.0950 -14.9029
# 3 49.0396 33.6223 129.7946 -4.5794 -10.8047 -5.0927
# 4 -8.4885 -12.8123 -4.5794 46.7139 1.5623 13.2812
# 5 -15.5124 6.0950 -10.8047 1.5623 39.3642 3.3681
# 6 -28.0477 -14.9029 -5.0927 13.2812 3.3681 49.2246
#
#
#
# Elastic Compliance Matrix: (Units=1/GPa)
#
#
# Indices 1 2 3 4 5 6 
#
# 1 0.007512 -0.002529 -0.001858 -0.000532 0.002582 0.003289
# 2 -0.002529 0.016657 -0.003550 0.003152 -0.004908 0.002720
# 3 -0.001858 -0.003550 0.009483 -0.000097 0.002535 -0.001299
# 4 -0.000532 0.003152 -0.000097 0.023827 -0.001182 -0.005707
# 5 0.002582 -0.004908 0.002535 -0.001182 0.028040 -0.001352
# 6 0.003289 0.002720 -0.001299 -0.005707 -0.001352 0.024511
#
#
# Mechanical properties :
#
#
# Convention : Reuss Voigt Hill
#
# Bulk Modulus (GPa) = 56.25201 69.72280 62.98741
# Shear Modulus (GPa) = 37.92821 44.62480 41.27651
#
# Velocity S-wave (km/s) = 3.92481 4.25722 4.09439
# Velocity P-wave (km/s) = 6.58673 7.24447 6.92342
#
# Compressibility (1/GPa) = 0.01777714
#
# Stress axis : x y z
#
# Youngs Moduli (GPa) = 133.12117 60.03655 105.45671
#
# Poissons Ratio (x) = 0.15186 0.19591
# Poissons Ratio (y) = 0.33673 0.37434
# Poissons Ratio (z) = 0.24731 0.21311
#
# Static dielectric constant tensor:
#      x y z
#    x 2.031840 0.018660 -0.033240 
#    y 0.018660 2.090780 0.031900 
#    z -0.033240 0.031900 2.097910 
# 
# From -- ./inp_files/404411.got.cif
#   From: 2010.05.17/outbox.cif.g08.bks.cpg/sg2_203_cif.got.tgz:404411.got - 2010.06.03 11:33:40.
