data_PCOD9061795
_publ_section_title
;
Structure prediction by ZEFSAII (Michael W. Deem and Ramdas Pophale) SiO2 
 PCOD9061795
Probable space group: P -1
;
_chemical_formula_sum "Si O2"
_cell_formula_units_Z 12
_cell_length_a 10.115492
_cell_length_b 12.171297
_cell_length_c 5.493752
_cell_angle_alpha 114.860992
_cell_angle_beta 119.949081
_cell_angle_gamma 83.161870
_cell_volume 528.194914
_symmetry_space_group_name_H-M "P -1"
_symmetry_group_IT_number 2
_symmetry_cell_setting 'triclinic'
loop_
_space_group_symop_operation_xyz
x,y,z
-x,-y,-z
loop_
_atom_site_type_symbol
_atom_site_label
_atom_site_fract_x
_atom_site_fract_y
_atom_site_fract_z
Si Si1 0.130386 0.114542 0.202842
Si Si2 0.951384 0.609974 0.726006
Si Si3 0.209910 0.510142 0.125644
Si Si4 0.304212 0.286991 0.828584
Si Si5 0.458073 0.062038 0.269157
Si Si6 0.492119 0.319998 0.533385
O O1 0.213520 0.154790 0.573976
O O2 0.276125 0.082644 0.144536
O O3 0.070075 0.246051 0.196786
O O4 0.000000 0.000000 0.000000
O O5 0.000000 0.500000 0.500000
O O6 0.815361 0.614010 0.170129
O O7 0.088873 0.604458 0.048453
O O8 0.197487 0.460339 0.341661
O O9 0.378028 0.569544 0.269595
O O10 0.398969 0.302024 0.177200
O O11 0.403794 0.320236 0.709175
O O12 0.561287 0.192125 0.491162
O O13 0.500000 0.000000 0.500000
O O14 0.500000 0.000000 0.000000
#
# Coordination Sequence:
#
# PCOD9061795 Si02
#       6
#     2   2   2   2   2   2
#     4  11  26  49  80 107 153 203 248 310 383 448
#     4  11  25  46  71 108 153 191 253 307 369 456
#     4  11  24  42  72 105 149 193 244 308 379 439
#     4  11  23  46  70 113 142 190 248 312 362 454
#     4  11  25  48  70 106 148 195 253 308 362 452
#     4  11  25  42  76 104 146 193 250 308 379 432
#
# _framework density 22.718888
#
# number of rings (size 3 to 8) (size 9 to 14) (size 15 to 20)
#    0.000    1.000    1.667    5.000    4.667    1.333 
#    0.000   10.000    0.000    0.000    0.000    0.000 
#    0.000    0.000    0.000    0.000    0.000    0.000 
#
# Total GULP energy -66808.016929 kJ/mol
# GULP energy per Si atom -5567.334744 kJ/mol
# Density = 2.266718 g / cm^3
# Si number density = 22.718888 Si / 1000 Ang^3
#
#
#
# Elastic Constant Matrix: (Units=GPa)
#
#
# Indices 1 2 3 4 5 6 
#
# 1 141.0762 60.6533 63.2666 23.5600 -28.7609 6.5870
# 2 60.6533 169.0990 56.9582 -0.0542 -12.2007 -0.6765
# 3 63.2666 56.9582 92.0121 6.0420 -16.7471 1.4020
# 4 23.5600 -0.0542 6.0420 48.1015 2.0124 4.4946
# 5 -28.7609 -12.2007 -16.7471 2.0124 45.6309 12.4648
# 6 6.5870 -0.6765 1.4020 4.4946 12.4648 42.0394
#
#
#
# Elastic Compliance Matrix: (Units=1/GPa)
#
#
# Indices 1 2 3 4 5 6 
#
# 1 0.013239 -0.002234 -0.006084 -0.005695 0.006659 -0.003273
# 2 -0.002234 0.007869 -0.003608 0.001528 -0.000885 0.000696
# 3 -0.006084 -0.003608 0.017547 0.000726 0.001681 -0.000266
# 4 -0.005695 0.001528 0.000726 0.023697 -0.003821 -0.000508
# 5 0.006659 -0.000885 0.001681 -0.003821 0.029220 -0.009369
# 6 -0.003273 0.000696 -0.000266 -0.000508 -0.009369 0.027152
#
#
# Mechanical properties :
#
#
# Convention : Reuss Voigt Hill
#
# Bulk Modulus (GPa) = 67.54777 84.88263 76.21520
# Shear Modulus (GPa) = 33.89578 41.90830 37.90204
#
# Velocity S-wave (km/s) = 3.86679 4.29959 4.08892
# Velocity P-wave (km/s) = 7.05213 7.87984 7.47745
#
# Compressibility (1/GPa) = 0.01480434
#
# Stress axis : x y z
#
# Youngs Moduli (GPa) = 75.53567 127.07366 56.98902
#
# Poissons Ratio (x) = 0.28383 0.34674
# Poissons Ratio (y) = 0.16872 0.20560
# Poissons Ratio (z) = 0.45958 0.45844
#
# Static dielectric constant tensor:
#      x y z
#    x 1.968430 -0.123830 -0.009910 
#    y -0.123830 1.740890 0.159800 
#    z -0.009910 0.159800 1.816020 
# 
# From -- ./inp_files/22559.got.cif
#   From: 2010.05.17/outbox.cif.g08.bks.cpg/sg2_12_cif.got.tgz:22559.got - 2010.06.03 11:33:40.
