data_PCOD9061023
_publ_section_title
;
Structure prediction by ZEFSAII (Michael W. Deem and Ramdas Pophale) SiO2 
 PCOD9061023
Probable space group: P -1
;
_chemical_formula_sum "Si O2"
_cell_formula_units_Z 14
_cell_length_a 11.635473
_cell_length_b 5.220067
_cell_length_c 12.165565
_cell_angle_alpha 97.159327
_cell_angle_beta 119.923947
_cell_angle_gamma 63.774439
_cell_volume 570.104026
_symmetry_space_group_name_H-M "P -1"
_symmetry_group_IT_number 2
_symmetry_cell_setting 'triclinic'
loop_
_space_group_symop_operation_xyz
x,y,z
-x,-y,-z
loop_
_atom_site_type_symbol
_atom_site_label
_atom_site_fract_x
_atom_site_fract_y
_atom_site_fract_z
Si Si1 0.439747 0.602983 0.170338
Si Si2 0.049418 0.185361 0.616482
Si Si3 0.774696 0.769848 0.478407
Si Si4 0.624006 0.689778 0.083400
Si Si5 0.928864 0.632894 0.154221
Si Si6 0.871123 0.899025 0.906807
Si Si7 0.606668 0.396598 0.443749
O O1 0.569105 0.657486 0.176326
O O2 0.518136 0.375717 0.292243
O O3 0.294713 0.851848 0.171075
O O4 0.383146 0.515322 0.028290
O O5 0.198239 0.162750 0.630807
O O6 0.049753 0.134138 0.744689
O O7 0.932188 0.519334 0.574228
O O8 0.000000 0.000000 0.500000
O O9 0.667550 0.626852 0.452330
O O10 0.727076 0.083604 0.521271
O O11 0.795103 0.615003 0.153502
O O12 0.500000 0.000000 0.000000
O O13 0.070349 0.336325 0.175286
O O14 0.864889 0.748473 0.009940
O O15 0.000000 0.000000 0.000000
O O16 0.500000 0.500000 0.500000
#
# Coordination Sequence:
#
# PCOD9061023 Si02
#       7
#     2   2   2   2   2   2   2
#     4  11  26  43  74 106 148 192 250 309 377 456
#     4  11  25  47  79 107 150 198 258 325 381 449
#     4  11  26  50  71 114 142 200 263 308 382 446
#     4  11  23  44  71 110 139 190 247 310 378 446
#     4  11  25  43  75 103 147 192 248 314 381 459
#     4  11  24  45  65 110 146 191 242 302 386 458
#     4  12  28  48  75 108 158 202 252 312 384 461
#
# _framework density 24.556923000000001
#
# number of rings (size 3 to 8) (size 9 to 14) (size 15 to 20)
#    0.000    0.857    4.286    1.286    6.000    3.429 
#    0.000    0.000    0.000    0.000    0.000    0.000 
#    0.000    0.000    0.000    0.000    0.000    0.000 
#
# Total GULP energy -78088.776414 kJ/mol
# GULP energy per Si atom -5577.769744 kJ/mol
# Density = 2.450103 g / cm^3
# Si number density = 24.556923 Si / 1000 Ang^3
#
#
#
# Elastic Constant Matrix: (Units=GPa)
#
#
# Indices 1 2 3 4 5 6 
#
# 1 160.9011 65.2382 41.4130 23.0264 -6.9203 -30.0122
# 2 65.2382 110.8228 31.8206 6.0408 -14.8757 -27.7420
# 3 41.4130 31.8206 74.9306 17.5029 -16.1381 -12.8427
# 4 23.0264 6.0408 17.5029 38.6166 -3.6239 4.5872
# 5 -6.9203 -14.8757 -16.1381 -3.6239 31.6630 4.0718
# 6 -30.0122 -27.7420 -12.8427 4.5872 4.0718 47.4439
#
#
#
# Elastic Compliance Matrix: (Units=1/GPa)
#
#
# Indices 1 2 3 4 5 6 
#
# 1 0.009805 -0.004174 -0.002322 -0.004780 -0.002033 0.003770
# 2 -0.004174 0.013649 -0.002179 0.001204 0.003975 0.004293
# 3 -0.002322 -0.002179 0.019023 -0.006518 0.007107 0.002427
# 4 -0.004780 0.001204 -0.006518 0.032458 0.000852 -0.007295
# 5 -0.002033 0.003975 0.007107 0.000852 0.036761 -0.000275
# 6 0.003770 0.004293 0.002427 -0.007295 -0.000275 0.027359
#
#
# Mechanical properties :
#
#
# Convention : Reuss Voigt Hill
#
# Bulk Modulus (GPa) = 39.79560 69.28868 54.54214
# Shear Modulus (GPa) = 30.34378 37.42356 33.88367
#
# Velocity S-wave (km/s) = 3.51900 3.90802 3.71860
# Velocity P-wave (km/s) = 5.72291 6.97426 6.37934
#
# Compressibility (1/GPa) = 0.02512841
#
# Stress axis : x y z
#
# Youngs Moduli (GPa) = 101.99338 73.26760 52.56726
#
# Poissons Ratio (x) = 0.30580 0.12204
# Poissons Ratio (y) = 0.42569 0.11452
# Poissons Ratio (z) = 0.23679 0.15962
#
# Static dielectric constant tensor:
#      x y z
#    x 1.991010 0.114080 -0.006650 
#    y 0.114080 1.932500 0.043070 
#    z -0.006650 0.043070 2.093390 
# 
# From -- ./inp_files/410887.got.cif
#   From: 2010.05.17/outbox.cif.g08.bks.cpg/sg2_206_cif.got.tgz:410887.got - 2010.06.03 11:33:40.
