data_PCOD9061498
_publ_section_title
;
Structure prediction by ZEFSAII (Michael W. Deem and Ramdas Pophale) SiO2 
 PCOD9061498
Probable space group: P -1
;
_chemical_formula_sum "Si O2"
_cell_formula_units_Z 14
_cell_length_a 10.566087
_cell_length_b 7.073154
_cell_length_c 14.053986
_cell_angle_alpha 72.641858
_cell_angle_beta 42.780646
_cell_angle_gamma 101.517134
_cell_volume 519.877420
_symmetry_space_group_name_H-M "P -1"
_symmetry_group_IT_number 2
_symmetry_cell_setting 'triclinic'
loop_
_space_group_symop_operation_xyz
x,y,z
-x,-y,-z
loop_
_atom_site_type_symbol
_atom_site_label
_atom_site_fract_x
_atom_site_fract_y
_atom_site_fract_z
Si Si1 0.246676 0.192702 0.590746
Si Si2 0.629038 0.369554 0.469479
Si Si3 0.492042 0.065917 0.826044
Si Si4 0.007630 0.340703 0.939919
Si Si5 0.745022 0.725362 0.033345
Si Si6 0.878472 0.088621 0.490423
Si Si7 0.325496 0.561038 0.061549
O O1 0.389076 0.117045 0.590995
O O2 0.520577 0.724478 0.154391
O O3 0.267251 0.113190 0.486213
O O4 0.975625 0.990517 0.815545
O O5 0.500000 0.500000 0.500000
O O6 0.849674 0.489376 0.258288
O O7 0.731187 0.546341 0.480104
O O8 0.713186 0.126045 0.635478
O O9 0.429650 0.850801 0.967696
O O10 0.258716 0.914175 0.905623
O O11 0.175110 0.285808 0.903798
O O12 0.000000 0.500000 0.000000
O O13 0.705196 0.503969 0.024613
O O14 0.083251 0.357362 0.284436
O O15 0.000000 0.000000 0.500000
O O16 0.500000 0.500000 0.000000
#
# Coordination Sequence:
#
# PCOD9061498 Si02
#       7
#     2   2   2   2   2   2   2
#     4   8  19  39  60  93 133 173 216 280 334 402
#     4   8  18  36  59  91 132 171 212 271 333 407
#     4  12  24  45  70 103 137 181 230 288 344 408
#     4  12  22  40  67  99 140 179 221 277 351 413
#     4  11  24  44  67 104 138 181 228 283 348 419
#     4  11  23  45  71  97 134 183 239 285 343 413
#     4  11  25  48  71  97 141 182 232 291 346 403
#
# _framework density 26.929424999999998
#
# number of rings (size 3 to 8) (size 9 to 14) (size 15 to 20)
#    0.857    0.571    4.286    1.286    0.000    0.571 
#    7.714    2.857    0.000    0.000    0.000    0.000 
#    0.000    0.000    0.000    0.000    0.000    0.000 
#
# Total GULP energy -78016.877169 kJ/mol
# GULP energy per Si atom -5572.634083 kJ/mol
# Density = 2.686813 g / cm^3
# Si number density = 26.929425 Si / 1000 Ang^3
#
#
#
# Elastic Constant Matrix: (Units=GPa)
#
#
# Indices 1 2 3 4 5 6 
#
# 1 76.4183 18.8481 20.3569 -6.6020 12.5978 -16.5879
# 2 18.8481 153.5461 57.3519 24.5733 3.3078 -17.8070
# 3 20.3569 57.3519 126.7408 39.2683 6.5585 -12.8920
# 4 -6.6020 24.5733 39.2683 38.6847 -10.5401 -1.3283
# 5 12.5978 3.3078 6.5585 -10.5401 31.4782 0.5977
# 6 -16.5879 -17.8070 -12.8920 -1.3283 0.5977 48.4368
#
#
#
# Elastic Compliance Matrix: (Units=1/GPa)
#
#
# Indices 1 2 3 4 5 6 
#
# 1 0.016377 -0.001122 -0.003322 0.005993 -0.003824 0.004524
# 2 -0.001122 0.008293 -0.002256 -0.003410 -0.001132 0.001985
# 3 -0.003322 -0.002256 0.015002 -0.016219 -0.007022 0.001668
# 4 0.005993 -0.003410 -0.016219 0.050396 0.018258 -0.002361
# 5 -0.003824 -0.001132 -0.007022 0.018258 0.041062 -0.003601
# 6 0.004524 0.001985 0.001668 -0.002361 -0.003601 0.023348
#
#
# Mechanical properties :
#
#
# Convention : Reuss Voigt Hill
#
# Bulk Modulus (GPa) = 38.05886 61.09102 49.57494
# Shear Modulus (GPa) = 28.30690 41.06316 34.68503
#
# Velocity S-wave (km/s) = 3.24566 3.90916 3.59276
# Velocity P-wave (km/s) = 5.31124 6.56584 5.97158
#
# Compressibility (1/GPa) = 0.02627509
#
# Stress axis : x y z
#
# Youngs Moduli (GPa) = 61.05961 120.58043 66.65613
#
# Poissons Ratio (x) = 0.13526 0.22141
# Poissons Ratio (y) = 0.06849 0.15035
# Poissons Ratio (z) = 0.20282 0.27198
#
# Static dielectric constant tensor:
#      x y z
#    x 2.271030 -0.159610 0.251980 
#    y -0.159610 2.040150 -0.038170 
#    z 0.251980 -0.038170 2.294300 
# 
# From -- ./inp_files/74524.got.cif
#   From: 2010.05.17/outbox.cif.g08.bks.cpg/sg2_38_cif.got.tgz:74524.got - 2010.06.03 11:33:40.
