data_PCOD9061379
_publ_section_title
;
Structure prediction by ZEFSAII (Michael W. Deem and Ramdas Pophale) SiO2 
 PCOD9061379
Probable space group: P -1
;
_chemical_formula_sum "Si O2"
_cell_formula_units_Z 15
_cell_length_a 12.261649
_cell_length_b 14.782462
_cell_length_c 10.432226
_cell_angle_alpha 152.443093
_cell_angle_beta 39.677775
_cell_angle_gamma 139.463277
_cell_volume 538.880113
_symmetry_space_group_name_H-M "P -1"
_symmetry_group_IT_number 2
_symmetry_cell_setting 'triclinic'
loop_
_space_group_symop_operation_xyz
x,y,z
-x,-y,-z
loop_
_atom_site_type_symbol
_atom_site_label
_atom_site_fract_x
_atom_site_fract_y
_atom_site_fract_z
Si Si1 0.187238 0.106899 0.242360
Si Si2 0.263134 0.538657 0.583977
Si Si3 0.203426 0.488254 0.285970
Si Si4 0.901155 0.545471 0.022922
Si Si5 0.726327 0.067175 0.297765
Si Si6 0.500000 0.000000 0.000000
Si Si7 0.351647 0.879734 0.301730
Si Si8 0.190480 0.143669 0.656322
O O1 0.250450 0.342551 0.439185
O O2 0.990956 0.029661 0.382674
O O3 0.148571 0.982727 0.984825
O O4 0.336695 0.035724 0.096030
O O5 0.285137 0.477970 0.339821
O O6 0.401856 0.744186 0.760389
O O7 0.062332 0.569267 0.806254
O O8 0.295207 0.707825 0.420365
O O9 0.000000 0.500000 0.500000
O O10 0.222969 0.315099 0.952399
O O11 0.737750 0.351471 0.923073
O O12 0.822035 0.732612 0.304062
O O13 0.000000 0.500000 0.000000
O O14 0.760645 0.049169 0.393525
O O15 0.542257 0.918113 0.235368
O O16 0.340843 0.019091 0.362672
#
# Coordination Sequence:
#
# PCOD9061379 Si02
#       8
#     2   2   2   2   2   1   2   2
#     4  12  25  44  76 101 134 181 237 289 347 399
#     4  12  25  45  71 105 134 183 233 287 346 400
#     4  12  20  41  77 102 137 172 228 296 341 397
#     4  12  26  45  67  96 143 186 229 277 342 421
#     4  11  23  45  69 105 141 179 219 298 349 399
#     4  12  24  46  64  98 144 170 226 298 324 408
#     4  11  26  45  68  99 146 178 230 278 352 422
#     4  12  24  46  76 103 131 186 233 286 346 413
#
# _framework density 27.835505999999999
#
# number of rings (size 3 to 8) (size 9 to 14) (size 15 to 20)
#    0.000    0.267    8.000    1.200    1.867    2.133 
#    4.800    0.000    0.000    0.000    0.000    0.000 
#    0.000    0.000    0.000    0.000    0.000    0.000 
#
# Total GULP energy -83921.552107 kJ/mol
# GULP energy per Si atom -5594.770140 kJ/mol
# Density = 2.777215 g / cm^3
# Si number density = 27.835506 Si / 1000 Ang^3
#
#
#
# Elastic Constant Matrix: (Units=GPa)
#
#
# Indices 1 2 3 4 5 6 
#
# 1 130.8318 41.2354 41.2492 26.4773 -12.7173 -13.1234
# 2 41.2354 116.1897 39.4123 53.5452 -14.6060 11.0522
# 3 41.2492 39.4123 142.6353 34.8268 -2.3260 7.1152
# 4 26.4773 53.5452 34.8268 64.6685 1.7701 -0.7925
# 5 -12.7173 -14.6060 -2.3260 1.7701 61.4582 5.4877
# 6 -13.1234 11.0522 7.1152 -0.7925 5.4877 41.1471
#
#
#
# Elastic Compliance Matrix: (Units=1/GPa)
#
#
# Indices 1 2 3 4 5 6 
#
# 1 0.009802 -0.002782 -0.002123 -0.000542 0.000936 0.004105
# 2 -0.002782 0.016670 -0.000331 -0.012678 0.004285 -0.006123
# 3 -0.002123 -0.000331 0.008699 -0.003571 0.000108 -0.002176
# 4 -0.000542 -0.012678 -0.003571 0.028290 -0.004521 0.004998
# 5 0.000936 0.004285 0.000108 -0.004521 0.017917 -0.003348
# 6 0.004105 -0.006123 -0.002176 0.004998 -0.003348 0.028176
#
#
# Mechanical properties :
#
#
# Convention : Reuss Voigt Hill
#
# Bulk Modulus (GPa) = 40.48805 70.38338 55.43572
# Shear Modulus (GPa) = 38.98409 51.30542 45.14475
#
# Velocity S-wave (km/s) = 3.74641 4.29787 4.03158
# Velocity P-wave (km/s) = 5.76985 7.06889 6.45215
#
# Compressibility (1/GPa) = 0.02469865
#
# Stress axis : x y z
#
# Youngs Moduli (GPa) = 102.02032 59.98962 114.96184
#
# Poissons Ratio (x) = 0.16686 0.24410
# Poissons Ratio (y) = 0.28378 0.03804
# Poissons Ratio (z) = 0.21662 0.01985
#
# Static dielectric constant tensor:
#      x y z
#    x 2.141060 0.007650 0.007910 
#    y 0.007650 2.120980 -0.016880 
#    z 0.007910 -0.016880 2.130560 
# 
# From -- ./inp_files/433467.got.cif
#   From: 2010.05.17/outbox.cif.g08.bks.cpg/sg2_217_cif.got.tgz:433467.got - 2010.06.03 11:33:40.
