data_PCOD9061111
_publ_section_title
;
Structure prediction by ZEFSAII (Michael W. Deem and Ramdas Pophale) SiO2 
 PCOD9061111
Probable space group: P -1
;
_chemical_formula_sum "Si O2"
_cell_formula_units_Z 14
_cell_length_a 9.160359
_cell_length_b 14.723714
_cell_length_c 14.678066
_cell_angle_alpha 30.528642
_cell_angle_beta 126.496917
_cell_angle_gamma 106.474759
_cell_volume 669.682977
_symmetry_space_group_name_H-M "P -1"
_symmetry_group_IT_number 2
_symmetry_cell_setting 'triclinic'
loop_
_space_group_symop_operation_xyz
x,y,z
-x,-y,-z
loop_
_atom_site_type_symbol
_atom_site_label
_atom_site_fract_x
_atom_site_fract_y
_atom_site_fract_z
Si Si1 0.536916 0.045493 0.759973
Si Si2 0.285688 0.842605 0.882678
Si Si3 0.445501 0.420162 0.958897
Si Si4 0.008890 0.277877 0.706898
Si Si5 0.371725 0.073133 0.293722
Si Si6 0.916882 0.114231 0.640141
Si Si7 0.524179 0.448878 0.448035
O O1 0.465638 0.275309 0.567423
O O2 0.428948 0.941670 0.861416
O O3 0.476142 0.071188 0.608935
O O4 0.796557 0.876325 0.018095
O O5 0.350031 0.739870 0.893709
O O6 0.369445 0.652115 0.150943
O O7 0.045340 0.031214 0.663747
O O8 0.285009 0.636830 0.656226
O O9 0.500000 0.500000 0.000000
O O10 0.326672 0.302870 0.048868
O O11 0.000000 0.500000 0.500000
O O12 0.051715 0.132141 0.757688
O O13 0.773269 0.346255 0.597196
O O14 0.500000 0.000000 0.500000
O O15 0.177980 0.033623 0.254190
O O16 0.500000 0.500000 0.500000
#
# Coordination Sequence:
#
# PCOD9061111 Si02
#       7
#     2   2   2   2   2   2   2
#     4  11  24  44  67  96 141 184 223 283 344 408
#     4  11  26  45  66 105 137 176 235 277 343 414
#     4  11  23  47  73  95 139 183 225 286 343 400
#     4  12  23  44  71  99 142 186 225 281 354 408
#     4  11  23  44  72  99 133 184 230 280 347 404
#     4  12  25  45  73 101 140 179 230 288 342 411
#     4  12  25  40  66 102 142 178 228 282 338 414
#
# _framework density 20.905415000000001
#
# number of rings (size 3 to 8) (size 9 to 14) (size 15 to 20)
#    0.000    0.571    5.714    2.143    4.000    2.857 
#    0.000    0.714    0.000    0.000    0.000    0.000 
#    0.000    0.000    0.000    0.000    0.000    0.000 
#
# Total GULP energy -78139.753371 kJ/mol
# GULP energy per Si atom -5581.410955 kJ/mol
# Density = 2.085783 g / cm^3
# Si number density = 20.905415 Si / 1000 Ang^3
#
#
#
# Elastic Constant Matrix: (Units=GPa)
#
#
# Indices 1 2 3 4 5 6 
#
# 1 -8.0849 52.5375 26.7133 -6.6493 23.9586 -21.1699
# 2 52.5375 161.8488 40.4185 -24.2605 -29.0048 -3.9485
# 3 26.7133 40.4185 28.9096 -15.1586 -20.9250 -5.2390
# 4 -6.6493 -24.2605 -15.1586 35.3634 -6.5452 -5.5993
# 5 23.9586 -29.0048 -20.9250 -6.5452 21.9950 -3.2022
# 6 -21.1699 -3.9485 -5.2390 -5.5993 -3.2022 35.7820
#
#
#
# Elastic Compliance Matrix: (Units=1/GPa)
#
#
# Indices 1 2 3 4 5 6 
#
# 1 0.006325 -0.000809 0.030811 0.021619 0.029859 0.014219
# 2 -0.000809 0.009638 -0.017933 -0.002537 -0.004639 -0.002853
# 3 0.030811 -0.017933 0.062612 0.028090 0.015255 0.031178
# 4 0.021619 -0.002537 0.028090 0.050222 0.018580 0.026145
# 5 0.029859 -0.004639 0.015255 0.018580 0.030508 0.025025
# 6 0.014219 -0.002853 0.031178 0.026145 0.025025 0.046941
#
#
# Mechanical properties :
#
#
# Convention : Reuss Voigt Hill
#
# Bulk Modulus (GPa) = 9.73573 46.89025 28.31299
# Shear Modulus (GPa) = 23.11107 22.82837 22.96972
#
# Velocity S-wave (km/s) = 3.32852 3.30810 3.31833
# Velocity P-wave (km/s) = 4.40899 6.08850 5.31550
#
# Compressibility (1/GPa) = 0.10271446
#
# Stress axis : x y z
#
# Youngs Moduli (GPa) = 158.09182 103.75184 15.97129
#
# Poissons Ratio (x) = 0.08397 -0.49209
# Poissons Ratio (y) = 0.12794 0.28641
# Poissons Ratio (z) = -4.87100 1.86056
#
# Static dielectric constant tensor:
#      x y z
#    x 1.777860 -0.009310 -0.028340 
#    y -0.009310 1.795320 0.008820 
#    z -0.028340 0.008820 1.756000 
# 
# From -- ./inp_files/177208.got.cif
#   From: 2010.05.17/outbox.cif.g08.bks.cpg/sg2_89_cif.got.tgz:177208.got - 2010.06.03 11:33:40.
