data_PCOD9061639
_publ_section_title
;
Structure prediction by ZEFSAII (Michael W. Deem and Ramdas Pophale) SiO2 
 PCOD9061639
Probable space group: P -1
;
_chemical_formula_sum "Si O2"
_cell_formula_units_Z 16
_cell_length_a 9.143090
_cell_length_b 11.568236
_cell_length_c 14.430361
_cell_angle_alpha 51.744119
_cell_angle_beta 37.447415
_cell_angle_gamma 67.719945
_cell_volume 708.248727
_symmetry_space_group_name_H-M "P -1"
_symmetry_group_IT_number 2
_symmetry_cell_setting 'triclinic'
loop_
_space_group_symop_operation_xyz
x,y,z
-x,-y,-z
loop_
_atom_site_type_symbol
_atom_site_label
_atom_site_fract_x
_atom_site_fract_y
_atom_site_fract_z
Si Si1 0.139112 0.483544 0.815416
Si Si2 0.387506 0.106765 0.070850
Si Si3 0.465829 0.946328 0.297309
Si Si4 0.335419 0.375084 0.215268
Si Si5 0.409983 0.566535 0.264629
Si Si6 0.777690 0.366693 0.486383
Si Si7 0.299034 0.814978 0.823211
Si Si8 0.136214 0.821765 0.701823
O O1 0.341236 0.450151 0.800438
O O2 0.245242 0.522328 0.640215
O O3 0.071816 0.639408 0.806342
O O4 0.917935 0.336882 0.987977
O O5 0.397641 0.046153 0.199248
O O6 0.107344 0.117390 0.187073
O O7 0.548131 0.275238 0.888838
O O8 0.500000 0.000000 0.000000
O O9 0.712315 0.043347 0.175667
O O10 0.442523 0.783644 0.340161
O O11 0.277899 0.900025 0.501226
O O12 0.344017 0.442700 0.280407
O O13 0.462123 0.236076 0.232671
O O14 0.048261 0.331200 0.353307
O O15 0.500000 0.500000 0.000000
O O16 0.227090 0.564626 0.443598
O O17 0.304639 0.852732 0.693285
#
# Coordination Sequence:
#
# PCOD9061639 Si02
#       8
#     2   2   2   2   2   2   2   2
#     4  11  23  45  75 106 135 184 241 287 348 412
#     4  12  25  44  69  99 142 189 228 283 360 414
#     4  11  27  44  68 104 140 186 235 284 348 422
#     4  12  25  42  72 108 136 179 239 293 346 409
#     4  12  24  47  73 102 144 184 235 292 351 416
#     4  11  26  46  68 106 144 186 228 292 351 416
#     4  12  23  42  72 109 133 181 240 289 343 412
#     4  11  24  46  72 100 140 183 242 291 341 418
#
# _framework density 22.590935999999999
#
# number of rings (size 3 to 8) (size 9 to 14) (size 15 to 20)
#    0.000    0.500    5.000    3.375    7.000    0.000 
#    0.000    2.500    0.000    0.000    0.000    0.000 
#    0.000    0.000    0.000    0.000    0.000    0.000 
#
# Total GULP energy -89460.813633 kJ/mol
# GULP energy per Si atom -5591.300852 kJ/mol
# Density = 2.253952 g / cm^3
# Si number density = 22.590936 Si / 1000 Ang^3
#
#
#
# Elastic Constant Matrix: (Units=GPa)
#
#
# Indices 1 2 3 4 5 6 
#
# 1 116.6878 40.5260 54.4772 -1.0292 18.5005 22.1226
# 2 40.5260 86.6729 38.4598 0.8967 -4.9779 16.7800
# 3 54.4772 38.4598 89.5727 -11.7287 18.8778 -1.8325
# 4 -1.0292 0.8967 -11.7287 38.8966 4.4542 -8.1361
# 5 18.5005 -4.9779 18.8778 4.4542 46.6375 -2.9205
# 6 22.1226 16.7800 -1.8325 -8.1361 -2.9205 34.9897
#
#
#
# Elastic Compliance Matrix: (Units=1/GPa)
#
#
# Indices 1 2 3 4 5 6 
#
# 1 0.015910 -0.001265 -0.009309 -0.004361 -0.002963 -0.011202
# 2 -0.001265 0.018642 -0.009561 -0.006065 0.006345 -0.009522
# 3 -0.009309 -0.009561 0.024187 0.010965 -0.007309 0.013677
# 4 -0.004361 -0.006065 0.010965 0.032470 -0.005623 0.013321
# 5 -0.002963 0.006345 -0.007309 -0.005623 0.026751 -0.000627
# 6 -0.011202 -0.009522 0.013677 0.013321 -0.000627 0.043990
#
#
# Mechanical properties :
#
#
# Convention : Reuss Voigt Hill
#
# Bulk Modulus (GPa) = 54.14354 62.20661 58.17507
# Shear Modulus (GPa) = 23.99492 34.73612 29.36552
#
# Velocity S-wave (km/s) = 3.26260 3.92550 3.60930
# Velocity P-wave (km/s) = 6.18156 6.93844 6.57090
#
# Compressibility (1/GPa) = 0.01846942
#
# Stress axis : x y z
#
# Youngs Moduli (GPa) = 62.85254 53.64140 41.34449
#
# Poissons Ratio (x) = 0.06785 0.38487
# Poissons Ratio (y) = 0.07951 0.39530
# Poissons Ratio (z) = 0.58509 0.51288
#
# Static dielectric constant tensor:
#      x y z
#    x 1.807040 0.013790 -0.014690 
#    y 0.013790 1.956580 0.004780 
#    z -0.014690 0.004780 1.852770 
# 
# From -- ./inp_files/318196.got.cif
#   From: 2010.05.17/outbox.cif.g08.bks.cpg/sg2_160_cif.got.tgz:318196.got - 2010.06.03 11:33:40.
