data_PCOD9061131
_publ_section_title
;
Structure prediction by ZEFSAII (Michael W. Deem and Ramdas Pophale) SiO2 
 PCOD9061131
Probable space group: P -1
;
_chemical_formula_sum "Si O2"
_cell_formula_units_Z 15
_cell_length_a 11.798086
_cell_length_b 21.082737
_cell_length_c 15.127814
_cell_angle_alpha 161.528987
_cell_angle_beta 33.299635
_cell_angle_gamma 139.544896
_cell_volume 643.457892
_symmetry_space_group_name_H-M "P -1"
_symmetry_group_IT_number 2
_symmetry_cell_setting 'triclinic'
loop_
_space_group_symop_operation_xyz
x,y,z
-x,-y,-z
loop_
_atom_site_type_symbol
_atom_site_label
_atom_site_fract_x
_atom_site_fract_y
_atom_site_fract_z
Si Si1 0.577480 0.671465 0.464811
Si Si2 0.065448 0.172327 0.245442
Si Si3 0.871875 0.409181 0.291246
Si Si4 0.486808 0.999333 0.207731
Si Si5 0.000000 0.500000 0.000000
Si Si6 0.689076 0.844423 0.282658
Si Si7 0.335420 0.730846 0.242563
Si Si8 0.132268 0.776264 0.136759
O O1 0.346136 0.654063 0.623656
O O2 0.566185 0.867136 0.668831
O O3 0.764838 0.638762 0.369693
O O4 0.657191 0.470420 0.086387
O O5 0.127524 0.352188 0.382904
O O6 0.868015 0.252488 0.541786
O O7 0.267515 0.071828 0.035665
O O8 0.000000 0.000000 0.000000
O O9 0.899888 0.364474 0.109913
O O10 0.073778 0.277315 0.032258
O O11 0.398799 0.126584 0.521507
O O12 0.370607 0.807154 0.028976
O O13 0.952663 0.307809 0.831629
O O14 0.538442 0.729755 0.170616
O O15 0.679574 0.068582 0.543423
O O16 0.000000 0.000000 0.500000
#
# Coordination Sequence:
#
# PCOD9061131 Si02
#       8
#     2   2   2   2   1   2   2   2
#     4  12  28  45  74 109 148 199 245 304 375 449
#     4  12  26  45  73 105 146 190 247 305 365 442
#     4  12  28  47  72 112 144 199 247 305 373 446
#     4  12  25  48  73 110 149 193 247 308 372 441
#     4  12  24  48  78 104 146 194 250 300 376 438
#     4  11  23  44  73 102 147 189 248 306 367 445
#     4  11  25  43  71 105 143 199 240 307 375 437
#     4  12  25  49  78 108 148 193 247 307 374 441
#
# _framework density 23.311548999999999
#
# number of rings (size 3 to 8) (size 9 to 14) (size 15 to 20)
#    0.000    0.267    4.000    4.800    3.733    5.333 
#    2.400    0.000    0.000    0.000    0.000    0.000 
#    0.000    0.000    0.000    0.000    0.000    0.000 
#
# Total GULP energy -83846.690583 kJ/mol
# GULP energy per Si atom -5589.779372 kJ/mol
# Density = 2.325849 g / cm^3
# Si number density = 23.311549 Si / 1000 Ang^3
#
#
#
# Elastic Constant Matrix: (Units=GPa)
#
#
# Indices 1 2 3 4 5 6 
#
# 1 47.2339 9.6797 23.9974 0.7682 -21.7508 -12.5730
# 2 9.6797 139.0011 20.7082 -5.0990 -15.3399 4.9028
# 3 23.9974 20.7082 70.9211 -13.9963 -22.8490 10.6141
# 4 0.7682 -5.0990 -13.9963 48.4407 12.8466 -0.0397
# 5 -21.7508 -15.3399 -22.8490 12.8466 54.8092 -1.0083
# 6 -12.5730 4.9028 10.6141 -0.0397 -1.0083 -12.9284
#
#
#
# Elastic Compliance Matrix: (Units=1/GPa)
#
#
# Indices 1 2 3 4 5 6 
#
# 1 0.019857 0.000356 -0.001783 -0.002800 0.007502 -0.021216
# 2 0.000356 0.007599 -0.002011 -0.000180 0.001486 0.000769
# 3 -0.001783 -0.002011 0.015417 0.003039 0.004688 0.013254
# 4 -0.002800 -0.000180 0.003039 0.022922 -0.005166 0.005482
# 5 0.007502 0.001486 0.004688 -0.005166 0.024716 -0.004795
# 6 -0.021216 0.000769 0.013254 0.005482 -0.004795 -0.045186
#
#
# Mechanical properties :
#
#
# Convention : Reuss Voigt Hill
#
# Bulk Modulus (GPa) = 27.77969 40.65853 34.21911
# Shear Modulus (GPa) = 77.88116 31.58236 54.73176
#
# Velocity S-wave (km/s) = 5.78631 3.68475 4.85071
# Velocity P-wave (km/s) = 7.52226 5.96510 6.78847
#
# Compressibility (1/GPa) = 0.03599752
#
# Stress axis : x y z
#
# Youngs Moduli (GPa) = 50.36016 131.59101 64.86193
#
# Poissons Ratio (x) = -0.04691 0.11566
# Poissons Ratio (y) = -0.01795 0.13046
# Poissons Ratio (z) = 0.08980 0.26467
#
# Static dielectric constant tensor:
#      x y z
#    x 1.888860 0.062420 -0.020730 
#    y 0.062420 1.869680 -0.037180 
#    z -0.020730 -0.037180 1.887340 
# 
# From -- ./inp_files/241609.got.cif
#   From: 2010.05.17/outbox.cif.g08.bks.cpg/sg2_121_cif.got.tgz:241609.got - 2010.06.03 11:33:40.
