data_PCOD9061753
_publ_section_title
;
Structure prediction by ZEFSAII (Michael W. Deem and Ramdas Pophale) SiO2 
 PCOD9061753
Probable space group: P -1
;
_chemical_formula_sum "Si O2"
_cell_formula_units_Z 16
_cell_length_a 9.328864
_cell_length_b 12.225728
_cell_length_c 9.786176
_cell_angle_alpha 79.594804
_cell_angle_beta 43.969509
_cell_angle_gamma 78.590269
_cell_volume 758.391178
_symmetry_space_group_name_H-M "P -1"
_symmetry_group_IT_number 2
_symmetry_cell_setting 'triclinic'
loop_
_space_group_symop_operation_xyz
x,y,z
-x,-y,-z
loop_
_atom_site_type_symbol
_atom_site_label
_atom_site_fract_x
_atom_site_fract_y
_atom_site_fract_z
Si Si1 0.852131 0.476888 0.981427
Si Si2 0.424525 0.988021 0.400981
Si Si3 0.290501 0.264301 0.000891
Si Si4 0.156164 0.300273 0.657991
Si Si5 0.869312 0.895492 0.072214
Si Si6 0.268812 0.777616 0.446572
Si Si7 0.412100 0.616406 0.598570
Si Si8 0.168493 0.198422 0.393276
O O1 0.991642 0.401664 0.795968
O O2 0.761928 0.601869 0.976907
O O3 0.682832 0.404965 0.183929
O O4 0.000000 0.500000 0.000000
O O5 0.642319 0.958650 0.182807
O O6 0.295111 0.882792 0.500863
O O7 0.500000 0.000000 0.500000
O O8 0.286684 0.091390 0.409163
O O9 0.131076 0.199037 0.029345
O O10 0.518566 0.246430 0.779844
O O11 0.282952 0.217069 0.168996
O O12 0.107228 0.186178 0.792978
O O13 0.388990 0.314941 0.544249
O O14 0.164090 0.292240 0.491620
O O15 0.000000 0.000000 0.000000
O O16 0.253423 0.674591 0.583377
O O17 0.070617 0.806967 0.482147
O O18 0.500000 0.500000 0.500000
#
# Coordination Sequence:
#
# PCOD9061753 Si02
#       8
#     2   2   2   2   2   2   2   2
#     4  12  22  42  77 106 142 186 248 296 354 425
#     4  11  23  46  69 101 139 184 248 294 348 439
#     4  11  25  47  68 111 146 185 241 299 360 434
#     4  12  26  47  68 113 141 186 253 291 350 446
#     4  11  24  43  76 105 143 184 245 301 353 431
#     4  11  24  44  71 104 147 185 242 294 368 426
#     4  12  21  43  79 102 137 195 238 302 352 424
#     4  12  28  44  71 102 152 194 229 300 373 418
#
# _framework density 21.097293000000001
#
# number of rings (size 3 to 8) (size 9 to 14) (size 15 to 20)
#    0.000    0.500    7.500    1.125    1.750    6.500 
#    0.000    1.250    0.000    0.000    0.000    0.000 
#    0.000    0.000    0.000    0.000    0.000    0.000 
#
# Total GULP energy -89286.139823 kJ/mol
# GULP energy per Si atom -5580.383739 kJ/mol
# Density = 2.104927 g / cm^3
# Si number density = 21.097293 Si / 1000 Ang^3
#
#
#
# Elastic Constant Matrix: (Units=GPa)
#
#
# Indices 1 2 3 4 5 6 
#
# 1 109.2949 45.8804 30.3625 -0.0951 6.1612 -16.1060
# 2 45.8804 125.1503 51.1285 1.0329 2.1843 -18.0117
# 3 30.3625 51.1285 91.9545 6.2629 12.5094 -2.0654
# 4 -0.0951 1.0329 6.2629 37.2382 2.0343 -3.6839
# 5 6.1612 2.1843 12.5094 2.0343 43.8511 1.1496
# 6 -16.1060 -18.0117 -2.0654 -3.6839 1.1496 35.2485
#
#
#
# Elastic Compliance Matrix: (Units=1/GPa)
#
#
# Indices 1 2 3 4 5 6 
#
# 1 0.011533 -0.002817 -0.002076 0.000892 -0.001030 0.003835
# 2 -0.002817 0.012077 -0.005932 0.001039 0.001317 0.004602
# 3 -0.002076 -0.005932 0.015453 -0.002561 -0.003618 -0.003224
# 4 0.000892 0.001039 -0.002561 0.027670 -0.000827 0.003707
# 5 -0.001030 0.001317 -0.003618 -0.000827 0.023977 -0.000878
# 6 0.003835 0.004602 -0.003224 0.003707 -0.000878 0.032701
#
#
# Mechanical properties :
#
#
# Convention : Reuss Voigt Hill
#
# Bulk Modulus (GPa) = 57.42856 64.57139 60.99997
# Shear Modulus (GPa) = 33.14204 36.53610 34.83907
#
# Velocity S-wave (km/s) = 3.96778 4.16599 4.06809
# Velocity P-wave (km/s) = 6.94773 7.33578 7.14439
#
# Compressibility (1/GPa) = 0.01741294
#
# Stress axis : x y z
#
# Youngs Moduli (GPa) = 86.70798 82.80048 64.71355
#
# Poissons Ratio (x) = 0.23327 0.13436
# Poissons Ratio (y) = 0.24427 0.38385
# Poissons Ratio (z) = 0.18002 0.49114
#
# Static dielectric constant tensor:
#      x y z
#    x 1.910130 -0.002690 -0.220380 
#    y -0.002690 1.819230 0.017540 
#    z -0.220380 0.017540 2.119230 
# 
# From -- ./inp_files/186380.got.cif
#   From: 2010.05.17/outbox.cif.g08.bks.cpg/sg2_94_cif.got.tgz:186380.got - 2010.06.03 11:33:40.
