data_PCOD9061442
_publ_section_title
;
Structure prediction by ZEFSAII (Michael W. Deem and Ramdas Pophale) SiO2 
 PCOD9061442
Probable space group: P -1
;
_chemical_formula_sum "Si O2"
_cell_formula_units_Z 16
_cell_length_a 16.653039
_cell_length_b 11.481691
_cell_length_c 6.319625
_cell_angle_alpha 58.980478
_cell_angle_beta 128.923770
_cell_angle_gamma 129.310673
_cell_volume 713.410810
_symmetry_space_group_name_H-M "P -1"
_symmetry_group_IT_number 2
_symmetry_cell_setting 'triclinic'
loop_
_space_group_symop_operation_xyz
x,y,z
-x,-y,-z
loop_
_atom_site_type_symbol
_atom_site_label
_atom_site_fract_x
_atom_site_fract_y
_atom_site_fract_z
Si Si1 0.929632 0.397238 0.277497
Si Si2 0.098077 0.357384 0.279742
Si Si3 0.470575 0.357276 0.245762
Si Si4 0.758913 0.785892 0.248884
Si Si5 0.053508 0.944716 0.949226
Si Si6 0.253153 0.874806 0.529407
Si Si7 0.406314 0.191109 0.702890
Si Si8 0.566994 0.171567 0.358517
O O1 0.811373 0.250090 0.281890
O O2 0.000000 0.500000 0.500000
O O3 0.013513 0.341970 0.348913
O O4 0.896137 0.500691 0.973421
O O5 0.216595 0.359029 0.549729
O O6 0.041633 0.209790 0.170985
O O7 0.458877 0.338550 0.497379
O O8 0.556988 0.287857 0.396217
O O9 0.500000 0.500000 0.000000
O O10 0.338805 0.243285 0.060036
O O11 0.702805 0.814585 0.340388
O O12 0.878891 0.923864 0.235684
O O13 0.153200 0.907013 0.237836
O O14 0.000000 0.000000 0.000000
O O15 0.305876 0.802393 0.516000
O O16 0.356447 0.032808 0.638270
O O17 0.500804 0.190904 0.024203
O O18 0.500000 0.000000 0.500000
#
# Coordination Sequence:
#
# PCOD9061442 Si02
#       8
#     2   2   2   2   2   2   2   2
#     4  11  25  44  63  96 140 180 226 281 339 422
#     4  11  25  43  65  98 139 177 229 283 344 414
#     4  11  26  45  67 100 139 178 228 291 352 426
#     4  11  24  42  69  98 132 179 229 277 354 415
#     4  12  23  43  71 100 139 181 232 291 344 414
#     4  12  22  41  72  95 129 185 222 282 350 403
#     4  11  23  45  70  98 138 175 233 292 349 416
#     4  11  24  44  68 104 133 173 238 289 343 423
#
# _framework density 22.427472999999999
#
# number of rings (size 3 to 8) (size 9 to 14) (size 15 to 20)
#    0.000    0.750    3.750    3.750    0.000    5.000 
#    0.000    0.000    0.000    0.000    0.000    0.000 
#    0.000    0.000    0.000    0.000    0.000    0.000 
#
# Total GULP energy -89466.173548 kJ/mol
# GULP energy per Si atom -5591.635847 kJ/mol
# Density = 2.237643 g / cm^3
# Si number density = 22.427473 Si / 1000 Ang^3
#
#
#
# Elastic Constant Matrix: (Units=GPa)
#
#
# Indices 1 2 3 4 5 6 
#
# 1 175.9316 31.6698 62.0325 -26.9851 8.1207 -20.0388
# 2 31.6698 77.5712 15.2323 -20.2605 -12.6249 -1.4005
# 3 62.0325 15.2323 75.8756 -22.4067 -11.9696 1.4240
# 4 -26.9851 -20.2605 -22.4067 38.8207 5.3853 -4.4002
# 5 8.1207 -12.6249 -11.9696 5.3853 43.4197 -10.3705
# 6 -20.0388 -1.4005 1.4240 -4.4002 -10.3705 34.2143
#
#
#
# Elastic Compliance Matrix: (Units=1/GPa)
#
#
# Indices 1 2 3 4 5 6 
#
# 1 0.009940 -0.002464 -0.007630 0.002326 -0.003723 0.005209
# 2 -0.002464 0.016333 0.001657 0.007239 0.005164 0.001652
# 3 -0.007630 0.001657 0.022310 0.007253 0.006586 -0.002400
# 4 0.002326 0.007239 0.007253 0.035946 0.000689 0.006189
# 5 -0.003723 0.005164 0.006586 0.000689 0.028508 0.006486
# 6 0.005209 0.001652 -0.002400 0.006189 0.006486 0.035208
#
#
# Mechanical properties :
#
#
# Convention : Reuss Voigt Hill
#
# Bulk Modulus (GPa) = 31.53682 60.80529 46.17105
# Shear Modulus (GPa) = 28.45936 37.98721 33.22329
#
# Velocity S-wave (km/s) = 3.56610 4.12002 3.85303
# Velocity P-wave (km/s) = 5.57210 7.05717 6.35814
#
# Compressibility (1/GPa) = 0.03170897
#
# Stress axis : x y z
#
# Youngs Moduli (GPa) = 100.60535 61.22618 44.82220
#
# Poissons Ratio (x) = 0.15087 0.34198
# Poissons Ratio (y) = 0.24791 -0.07426
# Poissons Ratio (z) = 0.76759 -0.10144
#
# Static dielectric constant tensor:
#      x y z
#    x 1.896460 0.012020 -0.023070 
#    y 0.012020 1.855840 -0.016770 
#    z -0.023070 -0.016770 1.910320 
# 
# From -- ./inp_files/94506.got.cif
#   From: 2010.05.17/outbox.cif.g08.bks.cpg/sg2_48_cif.got.tgz:94506.got - 2010.06.03 11:33:40.
