data_PCOD9061013
_publ_section_title
;
Structure prediction by ZEFSAII (Michael W. Deem and Ramdas Pophale) SiO2 
 PCOD9061013
Probable space group: P -1
;
_chemical_formula_sum "Si O2"
_cell_formula_units_Z 16
_cell_length_a 8.520343
_cell_length_b 11.312444
_cell_length_c 8.380566
_cell_angle_alpha 46.459635
_cell_angle_beta 91.441149
_cell_angle_gamma 90.848020
_cell_volume 585.353872
_symmetry_space_group_name_H-M "P -1"
_symmetry_group_IT_number 2
_symmetry_cell_setting 'triclinic'
loop_
_space_group_symop_operation_xyz
x,y,z
-x,-y,-z
loop_
_atom_site_type_symbol
_atom_site_label
_atom_site_fract_x
_atom_site_fract_y
_atom_site_fract_z
Si Si1 0.264612 0.847711 0.944600
Si Si2 0.174293 0.482264 0.600628
Si Si3 0.821130 0.136417 0.720796
Si Si4 0.882943 0.856989 0.497752
Si Si5 0.462680 0.008280 0.301758
Si Si6 0.376780 0.319460 0.490599
Si Si7 0.903769 0.337621 0.110161
Si Si8 0.367786 0.519203 0.840072
O O1 0.163687 0.689364 0.043560
O O2 0.450522 0.839060 0.922229
O O3 0.212273 0.915913 0.049831
O O4 0.213734 0.979605 0.686563
O O5 0.222658 0.672141 0.443307
O O6 0.278418 0.374652 0.586321
O O7 0.228823 0.416780 0.840066
O O8 0.000000 0.500000 0.500000
O O9 0.994560 0.143706 0.645642
O O10 0.719570 0.018312 0.714954
O O11 0.985046 0.810928 0.694753
O O12 0.755122 0.712411 0.617997
O O13 0.533271 0.853557 0.347961
O O14 0.500000 0.000000 0.500000
O O15 0.507260 0.446632 0.328284
O O16 0.745924 0.344108 0.208290
O O17 0.000000 0.500000 0.000000
O O18 0.500000 0.500000 0.000000
#
# Coordination Sequence:
#
# PCOD9061013 Si02
#       8
#     2   2   2   2   2   2   2   2
#     4  11  27  42  74 108 144 195 256 309 372 461
#     4  12  25  46  76 107 154 202 247 319 391 453
#     4  12  24  45  75 104 147 197 257 308 383 451
#     4  11  23  47  71 104 152 196 252 306 384 449
#     4  11  24  47  72 100 146 198 249 311 381 455
#     4  11  23  44  71 107 145 200 248 305 387 450
#     4  12  26  47  74 109 153 200 251 312 386 455
#     4  12  26  43  69 111 153 192 253 313 377 451
#
# _framework density 27.333894000000001
#
# number of rings (size 3 to 8) (size 9 to 14) (size 15 to 20)
#    0.000    0.500    3.750    3.750    5.250    1.000 
#    0.000    3.750    0.000    0.000    0.000    0.000 
#    0.000    0.000    0.000    0.000    0.000    0.000 
#
# Total GULP energy -89274.741313 kJ/mol
# GULP energy per Si atom -5579.671332 kJ/mol
# Density = 2.727168 g / cm^3
# Si number density = 27.333894 Si / 1000 Ang^3
#
#
#
# Elastic Constant Matrix: (Units=GPa)
#
#
# Indices 1 2 3 4 5 6 
#
# 1 175.8822 46.8025 39.0758 14.3999 -0.9206 18.9637
# 2 46.8025 108.1515 22.7073 19.6120 3.5974 14.4455
# 3 39.0758 22.7073 71.1072 7.5028 2.6664 8.9362
# 4 14.3999 19.6120 7.5028 49.2593 0.1478 2.0228
# 5 -0.9206 3.5974 2.6664 0.1478 47.6058 4.3954
# 6 18.9637 14.4455 8.9362 2.0228 4.3954 73.4213
#
#
#
# Elastic Compliance Matrix: (Units=1/GPa)
#
#
# Indices 1 2 3 4 5 6 
#
# 1 0.007116 -0.002195 -0.003024 -0.000704 0.000572 -0.001053
# 2 -0.002195 0.011436 -0.001879 -0.003569 -0.000669 -0.001316
# 3 -0.003024 -0.001879 0.016544 -0.000853 -0.000767 -0.000793
# 4 -0.000704 -0.003569 -0.000853 0.022042 0.000201 0.000369
# 5 0.000572 -0.000669 -0.000767 0.000201 0.021220 -0.001199
# 6 -0.001053 -0.001316 -0.000793 0.000369 -0.001199 0.014309
#
#
# Mechanical properties :
#
#
# Convention : Reuss Voigt Hill
#
# Bulk Modulus (GPa) = 47.84831 63.59022 55.71927
# Shear Modulus (GPa) = 43.92559 50.49431 47.20995
#
# Velocity S-wave (km/s) = 4.01309 4.30270 4.16042
# Velocity P-wave (km/s) = 6.24630 6.92814 6.59604
#
# Compressibility (1/GPa) = 0.02089938
#
# Stress axis : x y z
#
# Youngs Moduli (GPa) = 140.53234 87.44380 60.44648
#
# Poissons Ratio (x) = 0.19195 0.18280
# Poissons Ratio (y) = 0.30849 0.11355
# Poissons Ratio (z) = 0.42500 0.16427
#
# Static dielectric constant tensor:
#      x y z
#    x 2.205670 0.107040 0.046200 
#    y 0.107040 2.166010 -0.033090 
#    z 0.046200 -0.033090 2.312850 
# 
# From -- ./inp_files/184242.got.cif
#   From: 2010.05.17/outbox.cif.g08.bks.cpg/sg2_93_cif.got.tgz:184242.got - 2010.06.03 11:33:40.
