data_PCOD9061619
_publ_section_title
;
Structure prediction by ZEFSAII (Michael W. Deem and Ramdas Pophale) SiO2 
 PCOD9061619
Probable space group: P -1
;
_chemical_formula_sum "Si O2"
_cell_formula_units_Z 14
_cell_length_a 8.460729
_cell_length_b 13.782163
_cell_length_c 6.835557
_cell_angle_alpha 47.241681
_cell_angle_beta 101.098505
_cell_angle_gamma 90.361411
_cell_volume 565.664193
_symmetry_space_group_name_H-M "P -1"
_symmetry_group_IT_number 2
_symmetry_cell_setting 'triclinic'
loop_
_space_group_symop_operation_xyz
x,y,z
-x,-y,-z
loop_
_atom_site_type_symbol
_atom_site_label
_atom_site_fract_x
_atom_site_fract_y
_atom_site_fract_z
Si Si1 0.314236 0.132996 0.569117
Si Si2 0.627396 0.452343 0.769118
Si Si3 0.161807 0.419102 0.048370
Si Si4 0.174146 0.622911 0.445380
Si Si5 0.897213 0.878455 0.094147
Si Si6 0.178876 0.967576 0.497730
Si Si7 0.616968 0.258133 0.358908
O O1 0.188353 0.259001 0.273763
O O2 0.242672 0.128411 0.773232
O O3 0.302075 0.990391 0.665386
O O4 0.491600 0.166546 0.526853
O O5 0.500000 0.500000 0.500000
O O6 0.695277 0.549504 0.809546
O O7 0.782237 0.388193 0.757820
O O8 0.550939 0.355231 0.031020
O O9 0.160432 0.484574 0.742717
O O10 0.000000 0.500000 0.000000
O O11 0.321138 0.669645 0.539880
O O12 0.019284 0.738244 0.292718
O O13 0.809852 0.921505 0.812798
O O14 0.000000 0.000000 0.000000
O O15 0.224362 0.828539 0.588061
O O16 0.000000 0.000000 0.500000
#
# Coordination Sequence:
#
# PCOD9061619 Si02
#       7
#     2   2   2   2   2   2   2
#     4  12  26  44  68  99 143 175 229 292 334 412
#     4  11  25  44  73 102 139 184 230 281 352 418
#     4  11  25  45  68 106 141 180 232 286 349 404
#     4  11  23  45  74  97 141 180 225 286 342 416
#     4  12  24  43  68 100 129 182 232 275 339 408
#     4  12  25  44  70  96 137 183 229 278 346 408
#     4  11  25  45  69 104 139 180 225 287 352 404
#
# _framework density 24.749663999999999
#
# number of rings (size 3 to 8) (size 9 to 14) (size 15 to 20)
#    0.000    0.571    4.286    3.000    4.000    6.857 
#    0.000    0.000    0.000    0.000    0.000    0.000 
#    0.000    0.000    0.000    0.000    0.000    0.000 
#
# Total GULP energy -78337.712752 kJ/mol
# GULP energy per Si atom -5595.550911 kJ/mol
# Density = 2.469333 g / cm^3
# Si number density = 24.749664 Si / 1000 Ang^3
#
#
#
# Elastic Constant Matrix: (Units=GPa)
#
#
# Indices 1 2 3 4 5 6 
#
# 1 75.1119 0.4928 13.5741 7.9128 -21.2375 -9.8609
# 2 0.4928 94.6592 21.3420 20.0869 -14.7247 -17.7641
# 3 13.5741 21.3420 124.9890 22.7716 -19.7791 -12.1904
# 4 7.9128 20.0869 22.7716 33.2237 -10.9522 -5.5091
# 5 -21.2375 -14.7247 -19.7791 -10.9522 54.1412 0.1394
# 6 -9.8609 -17.7641 -12.1904 -5.5091 0.1394 32.0897
#
#
#
# Elastic Compliance Matrix: (Units=1/GPa)
#
#
# Indices 1 2 3 4 5 6 
#
# 1 0.016174 0.002532 -0.000195 -0.002122 0.006517 0.005905
# 2 0.002532 0.013864 -0.000217 -0.006535 0.003344 0.007234
# 3 -0.000195 -0.000217 0.009630 -0.005232 0.002317 0.002570
# 4 -0.002122 -0.006535 -0.005232 0.039356 0.003439 0.000484
# 5 0.006517 0.003344 0.002317 0.003439 0.023465 0.005223
# 6 0.005905 0.007234 0.002570 0.000484 0.005223 0.038018
#
#
# Mechanical properties :
#
#
# Convention : Reuss Voigt Hill
#
# Bulk Modulus (GPa) = 22.77527 40.61975 31.69751
# Shear Modulus (GPa) = 33.13397 41.18101 37.15749
#
# Velocity S-wave (km/s) = 3.66288 4.08352 3.87891
# Velocity P-wave (km/s) = 5.20684 6.21944 5.73553
#
# Compressibility (1/GPa) = 0.04390727
#
# Stress axis : x y z
#
# Youngs Moduli (GPa) = 61.82936 72.12702 103.84678
#
# Poissons Ratio (x) = -0.18262 0.02025
# Poissons Ratio (y) = -0.15655 0.02254
# Poissons Ratio (z) = 0.01206 0.01565
#
# Static dielectric constant tensor:
#      x y z
#    x 2.029840 -0.017100 0.038250 
#    y -0.017100 1.975680 -0.017200 
#    z 0.038250 -0.017200 1.950710 
# 
# From -- ./inp_files/28374.got.cif
#   From: 2010.05.17/outbox.cif.g08.bks.cpg/sg2_15_cif.got.tgz:28374.got - 2010.06.03 11:33:40.
