data_PCOD9061308
_publ_section_title
;
Structure prediction by ZEFSAII (Michael W. Deem and Ramdas Pophale) SiO2 
 PCOD9061308
Probable space group: P -1
;
_chemical_formula_sum "Si O2"
_cell_formula_units_Z 16
_cell_length_a 13.863968
_cell_length_b 24.673073
_cell_length_c 9.258123
_cell_angle_alpha 138.838195
_cell_angle_beta 125.398380
_cell_angle_gamma 22.185612
_cell_volume 692.964772
_symmetry_space_group_name_H-M "P -1"
_symmetry_group_IT_number 2
_symmetry_cell_setting 'triclinic'
loop_
_space_group_symop_operation_xyz
x,y,z
-x,-y,-z
loop_
_atom_site_type_symbol
_atom_site_label
_atom_site_fract_x
_atom_site_fract_y
_atom_site_fract_z
Si Si1 0.184536 0.967315 0.110130
Si Si2 0.348315 0.675356 0.146392
Si Si3 0.697130 0.602785 0.214833
Si Si4 0.229216 0.208160 0.024988
Si Si5 0.249549 0.671023 0.745312
Si Si6 0.877411 0.766482 0.696776
Si Si7 0.171004 0.472713 0.137407
Si Si8 0.195804 0.035131 0.576672
O O1 0.150308 0.033958 0.370199
O O2 0.529146 0.731975 0.926324
O O3 0.034890 0.118839 0.164814
O O4 0.000000 0.000000 0.000000
O O5 0.530506 0.643407 0.254201
O O6 0.500000 0.500000 0.000000
O O7 0.324976 0.680546 0.963963
O O8 0.033526 0.870171 0.336251
O O9 0.508272 0.804741 0.439417
O O10 0.733203 0.547395 0.970717
O O11 0.021758 0.402273 0.152035
O O12 0.568814 0.007662 0.897441
O O13 0.171382 0.149281 0.805156
O O14 0.151175 0.260479 0.230314
O O15 0.500000 0.500000 0.500000
O O16 0.156647 0.647330 0.699071
O O17 0.939881 0.671255 0.423199
O O18 0.000000 0.500000 0.000000
#
# Coordination Sequence:
#
# PCOD9061308 Si02
#       8
#     2   2   2   2   2   2   2   2
#     4  11  25  44  68 102 142 180 233 298 348 416
#     4  12  22  41  68 101 141 183 233 286 354 421
#     4  11  24  42  71  98 136 186 229 288 350 416
#     4  11  25  46  68 103 137 185 235 285 352 422
#     4  12  24  40  68 103 136 182 229 287 359 412
#     4  11  24  45  68  98 142 177 231 294 341 422
#     4  11  26  48  70 101 138 184 240 289 356 427
#     4  11  23  45  67 102 142 180 237 285 347 429
#
# _framework density 23.089196000000001
#
# number of rings (size 3 to 8) (size 9 to 14) (size 15 to 20)
#    0.000    0.750    2.500    5.625    3.500    2.500 
#    0.000    1.875    0.000    0.000    0.000    0.000 
#    0.000    0.000    0.000    0.000    0.000    0.000 
#
# Total GULP energy -89477.428441 kJ/mol
# GULP energy per Si atom -5592.339278 kJ/mol
# Density = 2.303664 g / cm^3
# Si number density = 23.089196 Si / 1000 Ang^3
#
#
#
# Elastic Constant Matrix: (Units=GPa)
#
#
# Indices 1 2 3 4 5 6 
#
# 1 85.6190 18.5039 12.7347 5.3654 -19.6076 -13.9760
# 2 18.5039 121.3099 0.3696 19.9132 -13.1109 24.8152
# 3 12.7347 0.3696 48.5137 8.9844 -25.0168 1.1969
# 4 5.3654 19.9132 8.9844 37.6203 -13.5731 8.0353
# 5 -19.6076 -13.1109 -25.0168 -13.5731 31.9222 0.4553
# 6 -13.9760 24.8152 1.1969 8.0353 0.4553 47.3538
#
#
#
# Elastic Compliance Matrix: (Units=1/GPa)
#
#
# Indices 1 2 3 4 5 6 
#
# 1 0.015064 -0.002686 0.000220 0.001189 0.008748 0.005562
# 2 -0.002686 0.010907 0.003624 -0.003406 0.004308 -0.006064
# 3 0.000220 0.003624 0.036089 0.001095 0.030418 -0.003225
# 4 0.001189 -0.003406 0.001095 0.034086 0.014737 -0.003817
# 5 0.008748 0.004308 0.030418 0.014737 0.068624 -0.003605
# 6 0.005562 -0.006064 -0.003225 -0.003817 -0.003605 0.026701
#
#
# Mechanical properties :
#
#
# Convention : Reuss Voigt Hill
#
# Bulk Modulus (GPa) = 15.53364 35.40658 25.47011
# Shear Modulus (GPa) = 23.74004 38.30153 31.02079
#
# Velocity S-wave (km/s) = 3.21002 4.07732 3.66938
# Velocity P-wave (km/s) = 4.52562 6.12650 5.38587
#
# Compressibility (1/GPa) = 0.06437643
#
# Stress axis : x y z
#
# Youngs Moduli (GPa) = 66.38194 91.68317 27.70896
#
# Poissons Ratio (x) = 0.24626 -0.00609
# Poissons Ratio (y) = 0.17830 -0.10041
# Poissons Ratio (z) = -0.01460 -0.33225
#
# Static dielectric constant tensor:
#      x y z
#    x 1.922310 -0.017310 0.033730 
#    y -0.017310 1.409270 0.272350 
#    z 0.033730 0.272350 1.707750 
# 
# From -- ./inp_files/320745.got.cif
#   From: 2010.05.17/outbox.cif.g08.bks.cpg/sg2_161_cif.got.tgz:320745.got - 2010.06.03 11:33:40.
