data_PCOD9061807
_publ_section_title
;
Structure prediction by ZEFSAII (Michael W. Deem and Ramdas Pophale) SiO2 
 PCOD9061807
Probable space group: P -1
;
_chemical_formula_sum "Si O2"
_cell_formula_units_Z 16
_cell_length_a 14.315839
_cell_length_b 21.814801
_cell_length_c 12.662795
_cell_angle_alpha 24.414217
_cell_angle_beta 152.306732
_cell_angle_gamma 152.305599
_cell_volume 692.118902
_symmetry_space_group_name_H-M "P -1"
_symmetry_group_IT_number 2
_symmetry_cell_setting 'triclinic'
loop_
_space_group_symop_operation_xyz
x,y,z
-x,-y,-z
loop_
_atom_site_type_symbol
_atom_site_label
_atom_site_fract_x
_atom_site_fract_y
_atom_site_fract_z
Si Si1 0.017901 0.334943 0.801016
Si Si2 0.754510 0.693376 0.131715
Si Si3 0.648339 0.645964 0.720527
Si Si4 0.020958 0.638666 0.670262
Si Si5 0.359367 0.605644 0.187776
Si Si6 0.701845 0.878204 0.225087
Si Si7 0.865365 0.018991 0.637254
Si Si8 0.535766 0.122934 0.702578
O O1 0.187827 0.322507 0.906355
O O2 0.000000 0.500000 0.500000
O O3 0.763593 0.214836 0.723680
O O4 0.130076 0.330774 0.031507
O O5 0.521555 0.543683 0.157450
O O6 0.934227 0.666770 0.427112
O O7 0.791255 0.882386 0.870744
O O8 0.717013 0.737931 0.533782
O O9 0.520750 0.744135 0.498545
O O10 0.830418 0.480079 0.780909
O O11 0.061408 0.800663 0.524808
O O12 0.241705 0.610688 0.952389
O O13 0.500000 0.500000 0.500000
O O14 0.519626 0.785340 0.100822
O O15 0.928815 0.972540 0.242183
O O16 0.608919 0.983395 0.039983
O O17 0.665001 0.965946 0.438004
#
# Coordination Sequence:
#
# PCOD9061807 Si02
#       8
#     2   2   2   2   2   2   2   2
#     4  12  25  45  70 102 144 184 236 282 345 412
#     4  12  24  47  71 106 138 189 231 285 345 419
#     4  12  26  46  73 103 141 187 235 285 345 421
#     4  11  25  45  73 104 141 182 231 286 353 410
#     4  11  23  46  71 102 140 183 230 289 342 417
#     4  12  25  44  72 107 138 184 231 286 357 409
#     4  12  25  46  73 101 149 178 231 294 346 413
#     4  12  24  46  71 100 145 184 229 292 347 408
#
# _framework density 23.117415999999999
#
# number of rings (size 3 to 8) (size 9 to 14) (size 15 to 20)
#    0.000    0.250    7.500    1.875    0.000    4.000 
#    2.250    1.250    0.000    0.000    0.000    0.000 
#    0.000    0.000    0.000    0.000    0.000    0.000 
#
# Total GULP energy -89350.970130 kJ/mol
# GULP energy per Si atom -5584.435633 kJ/mol
# Density = 2.306480 g / cm^3
# Si number density = 23.117416 Si / 1000 Ang^3
#
#
#
# Elastic Constant Matrix: (Units=GPa)
#
#
# Indices 1 2 3 4 5 6 
#
# 1 35.2605 29.9952 26.0841 3.5687 1.6508 2.9459
# 2 29.9952 132.7664 36.4433 2.6442 2.5515 25.9250
# 3 26.0841 36.4433 104.3095 3.3537 4.1230 13.2418
# 4 3.5687 2.6442 3.3537 40.5391 -4.8534 -3.7874
# 5 1.6508 2.5515 4.1230 -4.8534 45.2104 -6.0191
# 6 2.9459 25.9250 13.2418 -3.7874 -6.0191 21.2217
#
#
#
# Elastic Compliance Matrix: (Units=1/GPa)
#
#
# Indices 1 2 3 4 5 6 
#
# 1 0.041700 -0.009183 -0.008607 -0.001210 0.001102 0.010897
# 2 -0.009183 0.012677 -0.000040 -0.001749 -0.002592 -0.015234
# 3 -0.008607 -0.000040 0.012830 -0.001245 -0.001992 -0.007549
# 4 -0.001210 -0.001749 -0.001245 0.026344 0.004282 0.008997
# 5 0.001102 -0.002592 -0.001992 0.004282 0.024458 0.011959
# 6 0.010897 -0.015234 -0.007549 0.008997 0.011959 0.073928
#
#
# Mechanical properties :
#
#
# Convention : Reuss Voigt Hill
#
# Bulk Modulus (GPa) = 31.69944 50.82018 41.25981
# Shear Modulus (GPa) = 20.99824 33.38185 27.19005
#
# Velocity S-wave (km/s) = 3.01712 3.80414 3.43326
# Velocity P-wave (km/s) = 5.08719 6.42857 5.79681
#
# Compressibility (1/GPa) = 0.03154630
#
# Stress axis : x y z
#
# Youngs Moduli (GPa) = 23.98074 78.88171 77.94015
#
# Poissons Ratio (x) = 0.72440 0.67085
# Poissons Ratio (y) = 0.22023 0.00312
# Poissons Ratio (z) = 0.20641 0.00316
#
# Static dielectric constant tensor:
#      x y z
#    x 1.684630 0.136600 -0.105580 
#    y 0.136600 1.767750 0.021260 
#    z -0.105580 0.021260 1.833120 
# 
# From -- ./inp_files/539391.got.cif
#   From: 2010.05.17/outbox.cif.g08.bks.cpg/sg2_270_cif.got.tgz:539391.got - 2010.06.03 11:33:40.
