data_PCOD9061796
_publ_section_title
;
Structure prediction by ZEFSAII (Michael W. Deem and Ramdas Pophale) SiO2 
 PCOD9061796
Probable space group: P -1
;
_chemical_formula_sum "Si O2"
_cell_formula_units_Z 16
_cell_length_a 12.149474
_cell_length_b 13.986305
_cell_length_c 14.395065
_cell_angle_alpha 47.397392
_cell_angle_beta 67.086182
_cell_angle_gamma 28.784189
_cell_volume 709.080931
_symmetry_space_group_name_H-M "P -1"
_symmetry_group_IT_number 2
_symmetry_cell_setting 'triclinic'
loop_
_space_group_symop_operation_xyz
x,y,z
-x,-y,-z
loop_
_atom_site_type_symbol
_atom_site_label
_atom_site_fract_x
_atom_site_fract_y
_atom_site_fract_z
Si Si1 0.434793 0.243800 0.743566
Si Si2 0.223578 0.893757 0.798146
Si Si3 0.594110 0.566128 0.546330
Si Si4 0.476606 0.237786 0.362680
Si Si5 0.724393 0.360299 0.351617
Si Si6 0.978478 0.427009 0.967241
Si Si7 0.375048 0.479721 0.934813
Si Si8 0.076738 0.423147 0.315556
O O1 0.531169 0.222427 0.632574
O O2 0.253639 0.526225 0.675425
O O3 0.238129 0.315455 0.736694
O O4 0.707967 0.935154 0.913386
O O5 0.458560 0.730749 0.764325
O O6 0.216643 0.750856 0.863577
O O7 0.319493 0.816571 0.923420
O O8 0.927339 0.247156 0.640945
O O9 0.504860 0.704196 0.585537
O O10 0.503607 0.505553 0.610846
O O11 0.182675 0.451793 0.308670
O O12 0.715860 0.892893 0.510078
O O13 0.636951 0.475896 0.198977
O O14 0.000000 0.000000 0.500000
O O15 0.773690 0.510155 0.003490
O O16 0.000000 0.500000 0.000000
O O17 0.884115 0.593747 0.796265
#
# Coordination Sequence:
#
# PCOD9061796 Si02
#       8
#     2   2   2   2   2   2   2   2
#     4  12  25  42  66 102 135 180 232 270 334 416
#     4  11  23  46  70  99 136 169 228 290 336 400
#     4  12  24  42  72 100 131 178 223 278 344 397
#     4  11  23  46  70  97 134 176 227 288 332 398
#     4  12  24  43  71 101 139 177 221 280 342 410
#     4  12  25  43  65  97 141 183 224 275 334 408
#     4  11  24  44  70  99 135 178 218 283 350 390
#     4  11  24  44  68  94 138 179 225 279 335 397
#
# _framework density 22.564419000000001
#
# number of rings (size 3 to 8) (size 9 to 14) (size 15 to 20)
#    0.000    0.500    3.750    5.250    0.000    3.000 
#    0.000    0.000    0.000    0.000    0.000    0.000 
#    0.000    0.000    0.000    0.000    0.000    0.000 
#
# Total GULP energy -89589.353876 kJ/mol
# GULP energy per Si atom -5599.334617 kJ/mol
# Density = 2.251306 g / cm^3
# Si number density = 22.564419 Si / 1000 Ang^3
#
#
#
# Elastic Constant Matrix: (Units=GPa)
#
#
# Indices 1 2 3 4 5 6 
#
# 1 99.7076 14.7608 15.7821 10.9016 -2.0912 -14.0859
# 2 14.7608 38.5228 8.9572 10.3188 -3.3060 -8.8147
# 3 15.7821 8.9572 80.6490 30.5746 5.0293 4.8426
# 4 10.9016 10.3188 30.5746 44.2594 1.4775 -6.6354
# 5 -2.0912 -3.3060 5.0293 1.4775 34.2617 6.4237
# 6 -14.0859 -8.8147 4.8426 -6.6354 6.4237 36.8162
#
#
#
# Elastic Compliance Matrix: (Units=1/GPa)
#
#
# Indices 1 2 3 4 5 6 
#
# 1 0.011358 -0.002952 -0.002101 -0.000072 -0.000012 0.003904
# 2 -0.002952 0.029994 -0.001457 -0.004577 0.002181 0.005038
# 3 -0.002101 -0.001457 0.018103 -0.012434 -0.001351 -0.005539
# 4 -0.000072 -0.004577 -0.012434 0.033324 -0.001323 0.006749
# 5 -0.000012 0.002181 -0.001351 -0.001323 0.030567 -0.004876
# 6 0.003904 0.005038 -0.005539 0.006749 -0.004876 0.032658
#
#
# Mechanical properties :
#
#
# Convention : Reuss Voigt Hill
#
# Bulk Modulus (GPa) = 21.53523 33.09774 27.31648
# Shear Modulus (GPa) = 27.09986 35.02608 31.06297
#
# Velocity S-wave (km/s) = 3.46930 3.94416 3.71433
# Velocity P-wave (km/s) = 5.06090 5.95330 5.52515
#
# Compressibility (1/GPa) = 0.04643554
#
# Stress axis : x y z
#
# Youngs Moduli (GPa) = 88.04282 33.33945 55.23945
#
# Poissons Ratio (x) = 0.09841 0.11607
# Poissons Ratio (y) = 0.25989 0.08049
# Poissons Ratio (z) = 0.18499 0.04858
#
# Static dielectric constant tensor:
#      x y z
#    x 1.818000 -0.026870 0.004230 
#    y -0.026870 1.826870 -0.027500 
#    z 0.004230 -0.027500 1.805660 
# 
# From -- ./inp_files/371012.got.cif
#   From: 2010.05.17/outbox.cif.g08.bks.cpg/sg2_186_cif.got.tgz:371012.got - 2010.06.03 11:33:40.
