data_PCOD9061760
_publ_section_title
;
Structure prediction by ZEFSAII (Michael W. Deem and Ramdas Pophale) SiO2 
 PCOD9061760
Probable space group: P -1
;
_chemical_formula_sum "Si O2"
_cell_formula_units_Z 16
_cell_length_a 5.551756
_cell_length_b 12.104676
_cell_length_c 23.809484
_cell_angle_alpha 149.539486
_cell_angle_beta 57.017586
_cell_angle_gamma 110.917176
_cell_volume 656.288856
_symmetry_space_group_name_H-M "P -1"
_symmetry_group_IT_number 2
_symmetry_cell_setting 'triclinic'
loop_
_space_group_symop_operation_xyz
x,y,z
-x,-y,-z
loop_
_atom_site_type_symbol
_atom_site_label
_atom_site_fract_x
_atom_site_fract_y
_atom_site_fract_z
Si Si1 0.498817 0.133851 0.115633
Si Si2 0.699620 0.721452 0.990482
Si Si3 0.183653 0.490031 0.751599
Si Si4 0.706292 0.861145 0.327366
Si Si5 0.850240 0.455963 0.349810
Si Si6 0.270204 0.990383 0.789464
Si Si7 0.889227 0.310346 0.898657
Si Si8 0.224688 0.069494 0.384111
O O1 0.745391 0.270776 0.142552
O O2 0.194405 0.322006 0.245642
O O3 0.546507 0.950989 0.077698
O O4 0.500000 0.000000 0.000000
O O5 0.452866 0.640531 0.020429
O O6 0.864615 0.827580 0.064953
O O7 0.855533 0.546195 0.845598
O O8 0.370847 0.286339 0.676582
O O9 0.220894 0.451191 0.663855
O O10 0.962701 0.699016 0.185069
O O11 0.425294 0.954983 0.362575
O O12 0.899260 0.025065 0.399802
O O13 0.695081 0.261182 0.302308
O O14 0.798211 0.666176 0.489821
O O15 0.581081 0.011612 0.732498
O O16 0.047885 0.063956 0.797587
O O17 0.000000 0.500000 0.000000
#
# Coordination Sequence:
#
# PCOD9061760 Si02
#       8
#     2   2   2   2   2   2   2   2
#     4  12  25  44  68 108 146 185 242 300 370 432
#     4  12  23  42  72 105 144 182 239 302 368 433
#     4  12  28  42  71 104 145 193 241 300 366 434
#     4  11  28  50  71 109 148 194 246 297 365 434
#     4  12  26  46  74 102 139 195 241 304 361 429
#     4  11  23  46  69 107 140 184 242 301 365 428
#     4  11  25  42  72 106 147 188 234 300 369 437
#     4  11  28  50  75 105 147 193 248 302 359 432
#
# _framework density 24.37951
#
# number of rings (size 3 to 8) (size 9 to 14) (size 15 to 20)
#    0.000    0.500    5.000    2.250    8.750    2.000 
#    0.000    2.500    0.000    0.000    0.000    0.000 
#    0.000    0.000    0.000    0.000    0.000    0.000 
#
# Total GULP energy -89481.634708 kJ/mol
# GULP energy per Si atom -5592.602169 kJ/mol
# Density = 2.432402 g / cm^3
# Si number density = 24.379510 Si / 1000 Ang^3
#
#
#
# Elastic Constant Matrix: (Units=GPa)
#
#
# Indices 1 2 3 4 5 6 
#
# 1 60.7949 22.0505 0.4924 -1.2735 7.3909 -6.9521
# 2 22.0505 144.2641 4.2868 6.2851 5.5800 -22.1886
# 3 0.4924 4.2868 78.0699 -3.5233 12.4405 3.3799
# 4 -1.2735 6.2851 -3.5233 32.5019 2.9530 1.3212
# 5 7.3909 5.5800 12.4405 2.9530 38.5471 5.2392
# 6 -6.9521 -22.1886 3.3799 1.3212 5.2392 33.2934
#
#
#
# Elastic Compliance Matrix: (Units=1/GPa)
#
#
# Indices 1 2 3 4 5 6 
#
# 1 0.018075 -0.002273 0.000563 0.001443 -0.003802 0.002743
# 2 -0.002273 0.008242 -0.000569 -0.001856 -0.001156 0.005331
# 3 0.000563 -0.000569 0.013685 0.002063 -0.004460 -0.001031
# 4 0.001443 -0.001856 0.002063 0.031744 -0.002839 -0.001958
# 5 -0.003802 -0.001156 -0.004460 -0.002839 0.029257 -0.005603
# 6 0.002743 0.005331 -0.001031 -0.001958 -0.005603 0.035226
#
#
# Mechanical properties :
#
#
# Convention : Reuss Voigt Hill
#
# Bulk Modulus (GPa) = 28.21372 37.42092 32.81732
# Shear Modulus (GPa) = 32.76515 37.95508 35.36011
#
# Velocity S-wave (km/s) = 3.66999 3.94997 3.81255
# Velocity P-wave (km/s) = 5.43657 6.01545 5.73332
#
# Compressibility (1/GPa) = 0.03544375
#
# Stress axis : x y z
#
# Youngs Moduli (GPa) = 55.32567 121.33464 73.07193
#
# Poissons Ratio (x) = 0.27584 -0.04114
# Poissons Ratio (y) = 0.12577 0.04155
# Poissons Ratio (z) = -0.03115 0.06899
#
# Static dielectric constant tensor:
#      x y z
#    x 2.043010 -0.034920 -0.031610 
#    y -0.034920 1.776540 -0.072360 
#    z -0.031610 -0.072360 1.870730 
# 
# From -- ./inp_files/70704.got.cif
#   From: 2010.05.17/outbox.cif.g08.bks.cpg/sg2_36_cif.got.tgz:70704.got - 2010.06.03 11:33:40.
