data_PCOD9061478
_publ_section_title
;
Structure prediction by ZEFSAII (Michael W. Deem and Ramdas Pophale) SiO2 
 PCOD9061478
Probable space group: P -1
;
_chemical_formula_sum "Si O2"
_cell_formula_units_Z 14
_cell_length_a 11.029841
_cell_length_b 5.722897
_cell_length_c 14.821936
_cell_angle_alpha 49.972670
_cell_angle_beta 56.480295
_cell_angle_gamma 71.752647
_cell_volume 595.983089
_symmetry_space_group_name_H-M "P -1"
_symmetry_group_IT_number 2
_symmetry_cell_setting 'triclinic'
loop_
_space_group_symop_operation_xyz
x,y,z
-x,-y,-z
loop_
_atom_site_type_symbol
_atom_site_label
_atom_site_fract_x
_atom_site_fract_y
_atom_site_fract_z
Si Si1 0.075791 0.946886 0.300902
Si Si2 0.414834 0.241275 0.537072
Si Si3 0.373739 0.794099 0.960058
Si Si4 0.217641 0.321309 0.438135
Si Si5 0.094714 0.145426 0.037283
Si Si6 0.654683 0.783551 0.770561
Si Si7 0.213825 0.787396 0.853686
O O1 0.140375 0.610993 0.357048
O O2 0.915230 0.913769 0.418187
O O3 0.075934 0.086469 0.167216
O O4 0.188787 0.141055 0.268630
O O5 0.500000 0.500000 0.500000
O O6 0.310725 0.403324 0.468623
O O7 0.500000 0.000000 0.500000
O O8 0.313174 0.025497 0.697427
O O9 0.527449 0.963641 0.825733
O O10 0.311744 0.654115 0.925615
O O11 0.393722 0.559647 0.091103
O O12 0.239043 0.981471 0.995459
O O13 0.322482 0.194370 0.350473
O O14 0.930817 0.055695 0.092370
O O15 0.141465 0.494296 0.904918
#
# Coordination Sequence:
#
# PCOD9061478 Si02
#       7
#     2   2   2   2   2   2   2
#     4  11  23  45  71 104 141 191 249 303 373 442
#     4  12  30  52  76 113 154 201 252 309 384 459
#     4  11  24  41  68 106 141 188 239 306 376 443
#     4  11  25  47  72 101 145 194 248 302 374 449
#     4  11  23  46  72 105 144 188 257 303 378 441
#     4  11  24  42  69 106 147 187 238 306 373 448
#     4  11  25  47  72 103 146 195 248 311 372 448
#
# _framework density 23.490600000000001
#
# number of rings (size 3 to 8) (size 9 to 14) (size 15 to 20)
#    0.000    0.857    4.286    1.714    6.000    1.714 
#    2.571    0.000    0.000    0.000    0.000    0.000 
#    0.000    0.000    0.000    0.000    0.000    0.000 
#
# Total GULP energy -78190.630151 kJ/mol
# GULP energy per Si atom -5585.045011 kJ/mol
# Density = 2.343713 g / cm^3
# Si number density = 23.490600 Si / 1000 Ang^3
#
#
#
# Elastic Constant Matrix: (Units=GPa)
#
#
# Indices 1 2 3 4 5 6 
#
# 1 147.5286 21.8112 66.7055 13.3757 -7.3294 -1.1331
# 2 21.8112 61.9205 61.5597 18.9183 -18.1488 -10.6342
# 3 66.7055 61.5597 178.8767 16.9915 -36.9982 -0.4343
# 4 13.3757 18.9183 16.9915 35.6933 -7.0347 -2.4286
# 5 -7.3294 -18.1488 -36.9982 -7.0347 40.5332 -2.7582
# 6 -1.1331 -10.6342 -0.4343 -2.4286 -2.7582 29.4915
#
#
#
# Elastic Compliance Matrix: (Units=1/GPa)
#
#
# Indices 1 2 3 4 5 6 
#
# 1 0.008379 0.000757 -0.003537 -0.002187 -0.001740 0.000200
# 2 0.000757 0.031516 -0.009065 -0.010991 0.004801 0.010804
# 3 -0.003537 -0.009065 0.010981 0.001803 0.005462 -0.002584
# 4 -0.002187 -0.010991 0.001803 0.034167 0.002191 -0.001002
# 5 -0.001740 0.004801 0.005462 0.002191 0.032208 0.004938
# 6 0.000200 0.010804 -0.002584 -0.001002 0.004938 0.038153
#
#
# Mechanical properties :
#
#
# Convention : Reuss Voigt Hill
#
# Bulk Modulus (GPa) = 36.78230 76.49761 56.63996
# Shear Modulus (GPa) = 26.57365 37.02690 31.80027
#
# Velocity S-wave (km/s) = 3.36705 3.97450 3.68332
# Velocity P-wave (km/s) = 5.55052 7.32790 6.50025
#
# Compressibility (1/GPa) = 0.02718699
#
# Stress axis : x y z
#
# Youngs Moduli (GPa) = 119.34595 31.72975 91.06268
#
# Poissons Ratio (x) = -0.02403 0.32209
# Poissons Ratio (y) = -0.09040 0.82551
# Poissons Ratio (z) = 0.42213 0.28764
#
# Static dielectric constant tensor:
#      x y z
#    x 1.952110 -0.040290 0.002570 
#    y -0.040290 2.053070 0.021590 
#    z 0.002570 0.021590 1.851350 
# 
# From -- ./inp_files/65830.got.cif
#   From: 2010.05.17/outbox.cif.g08.bks.cpg/sg2_33_cif.got.tgz:65830.got - 2010.06.03 11:33:40.
