data_PCOD9061860
_publ_section_title
;
Structure prediction by ZEFSAII (Michael W. Deem and Ramdas Pophale) SiO2 
 PCOD9061860
Probable space group: P -1
;
_chemical_formula_sum "Si O2"
_cell_formula_units_Z 13
_cell_length_a 8.400963
_cell_length_b 14.027967
_cell_length_c 12.138365
_cell_angle_alpha 31.634112
_cell_angle_beta 122.796066
_cell_angle_gamma 137.193000
_cell_volume 495.825532
_symmetry_space_group_name_H-M "P -1"
_symmetry_group_IT_number 2
_symmetry_cell_setting 'triclinic'
loop_
_space_group_symop_operation_xyz
x,y,z
-x,-y,-z
loop_
_atom_site_type_symbol
_atom_site_label
_atom_site_fract_x
_atom_site_fract_y
_atom_site_fract_z
Si Si1 0.836726 0.814258 0.936033
Si Si2 0.414537 0.144204 0.366740
Si Si3 0.396238 0.575860 0.613767
Si Si4 0.902534 0.698298 0.665712
Si Si5 0.000000 0.000000 0.000000
Si Si6 0.930440 0.310640 0.026529
Si Si7 0.406337 0.937489 0.151421
O O1 0.781437 0.698017 0.153951
O O2 0.977012 0.756152 0.972515
O O3 0.597117 0.732759 0.865006
O O4 0.988173 0.067182 0.792913
O O5 0.557333 0.310063 0.359576
O O6 0.500000 0.000000 0.500000
O O7 0.131499 0.961699 0.471366
O O8 0.650239 0.645146 0.601129
O O9 0.305339 0.678845 0.399008
O O10 0.941410 0.529282 0.786831
O O11 0.916899 0.648185 0.848922
O O12 0.228240 0.991819 0.058856
O O13 0.652203 0.102052 0.153172
O O14 0.500000 0.000000 0.000000
#
# Coordination Sequence:
#
# PCOD9061860 Si02
#       7
#     2   2   2   2   1   2   2
#     4  12  26  46  69 105 144 188 236 293 353 424
#     4  12  24  41  70 104 143 182 230 293 363 415
#     4  12  25  45  72 106 142 178 238 296 356 424
#     4  11  24  41  74 108 141 181 227 296 362 427
#     4  12  28  48  74  96 146 188 248 288 344 424
#     4  11  23  46  72 106 145 182 234 290 362 422
#     4  12  26  51  73 101 141 195 238 296 349 421
#
# _framework density 26.218900000000001
#
# number of rings (size 3 to 8) (size 9 to 14) (size 15 to 20)
#    0.000    0.308    4.615    4.615    4.308    0.615 
#    2.769    1.538    0.000    0.000    0.000    0.000 
#    0.000    0.000    0.000    0.000    0.000    0.000 
#
# Total GULP energy -72741.329763 kJ/mol
# GULP energy per Si atom -5595.486905 kJ/mol
# Density = 2.615922 g / cm^3
# Si number density = 26.218900 Si / 1000 Ang^3
#
#
#
# Elastic Constant Matrix: (Units=GPa)
#
#
# Indices 1 2 3 4 5 6 
#
# 1 210.6406 56.0740 51.2464 3.6399 26.8713 -14.1853
# 2 56.0740 98.8086 27.1711 3.6300 7.6388 -23.9664
# 3 51.2464 27.1711 130.9962 -0.5523 15.8221 -2.7313
# 4 3.6399 3.6300 -0.5523 46.3529 5.4119 -9.1146
# 5 26.8713 7.6388 15.8221 5.4119 42.2310 -12.9552
# 6 -14.1853 -23.9664 -2.7313 -9.1146 -12.9552 61.7521
#
#
#
# Elastic Compliance Matrix: (Units=1/GPa)
#
#
# Indices 1 2 3 4 5 6 
#
# 1 0.006266 -0.003024 -0.001468 -0.000005 -0.003022 -0.000434
# 2 -0.003024 0.013323 -0.001676 -0.000084 0.001602 0.004726
# 3 -0.001468 -0.001676 0.008831 0.000432 -0.002448 -0.001047
# 4 -0.000005 -0.000084 0.000432 0.022394 -0.002141 0.002842
# 5 -0.003022 0.001602 -0.002448 -0.002141 0.028164 0.005412
# 6 -0.000434 0.004726 -0.001047 0.002842 0.005412 0.019437
#
#
# Mechanical properties :
#
#
# Convention : Reuss Voigt Hill
#
# Bulk Modulus (GPa) = 62.17019 78.82537 70.49778
# Shear Modulus (GPa) = 43.06164 50.46415 46.76289
#
# Velocity S-wave (km/s) = 4.05704 4.39193 4.22780
# Velocity P-wave (km/s) = 6.76088 7.47317 7.12593
#
# Compressibility (1/GPa) = 0.01608488
#
# Stress axis : x y z
#
# Youngs Moduli (GPa) = 159.59281 75.05942 113.23206
#
# Poissons Ratio (x) = 0.22695 0.16624
# Poissons Ratio (y) = 0.48255 0.18977
# Poissons Ratio (z) = 0.23430 0.12579
#
# Static dielectric constant tensor:
#      x y z
#    x 1.945540 -0.020300 -0.054030 
#    y -0.020300 2.276360 -0.029750 
#    z -0.054030 -0.029750 2.242640 
# 
# From -- ./inp_files/173965.got.cif
#   From: 2010.05.17/outbox.cif.g08.bks.cpg/sg2_87_cif.got.tgz:173965.got - 2010.06.03 11:33:40.
