data_PCOD9061547
_publ_section_title
;
Structure prediction by ZEFSAII (Michael W. Deem and Ramdas Pophale) SiO2 
 PCOD9061547
Probable space group: P -1
;
_chemical_formula_sum "Si O2"
_cell_formula_units_Z 14
_cell_length_a 13.224651
_cell_length_b 7.270925
_cell_length_c 8.751765
_cell_angle_alpha 120.253272
_cell_angle_beta 85.017434
_cell_angle_gamma 59.978592
_cell_volume 561.060246
_symmetry_space_group_name_H-M "P -1"
_symmetry_group_IT_number 2
_symmetry_cell_setting 'triclinic'
loop_
_space_group_symop_operation_xyz
x,y,z
-x,-y,-z
loop_
_atom_site_type_symbol
_atom_site_label
_atom_site_fract_x
_atom_site_fract_y
_atom_site_fract_z
Si Si1 0.745043 0.354761 0.296206
Si Si2 0.547293 0.146036 0.471013
Si Si3 0.594012 0.040816 0.084086
Si Si4 0.826934 0.322963 0.919727
Si Si5 0.596987 0.404715 0.803853
Si Si6 0.138691 0.248460 0.017947
Si Si7 0.971187 0.326055 0.338475
O O1 0.592567 0.567306 0.441480
O O2 0.824684 0.431371 0.405197
O O3 0.808334 0.038516 0.190981
O O4 0.768349 0.370742 0.118747
O O5 0.615176 0.983447 0.237368
O O6 0.634656 0.151714 0.589464
O O7 0.500000 0.000000 0.500000
O O8 0.506212 0.359061 0.200130
O O9 0.739412 0.873218 0.930003
O O10 0.500000 0.000000 0.000000
O O11 0.714854 0.395610 0.843859
O O12 0.877290 0.496756 0.949096
O O13 0.939401 0.993692 0.758102
O O14 0.500000 0.500000 0.000000
O O15 0.014306 0.333241 0.164212
O O16 0.000000 0.500000 0.500000
#
# Coordination Sequence:
#
# PCOD9061547 Si02
#       7
#     2   2   2   2   2   2   2
#     4  11  25  46  71 100 142 186 238 291 352 425
#     4  12  26  42  70 108 143 188 233 291 361 434
#     4  12  24  42  68 105 143 183 230 291 359 421
#     4  11  23  45  73 102 136 190 233 287 362 421
#     4  12  22  42  68 105 146 180 232 291 357 431
#     4  11  23  46  71  97 137 183 234 290 349 417
#     4  11  28  47  68 101 138 186 240 296 351 418
#
# _framework density 24.952755
#
# number of rings (size 3 to 8) (size 9 to 14) (size 15 to 20)
#    0.000    0.571    4.286    4.714    4.000    2.857 
#    0.000    0.000    0.000    0.000    0.000    0.000 
#    0.000    0.000    0.000    0.000    0.000    0.000 
#
# Total GULP energy -78195.101894 kJ/mol
# GULP energy per Si atom -5585.364421 kJ/mol
# Density = 2.489596 g / cm^3
# Si number density = 24.952755 Si / 1000 Ang^3
#
#
#
# Elastic Constant Matrix: (Units=GPa)
#
#
# Indices 1 2 3 4 5 6 
#
# 1 142.9071 34.0700 31.5176 -2.6982 22.4492 7.3104
# 2 34.0700 114.7190 24.3689 2.8082 9.3400 19.7802
# 3 31.5176 24.3689 90.3209 -4.5796 17.3741 5.8283
# 4 -2.6982 2.8082 -4.5796 35.0243 0.5078 3.2198
# 5 22.4492 9.3400 17.3741 0.5078 33.3962 -0.6593
# 6 7.3104 19.7802 5.8283 3.2198 -0.6593 51.4029
#
#
#
# Elastic Compliance Matrix: (Units=1/GPa)
#
#
# Indices 1 2 3 4 5 6 
#
# 1 0.008496 -0.001769 -0.001574 0.000696 -0.004417 -0.000449
# 2 -0.001769 0.010316 -0.001833 -0.000873 -0.000797 -0.003466
# 3 -0.001574 -0.001833 0.013299 0.001913 -0.005393 -0.000768
# 4 0.000696 -0.000873 0.001913 0.029118 -0.001698 -0.001826
# 5 -0.004417 -0.000797 -0.005393 -0.001698 0.036009 0.002115
# 6 -0.000449 -0.003466 -0.000768 -0.001826 0.002115 0.021080
#
#
# Mechanical properties :
#
#
# Convention : Reuss Voigt Hill
#
# Bulk Modulus (GPa) = 45.95609 58.65112 52.30360
# Shear Modulus (GPa) = 36.78562 41.16405 38.97483
#
# Velocity S-wave (km/s) = 3.84371 4.06603 3.95643
# Velocity P-wave (km/s) = 6.17706 6.75273 6.47130
#
# Compressibility (1/GPa) = 0.02175990
#
# Stress axis : x y z
#
# Youngs Moduli (GPa) = 117.69712 96.94112 75.19251
#
# Poissons Ratio (x) = 0.17148 0.11832
# Poissons Ratio (y) = 0.20820 0.13784
# Poissons Ratio (z) = 0.18520 0.17771
#
# Static dielectric constant tensor:
#      x y z
#    x 2.053900 0.175900 0.219380 
#    y 0.175900 2.568050 0.555370 
#    z 0.219380 0.555370 2.104630 
# 
# From -- ./inp_files/182224.got.cif
#   From: 2010.05.17/outbox.cif.g08.bks.cpg/sg2_92_cif.got.tgz:182224.got - 2010.06.03 11:33:40.
