data_PCOD9061199
_publ_section_title
;
Structure prediction by ZEFSAII (Michael W. Deem and Ramdas Pophale) SiO2 
 PCOD9061199
Probable space group: P -1
;
_chemical_formula_sum "Si O2"
_cell_formula_units_Z 13
_cell_length_a 8.657608
_cell_length_b 7.356641
_cell_length_c 11.348473
_cell_angle_alpha 138.232413
_cell_angle_beta 90.756140
_cell_angle_gamma 101.432079
_cell_volume 457.330684
_symmetry_space_group_name_H-M "P -1"
_symmetry_group_IT_number 2
_symmetry_cell_setting 'triclinic'
loop_
_space_group_symop_operation_xyz
x,y,z
-x,-y,-z
loop_
_atom_site_type_symbol
_atom_site_label
_atom_site_fract_x
_atom_site_fract_y
_atom_site_fract_z
Si Si1 0.822495 0.631639 0.017056
Si Si2 0.855476 0.914077 0.809506
Si Si3 0.638566 0.018595 0.299588
Si Si4 0.779409 0.363583 0.138157
Si Si5 0.483357 0.614342 0.694368
Si Si6 0.900127 0.375918 0.648837
Si Si7 0.500000 0.000000 0.500000
O O1 0.783978 0.431753 0.033911
O O2 0.701278 0.819841 0.118321
O O3 0.841931 0.475496 0.820416
O O4 0.002408 0.866119 0.157089
O O5 0.660866 0.795235 0.736344
O O6 0.907430 0.631343 0.683046
O O7 0.850760 0.096071 0.017235
O O8 0.485622 0.298015 0.577319
O O9 0.628837 0.291912 0.358160
O O10 0.483242 0.850313 0.293339
O O11 0.599992 0.301467 0.151272
O O12 0.916150 0.624980 0.330644
O O13 0.756141 0.113306 0.465550
#
# Coordination Sequence:
#
# PCOD9061199 Si02
#       7
#     2   2   2   2   2   2   1
#     4  11  25  49  79 113 153 201 261 315 376 460
#     4  11  23  44  74 110 152 199 251 316 382 449
#     4  12  27  51  79 110 155 205 252 319 382 453
#     4  11  24  47  76 114 154 201 261 312 381 460
#     4  12  26  50  77 110 157 205 250 318 390 453
#     4  11  24  46  74 112 147 204 253 311 381 451
#     4  12  26  50  72 118 154 196 264 310 382 466
#
# _framework density 28.425820000000002
#
# number of rings (size 3 to 8) (size 9 to 14) (size 15 to 20)
#    0.000    0.615    3.077    6.462    0.000    5.538 
#    0.000    2.308    0.000    0.000    0.000    0.000 
#    0.000    0.000    0.000    0.000    0.000    0.000 
#
# Total GULP energy -72402.205556 kJ/mol
# GULP energy per Si atom -5569.400427 kJ/mol
# Density = 2.836112 g / cm^3
# Si number density = 28.425820 Si / 1000 Ang^3
#
#
#
# Elastic Constant Matrix: (Units=GPa)
#
#
# Indices 1 2 3 4 5 6 
#
# 1 116.5045 28.3505 33.2518 10.8865 -7.3966 0.4175
# 2 28.3505 170.7343 32.2309 -2.5926 -24.0965 7.5341
# 3 33.2518 32.2309 51.0451 5.4624 10.1312 4.6428
# 4 10.8865 -2.5926 5.4624 42.2317 4.0222 -7.9915
# 5 -7.3966 -24.0965 10.1312 4.0222 44.2605 -9.2771
# 6 0.4175 7.5341 4.6428 -7.9915 -9.2771 49.9182
#
#
#
# Elastic Compliance Matrix: (Units=1/GPa)
#
#
# Indices 1 2 3 4 5 6 
#
# 1 0.011354 0.000205 -0.008266 -0.002045 0.004321 0.001119
# 2 0.000205 0.007832 -0.006376 0.000817 0.005814 0.000620
# 3 -0.008266 -0.006376 0.032241 -0.002083 -0.013033 -0.004723
# 4 -0.002045 0.000817 -0.002083 0.025364 -0.000891 0.003983
# 5 0.004321 0.005814 -0.013033 -0.000891 0.030777 0.005876
# 6 0.001119 0.000620 -0.004723 0.003983 0.005876 0.022099
#
#
# Mechanical properties :
#
#
# Convention : Reuss Voigt Hill
#
# Bulk Modulus (GPa) = 44.34329 58.43892 51.39110
# Shear Modulus (GPa) = 30.10966 43.57880 36.84423
#
# Velocity S-wave (km/s) = 3.25812 3.91969 3.60412
# Velocity P-wave (km/s) = 5.45778 6.41002 5.95297
#
# Compressibility (1/GPa) = 0.02255132
#
# Stress axis : x y z
#
# Youngs Moduli (GPa) = 88.07265 127.67556 31.01673
#
# Poissons Ratio (x) = -0.02611 0.25639
# Poissons Ratio (y) = -0.01801 0.19778
# Poissons Ratio (z) = 0.72802 0.81411
#
# Static dielectric constant tensor:
#      x y z
#    x 1.987990 -0.278860 -0.048510 
#    y -0.278860 1.932220 -0.033970 
#    z -0.048510 -0.033970 2.410050 
# 
# From -- ./inp_files/494081.got.cif
#   From: 2010.05.17/outbox.cif.g08.bks.cpg/sg2_248_cif.got.tgz:494081.got - 2010.06.03 11:33:40.
