data_PCOD9061725
_publ_section_title
;
Structure prediction by ZEFSAII (Michael W. Deem and Ramdas Pophale) SiO2 
 PCOD9061725
Probable space group: P -1
;
_chemical_formula_sum "Si O2"
_cell_formula_units_Z 15
_cell_length_a 18.905698
_cell_length_b 5.348456
_cell_length_c 9.186733
_cell_angle_alpha 49.282745
_cell_angle_beta 62.776746
_cell_angle_gamma 62.050844
_cell_volume 605.770807
_symmetry_space_group_name_H-M "P -1"
_symmetry_group_IT_number 2
_symmetry_cell_setting 'triclinic'
loop_
_space_group_symop_operation_xyz
x,y,z
-x,-y,-z
loop_
_atom_site_type_symbol
_atom_site_label
_atom_site_fract_x
_atom_site_fract_y
_atom_site_fract_z
Si Si1 0.830376 0.217146 0.927116
Si Si2 0.718923 0.938353 0.998804
Si Si3 0.500000 0.500000 0.000000
Si Si4 0.988617 0.110858 0.636728
Si Si5 0.752729 0.977361 0.644574
Si Si6 0.854740 0.258535 0.204727
Si Si7 0.586592 0.986379 0.634438
Si Si8 0.426860 0.424938 0.790132
O O1 0.900562 0.087519 0.789943
O O2 0.813705 0.619436 0.764151
O O3 0.862120 0.079143 0.108039
O O4 0.736602 0.175900 0.019911
O O5 0.799377 0.630408 0.073108
O O6 0.639844 0.789060 0.112555
O O7 0.729257 0.134061 0.766337
O O8 0.557393 0.572502 0.054415
O O9 0.442074 0.358073 0.226369
O O10 0.000000 0.500000 0.500000
O O11 0.000000 0.000000 0.500000
O O12 0.056109 0.841632 0.769947
O O13 0.798915 0.153540 0.420554
O O14 0.670354 0.945193 0.657090
O O15 0.509464 0.215255 0.711120
O O16 0.594381 0.197545 0.401148
#
# Coordination Sequence:
#
# PCOD9061725 Si02
#       8
#     2   2   1   2   2   2   2   2
#     4  11  27  45  75 109 145 196 247 306 378 450
#     4  11  25  44  70 103 144 192 248 309 374 454
#     4  12  24  44  70  96 132 188 244 302 370 438
#     4  12  27  50  83 115 157 203 253 312 385 457
#     4  11  23  46  67 103 144 186 242 304 367 446
#     4  11  25  47  74 106 148 194 247 303 375 450
#     4  11  25  43  68  98 140 185 239 304 368 444
#     4  11  25  46  65 103 140 190 243 305 376 443
#
# _framework density 24.761839999999999
#
# number of rings (size 3 to 8) (size 9 to 14) (size 15 to 20)
#    0.000    0.800    4.000    2.000    5.600    1.600 
#    4.800    0.000    0.000    0.000    0.000    0.000 
#    0.000    0.000    0.000    0.000    0.000    0.000 
#
# Total GULP energy -83576.527581 kJ/mol
# GULP energy per Si atom -5571.768505 kJ/mol
# Density = 2.470548 g / cm^3
# Si number density = 24.761840 Si / 1000 Ang^3
#
#
#
# Elastic Constant Matrix: (Units=GPa)
#
#
# Indices 1 2 3 4 5 6 
#
# 1 72.4952 14.7964 68.5895 6.3291 0.9592 5.1488
# 2 14.7964 42.4277 26.1592 15.4387 3.5580 -6.3541
# 3 68.5895 26.1592 175.7502 7.2881 6.7609 8.0408
# 4 6.3291 15.4387 7.2881 24.0325 4.5209 2.4134
# 5 0.9592 3.5580 6.7609 4.5209 54.6197 1.7037
# 6 5.1488 -6.3541 8.0408 2.4134 1.7037 35.3695
#
#
#
# Elastic Compliance Matrix: (Units=1/GPa)
#
#
# Indices 1 2 3 4 5 6 
#
# 1 0.022362 -0.002365 -0.008256 -0.001880 0.000993 -0.001723
# 2 -0.002365 0.036453 -0.003988 -0.022473 -0.000271 0.009346
# 3 -0.008256 -0.003988 0.009531 0.002195 -0.000901 -0.001788
# 4 -0.001880 -0.022473 0.002195 0.057296 -0.003267 -0.008015
# 5 0.000993 -0.000271 -0.000901 -0.003267 0.018711 -0.000667
# 6 -0.001723 0.009346 -0.001788 -0.008015 -0.000667 0.031188
#
#
# Mechanical properties :
#
#
# Convention : Reuss Voigt Hill
#
# Bulk Modulus (GPa) = 25.55791 56.64037 41.09914
# Shear Modulus (GPa) = 22.95649 34.87954 28.91801
#
# Velocity S-wave (km/s) = 3.04812 3.75720 3.42108
# Velocity P-wave (km/s) = 4.76780 6.46110 5.67793
#
# Compressibility (1/GPa) = 0.03912682
#
# Stress axis : x y z
#
# Youngs Moduli (GPa) = 44.71937 27.43236 104.91950
#
# Poissons Ratio (x) = 0.06488 0.86626
# Poissons Ratio (y) = 0.10577 0.41842
# Poissons Ratio (z) = 0.36922 0.10940
#
# Static dielectric constant tensor:
#      x y z
#    x 1.984010 0.086500 -0.019960 
#    y 0.086500 2.337940 -0.053540 
#    z -0.019960 -0.053540 1.940800 
# 
# From -- ./inp_files/106140.got.cif
#   From: 2010.05.17/outbox.cif.g08.bks.cpg/sg2_54_cif.got.tgz:106140.got - 2010.06.03 11:33:40.
