data_PCOD9061161
_publ_section_title
;
Structure prediction by ZEFSAII (Michael W. Deem and Ramdas Pophale) SiO2 
 PCOD9061161
Probable space group: P -1
;
_chemical_formula_sum "Si O2"
_cell_formula_units_Z 12
_cell_length_a 11.283617
_cell_length_b 13.750997
_cell_length_c 7.366661
_cell_angle_alpha 46.908310
_cell_angle_beta 56.852255
_cell_angle_gamma 31.888263
_cell_volume 439.301120
_symmetry_space_group_name_H-M "P -1"
_symmetry_group_IT_number 2
_symmetry_cell_setting 'triclinic'
loop_
_space_group_symop_operation_xyz
x,y,z
-x,-y,-z
loop_
_atom_site_type_symbol
_atom_site_label
_atom_site_fract_x
_atom_site_fract_y
_atom_site_fract_z
Si Si1 0.500000 0.500000 0.500000
Si Si2 0.905529 0.029239 0.839702
Si Si3 0.529427 0.179629 0.147047
Si Si4 0.288133 0.580751 0.991040
Si Si5 0.786876 0.839266 0.650514
Si Si6 0.500000 0.000000 0.000000
Si Si7 0.254538 0.454585 0.540334
O O1 0.764315 0.255077 0.601456
O O2 0.435239 0.425170 0.507010
O O3 0.722798 0.046204 0.007250
O O4 0.000000 0.000000 0.000000
O O5 0.099053 0.827992 0.812703
O O6 0.397280 0.417075 0.943692
O O7 0.365595 0.179432 0.245598
O O8 0.664247 0.052425 0.380415
O O9 0.207570 0.533444 0.270876
O O10 0.500000 0.500000 0.000000
O O11 0.737063 0.882667 0.847923
O O12 0.027775 0.633484 0.623383
O O13 0.358278 0.232210 0.746263
#
# Coordination Sequence:
#
# PCOD9061161 Si02
#       7
#     1   2   2   2   2   1   2
#     4  12  26  46  78 114 150 206 258 316 400 452
#     4  12  23  46  75 106 157 203 257 327 377 461
#     4  11  23  44  73 110 144 206 262 305 398 469
#     4  12  24  44  79 111 152 206 258 319 395 463
#     4  11  25  45  74 103 154 202 255 322 384 469
#     4  12  26  46  72 108 154 196 256 322 384 464
#     4  12  26  48  73 110 158 202 253 327 387 464
#
# _framework density 27.316115
#
# number of rings (size 3 to 8) (size 9 to 14) (size 15 to 20)
#    0.000    0.333    6.667    1.500    0.000    3.333 
#    0.000    7.500    0.000    0.000    0.000    0.000 
#    0.000    0.000    0.000    0.000    0.000    0.000 
#
# Total GULP energy -66838.035745 kJ/mol
# GULP energy per Si atom -5569.836312 kJ/mol
# Density = 2.725394 g / cm^3
# Si number density = 27.316115 Si / 1000 Ang^3
#
#
#
# Elastic Constant Matrix: (Units=GPa)
#
#
# Indices 1 2 3 4 5 6 
#
# 1 73.2005 25.1427 7.3670 -6.7115 -1.1731 1.6500
# 2 25.1427 227.4455 53.0308 -25.1526 2.9910 -1.9814
# 3 7.3670 53.0308 101.7661 -34.5584 3.5757 5.3624
# 4 -6.7115 -25.1526 -34.5584 83.0133 1.1013 -2.7487
# 5 -1.1731 2.9910 3.5757 1.1013 41.4941 7.7613
# 6 1.6500 -1.9814 5.3624 -2.7487 7.7613 40.5410
#
#
#
# Elastic Compliance Matrix: (Units=1/GPa)
#
#
# Indices 1 2 3 4 5 6 
#
# 1 0.014270 -0.001519 -0.000001 0.000661 0.000632 -0.000731
# 2 -0.001519 0.005203 -0.002474 0.000453 -0.000356 0.000742
# 3 -0.000001 -0.002474 0.012751 0.004524 -0.000788 -0.001350
# 4 0.000661 0.000453 0.004524 0.014149 -0.000877 0.000524
# 5 0.000632 -0.000356 -0.000788 -0.000877 0.025134 -0.004810
# 6 -0.000731 0.000742 -0.001350 0.000524 -0.004810 0.025867
#
#
# Mechanical properties :
#
#
# Convention : Reuss Voigt Hill
#
# Bulk Modulus (GPa) = 41.26079 63.72147 52.49113
# Shear Modulus (GPa) = 44.07588 54.13445 49.10517
#
# Velocity S-wave (km/s) = 4.02126 4.45655 4.24449
# Velocity P-wave (km/s) = 6.05792 7.06110 6.57866
#
# Compressibility (1/GPa) = 0.02423608
#
# Stress axis : x y z
#
# Youngs Moduli (GPa) = 70.07673 192.21104 78.42581
#
# Poissons Ratio (x) = 0.29195 0.00007
# Poissons Ratio (y) = 0.10644 0.19402
# Poissons Ratio (z) = 0.00006 0.47552
#
# Static dielectric constant tensor:
#      x y z
#    x 2.134340 0.027270 0.095140 
#    y 0.027270 2.036540 0.004890 
#    z 0.095140 0.004890 1.410300 
# 
# From -- ./inp_files/36120.got.cif
#   From: 2010.05.17/outbox.cif.g08.bks.cpg/sg2_19_cif.got.tgz:36120.got - 2010.06.03 11:33:40.
