data_PCOD9061718
_publ_section_title
;
Structure prediction by ZEFSAII (Michael W. Deem and Ramdas Pophale) SiO2 
 PCOD9061718
Probable space group: P -1
;
_chemical_formula_sum "Si O2"
_cell_formula_units_Z 12
_cell_length_a 18.059338
_cell_length_b 10.618728
_cell_length_c 14.352868
_cell_angle_alpha 31.975817
_cell_angle_beta 20.971767
_cell_angle_gamma 36.461003
_cell_volume 520.596910
_symmetry_space_group_name_H-M "P -1"
_symmetry_group_IT_number 2
_symmetry_cell_setting 'triclinic'
loop_
_space_group_symop_operation_xyz
x,y,z
-x,-y,-z
loop_
_atom_site_type_symbol
_atom_site_label
_atom_site_fract_x
_atom_site_fract_y
_atom_site_fract_z
Si Si1 0.360043 0.008297 0.566971
Si Si2 0.019621 0.990045 0.720559
Si Si3 0.092145 0.227147 0.197346
Si Si4 0.374906 0.727086 0.046185
Si Si5 0.013038 0.714956 0.090221
Si Si6 0.495942 0.022540 0.101118
O O1 0.509119 0.057169 0.275120
O O2 0.500000 0.000000 0.500000
O O3 0.224881 0.781272 0.850376
O O4 0.182722 0.224787 0.651136
O O5 0.979148 0.898811 0.928413
O O6 0.259848 0.032515 0.403455
O O7 0.981038 0.792970 0.810343
O O8 0.864153 0.217065 0.735420
O O9 0.028674 0.459104 0.185231
O O10 0.341593 0.191435 0.924447
O O11 0.000000 0.000000 0.500000
O O12 0.409392 0.752760 0.099869
O O13 0.500000 0.500000 0.000000
O O14 0.500000 0.000000 0.000000
#
# Coordination Sequence:
#
# PCOD9061718 Si02
#       6
#     2   2   2   2   2   2
#     4  11  24  46  68 101 138 182 227 279 347 409
#     4  11  23  46  66  99 137 179 229 277 346 411
#     4  11  25  43  69 102 133 178 232 286 341 406
#     4  11  26  43  71 102 137 180 233 287 340 411
#     4  11  25  44  69  99 138 181 228 279 344 415
#     4  11  24  44  67  99 139 178 232 282 349 402
#
# _framework density 23.050464000000002
#
# number of rings (size 3 to 8) (size 9 to 14) (size 15 to 20)
#    0.000    1.000    5.000    0.500    4.667    4.000 
#    0.000    0.000    0.000    0.000    0.000    0.000 
#    0.000    0.000    0.000    0.000    0.000    0.000 
#
# Total GULP energy -67089.433820 kJ/mol
# GULP energy per Si atom -5590.786152 kJ/mol
# Density = 2.299800 g / cm^3
# Si number density = 23.050464 Si / 1000 Ang^3
#
#
#
# Elastic Constant Matrix: (Units=GPa)
#
#
# Indices 1 2 3 4 5 6 
#
# 1 123.0989 16.6250 29.0397 -6.5495 -25.0927 21.7481
# 2 16.6250 131.7687 21.6581 12.5726 -16.0454 15.0744
# 3 29.0397 21.6581 111.0578 35.2874 -21.2944 -14.3179
# 4 -6.5495 12.5726 35.2874 32.2895 5.0466 -3.1251
# 5 -25.0927 -16.0454 -21.2944 5.0466 45.9676 7.2757
# 6 21.7481 15.0744 -14.3179 -3.1251 7.2757 31.3963
#
#
#
# Elastic Compliance Matrix: (Units=1/GPa)
#
#
# Indices 1 2 3 4 5 6 
#
# 1 0.013596 0.000956 -0.006730 0.007494 0.005965 -0.013583
# 2 0.000956 0.009410 -0.000698 -0.004185 0.005064 -0.007089
# 3 -0.006730 -0.000698 0.021435 -0.024580 0.007017 0.010700
# 4 0.007494 -0.004185 -0.024580 0.062860 -0.014917 -0.004677
# 5 0.005965 0.005064 0.007017 -0.014917 0.033669 -0.012651
# 6 -0.013583 -0.007089 0.010700 -0.004677 -0.012651 0.052009
#
#
# Mechanical properties :
#
#
# Convention : Reuss Voigt Hill
#
# Bulk Modulus (GPa) = 31.74914 55.61902 43.68408
# Shear Modulus (GPa) = 23.10288 41.83751 32.47020
#
# Velocity S-wave (km/s) = 3.16931 4.26495 3.75728
# Velocity P-wave (km/s) = 5.21501 6.95950 6.14943
#
# Compressibility (1/GPa) = 0.03149692
#
# Stress axis : x y z
#
# Youngs Moduli (GPa) = 73.54866 106.26797 46.65243
#
# Poissons Ratio (x) = -0.10159 0.31397
# Poissons Ratio (y) = -0.07031 0.03258
# Poissons Ratio (z) = 0.49498 0.07422
#
# Static dielectric constant tensor:
#      x y z
#    x 1.881050 -0.002030 0.009240 
#    y -0.002030 1.873870 -0.020930 
#    z 0.009240 -0.020930 1.898880 
# 
# From -- ./inp_files/28691.got.cif
#   From: 2010.05.17/outbox.cif.g08.bks.cpg/sg2_15_cif.got.tgz:28691.got - 2010.06.03 11:33:40.
