data_PCOD9061492
_publ_section_title
;
Structure prediction by ZEFSAII (Michael W. Deem and Ramdas Pophale) SiO2 
 PCOD9061492
Probable space group: P -1
;
_chemical_formula_sum "Si O2"
_cell_formula_units_Z 12
_cell_length_a 5.087308
_cell_length_b 15.909851
_cell_length_c 8.454209
_cell_angle_alpha 124.883418
_cell_angle_beta 76.655836
_cell_angle_gamma 76.438161
_cell_volume 485.184875
_symmetry_space_group_name_H-M "P -1"
_symmetry_group_IT_number 2
_symmetry_cell_setting 'triclinic'
loop_
_space_group_symop_operation_xyz
x,y,z
-x,-y,-z
loop_
_atom_site_type_symbol
_atom_site_label
_atom_site_fract_x
_atom_site_fract_y
_atom_site_fract_z
Si Si1 0.217957 0.873960 0.273442
Si Si2 0.834278 0.667672 0.447114
Si Si3 0.894325 0.279417 0.106962
Si Si4 0.571882 0.331786 0.768255
Si Si5 0.381525 0.126117 0.081913
Si Si6 0.254643 0.428660 0.233029
O O1 0.394706 0.791013 0.304877
O O2 0.054829 0.804669 0.139591
O O3 0.425619 0.880202 0.108441
O O4 0.000000 0.000000 0.500000
O O5 0.646320 0.631054 0.312540
O O6 0.617548 0.785669 0.691917
O O7 0.096701 0.684766 0.338913
O O8 0.022128 0.562153 0.427790
O O9 0.537442 0.368414 0.248271
O O10 0.032284 0.192582 0.141465
O O11 0.077282 0.353208 0.152037
O O12 0.422107 0.417553 0.028179
O O13 0.500000 0.000000 0.000000
#
# Coordination Sequence:
#
# PCOD9061492 Si02
#       6
#     2   2   2   2   2   2
#     4  11  26  49  79 102 148 197 244 298 364 439
#     4  12  27  44  76 112 149 193 235 305 360 426
#     4  11  24  48  74 110 143 189 243 300 360 429
#     4  11  23  45  71 111 144 190 247 289 363 428
#     4  12  29  49  74 109 150 188 250 304 364 429
#     4  11  23  47  77 107 149 190 248 290 358 438
#
# _framework density 24.732842999999999
#
# number of rings (size 3 to 8) (size 9 to 14) (size 15 to 20)
#    0.000    0.667    3.333    5.000    4.667    2.667 
#    0.000    0.000    0.000    0.000    0.000    0.000 
#    0.000    0.000    0.000    0.000    0.000    0.000 
#
# Total GULP energy -67245.474648 kJ/mol
# GULP energy per Si atom -5603.789554 kJ/mol
# Density = 2.467655 g / cm^3
# Si number density = 24.732843 Si / 1000 Ang^3
#
#
#
# Elastic Constant Matrix: (Units=GPa)
#
#
# Indices 1 2 3 4 5 6 
#
# 1 138.8337 33.4079 26.6475 -7.8142 -16.2049 4.4340
# 2 33.4079 162.0132 26.8059 28.3801 -5.8362 1.2387
# 3 26.6475 26.8059 137.3365 22.3862 -20.3994 9.4119
# 4 -7.8142 28.3801 22.3862 44.1063 -5.5685 4.3627
# 5 -16.2049 -5.8362 -20.3994 -5.5685 32.6425 -11.7585
# 6 4.4340 1.2387 9.4119 4.3627 -11.7585 38.9882
#
#
#
# Elastic Compliance Matrix: (Units=1/GPa)
#
#
# Indices 1 2 3 4 5 6 
#
# 1 0.008647 -0.002133 -0.001369 0.004067 0.003786 0.000102
# 2 -0.002133 0.007551 -0.000341 -0.005191 -0.000637 0.000474
# 3 -0.001369 -0.000341 0.008883 -0.003993 0.004014 -0.000320
# 4 0.004067 -0.005191 -0.003993 0.029306 0.002977 -0.001715
# 5 0.003786 -0.000637 0.004014 0.002977 0.039041 0.010062
# 6 0.000102 0.000474 -0.000320 -0.001715 0.010062 0.028926
#
#
# Mechanical properties :
#
#
# Convention : Reuss Voigt Hill
#
# Bulk Modulus (GPa) = 57.48994 67.98954 62.73974
# Shear Modulus (GPa) = 36.80860 46.56888 41.68874
#
# Velocity S-wave (km/s) = 3.86197 4.34392 4.11001
# Velocity P-wave (km/s) = 6.57124 7.26008 6.92423
#
# Compressibility (1/GPa) = 0.01739435
#
# Stress axis : x y z
#
# Youngs Moduli (GPa) = 115.65322 132.42540 112.57991
#
# Poissons Ratio (x) = 0.28251 0.15411
# Poissons Ratio (y) = 0.24673 0.03838
# Poissons Ratio (z) = 0.15832 0.04514
#
# Static dielectric constant tensor:
#      x y z
#    x 1.994060 0.001780 -0.025470 
#    y 0.001780 2.002600 -0.067210 
#    z -0.025470 -0.067210 1.984650 
# 
# From -- ./inp_files/134568.got.cif
#   From: 2010.05.17/outbox.cif.g08.bks.cpg/sg2_68_cif.got.tgz:134568.got - 2010.06.03 11:33:40.
