data_PCOD9061813
_publ_section_title
;
Structure prediction by ZEFSAII (Michael W. Deem and Ramdas Pophale) SiO2 
 PCOD9061813
Probable space group: P -1
;
_chemical_formula_sum "Si O2"
_cell_formula_units_Z 15
_cell_length_a 11.948273
_cell_length_b 15.424272
_cell_length_c 6.648097
_cell_angle_alpha 116.033690
_cell_angle_beta 58.097241
_cell_angle_gamma 141.199485
_cell_volume 650.913838
_symmetry_space_group_name_H-M "P -1"
_symmetry_group_IT_number 2
_symmetry_cell_setting 'triclinic'
loop_
_space_group_symop_operation_xyz
x,y,z
-x,-y,-z
loop_
_atom_site_type_symbol
_atom_site_label
_atom_site_fract_x
_atom_site_fract_y
_atom_site_fract_z
Si Si1 0.965756 0.133783 0.808387
Si Si2 0.062350 0.468096 0.595318
Si Si3 0.504965 0.433268 0.232353
Si Si4 0.189531 0.343185 0.137922
Si Si5 0.427603 0.787304 0.632429
Si Si6 0.291071 0.170540 0.370190
Si Si7 0.241500 0.802699 0.168757
Si Si8 0.500000 0.000000 0.500000
O O1 0.880635 0.181329 0.822067
O O2 0.143840 0.178486 0.569561
O O3 0.812396 0.968600 0.790281
O O4 0.029999 0.195596 0.033915
O O5 0.105936 0.384531 0.388423
O O6 0.255779 0.620954 0.632166
O O7 0.000000 0.500000 0.500000
O O8 0.897640 0.358126 0.797996
O O9 0.500000 0.500000 0.500000
O O10 0.338653 0.367931 0.163806
O O11 0.464193 0.305661 0.220272
O O12 0.696924 0.551549 0.050959
O O13 0.621587 0.829597 0.512254
O O14 0.428013 0.857353 0.513396
O O15 0.396050 0.838721 0.908511
O O16 0.347962 0.908425 0.361264
#
# Coordination Sequence:
#
# PCOD9061813 Si02
#       8
#     2   2   2   2   2   2   2   1
#     4  11  25  47  71 107 148 187 243 303 372 431
#     4  12  26  45  72 111 140 192 259 302 360 444
#     4  11  23  46  71 103 145 193 237 297 367 441
#     4  11  26  44  72 103 144 194 239 299 375 425
#     4  12  27  49  76 108 148 197 247 308 372 441
#     4  11  25  44  74 108 144 189 246 303 360 444
#     4  12  27  50  75 106 154 198 243 311 371 436
#     4  12  26  50  76 104 156 192 248 298 382 444
#
# _framework density 23.044523999999999
#
# number of rings (size 3 to 8) (size 9 to 14) (size 15 to 20)
#    0.000    0.533    4.000    3.200    5.600    0.533 
#    0.000    0.000    0.000    0.000    0.000    0.000 
#    0.000    0.000    0.000    0.000    0.000    0.000 
#
# Total GULP energy -83712.767004 kJ/mol
# GULP energy per Si atom -5580.851134 kJ/mol
# Density = 2.299207 g / cm^3
# Si number density = 23.044524 Si / 1000 Ang^3
#
#
#
# Elastic Constant Matrix: (Units=GPa)
#
#
# Indices 1 2 3 4 5 6 
#
# 1 96.0165 14.0625 13.8563 6.6740 7.8773 6.1237
# 2 14.0625 135.2958 21.9758 21.5928 16.7397 -4.0955
# 3 13.8563 21.9758 44.5896 7.2763 11.2590 7.8162
# 4 6.6740 21.5928 7.2763 44.9418 7.3136 17.5645
# 5 7.8773 16.7397 11.2590 7.3136 26.1219 4.5349
# 6 6.1237 -4.0955 7.8162 17.5645 4.5349 37.0736
#
#
#
# Elastic Compliance Matrix: (Units=1/GPa)
#
#
# Indices 1 2 3 4 5 6 
#
# 1 0.011079 -0.000511 -0.002546 -0.000332 -0.001651 -0.000990
# 2 -0.000511 0.009451 -0.003547 -0.005144 -0.003763 0.004774
# 3 -0.002546 -0.003547 0.027831 0.000999 -0.008315 -0.005295
# 4 -0.000332 -0.005144 0.000999 0.030987 -0.003101 -0.015026
# 5 -0.001651 -0.003763 -0.008315 -0.003101 0.046088 -0.002558
# 6 -0.000990 0.004774 -0.005295 -0.015026 -0.002558 0.036212
#
#
# Mechanical properties :
#
#
# Convention : Reuss Voigt Hill
#
# Bulk Modulus (GPa) = 28.44657 41.74345 35.09501
# Shear Modulus (GPa) = 26.79909 36.69461 31.74685
#
# Velocity S-wave (km/s) = 3.41387 3.99474 3.71567
# Velocity P-wave (km/s) = 5.28302 6.27940 5.80263
#
# Compressibility (1/GPa) = 0.03515363
#
# Stress axis : x y z
#
# Youngs Moduli (GPa) = 90.26220 105.80420 35.93146
#
# Poissons Ratio (x) = 0.05402 0.09150
# Poissons Ratio (y) = 0.04609 0.12744
# Poissons Ratio (z) = 0.22984 0.37525
#
# Static dielectric constant tensor:
#      x y z
#    x -7.073520 -11.353470 4.024590 
#    y -11.353470 -12.801850 5.225050 
#    z 4.024590 5.225050 -0.005200 
# 
# From -- ./inp_files/78318.got.cif
#   From: 2010.05.17/outbox.cif.g08.bks.cpg/sg2_40_cif.got.tgz:78318.got - 2010.06.03 11:33:40.
