data_PCOD9061397
_publ_section_title
;
Structure prediction by ZEFSAII (Michael W. Deem and Ramdas Pophale) SiO2 
 PCOD9061397
Probable space group: P -1
;
_chemical_formula_sum "Si O2"
_cell_formula_units_Z 16
_cell_length_a 19.241260
_cell_length_b 10.699662
_cell_length_c 9.431124
_cell_angle_alpha 118.643236
_cell_angle_beta 29.108560
_cell_angle_gamma 125.942406
_cell_volume 761.936536
_symmetry_space_group_name_H-M "P -1"
_symmetry_group_IT_number 2
_symmetry_cell_setting 'triclinic'
loop_
_space_group_symop_operation_xyz
x,y,z
-x,-y,-z
loop_
_atom_site_type_symbol
_atom_site_label
_atom_site_fract_x
_atom_site_fract_y
_atom_site_fract_z
Si Si1 0.974252 0.818809 0.421767
Si Si2 0.975402 0.659672 0.633568
Si Si3 0.274302 0.836084 0.372422
Si Si4 0.425340 0.194049 0.265533
Si Si5 0.637473 0.649408 0.278755
Si Si6 0.535529 0.804318 0.312032
Si Si7 0.632422 0.670486 0.827911
Si Si8 0.264193 0.855337 0.740821
O O1 0.001197 0.745983 0.481920
O O2 0.803188 0.712429 0.609974
O O3 0.000000 0.000000 0.500000
O O4 0.097398 0.818315 0.084128
O O5 0.000000 0.500000 0.500000
O O6 0.103823 0.760895 0.571057
O O7 0.802754 0.638384 0.976292
O O8 0.267471 0.833833 0.554573
O O9 0.346764 0.011333 0.280966
O O10 0.390645 0.758278 0.064695
O O11 0.373701 0.218870 0.527346
O O12 0.364059 0.291309 0.322732
O O13 0.500000 0.500000 0.500000
O O14 0.591234 0.684642 0.225120
O O15 0.352630 0.761354 0.612640
O O16 0.629258 0.968407 0.307178
O O17 0.580653 0.798314 0.065342
O O18 0.500000 0.500000 0.000000
#
# Coordination Sequence:
#
# PCOD9061397 Si02
#       8
#     2   2   2   2   2   2   2   2
#     4  12  26  48  75 103 140 193 241 289 354 424
#     4  12  29  47  70 106 147 184 233 300 358 424
#     4  11  25  45  70 105 142 178 237 296 353 419
#     4  11  25  43  72 103 136 187 234 289 351 423
#     4  12  25  45  70  97 142 187 232 282 358 424
#     4  11  23  45  70 100 136 182 241 285 345 416
#     4  12  25  45  69 100 142 186 234 290 346 422
#     4  11  24  43  74 101 137 177 236 300 342 413
#
# _framework density 20.999124999999999
#
# number of rings (size 3 to 8) (size 9 to 14) (size 15 to 20)
#    0.000    0.500    5.000    2.250    7.000    0.500 
#    0.000    1.250    0.000    0.000    0.000    0.000 
#    0.000    0.000    0.000    0.000    0.000    0.000 
#
# Total GULP energy -89383.958461 kJ/mol
# GULP energy per Si atom -5586.497404 kJ/mol
# Density = 2.095133 g / cm^3
# Si number density = 20.999125 Si / 1000 Ang^3
#
#
#
# Elastic Constant Matrix: (Units=GPa)
#
#
# Indices 1 2 3 4 5 6 
#
# 1 126.0114 48.9123 68.3625 -15.2014 -15.8621 3.3471
# 2 48.9123 69.0552 35.6471 -9.2872 -18.0546 -0.7058
# 3 68.3625 35.6471 173.9103 -1.1441 -21.8725 1.6502
# 4 -15.2014 -9.2872 -1.1441 32.9897 6.6825 -1.8539
# 5 -15.8621 -18.0546 -21.8725 6.6825 42.8696 -1.9513
# 6 3.3471 -0.7058 1.6502 -1.8539 -1.9513 27.0684
#
#
#
# Elastic Compliance Matrix: (Units=1/GPa)
#
#
# Indices 1 2 3 4 5 6 
#
# 1 0.013139 -0.007016 -0.003777 0.004016 -0.000708 -0.001353
# 2 -0.007016 0.021749 -0.000968 0.001779 0.005886 0.002040
# 3 -0.003777 -0.000968 0.007731 -0.002249 0.002490 -0.000004
# 4 0.004016 0.001779 -0.002249 0.033503 -0.004058 0.001689
# 5 -0.000708 0.005886 0.002490 -0.004058 0.027528 0.001796
# 6 -0.001353 0.002040 -0.000004 0.001689 0.001796 0.037409
#
#
# Mechanical properties :
#
#
# Convention : Reuss Voigt Hill
#
# Bulk Modulus (GPa) = 52.35714 74.98007 63.66861
# Shear Modulus (GPa) = 29.24900 34.98918 32.11909
#
# Velocity S-wave (km/s) = 3.73616 4.08637 3.91518
# Velocity P-wave (km/s) = 6.60296 7.61894 7.12907
#
# Compressibility (1/GPa) = 0.01909959
#
# Stress axis : x y z
#
# Youngs Moduli (GPa) = 76.10836 45.97946 129.34323
#
# Poissons Ratio (x) = 0.32258 0.48847
# Poissons Ratio (y) = 0.53396 0.12514
# Poissons Ratio (z) = 0.28743 0.04449
#
# Static dielectric constant tensor:
#      x y z
#    x 2.211340 1.185640 0.760690 
#    y 1.185640 4.738210 1.908800 
#    z 0.760690 1.908800 2.980420 
# 
# From -- ./inp_files/297797.got.cif
#   From: 2010.05.17/outbox.cif.g08.bks.cpg/sg2_149_cif.got.tgz:297797.got - 2010.06.03 11:33:40.
