data_PCOD9061587
_publ_section_title
;
Structure prediction by ZEFSAII (Michael W. Deem and Ramdas Pophale) SiO2 
 PCOD9061587
Probable space group: P -1
;
_chemical_formula_sum "Si O2"
_cell_formula_units_Z 16
_cell_length_a 9.703616
_cell_length_b 12.242581
_cell_length_c 8.751998
_cell_angle_alpha 103.318523
_cell_angle_beta 93.156173
_cell_angle_gamma 48.732397
_cell_volume 753.767872
_symmetry_space_group_name_H-M "P -1"
_symmetry_group_IT_number 2
_symmetry_cell_setting 'triclinic'
loop_
_space_group_symop_operation_xyz
x,y,z
-x,-y,-z
loop_
_atom_site_type_symbol
_atom_site_label
_atom_site_fract_x
_atom_site_fract_y
_atom_site_fract_z
Si Si1 0.331397 0.998581 0.318547
Si Si2 0.143247 0.512802 0.943232
Si Si3 0.233018 0.895910 0.759290
Si Si4 0.077527 0.783531 0.518414
Si Si5 0.541063 0.834059 0.580373
Si Si6 0.569146 0.252995 0.968298
Si Si7 0.118618 0.770863 0.154159
Si Si8 0.842691 0.501880 0.428190
O O1 0.487028 0.887995 0.419309
O O2 0.371599 0.899978 0.144848
O O3 0.340260 0.126972 0.335163
O O4 0.134175 0.076612 0.403892
O O5 0.349697 0.382970 0.981006
O O6 0.152615 0.498605 0.755629
O O7 0.088121 0.668964 0.037103
O O8 0.000000 0.500000 0.000000
O O9 0.194722 0.820635 0.609037
O O10 0.356195 0.924255 0.696009
O O11 0.350815 0.783046 0.868827
O O12 0.038916 0.055137 0.849500
O O13 0.099038 0.766562 0.333071
O O14 0.129867 0.637305 0.551096
O O15 0.653018 0.658335 0.529052
O O16 0.680807 0.286151 0.889904
O O17 0.000000 0.500000 0.500000
#
# Coordination Sequence:
#
# PCOD9061587 Si02
#       8
#     2   2   2   2   2   2   2   2
#     4  11  23  45  74 101 138 185 232 291 349 406
#     4  12  30  48  70 104 145 185 229 287 358 416
#     4  12  27  44  74 107 136 184 240 289 350 416
#     4  12  25  45  75 103 138 187 236 289 344 416
#     4  11  25  44  72 104 138 180 240 288 343 417
#     4  12  27  48  71 101 146 184 229 293 353 415
#     4  12  26  48  72 103 145 184 232 291 350 413
#     4  12  26  46  72 103 141 184 232 287 347 418
#
# _framework density 21.226693999999998
#
# number of rings (size 3 to 8) (size 9 to 14) (size 15 to 20)
#    0.000    0.250    5.000    3.375    7.000    1.000 
#    0.000    0.000    0.000    0.000    0.000    0.000 
#    0.000    0.000    0.000    0.000    0.000    0.000 
#
# Total GULP energy -89581.545450 kJ/mol
# GULP energy per Si atom -5598.846591 kJ/mol
# Density = 2.117838 g / cm^3
# Si number density = 21.226694 Si / 1000 Ang^3
#
#
#
# Elastic Constant Matrix: (Units=GPa)
#
#
# Indices 1 2 3 4 5 6 
#
# 1 113.5006 13.1507 28.1600 -0.3524 0.1561 -7.5521
# 2 13.1507 91.5525 12.9576 -0.6179 1.7003 -4.8146
# 3 28.1600 12.9576 64.3344 1.3352 10.7656 0.7576
# 4 -0.3524 -0.6179 1.3352 31.0127 4.4184 2.9936
# 5 0.1561 1.7003 10.7656 4.4184 33.2708 4.3265
# 6 -7.5521 -4.8146 0.7576 2.9936 4.3265 32.4057
#
#
#
# Elastic Compliance Matrix: (Units=1/GPa)
#
#
# Indices 1 2 3 4 5 6 
#
# 1 0.010162 -0.000725 -0.004523 -0.000086 0.001176 0.002217
# 2 -0.000725 0.011393 -0.001971 0.000176 -0.000169 0.001576
# 3 -0.004523 -0.001971 0.018914 0.000029 -0.005871 -0.001008
# 4 -0.000086 0.000176 0.000029 0.033070 -0.004084 -0.002504
# 5 0.001176 -0.000169 -0.005871 -0.004084 0.032975 -0.003639
# 6 0.002217 0.001576 -0.001008 -0.002504 -0.003639 0.032350
#
#
# Mechanical properties :
#
#
# Convention : Reuss Voigt Hill
#
# Bulk Modulus (GPa) = 38.41645 41.99157 40.20401
# Shear Modulus (GPa) = 30.86780 33.67912 32.27346
#
# Velocity S-wave (km/s) = 3.81753 3.98759 3.90348
# Velocity P-wave (km/s) = 6.12934 6.40519 6.26879
#
# Compressibility (1/GPa) = 0.02603051
#
# Stress axis : x y z
#
# Youngs Moduli (GPa) = 98.40136 87.77262 52.86984
#
# Poissons Ratio (x) = 0.06367 0.23914
# Poissons Ratio (y) = 0.07138 0.10421
# Poissons Ratio (z) = 0.44510 0.17300
#
# Static dielectric constant tensor:
#      x y z
#    x 1.750860 -0.028130 0.006360 
#    y -0.028130 1.801170 -0.014270 
#    z 0.006360 -0.014270 1.729200 
# 
# From -- ./inp_files/186727.got.cif
#   From: 2010.05.17/outbox.cif.g08.bks.cpg/sg2_94_cif.got.tgz:186727.got - 2010.06.03 11:33:40.
