data_PCOD9061071
_publ_section_title
;
Structure prediction by ZEFSAII (Michael W. Deem and Ramdas Pophale) SiO2 
 PCOD9061071
Probable space group: P -1
;
_chemical_formula_sum "Si O2"
_cell_formula_units_Z 10
_cell_length_a 13.384063
_cell_length_b 9.263703
_cell_length_c 10.127959
_cell_angle_alpha 63.614545
_cell_angle_beta 147.995016
_cell_angle_gamma 133.001915
_cell_volume 456.731300
_symmetry_space_group_name_H-M "P -1"
_symmetry_group_IT_number 2
_symmetry_cell_setting 'triclinic'
loop_
_space_group_symop_operation_xyz
x,y,z
-x,-y,-z
loop_
_atom_site_type_symbol
_atom_site_label
_atom_site_fract_x
_atom_site_fract_y
_atom_site_fract_z
Si Si1 0.576562 0.859350 0.258806
Si Si2 0.419112 0.789890 0.568575
Si Si3 0.753820 0.787392 0.747190
Si Si4 0.112626 0.508276 0.987691
Si Si5 0.708371 0.289583 0.252006
O O1 0.718255 0.833780 0.539155
O O2 0.714660 0.102920 0.297124
O O3 0.316437 0.749546 0.083383
O O4 0.463417 0.725593 0.050250
O O5 0.537579 0.722472 0.631891
O O6 0.457658 0.787850 0.768770
O O7 0.124600 0.629523 0.311721
O O8 0.500000 0.000000 0.500000
O O9 0.773381 0.606447 0.836317
O O10 0.000000 0.000000 0.000000
O O11 0.000000 0.500000 0.000000
O O12 0.000000 0.500000 0.500000
#
# Coordination Sequence:
#
# PCOD9061071 Si02
#       5
#     2   2   2   2   2
#     4  11  24  42  70 103 143 186 233 287 357 421
#     4  12  22  44  73 101 139 189 235 291 348 413
#     4  12  25  43  74 106 141 186 246 287 346 429
#     4  12  23  42  74 103 141 183 241 299 346 412
#     4  11  23  44  72 104 146 187 229 292 361 421
#
# _framework density 21.894711999999998
#
# number of rings (size 3 to 8) (size 9 to 14) (size 15 to 20)
#    0.000    0.400    8.000    0.600    0.000    0.000 
#    0.000    2.000    4.400    0.000    0.000    0.000 
#    0.000    0.000    0.000    0.000    0.000    0.000 
#
# Total GULP energy -55699.893569 kJ/mol
# GULP energy per Si atom -5569.989357 kJ/mol
# Density = 2.184488 g / cm^3
# Si number density = 21.894712 Si / 1000 Ang^3
#
#
#
# Elastic Constant Matrix: (Units=GPa)
#
#
# Indices 1 2 3 4 5 6 
#
# 1 134.9726 40.3072 39.9357 -28.9479 -20.2573 0.6497
# 2 40.3072 115.9076 54.5556 25.5636 0.8539 4.7400
# 3 39.9357 54.5556 145.6276 1.0446 -22.6999 9.2697
# 4 -28.9479 25.5636 1.0446 40.0122 8.8931 4.0708
# 5 -20.2573 0.8539 -22.6999 8.8931 46.5470 -10.6534
# 6 0.6497 4.7400 9.2697 4.0708 -10.6534 37.8566
#
#
#
# Elastic Compliance Matrix: (Units=1/GPa)
#
#
# Indices 1 2 3 4 5 6 
#
# 1 0.013082 -0.007324 -0.000475 0.013448 0.003079 0.000229
# 2 -0.007324 0.016711 -0.004582 -0.015229 -0.002819 0.000000
# 3 -0.000475 -0.004582 0.009371 0.001531 0.003982 -0.000757
# 4 0.013448 -0.015229 0.001531 0.045483 -0.002814 -0.004382
# 5 0.003079 -0.002819 0.003982 -0.002814 0.027009 0.007229
# 6 0.000229 0.000000 -0.000757 -0.004382 0.007229 0.029102
#
#
# Mechanical properties :
#
#
# Convention : Reuss Voigt Hill
#
# Bulk Modulus (GPa) = 69.43172 74.01162 71.72167
# Shear Modulus (GPa) = 29.35644 42.33044 35.84344
#
# Velocity S-wave (km/s) = 3.66567 4.40177 4.05048
# Velocity P-wave (km/s) = 7.04958 7.72729 7.39620
#
# Compressibility (1/GPa) = 0.01440264
#
# Stress axis : x y z
#
# Youngs Moduli (GPa) = 76.44168 59.84229 106.70743
#
# Poissons Ratio (x) = 0.43828 0.05067
# Poissons Ratio (y) = 0.55985 0.48892
# Poissons Ratio (z) = 0.03630 0.27419
#
# Static dielectric constant tensor:
#      x y z
#    x 1.857020 -0.016540 -0.157590 
#    y -0.016540 1.809490 -0.017040 
#    z -0.157590 -0.017040 1.722380 
# 
# From -- ./inp_files/166694.got.cif
#   From: 2010.05.17/outbox.cif.g08.bks.cpg/sg2_84_cif.got.tgz:166694.got - 2010.06.03 11:33:40.
