data_PCOD9061551
_publ_section_title
;
Structure prediction by ZEFSAII (Michael W. Deem and Ramdas Pophale) SiO2 
 PCOD9061551
Probable space group: P -1
;
_chemical_formula_sum "Si O2"
_cell_formula_units_Z 13
_cell_length_a 5.761507
_cell_length_b 12.208960
_cell_length_c 8.060311
_cell_angle_alpha 80.961575
_cell_angle_beta 109.282868
_cell_angle_gamma 112.002087
_cell_volume 495.833414
_symmetry_space_group_name_H-M "P -1"
_symmetry_group_IT_number 2
_symmetry_cell_setting 'triclinic'
loop_
_space_group_symop_operation_xyz
x,y,z
-x,-y,-z
loop_
_atom_site_type_symbol
_atom_site_label
_atom_site_fract_x
_atom_site_fract_y
_atom_site_fract_z
Si Si1 0.171140 0.862372 0.286513
Si Si2 0.500000 0.500000 0.000000
Si Si3 0.584168 0.317978 0.685809
Si Si4 0.991818 0.461319 0.314733
Si Si5 0.935395 0.785155 0.595968
Si Si6 0.399816 0.939680 0.816213
Si Si7 0.317437 0.230226 0.999751
O O1 0.194071 0.734341 0.294832
O O2 0.055454 0.859108 0.440836
O O3 0.962909 0.862672 0.097773
O O4 0.456366 0.957783 0.304097
O O5 0.238422 0.514681 0.845813
O O6 0.330342 0.356820 0.040953
O O7 0.460387 0.268294 0.844658
O O8 0.722428 0.457540 0.707659
O O9 0.370593 0.273421 0.501302
O O10 0.973422 0.326992 0.336173
O O11 0.000000 0.500000 0.500000
O O12 0.086212 0.879006 0.747851
O O13 0.526498 0.838004 0.846686
O O14 0.500000 0.000000 0.000000
#
# Coordination Sequence:
#
# PCOD9061551 Si02
#       7
#     2   1   2   2   2   2   2
#     4  11  23  47  71  98 144 187 240 293 355 430
#     4  12  24  44  78 102 144 188 236 298 372 424
#     4  11  23  45  73 102 143 185 238 302 357 438
#     4  12  23  47  72 109 144 184 239 298 367 432
#     4  11  25  45  72 103 141 193 239 294 364 425
#     4  12  25  47  70 105 144 190 242 298 353 429
#     4  11  24  47  69 105 141 183 238 302 361 423
#
# _framework density 26.218484
#
# number of rings (size 3 to 8) (size 9 to 14) (size 15 to 20)
#    0.000    0.615    6.154    2.308    0.000    1.231 
#   13.846    0.000    0.000    0.000    0.000    0.000 
#    0.000    0.000    0.000    0.000    0.000    0.000 
#
# Total GULP energy -72569.125828 kJ/mol
# GULP energy per Si atom -5582.240448 kJ/mol
# Density = 2.615881 g / cm^3
# Si number density = 26.218484 Si / 1000 Ang^3
#
#
#
# Elastic Constant Matrix: (Units=GPa)
#
#
# Indices 1 2 3 4 5 6 
#
# 1 41.0113 0.2042 30.2565 11.2518 16.3571 14.8033
# 2 0.2042 133.6201 37.0517 5.4158 17.8360 22.3827
# 3 30.2565 37.0517 95.7927 19.6098 20.3579 12.1962
# 4 11.2518 5.4158 19.6098 51.6666 6.1048 17.4357
# 5 16.3571 17.8360 20.3579 6.1048 50.0141 9.0676
# 6 14.8033 22.3827 12.1962 17.4357 9.0676 38.8939
#
#
#
# Elastic Compliance Matrix: (Units=1/GPa)
#
#
# Indices 1 2 3 4 5 6 
#
# 1 0.041909 0.006896 -0.012395 0.000713 -0.008606 -0.014346
# 2 0.006896 0.010406 -0.005112 0.002150 -0.002821 -0.007316
# 3 -0.012395 -0.005112 0.016959 -0.004642 -0.001317 0.004729
# 4 0.000713 0.002150 -0.004642 0.024458 -0.000103 -0.010993
# 5 -0.008606 -0.002821 -0.001317 -0.000103 0.024425 -0.000336
# 6 -0.014346 -0.007316 0.004729 -0.010993 -0.000336 0.038905
#
#
# Mechanical properties :
#
#
# Convention : Reuss Voigt Hill
#
# Bulk Modulus (GPa) = 20.81068 45.04989 32.93028
# Shear Modulus (GPa) = 25.73329 41.64235 33.68782
#
# Velocity S-wave (km/s) = 3.13628 3.98965 3.58842
# Velocity P-wave (km/s) = 4.59017 6.20023 5.45493
#
# Compressibility (1/GPa) = 0.04805225
#
# Stress axis : x y z
#
# Youngs Moduli (GPa) = 23.86146 96.09975 58.96400
#
# Poissons Ratio (x) = -0.66269 0.73084
# Poissons Ratio (y) = -0.16454 0.30142
# Poissons Ratio (z) = 0.29575 0.49126
#
# Static dielectric constant tensor:
#      x y z
#    x 2.171230 0.062820 -0.098340 
#    y 0.062820 2.058670 0.011920 
#    z -0.098340 0.011920 2.100780 
# 
# From -- ./inp_files/23169.got.cif
#   From: 2010.05.17/outbox.cif.g08.bks.cpg/sg2_12_cif.got.tgz:23169.got - 2010.06.03 11:33:40.
