data_PCOD9061513
_publ_section_title
;
Structure prediction by ZEFSAII (Michael W. Deem and Ramdas Pophale) SiO2 
 PCOD9061513
Probable space group: P -1
;
_chemical_formula_sum "Si O2"
_cell_formula_units_Z 16
_cell_length_a 9.523043
_cell_length_b 18.210621
_cell_length_c 11.932072
_cell_angle_alpha 151.787436
_cell_angle_beta 129.134176
_cell_angle_gamma 48.929744
_cell_volume 729.540066
_symmetry_space_group_name_H-M "P -1"
_symmetry_group_IT_number 2
_symmetry_cell_setting 'triclinic'
loop_
_space_group_symop_operation_xyz
x,y,z
-x,-y,-z
loop_
_atom_site_type_symbol
_atom_site_label
_atom_site_fract_x
_atom_site_fract_y
_atom_site_fract_z
Si Si1 0.910136 0.489598 0.113386
Si Si2 0.407846 0.851630 0.752694
Si Si3 0.978516 0.626262 0.560562
Si Si4 0.406453 0.506448 0.582545
Si Si5 0.283580 0.354209 0.991657
Si Si6 0.192812 0.018285 0.071274
Si Si7 0.809742 0.148424 0.590781
Si Si8 0.463477 0.993161 0.605006
O O1 0.885074 0.567727 0.327324
O O2 0.125470 0.453669 0.130793
O O3 0.795439 0.612231 0.127870
O O4 0.856986 0.319996 0.855873
O O5 0.559336 0.677988 0.607705
O O6 0.284733 0.857334 0.586531
O O7 0.500000 0.000000 0.000000
O O8 0.277838 0.882951 0.840011
O O9 0.865044 0.805340 0.777579
O O10 0.000000 0.500000 0.500000
O O11 0.193285 0.612000 0.616496
O O12 0.500000 0.500000 0.500000
O O13 0.529093 0.589152 0.833419
O O14 0.329067 0.170162 0.803205
O O15 0.347241 0.023053 0.249993
O O16 0.000000 0.000000 0.000000
O O17 0.653296 0.128740 0.576001
O O18 0.000000 0.000000 0.500000
O O19 0.500000 0.000000 0.500000
#
# Coordination Sequence:
#
# PCOD9061513 Si02
#       8
#     2   2   2   2   2   2   2   2
#     4  11  25  45  72 104 144 183 244 295 356 435
#     4  12  26  48  76 106 144 188 252 295 355 435
#     4  12  28  45  70 105 147 187 235 297 363 420
#     4  12  24  45  74 104 135 191 243 291 353 429
#     4  11  23  45  72 104 136 187 243 298 351 426
#     4  12  28  46  72 108 146 188 235 302 364 422
#     4  12  27  46  75 108 141 196 243 302 363 429
#     4  12  27  47  71 104 148 188 239 298 371 433
#
# _framework density 21.931626999999999
#
# number of rings (size 3 to 8) (size 9 to 14) (size 15 to 20)
#    0.000    0.250    5.000    3.750    5.250    1.000 
#    0.000    1.875    0.000    0.000    0.000    0.000 
#    0.000    0.000    0.000    0.000    0.000    0.000 
#
# Total GULP energy -89584.551974 kJ/mol
# GULP energy per Si atom -5599.034498 kJ/mol
# Density = 2.188171 g / cm^3
# Si number density = 21.931627 Si / 1000 Ang^3
#
#
#
# Elastic Constant Matrix: (Units=GPa)
#
#
# Indices 1 2 3 4 5 6 
#
# 1 96.9151 10.9508 3.7694 -16.2973 11.3936 6.3326
# 2 10.9508 107.5510 15.5633 10.2195 4.9667 -3.9491
# 3 3.7694 15.5633 68.8542 2.2980 15.2944 -5.1882
# 4 -16.2973 10.2195 2.2980 36.3173 5.5327 2.9501
# 5 11.3936 4.9667 15.2944 5.5327 40.0958 -0.6019
# 6 6.3326 -3.9491 -5.1882 2.9501 -0.6019 34.7866
#
#
#
# Elastic Compliance Matrix: (Units=1/GPa)
#
#
# Indices 1 2 3 4 5 6 
#
# 1 0.012421 -0.001878 0.000256 0.007010 -0.004408 -0.003107
# 2 -0.001878 0.010180 -0.002094 -0.003792 0.000618 0.001517
# 3 0.000256 -0.002094 0.016483 0.000430 -0.006129 0.002032
# 4 0.007010 -0.003792 0.000430 0.033053 -0.006315 -0.004555
# 5 -0.004408 0.000618 -0.006129 -0.006315 0.029341 0.001002
# 6 -0.003107 0.001517 0.002032 -0.004555 0.001002 0.030191
#
#
# Mechanical properties :
#
#
# Convention : Reuss Voigt Hill
#
# Bulk Modulus (GPa) = 31.59606 37.09861 34.34734
# Shear Modulus (GPa) = 33.41078 38.44239 35.92658
#
# Velocity S-wave (km/s) = 3.90732 4.19122 4.05176
# Velocity P-wave (km/s) = 5.89865 6.35406 6.13059
#
# Compressibility (1/GPa) = 0.03164951
#
# Stress axis : x y z
#
# Youngs Moduli (GPa) = 80.51098 98.23400 60.66821
#
# Poissons Ratio (x) = 0.18451 -0.01551
# Poissons Ratio (y) = 0.15122 0.12707
# Poissons Ratio (z) = -0.02059 0.20575
#
# Static dielectric constant tensor:
#      x y z
#    x 1.860620 0.028990 0.017390 
#    y 0.028990 1.773620 0.020760 
#    z 0.017390 0.020760 1.770290 
# 
# From -- ./inp_files/299418.got.cif
#   From: 2010.05.17/outbox.cif.g08.bks.cpg/sg2_150_cif.got.tgz:299418.got - 2010.06.03 11:33:40.
