data_PCOD9061164
_publ_section_title
;
Structure prediction by ZEFSAII (Michael W. Deem and Ramdas Pophale) SiO2 
 PCOD9061164
Probable space group: P -1
;
_chemical_formula_sum "Si O2"
_cell_formula_units_Z 16
_cell_length_a 7.494014
_cell_length_b 8.119075
_cell_length_c 16.894361
_cell_angle_alpha 116.168590
_cell_angle_beta 98.434634
_cell_angle_gamma 124.212168
_cell_volume 646.135322
_symmetry_space_group_name_H-M "P -1"
_symmetry_group_IT_number 2
_symmetry_cell_setting 'triclinic'
loop_
_space_group_symop_operation_xyz
x,y,z
-x,-y,-z
loop_
_atom_site_type_symbol
_atom_site_label
_atom_site_fract_x
_atom_site_fract_y
_atom_site_fract_z
Si Si1 0.615469 0.823536 0.167337
Si Si2 0.466926 0.192913 0.526800
Si Si3 0.083514 0.339399 0.245276
Si Si4 0.239011 0.533864 0.541462
Si Si5 0.155700 0.299063 0.067070
Si Si6 0.634570 0.056873 0.935839
Si Si7 0.745274 0.457595 0.269321
Si Si8 0.137713 0.042652 0.624575
O O1 0.427952 0.513986 0.087904
O O2 0.457273 0.867155 0.120947
O O3 0.694151 0.919014 0.284015
O O4 0.888424 0.033137 0.185981
O O5 0.513298 0.245794 0.447418
O O6 0.248725 0.083557 0.552943
O O7 0.702198 0.479936 0.637488
O O8 0.500000 0.000000 0.500000
O O9 0.929375 0.420611 0.252193
O O10 0.201537 0.398277 0.180215
O O11 0.293553 0.579187 0.647188
O O12 0.000000 0.500000 0.500000
O O13 0.128571 0.254031 0.454587
O O14 0.936732 0.271723 0.010111
O O15 0.000000 0.000000 0.000000
O O16 0.517960 0.777908 0.841379
O O17 0.500000 0.000000 0.000000
O O18 0.860598 0.737831 0.315299
#
# Coordination Sequence:
#
# PCOD9061164 Si02
#       8
#     2   2   2   2   2   2   2   2
#     4  11  23  44  73  96 137 182 227 275 346 402
#     4  12  24  40  72 101 133 182 226 276 339 412
#     4  11  23  46  69  98 139 181 225 277 347 413
#     4  12  22  43  70  99 139 185 222 273 350 410
#     4  12  25  45  73 102 136 177 232 288 340 405
#     4  11  23  46  70  97 137 182 226 279 344 406
#     4  11  24  43  70  98 140 178 228 283 336 409
#     4  12  24  43  69 105 138 176 229 283 338 406
#
# _framework density 24.762615
#
# number of rings (size 3 to 8) (size 9 to 14) (size 15 to 20)
#    0.000    0.500    7.500    2.250    0.000    1.000 
#    2.250    2.500    0.000    0.000    0.000    0.000 
#    0.000    0.000    0.000    0.000    0.000    0.000 
#
# Total GULP energy -89513.791763 kJ/mol
# GULP energy per Si atom -5594.611985 kJ/mol
# Density = 2.470625 g / cm^3
# Si number density = 24.762615 Si / 1000 Ang^3
#
#
#
# Elastic Constant Matrix: (Units=GPa)
#
#
# Indices 1 2 3 4 5 6 
#
# 1 61.0777 35.5910 5.1852 -16.2681 -7.7585 7.7946
# 2 35.5910 162.4811 40.8864 6.2242 -9.7424 2.3385
# 3 5.1852 40.8864 114.4568 -10.7898 -3.4998 -1.8725
# 4 -16.2681 6.2242 -10.7898 51.1325 -3.2232 10.9194
# 5 -7.7585 -9.7424 -3.4998 -3.2232 27.6588 6.2169
# 6 7.7946 2.3385 -1.8725 10.9194 6.2169 38.9070
#
#
#
# Elastic Compliance Matrix: (Units=1/GPa)
#
#
# Indices 1 2 3 4 5 6 
#
# 1 0.024921 -0.005793 0.002147 0.011590 0.008634 -0.009174
# 2 -0.005793 0.008320 -0.003041 -0.003825 0.000123 0.001568
# 3 0.002147 -0.003041 0.010082 0.003477 0.001429 -0.000966
# 4 0.011590 -0.003825 0.003477 0.027262 0.007959 -0.010848
# 5 0.008634 0.000123 0.001429 0.007959 0.042118 -0.010632
# 6 -0.009174 0.001568 -0.000966 -0.010848 -0.010632 0.032143
#
#
# Mechanical properties :
#
#
# Convention : Reuss Voigt Hill
#
# Bulk Modulus (GPa) = 33.39100 55.70454 44.54777
# Shear Modulus (GPa) = 29.72613 40.62987 35.17800
#
# Velocity S-wave (km/s) = 3.46850 4.05504 3.77319
# Velocity P-wave (km/s) = 5.43639 6.66849 6.08371
#
# Compressibility (1/GPa) = 0.02994819
#
# Stress axis : x y z
#
# Youngs Moduli (GPa) = 40.12724 120.19140 99.19086
#
# Poissons Ratio (x) = 0.69631 -0.21297
# Poissons Ratio (y) = 0.23247 0.30162
# Poissons Ratio (z) = -0.08616 0.36548
#
# Static dielectric constant tensor:
#      x y z
#    x 2.134800 -0.061230 0.025800 
#    y -0.061230 1.956920 0.025150 
#    z 0.025800 0.025150 1.944750 
# 
# From -- ./inp_files/556414.got.cif
#   From: 2010.05.17/outbox.cif.g08.bks.cpg/sg2_279_cif.got.tgz:556414.got - 2010.06.03 11:33:40.
