data_PCOD9061170
_publ_section_title
;
Structure prediction by ZEFSAII (Michael W. Deem and Ramdas Pophale) SiO2 
 PCOD9061170
Probable space group: P -1
;
_chemical_formula_sum "Si O2"
_cell_formula_units_Z 14
_cell_length_a 9.699745
_cell_length_b 7.805297
_cell_length_c 11.918135
_cell_angle_alpha 87.609559
_cell_angle_beta 50.107822
_cell_angle_gamma 60.725064
_cell_volume 551.798164
_symmetry_space_group_name_H-M "P -1"
_symmetry_group_IT_number 2
_symmetry_cell_setting 'triclinic'
loop_
_space_group_symop_operation_xyz
x,y,z
-x,-y,-z
loop_
_atom_site_type_symbol
_atom_site_label
_atom_site_fract_x
_atom_site_fract_y
_atom_site_fract_z
Si Si1 0.846932 0.548808 0.969113
Si Si2 0.775361 0.890164 0.239426
Si Si3 0.760833 0.899841 0.849928
Si Si4 0.569486 0.400872 0.732369
Si Si5 0.946718 0.735887 0.510874
Si Si6 0.607331 0.140162 0.522584
Si Si7 0.228900 0.895777 0.954458
O O1 0.883849 0.672204 0.855199
O O2 0.963690 0.304731 0.875000
O O3 0.586461 0.656747 0.127990
O O4 0.000000 0.500000 0.000000
O O5 0.637318 0.805018 0.354843
O O6 0.699660 0.091814 0.350167
O O7 0.702148 0.965331 0.147615
O O8 0.852466 0.851523 0.677885
O O9 0.500000 0.000000 0.000000
O O10 0.796876 0.046703 0.903618
O O11 0.595039 0.321564 0.593252
O O12 0.420458 0.653134 0.827806
O O13 0.820899 0.301308 0.640066
O O14 0.000000 0.500000 0.500000
O O15 0.765044 0.910908 0.511844
O O16 0.000000 0.000000 0.000000
#
# Coordination Sequence:
#
# PCOD9061170 Si02
#       7
#     2   2   2   2   2   2   2
#     4  12  22  46  73 106 141 194 246 305 365 443
#     4  11  23  44  73  99 149 185 247 298 372 438
#     4  12  26  47  78 103 150 199 246 306 376 442
#     4  12  25  44  75 102 150 188 247 305 365 440
#     4  12  27  50  71 109 153 194 245 307 376 441
#     4  11  25  45  70 107 142 197 237 308 366 445
#     4  12  25  45  68 109 143 189 249 306 364 440
#
# _framework density 25.371594000000002
#
# number of rings (size 3 to 8) (size 9 to 14) (size 15 to 20)
#    0.000    0.286    4.286    4.714    2.000    1.714 
#    0.000    4.286    0.000    0.000    0.000    0.000 
#    0.000    0.000    0.000    0.000    0.000    0.000 
#
# Total GULP energy -78340.949262 kJ/mol
# GULP energy per Si atom -5595.782090 kJ/mol
# Density = 2.531385 g / cm^3
# Si number density = 25.371594 Si / 1000 Ang^3
#
#
#
# Elastic Constant Matrix: (Units=GPa)
#
#
# Indices 1 2 3 4 5 6 
#
# 1 123.7075 17.4425 55.2002 6.6371 -14.1263 3.7355
# 2 17.4425 88.7781 22.8092 16.7286 8.3506 -7.5280
# 3 55.2002 22.8092 138.3270 16.9296 -3.1940 -10.2899
# 4 6.6371 16.7286 16.9296 48.5079 4.4195 6.9158
# 5 -14.1263 8.3506 -3.1940 4.4195 62.3174 2.7484
# 6 3.7355 -7.5280 -10.2899 6.9158 2.7484 38.3000
#
#
#
# Elastic Compliance Matrix: (Units=1/GPa)
#
#
# Indices 1 2 3 4 5 6 
#
# 1 0.010489 -0.001595 -0.004162 0.000739 0.002448 -0.002764
# 2 -0.001595 0.013073 -0.000780 -0.004326 -0.001998 0.003440
# 3 -0.004162 -0.000780 0.009630 -0.002981 -0.000284 0.003399
# 4 0.000739 -0.004326 -0.002981 0.023978 -0.000842 -0.005993
# 5 0.002448 -0.001998 -0.000284 -0.000842 0.016993 -0.001775
# 6 -0.002764 0.003440 0.003399 -0.005993 -0.001775 0.029178
#
#
# Mechanical properties :
#
#
# Convention : Reuss Voigt Hill
#
# Bulk Modulus (GPa) = 49.70844 60.19074 54.94959
# Shear Modulus (GPa) = 40.61073 46.84909 43.72991
#
# Velocity S-wave (km/s) = 4.00514 4.30177 4.15610
# Velocity P-wave (km/s) = 6.40491 6.96052 6.68849
#
# Compressibility (1/GPa) = 0.02011731
#
# Stress axis : x y z
#
# Youngs Moduli (GPa) = 95.33746 76.49548 103.84342
#
# Poissons Ratio (x) = 0.12203 0.43221
# Poissons Ratio (y) = 0.15209 0.08097
# Poissons Ratio (z) = 0.39681 0.05965
#
# Static dielectric constant tensor:
#      x y z
#    x 2.001300 0.093290 -0.021270 
#    y 0.093290 2.088410 -0.035540 
#    z -0.021270 -0.035540 2.086780 
# 
# From -- ./inp_files/382843.got.cif
#   From: 2010.05.17/outbox.cif.g08.bks.cpg/sg2_192_cif.got.tgz:382843.got - 2010.06.03 11:33:40.
