data_PCOD9061598
_publ_section_title
;
Structure prediction by ZEFSAII (Michael W. Deem and Ramdas Pophale) SiO2 
 PCOD9061598
Probable space group: P -1
;
_chemical_formula_sum "Si O2"
_cell_formula_units_Z 16
_cell_length_a 10.199574
_cell_length_b 14.588124
_cell_length_c 16.815785
_cell_angle_alpha 23.885328
_cell_angle_beta 41.849895
_cell_angle_gamma 45.859157
_cell_volume 674.836412
_symmetry_space_group_name_H-M "P -1"
_symmetry_group_IT_number 2
_symmetry_cell_setting 'triclinic'
loop_
_space_group_symop_operation_xyz
x,y,z
-x,-y,-z
loop_
_atom_site_type_symbol
_atom_site_label
_atom_site_fract_x
_atom_site_fract_y
_atom_site_fract_z
Si Si1 0.462400 0.300118 0.513373
Si Si2 0.129370 0.905725 0.566817
Si Si3 0.156512 0.430616 0.416164
Si Si4 0.790291 0.925629 0.430840
Si Si5 0.497471 0.792165 0.104850
Si Si6 0.582406 0.369479 0.142844
Si Si7 0.216104 0.902831 0.002862
Si Si8 0.170679 0.367948 0.050647
O O1 0.679472 0.204905 0.473298
O O2 0.344616 0.338018 0.454513
O O3 0.471424 0.547581 0.351715
O O4 0.353984 0.100167 0.760902
O O5 0.080868 0.646586 0.843678
O O6 0.155886 0.045393 0.524950
O O7 0.101295 0.134585 0.327248
O O8 0.066972 0.241311 0.551781
O O9 0.000000 0.500000 0.500000
O O10 0.215361 0.650735 0.165919
O O11 0.594942 0.782668 0.629278
O O12 0.753499 0.168755 0.212821
O O13 0.692074 0.742812 0.997186
O O14 0.500000 0.000000 0.000000
O O15 0.304949 0.841921 0.097622
O O16 0.670861 0.539736 0.030717
O O17 0.500000 0.500000 0.000000
O O18 0.000000 0.000000 0.000000
#
# Coordination Sequence:
#
# PCOD9061598 Si02
#       8
#     2   2   2   2   2   2   2   2
#     4  11  23  47  74 101 147 192 244 304 376 439
#     4  12  25  45  73 106 146 197 240 304 375 445
#     4  11  24  44  70 101 144 188 236 309 376 428
#     4  11  24  42  69 106 141 181 246 303 361 439
#     4  11  26  47  74 108 150 201 245 305 372 442
#     4  11  23  45  74 104 138 190 243 304 369 439
#     4  11  24  48  73 103 141 196 249 308 373 443
#     4  12  23  48  71 102 155 197 237 302 376 447
#
# _framework density 23.709448999999999
#
# number of rings (size 3 to 8) (size 9 to 14) (size 15 to 20)
#    0.000    0.750    3.750    4.500    0.000    5.500 
#    2.250    0.000    0.000    0.000    0.000    0.000 
#    0.000    0.000    0.000    0.000    0.000    0.000 
#
# Total GULP energy -89202.070902 kJ/mol
# GULP energy per Si atom -5575.129431 kJ/mol
# Density = 2.365549 g / cm^3
# Si number density = 23.709449 Si / 1000 Ang^3
#
#
#
# Elastic Constant Matrix: (Units=GPa)
#
#
# Indices 1 2 3 4 5 6 
#
# 1 149.3280 67.3068 57.1231 -26.0714 7.0710 -3.3544
# 2 67.3068 134.5239 75.8864 -33.9083 -18.5112 13.1244
# 3 57.1231 75.8864 177.8110 -9.9946 -14.6734 15.5582
# 4 -26.0714 -33.9083 -9.9946 45.8064 -8.6570 -16.7234
# 5 7.0710 -18.5112 -14.6734 -8.6570 61.3617 -4.4183
# 6 -3.3544 13.1244 15.5582 -16.7234 -4.4183 39.6815
#
#
#
# Elastic Compliance Matrix: (Units=1/GPa)
#
#
# Indices 1 2 3 4 5 6 
#
# 1 0.009883 -0.003559 -0.001963 0.003724 -0.001858 0.004145
# 2 -0.003559 0.014482 -0.004186 0.009101 0.005131 0.000957
# 3 -0.001963 -0.004186 0.008153 -0.003696 0.000138 -0.003520
# 4 0.003724 0.009101 -0.003696 0.036874 0.007726 0.015154
# 5 -0.001858 0.005131 0.000138 0.007726 0.019435 0.003512
# 6 0.004145 0.000957 -0.003520 0.015154 0.003512 0.033392
#
#
# Mechanical properties :
#
#
# Convention : Reuss Voigt Hill
#
# Bulk Modulus (GPa) = 76.32247 95.81060 86.06654
# Shear Modulus (GPa) = 34.24611 46.79305 40.51958
#
# Velocity S-wave (km/s) = 3.80466 4.44735 4.13850
# Velocity P-wave (km/s) = 7.18061 8.17740 7.69516
#
# Compressibility (1/GPa) = 0.01310230
#
# Stress axis : x y z
#
# Youngs Moduli (GPa) = 101.18523 69.04967 122.65768
#
# Poissons Ratio (x) = 0.24573 0.24075
# Poissons Ratio (y) = 0.36009 0.51348
# Poissons Ratio (z) = 0.19860 0.28906
#
# Static dielectric constant tensor:
#      x y z
#    x 1.876520 -0.004700 0.095370 
#    y -0.004700 2.070520 -0.009640 
#    z 0.095370 -0.009640 2.214580 
# 
# From -- ./inp_files/569905.got.cif
#   From: 2010.05.17/outbox.cif.g08.bks.cpg/sg2_285_cif.got.tgz:569905.got - 2010.06.03 11:33:40.
