data_PCOD9061826
_publ_section_title
;
Structure prediction by ZEFSAII (Michael W. Deem and Ramdas Pophale) SiO2 
 PCOD9061826
Probable space group: P -1
;
_chemical_formula_sum "Si O2"
_cell_formula_units_Z 13
_cell_length_a 12.588849
_cell_length_b 21.158153
_cell_length_c 8.417552
_cell_angle_alpha 136.196917
_cell_angle_beta 147.449504
_cell_angle_gamma 29.582633
_cell_volume 594.998547
_symmetry_space_group_name_H-M "P -1"
_symmetry_group_IT_number 2
_symmetry_cell_setting 'triclinic'
loop_
_space_group_symop_operation_xyz
x,y,z
-x,-y,-z
loop_
_atom_site_type_symbol
_atom_site_label
_atom_site_fract_x
_atom_site_fract_y
_atom_site_fract_z
Si Si1 0.500000 0.000000 0.000000
Si Si2 0.713336 0.228214 0.298795
Si Si3 0.177872 0.601148 0.738582
Si Si4 0.012139 0.287848 0.958167
Si Si5 0.077221 0.159788 0.342360
Si Si6 0.685326 0.029725 0.980673
Si Si7 0.098413 0.479317 0.905824
O O1 0.312330 0.154630 0.042021
O O2 0.709288 0.974178 0.079857
O O3 0.787611 0.285706 0.615802
O O4 0.949704 0.153910 0.326007
O O5 0.709570 0.130315 0.195044
O O6 0.417754 0.344503 0.057842
O O7 0.106207 0.694746 0.677386
O O8 0.082297 0.531434 0.445317
O O9 0.500000 0.500000 0.000000
O O10 0.007724 0.688304 0.836432
O O11 0.940598 0.405470 0.993623
O O12 0.379230 0.099875 0.660235
O O13 0.109321 0.080076 0.091241
O O14 0.000000 0.500000 0.000000
#
# Coordination Sequence:
#
# PCOD9061826 Si02
#       7
#     1   2   2   2   2   2   2
#     4  12  24  48  70 104 154 190 242 304 364 436
#     4  12  24  46  76 108 141 198 249 300 375 439
#     4  12  25  47  71 109 149 191 245 309 372 437
#     4  12  26  45  69 112 146 191 246 303 369 438
#     4  11  23  46  71 108 146 194 251 297 365 445
#     4  11  24  46  73 105 151 193 246 303 364 441
#     4  12  25  48  76 105 145 196 248 312 372 438
#
# _framework density 21.848790999999999
#
# number of rings (size 3 to 8) (size 9 to 14) (size 15 to 20)
#    0.000    0.308    4.615    5.077    0.000    0.615 
#    5.538    0.000    0.000    0.000    0.000    0.000 
#    0.000    0.000    0.000    0.000    0.000    0.000 
#
# Total GULP energy -72570.977118 kJ/mol
# GULP energy per Si atom -5582.382855 kJ/mol
# Density = 2.179906 g / cm^3
# Si number density = 21.848791 Si / 1000 Ang^3
#
#
#
# Elastic Constant Matrix: (Units=GPa)
#
#
# Indices 1 2 3 4 5 6 
#
# 1 114.4754 -0.9077 27.0034 36.0639 8.1549 13.5712
# 2 -0.9077 83.9322 37.5114 21.9637 11.3065 17.3882
# 3 27.0034 37.5114 135.4336 26.7246 14.4721 1.2283
# 4 36.0639 21.9637 26.7246 40.9651 6.7875 9.2497
# 5 8.1549 11.3065 14.4721 6.7875 21.4873 14.1772
# 6 13.5712 17.3882 1.2283 9.2497 14.1772 50.5779
#
#
#
# Elastic Compliance Matrix: (Units=1/GPa)
#
#
# Indices 1 2 3 4 5 6 
#
# 1 0.013513 0.004782 -0.001365 -0.012821 -0.000942 -0.002628
# 2 0.004782 0.017409 -0.003551 -0.009765 -0.002378 -0.004729
# 3 -0.001365 -0.003551 0.009824 -0.003174 -0.005521 0.003477
# 4 -0.012821 -0.009765 -0.003174 0.043349 -0.001051 -0.000759
# 5 -0.000942 -0.002378 -0.005521 -0.001051 0.062913 -0.016238
# 6 -0.002628 -0.004729 0.003477 -0.000759 -0.016238 0.026708
#
#
# Mechanical properties :
#
#
# Convention : Reuss Voigt Hill
#
# Bulk Modulus (GPa) = 24.70425 51.22838 37.96632
# Shear Modulus (GPa) = 26.67003 40.62166 33.64584
#
# Velocity S-wave (km/s) = 3.49759 4.31654 3.92847
# Velocity P-wave (km/s) = 5.25760 6.95277 6.16374
#
# Compressibility (1/GPa) = 0.04047887
#
# Stress axis : x y z
#
# Youngs Moduli (GPa) = 74.00327 57.44197 101.79023
#
# Poissons Ratio (x) = -0.27470 0.13889
# Poissons Ratio (y) = -0.35390 0.36149
# Poissons Ratio (z) = 0.10098 0.20399
#
# Static dielectric constant tensor:
#      x y z
#    x 1.794570 -0.017520 -0.035120 
#    y -0.017520 1.789490 -0.025500 
#    z -0.035120 -0.025500 1.793810 
# 
# From -- ./inp_files/20150.got.cif
#   From: 2010.05.17/outbox.cif.g08.bks.cpg/sg2_11_cif.got.tgz:20150.got - 2010.06.03 11:33:40.
