data_PCOD9061256
_publ_section_title
;
Structure prediction by ZEFSAII (Michael W. Deem and Ramdas Pophale) SiO2 
 PCOD9061256
Probable space group: P -1
;
_chemical_formula_sum "Si O2"
_cell_formula_units_Z 16
_cell_length_a 9.133168
_cell_length_b 15.297708
_cell_length_c 8.531757
_cell_angle_alpha 78.127721
_cell_angle_beta 67.926608
_cell_angle_gamma 37.479593
_cell_volume 663.056486
_symmetry_space_group_name_H-M "P -1"
_symmetry_group_IT_number 2
_symmetry_cell_setting 'triclinic'
loop_
_space_group_symop_operation_xyz
x,y,z
-x,-y,-z
loop_
_atom_site_type_symbol
_atom_site_label
_atom_site_fract_x
_atom_site_fract_y
_atom_site_fract_z
Si Si1 0.507629 0.586345 0.679718
Si Si2 0.346855 0.802594 0.096871
Si Si3 0.707458 0.163216 0.540204
Si Si4 0.969452 0.372724 0.377409
Si Si5 0.481953 0.113728 0.445229
Si Si6 0.974733 0.304734 0.062881
Si Si7 0.870659 0.935904 0.070849
Si Si8 0.854727 0.525331 0.825378
O O1 0.340049 0.737289 0.603793
O O2 0.317225 0.603217 0.836191
O O3 0.701903 0.547665 0.736326
O O4 0.704693 0.455518 0.524099
O O5 0.365658 0.770160 0.282492
O O6 0.157514 0.823287 0.065212
O O7 0.628351 0.675817 0.956751
O O8 0.206941 0.960381 0.071876
O O9 0.554998 0.143797 0.549441
O O10 0.000000 0.000000 0.500000
O O11 0.196057 0.263431 0.450716
O O12 0.946739 0.488071 0.304863
O O13 0.052344 0.285519 0.218385
O O14 0.500000 0.000000 0.500000
O O15 0.681665 0.044136 0.249770
O O16 0.973079 0.396827 0.934228
O O17 0.141233 0.157676 0.957901
#
# Coordination Sequence:
#
# PCOD9061256 Si02
#       8
#     2   2   2   2   2   2   2   2
#     4  12  26  49  76 109 148 196 249 310 365 442
#     4  11  23  44  77 101 143 190 249 302 364 436
#     4  12  25  46  77 107 142 196 249 300 374 441
#     4  12  28  50  72 109 160 192 245 307 378 445
#     4  12  29  46  72 111 153 194 241 310 377 437
#     4  12  28  45  80 109 145 199 256 302 366 446
#     4  11  24  47  71 107 144 188 248 308 355 437
#     4  12  25  50  74 109 148 200 245 306 378 436
#
# _framework density 24.130676000000001
#
# number of rings (size 3 to 8) (size 9 to 14) (size 15 to 20)
#    0.000    0.250    5.000    3.000    5.250    1.500 
#    0.000    0.000    0.000    0.000    0.000    0.000 
#    0.000    0.000    0.000    0.000    0.000    0.000 
#
# Total GULP energy -89730.728874 kJ/mol
# GULP energy per Si atom -5608.170555 kJ/mol
# Density = 2.407575 g / cm^3
# Si number density = 24.130676 Si / 1000 Ang^3
#
#
#
# Elastic Constant Matrix: (Units=GPa)
#
#
# Indices 1 2 3 4 5 6 
#
# 1 90.1908 28.8265 -0.1852 -5.5632 11.9067 -1.3590
# 2 28.8265 85.0494 15.2686 -4.9307 13.5559 -2.2759
# 3 -0.1852 15.2686 65.7169 1.3654 4.4812 -2.2751
# 4 -5.5632 -4.9307 1.3654 35.7812 -3.0566 -3.4743
# 5 11.9067 13.5559 4.4812 -3.0566 43.2332 -2.4648
# 6 -1.3590 -2.2759 -2.2751 -3.4743 -2.4648 36.3278
#
#
#
# Elastic Compliance Matrix: (Units=1/GPa)
#
#
# Indices 1 2 3 4 5 6 
#
# 1 0.012775 -0.004096 0.001125 0.001211 -0.002250 0.000255
# 2 -0.004096 0.014256 -0.003136 0.001245 -0.002902 0.000466
# 3 0.001125 -0.003136 0.016060 -0.000889 -0.001014 0.000698
# 4 0.001211 0.001245 -0.000889 0.028759 0.001568 0.002924
# 5 -0.002250 -0.002902 -0.001014 0.001568 0.024963 0.001514
# 6 0.000255 0.000466 0.000698 0.002924 0.001514 0.027992
#
#
# Mechanical properties :
#
#
# Convention : Reuss Voigt Hill
#
# Bulk Modulus (GPa) = 32.38606 36.53077 34.45842
# Shear Modulus (GPa) = 33.94169 36.20495 35.07332
#
# Velocity S-wave (km/s) = 3.75451 3.87766 3.81658
# Velocity P-wave (km/s) = 5.67850 5.93464 5.80798
#
# Compressibility (1/GPa) = 0.03087748
#
# Stress axis : x y z
#
# Youngs Moduli (GPa) = 78.27958 70.14422 62.26541
#
# Poissons Ratio (x) = 0.28731 -0.07003
# Poissons Ratio (y) = 0.32064 0.19524
# Poissons Ratio (z) = -0.08805 0.21995
#
# Static dielectric constant tensor:
#      x y z
#    x 1.909550 0.014450 -0.020620 
#    y 0.014450 1.873280 0.020920 
#    z -0.020620 0.020920 1.983220 
# 
# From -- ./inp_files/206802.got.cif
#   From: 2010.05.17/outbox.cif.g08.bks.cpg/sg2_104_cif.got.tgz:206802.got - 2010.06.03 11:33:40.
