data_PCOD9061731
_publ_section_title
;
Structure prediction by ZEFSAII (Michael W. Deem and Ramdas Pophale) SiO2 
 PCOD9061731
Probable space group: P -1
;
_chemical_formula_sum "Si O2"
_cell_formula_units_Z 14
_cell_length_a 12.860169
_cell_length_b 8.006387
_cell_length_c 14.335049
_cell_angle_alpha 86.677673
_cell_angle_beta 38.102774
_cell_angle_gamma 57.099195
_cell_volume 536.075608
_symmetry_space_group_name_H-M "P -1"
_symmetry_group_IT_number 2
_symmetry_cell_setting 'triclinic'
loop_
_space_group_symop_operation_xyz
x,y,z
-x,-y,-z
loop_
_atom_site_type_symbol
_atom_site_label
_atom_site_fract_x
_atom_site_fract_y
_atom_site_fract_z
Si Si1 0.374651 0.794220 0.064545
Si Si2 0.723707 0.331679 0.166164
Si Si3 0.425381 0.312035 0.582182
Si Si4 0.695295 0.338523 0.711204
Si Si5 0.364377 0.241058 0.813771
Si Si6 0.047240 0.179749 0.677214
Si Si7 0.916481 0.653182 0.812887
O O1 0.456388 0.680073 0.115872
O O2 0.128171 0.853214 0.211142
O O3 0.632140 0.548675 0.817849
O O4 0.239727 0.082837 0.146102
O O5 0.623363 0.477228 0.333431
O O6 0.464817 0.481209 0.276675
O O7 0.782231 0.463571 0.072503
O O8 0.000000 0.000000 0.000000
O O9 0.305991 0.266166 0.743151
O O10 0.239485 0.446967 0.617997
O O11 0.758449 0.011033 0.361516
O O12 0.000000 0.000000 0.500000
O O13 0.706412 0.002570 0.572621
O O14 0.257160 0.206003 0.970266
O O15 0.935827 0.458111 0.758134
#
# Coordination Sequence:
#
# PCOD9061731 Si02
#       7
#     2   2   2   2   2   2   2
#     4  11  26  41  69 101 125 181 238 267 336 419
#     4   9  18  37  69  98 125 176 226 273 333 392
#     4   8  20  36  61  97 137 179 222 278 341 401
#     4  11  23  46  67  96 146 178 218 289 337 398
#     4   8  21  37  61  98 141 174 224 281 336 406
#     4   9  22  41  61  97 143 176 223 287 339 390
#     4  12  20  41  69  97 140 182 224 283 340 400
#
# _framework density 26.115718999999999
#
# number of rings (size 3 to 8) (size 9 to 14) (size 15 to 20)
#    1.714    0.286    0.000    4.286    0.000    1.714 
#    0.000   15.000    0.000   13.714    0.000    0.000 
#    0.000    0.000    0.000    0.000    0.000    0.000 
#
# Total GULP energy -77948.495705 kJ/mol
# GULP energy per Si atom -5567.749693 kJ/mol
# Density = 2.605628 g / cm^3
# Si number density = 26.115719 Si / 1000 Ang^3
#
#
#
# Elastic Constant Matrix: (Units=GPa)
#
#
# Indices 1 2 3 4 5 6 
#
# 1 143.9842 42.5652 49.2497 16.2065 -6.4577 -3.9884
# 2 42.5652 163.3630 48.9495 44.8027 7.5701 -1.0796
# 3 49.2497 48.9495 114.6792 30.1616 8.5785 12.9969
# 4 16.2065 44.8027 30.1616 54.1495 0.2225 15.3755
# 5 -6.4577 7.5701 8.5785 0.2225 28.4536 2.7030
# 6 -3.9884 -1.0796 12.9969 15.3755 2.7030 30.9062
#
#
#
# Elastic Compliance Matrix: (Units=1/GPa)
#
#
# Indices 1 2 3 4 5 6 
#
# 1 0.008828 -0.001246 -0.003714 -0.000268 0.003219 0.002509
# 2 -0.001246 0.009232 -0.001749 -0.007686 -0.002622 0.004950
# 3 -0.003714 -0.001749 0.012675 -0.003393 -0.003807 -0.003850
# 4 -0.000268 -0.007686 -0.003393 0.030934 0.004155 -0.014629
# 5 0.003219 -0.002622 -0.003807 0.004155 0.038018 -0.003467
# 6 0.002509 0.004950 -0.003850 -0.014629 -0.003467 0.042053
#
#
# Mechanical properties :
#
#
# Convention : Reuss Voigt Hill
#
# Bulk Modulus (GPa) = 57.74681 78.17281 67.95981
# Shear Modulus (GPa) = 31.06947 41.45266 36.26106
#
# Velocity S-wave (km/s) = 3.45292 3.98838 3.73027
# Velocity P-wave (km/s) = 6.16902 7.15596 6.68074
#
# Compressibility (1/GPa) = 0.01731697
#
# Stress axis : x y z
#
# Youngs Moduli (GPa) = 113.27519 108.31491 78.89717
#
# Poissons Ratio (x) = 0.13501 0.29302
# Poissons Ratio (y) = 0.14119 0.13797
# Poissons Ratio (z) = 0.42069 0.18941
#
# Static dielectric constant tensor:
#      x y z
#    x 2.175560 -0.067820 -0.048040 
#    y -0.067820 2.042890 0.031810 
#    z -0.048040 0.031810 2.328160 
# 
# From -- ./inp_files/529632.got.cif
#   From: 2010.05.17/outbox.cif.g08.bks.cpg/sg2_265_cif.got.tgz:529632.got - 2010.06.03 11:33:40.
