data_PCOD9061225
_publ_section_title
;
Structure prediction by ZEFSAII (Michael W. Deem and Ramdas Pophale) SiO2 
 PCOD9061225
Probable space group: P -1
;
_chemical_formula_sum "Si O2"
_cell_formula_units_Z 15
_cell_length_a 18.377862
_cell_length_b 5.638728
_cell_length_c 9.208987
_cell_angle_alpha 96.508617
_cell_angle_beta 35.599521
_cell_angle_gamma 89.720340
_cell_volume 544.111241
_symmetry_space_group_name_H-M "P -1"
_symmetry_group_IT_number 2
_symmetry_cell_setting 'triclinic'
loop_
_space_group_symop_operation_xyz
x,y,z
-x,-y,-z
loop_
_atom_site_type_symbol
_atom_site_label
_atom_site_fract_x
_atom_site_fract_y
_atom_site_fract_z
Si Si1 0.500000 0.500000 0.500000
Si Si2 0.587082 0.914762 0.557351
Si Si3 0.022545 0.186286 0.783849
Si Si4 0.797794 0.542198 0.322373
Si Si5 0.689789 0.358853 0.968906
Si Si6 0.202754 0.964323 0.963029
Si Si7 0.385516 0.729046 0.213394
Si Si8 0.123442 0.336642 0.346740
O O1 0.490344 0.786713 0.610482
O O2 0.419905 0.443719 0.766787
O O3 0.682797 0.664604 0.419801
O O4 0.675585 0.071533 0.337018
O O5 0.568115 0.065348 0.748257
O O6 0.142128 0.242142 0.683836
O O7 0.075907 0.172717 0.534056
O O8 0.911042 0.405131 0.029040
O O9 0.927734 0.991748 0.917361
O O10 0.735295 0.361637 0.516037
O O11 0.646371 0.197660 0.898373
O O12 0.781135 0.500776 0.737439
O O13 0.773041 0.241420 0.964316
O O14 0.193991 0.199052 0.089235
O O15 0.500000 0.500000 0.000000
O O16 0.000000 0.500000 0.500000
#
# Coordination Sequence:
#
# PCOD9061225 Si02
#       8
#     1   2   2   2   2   2   2   2
#     4  12  28  54  78 106 150 208 264 328 388 454
#     4  12  28  51  82 112 157 205 266 324 391 466
#     4  11  23  44  75 112 158 199 249 316 382 472
#     4  11  25  48  74 112 158 204 250 317 398 465
#     4  12  28  47  79 112 152 202 261 326 388 460
#     4  12  26  46  77 117 150 207 262 317 388 460
#     4  12  29  52  79 113 157 206 264 327 394 465
#     4  12  24  44  72 111 158 197 253 315 379 463
#
# _framework density 27.567892000000001
#
# number of rings (size 3 to 8) (size 9 to 14) (size 15 to 20)
#    0.000    0.267    5.333    2.800    3.733    4.267 
#    0.000    0.000    0.000    0.000    0.000    0.000 
#    0.000    0.000    0.000    0.000    0.000    0.000 
#
# Total GULP energy -83551.875650 kJ/mol
# GULP energy per Si atom -5570.125043 kJ/mol
# Density = 2.750515 g / cm^3
# Si number density = 27.567892 Si / 1000 Ang^3
#
#
#
# Elastic Constant Matrix: (Units=GPa)
#
#
# Indices 1 2 3 4 5 6 
#
# 1 57.7329 26.7387 48.8520 -5.7377 18.5596 34.0140
# 2 26.7387 82.7608 28.5137 -0.1691 13.9654 38.9262
# 3 48.8520 28.5137 132.4873 6.1306 17.6926 20.4030
# 4 -5.7377 -0.1691 6.1306 44.6135 8.0009 -2.4435
# 5 18.5596 13.9654 17.6926 8.0009 42.8178 5.3121
# 6 34.0140 38.9262 20.4030 -2.4435 5.3121 50.6414
#
#
#
# Elastic Compliance Matrix: (Units=1/GPa)
#
#
# Indices 1 2 3 4 5 6 
#
# 1 0.049797 0.005310 -0.013184 0.009439 -0.015899 -0.030094
# 2 0.005310 0.020643 -0.002972 0.001259 -0.005863 -0.017561
# 3 -0.013184 -0.002972 0.012076 -0.003323 0.001577 0.005948
# 4 0.009439 0.001259 -0.003323 0.025189 -0.007342 -0.003984
# 5 -0.015899 -0.005863 0.001577 -0.007342 0.031528 0.010889
# 6 -0.030094 -0.017561 0.005948 -0.003984 0.010889 0.049727
#
#
# Mechanical properties :
#
#
# Convention : Reuss Voigt Hill
#
# Bulk Modulus (GPa) = 16.44039 53.46554 34.95296
# Shear Modulus (GPa) = 21.65209 38.87298 30.26254
#
# Velocity S-wave (km/s) = 2.80556 3.75918 3.31682
# Velocity P-wave (km/s) = 4.05850 6.18693 5.23209
#
# Compressibility (1/GPa) = 0.06082581
#
# Stress axis : x y z
#
# Youngs Moduli (GPa) = 20.08165 48.44255 82.81032
#
# Poissons Ratio (x) = -0.25725 1.09173
# Poissons Ratio (y) = -0.10664 0.24609
# Poissons Ratio (z) = 0.26475 0.14396
#
# Static dielectric constant tensor:
#      x y z
#    x 2.405970 0.104140 -0.145700 
#    y 0.104140 0.987340 0.107250 
#    z -0.145700 0.107250 2.163830 
# 
# From -- ./inp_files/323807.got.cif
#   From: 2010.05.17/outbox.cif.g08.bks.cpg/sg2_162_cif.got.tgz:323807.got - 2010.06.03 11:33:40.
