data_PCOD9061758
_publ_section_title
;
Structure prediction by ZEFSAII (Michael W. Deem and Ramdas Pophale) SiO2 
 PCOD9061758
Probable space group: P -1
;
_chemical_formula_sum "Si O2"
_cell_formula_units_Z 11
_cell_length_a 9.299301
_cell_length_b 5.330471
_cell_length_c 14.197867
_cell_angle_alpha 93.251016
_cell_angle_beta 39.616652
_cell_angle_gamma 105.796898
_cell_volume 418.177352
_symmetry_space_group_name_H-M "P -1"
_symmetry_group_IT_number 2
_symmetry_cell_setting 'triclinic'
loop_
_space_group_symop_operation_xyz
x,y,z
-x,-y,-z
loop_
_atom_site_type_symbol
_atom_site_label
_atom_site_fract_x
_atom_site_fract_y
_atom_site_fract_z
Si Si1 0.235744 0.875112 0.323395
Si Si2 0.500000 0.000000 0.500000
Si Si3 0.645980 0.676217 0.172042
Si Si4 0.268187 0.242163 0.481475
Si Si5 0.643321 0.804468 0.905704
Si Si6 0.949796 0.170628 0.162099
O O1 0.448677 0.757702 0.213976
O O2 0.974907 0.691555 0.409890
O O3 0.216792 0.965593 0.441525
O O4 0.299713 0.142693 0.232434
O O5 0.340198 0.172855 0.545166
O O6 0.745027 0.219481 0.328758
O O7 0.490026 0.456694 0.319695
O O8 0.793443 0.935111 0.166067
O O9 0.845620 0.618314 0.004446
O O10 0.878293 0.904773 0.853678
O O11 0.500000 0.500000 0.000000
O O12 0.500000 0.000000 0.000000
#
# Coordination Sequence:
#
# PCOD9061758 Si02
#       6
#     2   1   2   2   2   2
#     4  11  23  46  69 106 143 187 254 300 378 441
#     4  12  24  46  64 106 146 178 250 300 380 430
#     4  11  24  47  73 100 142 193 248 302 376 445
#     4  11  25  44  72 102 143 194 241 314 371 447
#     4  12  26  48  76 111 149 195 252 309 375 448
#     4  11  25  47  67 110 142 191 248 307 371 448
#
# _framework density 26.30463
#
# number of rings (size 3 to 8) (size 9 to 14) (size 15 to 20)
#    0.000    0.727    5.455    1.636    0.000    2.909 
#    3.273    0.000    0.000    0.000    0.000    0.000 
#    0.000    0.000    0.000    0.000    0.000    0.000 
#
# Total GULP energy -61277.898088 kJ/mol
# GULP energy per Si atom -5570.718008 kJ/mol
# Density = 2.624476 g / cm^3
# Si number density = 26.304630 Si / 1000 Ang^3
#
#
#
# Elastic Constant Matrix: (Units=GPa)
#
#
# Indices 1 2 3 4 5 6 
#
# 1 136.2073 44.7066 63.3450 -3.2030 -25.2181 -33.1585
# 2 44.7066 67.9561 45.0196 -16.2032 -7.4898 -17.3400
# 3 63.3450 45.0196 211.7642 -30.3189 -42.2342 -26.3689
# 4 -3.2030 -16.2032 -30.3189 42.0969 -12.7828 9.9262
# 5 -25.2181 -7.4898 -42.2342 -12.7828 52.9731 0.2785
# 6 -33.1585 -17.3400 -26.3689 9.9262 0.2785 30.9739
#
#
#
# Elastic Compliance Matrix: (Units=1/GPa)
#
#
# Indices 1 2 3 4 5 6 
#
# 1 0.012844 -0.005343 -0.001115 -0.003346 0.003606 0.010849
# 2 -0.005343 0.021630 -0.001565 0.006313 0.000775 0.003027
# 3 -0.001115 -0.001565 0.008166 0.006818 0.007390 0.002631
# 4 -0.003346 0.006313 0.006818 0.036373 0.013544 -0.006021
# 5 0.003606 0.000775 0.007390 0.013544 0.029832 0.005976
# 6 0.010849 0.003027 0.002631 -0.006021 0.005976 0.049710
#
#
# Mechanical properties :
#
#
# Convention : Reuss Voigt Hill
#
# Bulk Modulus (GPa) = 37.60212 80.22999 58.91606
# Shear Modulus (GPa) = 27.25296 42.73254 34.99275
#
# Velocity S-wave (km/s) = 3.22227 4.03491 3.65127
# Velocity P-wave (km/s) = 5.30753 7.23007 6.34207
#
# Compressibility (1/GPa) = 0.02659425
#
# Stress axis : x y z
#
# Youngs Moduli (GPa) = 77.85646 46.23162 122.45908
#
# Poissons Ratio (x) = 0.24702 0.13656
# Poissons Ratio (y) = 0.41599 0.19163
# Poissons Ratio (z) = 0.08682 0.07235
#
# Static dielectric constant tensor:
#      x y z
#    x 2.033110 0.067540 0.019110 
#    y 0.067540 2.036170 0.006400 
#    z 0.019110 0.006400 2.140900 
# 
# From -- ./inp_files/17218.got.cif
#   From: 2010.05.17/outbox.cif.g08.bks.cpg/sg2_9_cif.got.tgz:17218.got - 2010.06.03 11:33:40.
