data_PCOD9061940
_publ_section_title
;
Structure prediction by ZEFSAII (Michael W. Deem and Ramdas Pophale) SiO2 
 PCOD9061940
Probable space group: P -1
;
_chemical_formula_sum "Si O2"
_cell_formula_units_Z 12
_cell_length_a 9.407868
_cell_length_b 6.086087
_cell_length_c 10.520686
_cell_angle_alpha 71.744474
_cell_angle_beta 80.657252
_cell_angle_gamma 115.855382
_cell_volume 482.275142
_symmetry_space_group_name_H-M "P -1"
_symmetry_group_IT_number 2
_symmetry_cell_setting 'triclinic'
loop_
_space_group_symop_operation_xyz
x,y,z
-x,-y,-z
loop_
_atom_site_type_symbol
_atom_site_label
_atom_site_fract_x
_atom_site_fract_y
_atom_site_fract_z
Si Si1 0.666128 0.370164 0.692387
Si Si2 0.656524 0.632912 0.145088
Si Si3 0.449735 0.850285 0.897825
Si Si4 0.021105 0.815267 0.634594
Si Si5 0.323893 0.712892 0.569940
Si Si6 0.885019 0.177222 0.102345
O O1 0.517088 0.392902 0.775593
O O2 0.679703 0.441699 0.530089
O O3 0.839766 0.541139 0.708309
O O4 0.614492 0.055165 0.757730
O O5 0.615922 0.461447 0.053396
O O6 0.695080 0.478310 0.276224
O O7 0.822019 0.932821 0.053276
O O8 0.300488 0.866802 0.848884
O O9 0.500000 0.000000 0.000000
O O10 0.169444 0.764321 0.581467
O O11 0.059090 0.898779 0.761976
O O12 0.000000 0.000000 0.500000
O O13 0.500000 0.000000 0.500000
O O14 0.000000 0.500000 0.000000
#
# Coordination Sequence:
#
# PCOD9061940 Si02
#       6
#     2   2   2   2   2   2
#     4  11  24  40  70 105 148 193 248 305 376 448
#     4  11  23  46  74 107 145 204 247 308 382 442
#     4  11  24  47  72 104 147 197 258 308 371 452
#     4  12  25  44  71 114 152 195 251 315 375 447
#     4  12  21  44  73 107 154 197 249 310 377 452
#     4  11  25  47  72 109 153 198 253 309 374 455
#
# _framework density 24.882064
#
# number of rings (size 3 to 8) (size 9 to 14) (size 15 to 20)
#    0.000    0.667    3.333    5.000    0.000    3.333 
#    0.000    0.000    0.000    0.000    0.000    0.000 
#    0.000    0.000    0.000    0.000    0.000    0.000 
#
# Total GULP energy -66981.997326 kJ/mol
# GULP energy per Si atom -5581.833110 kJ/mol
# Density = 2.482543 g / cm^3
# Si number density = 24.882064 Si / 1000 Ang^3
#
#
#
# Elastic Constant Matrix: (Units=GPa)
#
#
# Indices 1 2 3 4 5 6 
#
# 1 166.7375 43.1252 28.8580 -7.0391 5.0811 24.8786
# 2 43.1252 210.2524 43.6465 -2.2630 -2.4000 39.3585
# 3 28.8580 43.6465 78.8922 7.3874 22.3343 7.2283
# 4 -7.0391 -2.2630 7.3874 55.4340 3.3937 0.5361
# 5 5.0811 -2.4000 22.3343 3.3937 57.2595 -3.6818
# 6 24.8786 39.3585 7.2283 0.5361 -3.6818 41.5702
#
#
#
# Elastic Compliance Matrix: (Units=1/GPa)
#
#
# Indices 1 2 3 4 5 6 
#
# 1 0.007038 -0.000317 -0.002159 0.001209 -0.000096 -0.003561
# 2 -0.000317 0.006551 -0.003442 0.000660 0.001265 -0.005311
# 3 -0.002159 -0.003442 0.017342 -0.002336 -0.006515 0.000988
# 4 0.001209 0.000660 -0.002336 0.018564 -0.000346 -0.001212
# 5 -0.000096 0.001265 -0.006515 -0.000346 0.020203 0.001787
# 6 -0.003561 -0.005311 0.000988 -0.001212 0.001787 0.031217
#
#
# Mechanical properties :
#
#
# Convention : Reuss Voigt Hill
#
# Bulk Modulus (GPa) = 52.36536 76.34906 64.35721
# Shear Modulus (GPa) = 41.97563 53.53621 47.75592
#
# Velocity S-wave (km/s) = 4.11175 4.64356 4.38572
# Velocity P-wave (km/s) = 6.60553 7.71371 7.18103
#
# Compressibility (1/GPa) = 0.01909659
#
# Stress axis : x y z
#
# Youngs Moduli (GPa) = 142.07849 152.63756 57.66365
#
# Poissons Ratio (x) = 0.04839 0.12449
# Poissons Ratio (y) = 0.04504 0.19846
# Poissons Ratio (z) = 0.30672 0.52534
#
# Static dielectric constant tensor:
#      x y z
#    x 1.984100 -0.122750 0.050360 
#    y -0.122750 2.174340 -0.021130 
#    z 0.050360 -0.021130 2.109390 
# 
# From -- ./inp_files/33953.got.cif
#   From: 2010.05.17/outbox.cif.g08.bks.cpg/sg2_17_cif.got.tgz:33953.got - 2010.06.03 11:33:40.
