data_PCOD9061566
_publ_section_title
;
Structure prediction by ZEFSAII (Michael W. Deem and Ramdas Pophale) SiO2 
 PCOD9061566
Probable space group: P -1
;
_chemical_formula_sum "Si O2"
_cell_formula_units_Z 16
_cell_length_a 9.349488
_cell_length_b 13.218327
_cell_length_c 11.723457
_cell_angle_alpha 57.494689
_cell_angle_beta 88.634066
_cell_angle_gamma 133.023190
_cell_volume 691.281441
_symmetry_space_group_name_H-M "P -1"
_symmetry_group_IT_number 2
_symmetry_cell_setting 'triclinic'
loop_
_space_group_symop_operation_xyz
x,y,z
-x,-y,-z
loop_
_atom_site_type_symbol
_atom_site_label
_atom_site_fract_x
_atom_site_fract_y
_atom_site_fract_z
Si Si1 0.721545 0.798090 0.580177
Si Si2 0.140347 0.907579 0.886005
Si Si3 0.077618 0.510609 0.161001
Si Si4 0.527204 0.141774 0.343408
Si Si5 0.745283 0.622783 0.855315
Si Si6 0.536942 0.665572 0.419749
Si Si7 0.448881 0.001507 0.197812
Si Si8 0.981166 0.625360 0.271556
O O1 0.567416 0.804437 0.626329
O O2 0.660438 0.627998 0.734898
O O3 0.707685 0.788805 0.453577
O O4 0.000000 0.000000 0.500000
O O5 0.379384 0.995577 0.781937
O O6 0.952679 0.789641 0.852449
O O7 0.290186 0.131763 0.789148
O O8 0.007692 0.738927 0.094361
O O9 0.156380 0.434614 0.162822
O O10 0.978706 0.489316 0.299909
O O11 0.825752 0.367042 0.178669
O O12 0.339271 0.763691 0.998675
O O13 0.370388 0.011058 0.310612
O O14 0.500000 0.000000 0.500000
O O15 0.500000 0.500000 0.000000
O O16 0.500000 0.500000 0.500000
O O17 0.264528 0.525773 0.553189
O O18 0.226562 0.817542 0.227820
#
# Coordination Sequence:
#
# PCOD9061566 Si02
#       8
#     2   2   2   2   2   2   2   2
#     4  12  25  45  67 105 149 182 244 304 365 436
#     4  11  24  49  70 105 147 189 245 305 365 434
#     4  11  23  45  73 104 141 193 245 299 367 427
#     4  12  24  44  75 105 139 193 245 309 362 425
#     4  12  25  41  75 110 144 192 243 307 370 438
#     4  12  28  48  72 104 148 197 241 304 375 442
#     4  11  25  44  73 105 140 187 247 304 359 435
#     4  11  27  48  74 104 150 191 248 310 361 441
#
# _framework density 23.145420999999999
#
# number of rings (size 3 to 8) (size 9 to 14) (size 15 to 20)
#    0.000    0.500    3.750    4.875    5.250    4.000 
#    2.250    0.000    0.000    0.000    0.000    0.000 
#    0.000    0.000    0.000    0.000    0.000    0.000 
#
# Total GULP energy -89099.207891 kJ/mol
# GULP energy per Si atom -5568.700493 kJ/mol
# Density = 2.309274 g / cm^3
# Si number density = 23.145421 Si / 1000 Ang^3
#
#
#
# Elastic Constant Matrix: (Units=GPa)
#
#
# Indices 1 2 3 4 5 6 
#
# 1 140.6977 54.5884 31.0616 -12.5697 -6.9032 -18.3539
# 2 54.5884 141.6137 12.8214 -11.0870 -7.5861 6.5434
# 3 31.0616 12.8214 53.0436 -12.2162 -7.8204 3.3355
# 4 -12.5697 -11.0870 -12.2162 27.4623 2.6119 0.3683
# 5 -6.9032 -7.5861 -7.8204 2.6119 22.6170 3.6219
# 6 -18.3539 6.5434 3.3355 0.3683 3.6219 51.6918
#
#
#
# Elastic Compliance Matrix: (Units=1/GPa)
#
#
# Indices 1 2 3 4 5 6 
#
# 1 0.010356 -0.003688 -0.005369 0.000874 -0.000760 0.004537
# 2 -0.003688 0.008807 0.001041 0.002141 0.002369 -0.002673
# 3 -0.005369 0.001041 0.024999 0.008469 0.007050 -0.004206
# 4 0.000874 0.002141 0.008469 0.041528 -0.000762 -0.000750
# 5 -0.000760 0.002369 0.007050 -0.000762 0.048005 -0.004383
# 6 0.004537 -0.002673 -0.004206 -0.000750 -0.004383 0.021879
#
#
# Mechanical properties :
#
#
# Convention : Reuss Voigt Hill
#
# Bulk Modulus (GPa) = 35.54801 59.14420 47.34610
# Shear Modulus (GPa) = 27.62698 36.14646 31.88672
#
# Velocity S-wave (km/s) = 3.45864 3.95614 3.71572
# Velocity P-wave (km/s) = 5.59834 6.81739 6.23772
#
# Compressibility (1/GPa) = 0.02813097
#
# Stress axis : x y z
#
# Youngs Moduli (GPa) = 96.55897 113.54828 40.00127
#
# Poissons Ratio (x) = 0.41876 0.21477
# Poissons Ratio (y) = 0.35610 -0.04166
# Poissons Ratio (z) = 0.51844 -0.11824
#
# Static dielectric constant tensor:
#      x y z
#    x 1.856860 -0.045410 0.025980 
#    y -0.045410 1.859080 -0.048340 
#    z 0.025980 -0.048340 1.988800 
# 
# From -- ./inp_files/392366.got.cif
#   From: 2010.05.17/outbox.cif.g08.bks.cpg/sg2_197_cif.got.tgz:392366.got - 2010.06.03 11:33:40.
