data_PCOD9061373
_publ_section_title
;
Structure prediction by ZEFSAII (Michael W. Deem and Ramdas Pophale) SiO2 
 PCOD9061373
Probable space group: P -1
;
_chemical_formula_sum "Si O2"
_cell_formula_units_Z 16
_cell_length_a 12.103000
_cell_length_b 9.137290
_cell_length_c 12.038679
_cell_angle_alpha 122.073764
_cell_angle_beta 38.793418
_cell_angle_gamma 129.110429
_cell_volume 645.084431
_symmetry_space_group_name_H-M "P -1"
_symmetry_group_IT_number 2
_symmetry_cell_setting 'triclinic'
loop_
_space_group_symop_operation_xyz
x,y,z
-x,-y,-z
loop_
_atom_site_type_symbol
_atom_site_label
_atom_site_fract_x
_atom_site_fract_y
_atom_site_fract_z
Si Si1 0.774418 0.045842 0.246819
Si Si2 0.456919 0.167777 0.159229
Si Si3 0.610532 0.260472 0.627946
Si Si4 0.508555 0.307349 0.954806
Si Si5 0.958777 0.695142 0.237889
Si Si6 0.871466 0.693013 0.545479
Si Si7 0.733195 0.296954 0.180183
Si Si8 0.942236 0.912707 0.782364
O O1 0.690131 0.127471 0.447452
O O2 0.776496 0.173762 0.191075
O O3 0.979695 0.078894 0.151710
O O4 0.618586 0.833500 0.259798
O O5 0.247476 0.175643 0.329078
O O6 0.529021 0.197815 0.240414
O O7 0.569467 0.329149 0.043969
O O8 0.500000 0.000000 0.000000
O O9 0.626465 0.257559 0.747728
O O10 0.722728 0.474807 0.585721
O O11 0.500000 0.500000 0.000000
O O12 0.288545 0.147546 0.059733
O O13 0.998153 0.711905 0.345084
O O14 0.773953 0.501136 0.281284
O O15 0.946087 0.882879 0.277306
O O16 0.125690 0.678558 0.025291
O O17 0.965026 0.760187 0.619587
#
# Coordination Sequence:
#
# PCOD9061373 Si02
#       8
#     2   2   2   2   2   2   2   2
#     4  11  26  45  72 103 142 179 237 288 342 413
#     4  11  24  43  72 103 136 183 233 284 343 411
#     4  11  23  45  69 103 140 182 229 289 344 408
#     4  11  23  45  71 101 135 179 233 285 346 412
#     4  11  25  44  68 100 143 183 232 283 347 416
#     4  11  24  47  71 102 142 182 236 284 349 412
#     4  11  25  46  66 102 142 186 227 288 344 412
#     4  11  25  44  72 104 133 185 231 292 344 411
#
# _framework density 24.802954
#
# number of rings (size 3 to 8) (size 9 to 14) (size 15 to 20)
#    0.000    1.000    3.750    3.375    1.750    9.000 
#    0.000    0.000    0.000    0.000    0.000    0.000 
#    0.000    0.000    0.000    0.000    0.000    0.000 
#
# Total GULP energy -89454.847423 kJ/mol
# GULP energy per Si atom -5590.927964 kJ/mol
# Density = 2.474650 g / cm^3
# Si number density = 24.802954 Si / 1000 Ang^3
#
#
#
# Elastic Constant Matrix: (Units=GPa)
#
#
# Indices 1 2 3 4 5 6 
#
# 1 128.2817 32.0235 5.9669 -13.9747 31.3231 6.0226
# 2 32.0235 153.5301 -4.7669 8.7473 13.7918 -1.4971
# 3 5.9669 -4.7669 109.7191 -5.1571 38.3396 0.2438
# 4 -13.9747 8.7473 -5.1571 32.3281 0.3822 13.0002
# 5 31.3231 13.7918 38.3396 0.3822 47.7098 -2.5480
# 6 6.0226 -1.4971 0.2438 13.0002 -2.5480 27.9767
#
#
#
# Elastic Compliance Matrix: (Units=1/GPa)
#
#
# Indices 1 2 3 4 5 6 
#
# 1 0.012272 -0.002132 0.003490 0.009938 -0.010773 -0.008385
# 2 -0.002132 0.007312 0.000614 -0.003802 -0.001043 0.002516
# 3 0.003490 0.000614 0.014178 0.005693 -0.014163 -0.004777
# 4 0.009938 -0.003802 0.005693 0.047589 -0.011748 -0.025576
# 5 -0.010773 -0.001043 -0.014163 -0.011748 0.040425 0.011527
# 6 -0.008385 0.002516 -0.004777 -0.025576 0.011527 0.050660
#
#
# Mechanical properties :
#
#
# Convention : Reuss Voigt Hill
#
# Bulk Modulus (GPa) = 26.52068 50.88643 38.70355
# Shear Modulus (GPa) = 27.61497 45.49008 36.55253
#
# Velocity S-wave (km/s) = 3.34035 4.28724 3.84307
# Velocity P-wave (km/s) = 5.05895 6.71327 5.94395
#
# Compressibility (1/GPa) = 0.03770642
#
# Stress axis : x y z
#
# Youngs Moduli (GPa) = 81.48756 136.76512 70.52985
#
# Poissons Ratio (x) = 0.29152 -0.24616
# Poissons Ratio (y) = 0.17369 -0.04328
# Poissons Ratio (z) = -0.28440 -0.08392
#
# Static dielectric constant tensor:
#      x y z
#    x 2.041940 0.031970 -0.049640 
#    y 0.031970 1.972620 -0.001020 
#    z -0.049640 -0.001020 2.034690 
# 
# From -- ./inp_files/419698.got.cif
#   From: 2010.05.17/outbox.cif.g08.bks.cpg/sg2_210_cif.got.tgz:419698.got - 2010.06.03 11:33:40.
