data_PCOD9061782
_publ_section_title
;
Structure prediction by ZEFSAII (Michael W. Deem and Ramdas Pophale) SiO2 
 PCOD9061782
Probable space group: P -1
;
_chemical_formula_sum "Si O2"
_cell_formula_units_Z 14
_cell_length_a 23.678548
_cell_length_b 6.911253
_cell_length_c 5.713725
_cell_angle_alpha 103.583807
_cell_angle_beta 130.320257
_cell_angle_gamma 59.252376
_cell_volume 606.093505
_symmetry_space_group_name_H-M "P -1"
_symmetry_group_IT_number 2
_symmetry_cell_setting 'triclinic'
loop_
_space_group_symop_operation_xyz
x,y,z
-x,-y,-z
loop_
_atom_site_type_symbol
_atom_site_label
_atom_site_fract_x
_atom_site_fract_y
_atom_site_fract_z
Si Si1 0.168528 0.982476 0.358844
Si Si2 0.952106 0.535945 0.630989
Si Si3 0.463505 0.340414 0.437821
Si Si4 0.242552 0.246616 0.370706
Si Si5 0.274646 0.559107 0.852238
Si Si6 0.856256 0.330553 0.097408
Si Si7 0.572545 0.891980 0.357020
O O1 0.117329 0.197257 0.453100
O O2 0.213683 0.067501 0.316590
O O3 0.236174 0.766380 0.626129
O O4 0.112268 0.890542 0.044524
O O5 0.915961 0.357679 0.455731
O O6 0.000000 0.500000 0.500000
O O7 0.000000 0.500000 0.000000
O O8 0.500000 0.500000 0.500000
O O9 0.432976 0.322565 0.611749
O O10 0.540275 0.089998 0.520296
O O11 0.375573 0.428974 0.088653
O O12 0.248316 0.371797 0.654169
O O13 0.335115 0.156037 0.482317
O O14 0.174801 0.445734 0.082839
O O15 0.227448 0.648077 0.995873
O O16 0.500000 0.000000 0.000000
#
# Coordination Sequence:
#
# PCOD9061782 Si02
#       7
#     2   2   2   2   2   2   2
#     4  11  28  45  79 108 143 202 245 309 382 454
#     4  12  29  53  82 116 157 196 244 320 395 466
#     4  11  26  40  62 102 144 191 252 312 370 427
#     4  11  23  46  70 102 146 199 252 309 370 449
#     4  11  24  44  69 105 142 194 255 307 361 460
#     4  11  26  48  75 109 151 190 261 294 375 470
#     4  11  24  41  63  94 143 196 241 307 371 422
#
# _framework density 23.098748000000001
#
# number of rings (size 3 to 8) (size 9 to 14) (size 15 to 20)
#    0.000    0.857    4.286    0.857   10.000    1.714 
#    0.000    0.000    0.000    0.000    0.000    0.000 
#    0.000    0.000    0.000    0.000    0.000    0.000 
#
# Total GULP energy -78161.919312 kJ/mol
# GULP energy per Si atom -5582.994237 kJ/mol
# Density = 2.304617 g / cm^3
# Si number density = 23.098748 Si / 1000 Ang^3
#
#
#
# Elastic Constant Matrix: (Units=GPa)
#
#
# Indices 1 2 3 4 5 6 
#
# 1 135.6598 48.5279 23.4304 11.5738 -2.3024 4.2988
# 2 48.5279 120.8558 38.2733 14.2109 0.8916 19.8346
# 3 23.4304 38.2733 110.1984 7.9590 6.8329 10.3621
# 4 11.5738 14.2109 7.9590 32.8033 -0.2716 -5.4103
# 5 -2.3024 0.8916 6.8329 -0.2716 26.4353 0.3435
# 6 4.2988 19.8346 10.3621 -5.4103 0.3435 44.6388
#
#
#
# Elastic Compliance Matrix: (Units=1/GPa)
#
#
# Indices 1 2 3 4 5 6 
#
# 1 0.008775 -0.003218 -0.000766 -0.001411 0.001049 0.000584
# 2 -0.003218 0.011655 -0.002625 -0.004060 0.000025 -0.004752
# 3 -0.000766 -0.002625 0.010545 -0.001397 -0.002701 -0.001356
# 4 -0.001411 -0.004060 -0.001397 0.034141 0.000643 0.006397
# 5 0.001049 0.000025 -0.002701 0.000643 0.038619 0.000295
# 6 0.000584 -0.004752 -0.001356 0.006397 0.000295 0.025545
#
#
# Mechanical properties :
#
#
# Convention : Reuss Voigt Hill
#
# Bulk Modulus (GPa) = 56.31977 65.24194 60.78085
# Shear Modulus (GPa) = 33.68875 37.87431 35.78153
#
# Velocity S-wave (km/s) = 3.82313 4.05368 3.94009
# Velocity P-wave (km/s) = 6.62748 7.08631 6.86074
#
# Compressibility (1/GPa) = 0.01775575
#
# Stress axis : x y z
#
# Youngs Moduli (GPa) = 113.96525 85.79972 94.83162
#
# Poissons Ratio (x) = 0.27614 0.07263
# Poissons Ratio (y) = 0.36679 0.24895
# Poissons Ratio (z) = 0.08728 0.22524
#
# Static dielectric constant tensor:
#      x y z
#    x 2.160520 -0.213360 -0.021920 
#    y -0.213360 2.102850 0.006760 
#    z -0.021920 0.006760 1.930510 
# 
# From -- ./inp_files/7990.got.cif
#   From: 2010.05.17/outbox.cif.g08.bks.cpg/sg2_4_cif.got.tgz:7990.got - 2010.06.03 11:33:40.
