data_PCOD9061828
_publ_section_title
;
Structure prediction by ZEFSAII (Michael W. Deem and Ramdas Pophale) SiO2 
 PCOD9061828
Probable space group: P -1
;
_chemical_formula_sum "Si O2"
_cell_formula_units_Z 14
_cell_length_a 7.640637
_cell_length_b 8.432965
_cell_length_c 13.625570
_cell_angle_alpha 137.093121
_cell_angle_beta 116.400541
_cell_angle_gamma 71.949607
_cell_volume 535.191934
_symmetry_space_group_name_H-M "P -1"
_symmetry_group_IT_number 2
_symmetry_cell_setting 'triclinic'
loop_
_space_group_symop_operation_xyz
x,y,z
-x,-y,-z
loop_
_atom_site_type_symbol
_atom_site_label
_atom_site_fract_x
_atom_site_fract_y
_atom_site_fract_z
Si Si1 0.062128 0.906870 0.078122
Si Si2 0.600023 0.530557 0.196087
Si Si3 0.480110 0.162253 0.863814
Si Si4 0.000000 0.500000 0.000000
Si Si5 0.760448 0.199995 0.466006
Si Si6 0.500000 0.000000 0.500000
Si Si7 0.864052 0.051133 0.636248
Si Si8 0.998935 0.400471 0.345677
O O1 0.290393 0.846516 0.105404
O O2 0.955554 0.669244 0.972772
O O3 0.008121 0.124342 0.230132
O O4 0.000000 0.000000 0.000000
O O5 0.631696 0.665507 0.160642
O O6 0.493730 0.726777 0.318961
O O7 0.803254 0.463132 0.265466
O O8 0.474832 0.297406 0.027989
O O9 0.388378 0.909498 0.700221
O O10 0.054792 0.733749 0.185855
O O11 0.721780 0.107412 0.526629
O O12 0.813100 0.472720 0.601658
O O13 0.964410 0.088428 0.432483
O O14 0.315597 0.083832 0.420271
O O15 0.000000 0.500000 0.500000
#
# Coordination Sequence:
#
# PCOD9061828 Si02
#       8
#     2   2   2   1   2   1   2   2
#     4  12  27  51  78 114 164 210 267 336 401 477
#     4  11  24  44  74 111 154 203 263 320 403 479
#     4  11  25  45  79 111 150 212 267 329 397 488
#     4  12  28  44  78 116 148 214 268 318 404 472
#     4  11  23  46  71 109 152 207 259 318 403 472
#     4  12  22  42  70 116 150 196 258 332 392 464
#     4  11  24  41  74 112 152 197 261 326 382 480
#     4  12  26  48  73 108 163 211 262 339 403 470
#
# _framework density 26.158840000000001
#
# number of rings (size 3 to 8) (size 9 to 14) (size 15 to 20)
#    0.000    0.571    4.286    3.429    8.000    0.571 
#    0.000    3.571    0.000    0.000    0.000    0.000 
#    0.000    0.000    0.000    0.000    0.000    0.000 
#
# Total GULP energy -77934.058356 kJ/mol
# GULP energy per Si atom -5566.718454 kJ/mol
# Density = 2.609930 g / cm^3
# Si number density = 26.158840 Si / 1000 Ang^3
#
#
#
# Elastic Constant Matrix: (Units=GPa)
#
#
# Indices 1 2 3 4 5 6 
#
# 1 83.8316 17.3638 29.4595 1.4737 -5.1570 -21.5892
# 2 17.3638 139.0993 41.1350 5.1362 7.6322 1.2389
# 3 29.4595 41.1350 180.2922 3.4152 -16.3445 -7.3832
# 4 1.4737 5.1362 3.4152 60.4400 -3.1645 2.3571
# 5 -5.1570 7.6322 -16.3445 -3.1645 33.9160 3.6912
# 6 -21.5892 1.2389 -7.3832 2.3571 3.6912 40.3309
#
#
#
# Elastic Compliance Matrix: (Units=1/GPa)
#
#
# Indices 1 2 3 4 5 6 
#
# 1 0.014851 -0.001456 -0.001693 -0.000393 0.000904 0.007625
# 2 -0.001456 0.008131 -0.001913 -0.000658 -0.002918 -0.001074
# 3 -0.001693 -0.001913 0.006564 0.000005 0.003331 0.000049
# 4 -0.000393 -0.000658 0.000005 0.016757 0.001800 -0.001333
# 5 0.000904 -0.002918 0.003331 0.001800 0.032256 -0.001874
# 6 0.007625 -0.001074 0.000049 -0.001333 -0.001874 0.029168
#
#
# Mechanical properties :
#
#
# Convention : Reuss Voigt Hill
#
# Bulk Modulus (GPa) = 51.49039 64.34884 57.91961
# Shear Modulus (GPa) = 40.21741 47.95503 44.08622
#
# Velocity S-wave (km/s) = 3.92526 4.28626 4.10973
# Velocity P-wave (km/s) = 6.34587 7.01062 6.68651
#
# Compressibility (1/GPa) = 0.01942110
#
# Stress axis : x y z
#
# Youngs Moduli (GPa) = 67.33387 122.99212 152.35649
#
# Poissons Ratio (x) = 0.17911 0.25791
# Poissons Ratio (y) = 0.09806 0.29147
# Poissons Ratio (z) = 0.11398 0.23530
#
# Static dielectric constant tensor:
#      x y z
#    x 2.371240 0.013410 0.054710 
#    y 0.013410 2.179460 -0.068130 
#    z 0.054710 -0.068130 2.186400 
# 
# From -- ./inp_files/494145.got.cif
#   From: 2010.05.17/outbox.cif.g08.bks.cpg/sg2_248_cif.got.tgz:494145.got - 2010.06.03 11:33:40.
