data_PCOD9061286
_publ_section_title
;
Structure prediction by ZEFSAII (Michael W. Deem and Ramdas Pophale) SiO2 
 PCOD9061286
Probable space group: P -1
;
_chemical_formula_sum "Si O2"
_cell_formula_units_Z 11
_cell_length_a 15.784266
_cell_length_b 13.692388
_cell_length_c 16.328115
_cell_angle_alpha 153.981869
_cell_angle_beta 162.399445
_cell_angle_gamma 28.799398
_cell_volume 462.870206
_symmetry_space_group_name_H-M "P -1"
_symmetry_group_IT_number 2
_symmetry_cell_setting 'triclinic'
loop_
_space_group_symop_operation_xyz
x,y,z
-x,-y,-z
loop_
_atom_site_type_symbol
_atom_site_label
_atom_site_fract_x
_atom_site_fract_y
_atom_site_fract_z
Si Si1 0.000000 0.500000 0.500000
Si Si2 0.875977 0.704016 0.981295
Si Si3 0.316271 0.809231 0.812057
Si Si4 0.255814 0.361066 0.792813
Si Si5 0.431831 0.240377 0.578198
Si Si6 0.529821 0.364680 0.589644
O O1 0.767092 0.645086 0.330821
O O2 0.838558 0.622087 0.522503
O O3 0.149558 0.748581 0.214931
O O4 0.743544 0.933879 0.076993
O O5 0.000000 0.500000 0.000000
O O6 0.645460 0.638877 0.657220
O O7 0.507506 0.625782 0.794337
O O8 0.016615 0.719654 0.478070
O O9 0.470044 0.795313 0.032426
O O10 0.320055 0.607869 0.064045
O O11 0.398465 0.239814 0.449287
O O12 0.500000 0.000000 0.500000
#
# Coordination Sequence:
#
# PCOD9061286 Si02
#       6
#     1   2   2   2   2   2
#     4  12  24  44  66 102 146 184 250 270 352 408
#     4  12  28  48  77 108 136 183 243 301 367 425
#     4  11  25  47  73  99 146 186 227 302 358 411
#     4  11  23  45  65 101 141 192 229 278 350 408
#     4  11  27  42  70 104 144 191 236 287 334 425
#     4  11  25  48  72 106 144 185 241 286 361 428
#
# _framework density 23.764759999999999
#
# number of rings (size 3 to 8) (size 9 to 14) (size 15 to 20)
#    0.000    0.727    3.636    4.364    5.091    2.182 
#    0.000    0.000    0.000    0.000    0.000    0.000 
#    0.000    0.000    0.000    0.000    0.000    0.000 
#
# Total GULP energy -61313.512866 kJ/mol
# GULP energy per Si atom -5573.955715 kJ/mol
# Density = 2.371067 g / cm^3
# Si number density = 23.764760 Si / 1000 Ang^3
#
#
#
# Elastic Constant Matrix: (Units=GPa)
#
#
# Indices 1 2 3 4 5 6 
#
# 1 42.9468 4.9592 2.3271 6.2625 7.6295 -7.6072
# 2 4.9592 128.1321 9.0543 11.0488 0.6775 8.3356
# 3 2.3271 9.0543 87.5635 -26.0394 -12.5664 7.4948
# 4 6.2625 11.0488 -26.0394 30.5033 -4.4297 6.3642
# 5 7.6295 0.6775 -12.5664 -4.4297 26.5849 -8.1547
# 6 -7.6072 8.3356 7.4948 6.3642 -8.1547 44.6752
#
#
#
# Elastic Compliance Matrix: (Units=1/GPa)
#
#
# Indices 1 2 3 4 5 6 
#
# 1 0.029492 0.000510 -0.008128 -0.016385 -0.013139 0.006226
# 2 0.000510 0.008601 -0.003133 -0.006202 -0.003086 -0.000672
# 3 -0.008128 -0.003133 0.022030 0.024936 0.015373 -0.005242
# 4 -0.016385 -0.006202 0.024936 0.065439 0.024266 -0.010709
# 5 -0.013139 -0.003086 0.015373 0.024266 0.053404 0.002051
# 6 0.006226 -0.000672 -0.005242 -0.010709 0.002051 0.026348
#
#
# Mechanical properties :
#
#
# Convention : Reuss Voigt Hill
#
# Bulk Modulus (GPa) = 25.89099 32.36929 29.13014
# Shear Modulus (GPa) = 20.86028 36.50613 28.68321
#
# Velocity S-wave (km/s) = 2.96595 3.92362 3.47791
# Velocity P-wave (km/s) = 4.75894 5.84608 5.33030
#
# Compressibility (1/GPa) = 0.03862347
#
# Stress axis : x y z
#
# Youngs Moduli (GPa) = 33.90702 116.26637 45.39166
#
# Poissons Ratio (x) = -0.05932 0.36893
# Poissons Ratio (y) = -0.01730 0.14220
# Poissons Ratio (z) = 0.27558 0.36423
#
# Static dielectric constant tensor:
#      x y z
#    x 1.899500 0.030120 0.015630 
#    y 0.030120 1.982950 -0.025800 
#    z 0.015630 -0.025800 1.959590 
# 
# From -- ./inp_files/531589.got.cif
#   From: 2010.05.17/outbox.cif.g08.bks.cpg/sg2_266_cif.got.tgz:531589.got - 2010.06.03 11:33:40.
