data_PCOD9061778
_publ_section_title
;
Structure prediction by ZEFSAII (Michael W. Deem and Ramdas Pophale) SiO2 
 PCOD9061778
Probable space group: P -1
;
_chemical_formula_sum "Si O2"
_cell_formula_units_Z 14
_cell_length_a 6.512337
_cell_length_b 18.897255
_cell_length_c 5.739401
_cell_angle_alpha 113.735039
_cell_angle_beta 108.995390
_cell_angle_gamma 102.344790
_cell_volume 560.765069
_symmetry_space_group_name_H-M "P -1"
_symmetry_group_IT_number 2
_symmetry_cell_setting 'triclinic'
loop_
_space_group_symop_operation_xyz
x,y,z
-x,-y,-z
loop_
_atom_site_type_symbol
_atom_site_label
_atom_site_fract_x
_atom_site_fract_y
_atom_site_fract_z
Si Si1 0.107679 0.542822 0.847901
Si Si2 0.437332 0.773439 0.639933
Si Si3 0.115059 0.071793 0.452201
Si Si4 0.328170 0.037781 0.096216
Si Si5 0.625319 0.651281 0.255336
Si Si6 0.067256 0.686149 0.759276
Si Si7 0.028627 0.227835 0.788603
O O1 0.000000 0.500000 0.500000
O O2 0.081093 0.631109 0.911012
O O3 0.387988 0.570671 0.013692
O O4 0.000000 0.500000 0.000000
O O5 0.617725 0.870369 0.879027
O O6 0.550613 0.720301 0.457149
O O7 0.307332 0.717116 0.740896
O O8 0.212291 0.784250 0.450516
O O9 0.342265 0.064923 0.408804
O O10 0.119478 0.157017 0.663458
O O11 0.000000 0.000000 0.500000
O O12 0.918171 0.043085 0.137838
O O13 0.500000 0.000000 0.000000
O O14 0.831629 0.637564 0.458505
O O15 0.755467 0.689503 0.113632
O O16 0.029215 0.765775 0.956112
#
# Coordination Sequence:
#
# PCOD9061778 Si02
#       7
#     2   2   2   2   2   2   2
#     4  12  29  53  80 117 158 195 251 318 393 477
#     4  11  23  46  70 101 145 201 253 310 375 453
#     4  11  26  39  62 104 144 192 255 308 373 434
#     4  11  24  42  62  93 148 196 243 309 371 425
#     4  11  26  48  77 104 151 197 246 312 381 454
#     4  11  28  45  78 112 143 197 260 301 387 467
#     4  11  24  44  69 105 141 194 259 308 372 459
#
# _framework density 24.965888
#
# number of rings (size 3 to 8) (size 9 to 14) (size 15 to 20)
#    0.000    0.857    4.286    0.857   10.000    2.857 
#    0.000    0.000    0.000    0.000    0.000    0.000 
#    0.000    0.000    0.000    0.000    0.000    0.000 
#
# Total GULP energy -78179.423302 kJ/mol
# GULP energy per Si atom -5584.244522 kJ/mol
# Density = 2.490906 g / cm^3
# Si number density = 24.965888 Si / 1000 Ang^3
#
#
#
# Elastic Constant Matrix: (Units=GPa)
#
#
# Indices 1 2 3 4 5 6 
#
# 1 115.2589 36.3301 27.8624 -8.1246 -20.1358 15.9726
# 2 36.3301 104.1824 27.5520 -7.0750 -0.3964 17.4682
# 3 27.8624 27.5520 82.5776 4.5971 -1.5302 1.6416
# 4 -8.1246 -7.0750 4.5971 34.5498 -0.5710 0.4031
# 5 -20.1358 -0.3964 -1.5302 -0.5710 66.4674 5.5325
# 6 15.9726 17.4682 1.6416 0.4031 5.5325 43.4803
#
#
#
# Elastic Compliance Matrix: (Units=1/GPa)
#
#
# Indices 1 2 3 4 5 6 
#
# 1 0.011532 -0.002386 -0.003106 0.002741 0.003736 -0.003661
# 2 -0.002386 0.012107 -0.003299 0.002396 -0.000387 -0.003836
# 3 -0.003106 -0.003299 0.014389 -0.003358 -0.000830 0.002060
# 4 0.002741 0.002396 -0.003358 0.030572 0.001220 -0.002281
# 5 0.003736 -0.000387 -0.000830 0.001220 0.016440 -0.003289
# 6 -0.003661 -0.003836 0.002060 -0.002281 -0.003289 0.026247
#
#
# Mechanical properties :
#
#
# Convention : Reuss Voigt Hill
#
# Bulk Modulus (GPa) = 48.90487 53.94533 51.42510
# Shear Modulus (GPa) = 36.85021 42.91780 39.88400
#
# Velocity S-wave (km/s) = 3.84607 4.15065 4.00126
# Velocity P-wave (km/s) = 6.27329 6.68020 6.47994
#
# Compressibility (1/GPa) = 0.02044786
#
# Stress axis : x y z
#
# Youngs Moduli (GPa) = 86.71336 82.59418 69.49764
#
# Poissons Ratio (x) = 0.19706 0.21583
# Poissons Ratio (y) = 0.20689 0.22926
# Poissons Ratio (z) = 0.26930 0.27247
#
# Static dielectric constant tensor:
#      x y z
#    x 2.087450 -0.016570 -0.053090 
#    y -0.016570 2.028770 0.017820 
#    z -0.053090 0.017820 2.231700 
# 
# From -- ./inp_files/8159.got.cif
#   From: 2010.05.17/outbox.cif.g08.bks.cpg/sg2_5_cif.got.tgz:8159.got - 2010.06.03 11:33:40.
