data_PCOD9061898
_publ_section_title
;
Structure prediction by ZEFSAII (Michael W. Deem and Ramdas Pophale) SiO2 
 PCOD9061898
Probable space group: P -1
;
_chemical_formula_sum "Si O2"
_cell_formula_units_Z 13
_cell_length_a 8.324564
_cell_length_b 8.886425
_cell_length_c 12.594884
_cell_angle_alpha 127.497432
_cell_angle_beta 74.672807
_cell_angle_gamma 127.357369
_cell_volume 579.361372
_symmetry_space_group_name_H-M "P -1"
_symmetry_group_IT_number 2
_symmetry_cell_setting 'triclinic'
loop_
_space_group_symop_operation_xyz
x,y,z
-x,-y,-z
loop_
_atom_site_type_symbol
_atom_site_label
_atom_site_fract_x
_atom_site_fract_y
_atom_site_fract_z
Si Si1 0.199141 0.005577 0.967517
Si Si2 0.347348 0.839835 0.701377
Si Si3 0.006529 0.705495 0.442373
Si Si4 0.500000 0.000000 0.500000
Si Si5 0.057885 0.137559 0.704335
Si Si6 0.738598 0.153873 0.904254
Si Si7 0.585187 0.465575 0.076247
O O1 0.243753 0.958208 0.821896
O O2 0.208986 0.841512 0.979103
O O3 0.386942 0.258848 0.082484
O O4 0.000000 0.000000 0.000000
O O5 0.453938 0.936821 0.610320
O O6 0.164400 0.563943 0.614659
O O7 0.529083 0.926622 0.793872
O O8 0.246251 0.805590 0.439571
O O9 0.952180 0.763333 0.363627
O O10 0.992925 0.876918 0.596701
O O11 0.288547 0.305305 0.777802
O O12 0.916092 0.162989 0.817101
O O13 0.714792 0.363021 0.981276
O O14 0.500000 0.500000 0.000000
#
# Coordination Sequence:
#
# PCOD9061898 Si02
#       7
#     2   2   2   1   2   2   2
#     4  11  25  45  74 110 145 196 248 309 377 447
#     4  11  25  49  73 105 149 193 253 303 378 433
#     4  11  26  46  71 106 145 203 241 310 365 445
#     4  12  26  48  70 106 144 202 252 306 360 444
#     4  11  24  44  69 108 148 187 253 297 380 447
#     4  11  23  46  73 104 150 194 240 316 375 440
#     4  11  24  42  71 104 142 191 244 308 372 439
#
# _framework density 22.438497999999999
#
# number of rings (size 3 to 8) (size 9 to 14) (size 15 to 20)
#    0.000    0.923    1.538    5.538    6.462    3.077 
#    2.769    0.000    0.000    0.000    0.000    0.000 
#    0.000    0.000    0.000    0.000    0.000    0.000 
#
# Total GULP energy -72387.936823 kJ/mol
# GULP energy per Si atom -5568.302833 kJ/mol
# Density = 2.238743 g / cm^3
# Si number density = 22.438498 Si / 1000 Ang^3
#
#
#
# Elastic Constant Matrix: (Units=GPa)
#
#
# Indices 1 2 3 4 5 6 
#
# 1 94.4464 46.1420 39.4230 3.7995 10.9634 5.5612
# 2 46.1420 114.0516 62.7868 5.2510 -10.3354 16.1759
# 3 39.4230 62.7868 90.2345 5.2128 21.8063 7.3415
# 4 3.7995 5.2510 5.2128 49.6937 5.9949 11.5755
# 5 10.9634 -10.3354 21.8063 5.9949 33.1423 -7.5729
# 6 5.5612 16.1759 7.3415 11.5755 -7.5729 44.7776
#
#
#
# Elastic Compliance Matrix: (Units=1/GPa)
#
#
# Indices 1 2 3 4 5 6 
#
# 1 0.014605 -0.006252 -0.000344 0.000595 -0.006848 -0.000811
# 2 -0.006252 0.024292 -0.019543 -0.002762 0.022957 -0.000198
# 3 -0.000344 -0.019543 0.031791 0.003025 -0.028285 -0.003675
# 4 0.000595 -0.002762 0.003025 0.022719 -0.008740 -0.006923
# 5 -0.006848 0.022957 -0.028285 -0.008740 0.062062 0.009950
# 6 -0.000811 -0.000198 -0.003675 -0.006923 0.009950 0.026580
#
#
# Mechanical properties :
#
#
# Convention : Reuss Voigt Hill
#
# Bulk Modulus (GPa) = 54.32280 66.15956 60.24118
# Shear Modulus (GPa) = 20.79320 35.54809 28.17064
#
# Velocity S-wave (km/s) = 3.04744 3.98458 3.54709
# Velocity P-wave (km/s) = 6.05349 7.12166 6.60919
#
# Compressibility (1/GPa) = 0.01840848
#
# Stress axis : x y z
#
# Youngs Moduli (GPa) = 68.47054 41.16610 31.45591
#
# Poissons Ratio (x) = 0.25738 0.01082
# Poissons Ratio (y) = 0.42810 0.61475
# Poissons Ratio (z) = 0.02355 0.80452
#
# Static dielectric constant tensor:
#      x y z
#    x 2.038550 -0.340990 0.150530 
#    y -0.340990 2.471230 -0.258230 
#    z 0.150530 -0.258230 1.950260 
# 
# From -- ./inp_files/174264.got.cif
#   From: 2010.05.17/outbox.cif.g08.bks.cpg/sg2_88_cif.got.tgz:174264.got - 2010.06.03 11:33:40.
