data_PCOD9061728
_publ_section_title
;
Structure prediction by ZEFSAII (Michael W. Deem and Ramdas Pophale) SiO2 
 PCOD9061728
Probable space group: P -1
;
_chemical_formula_sum "Si O2"
_cell_formula_units_Z 14
_cell_length_a 20.058547
_cell_length_b 6.572845
_cell_length_c 5.620155
_cell_angle_alpha 71.649734
_cell_angle_beta 55.448867
_cell_angle_gamma 72.933805
_cell_volume 572.952075
_symmetry_space_group_name_H-M "P -1"
_symmetry_group_IT_number 2
_symmetry_cell_setting 'triclinic'
loop_
_space_group_symop_operation_xyz
x,y,z
-x,-y,-z
loop_
_atom_site_type_symbol
_atom_site_label
_atom_site_fract_x
_atom_site_fract_y
_atom_site_fract_z
Si Si1 0.046212 0.442591 0.678262
Si Si2 0.817277 0.366101 0.884494
Si Si3 0.262411 0.307469 0.712696
Si Si4 0.533614 0.267087 0.916672
Si Si5 0.575050 0.000597 0.524687
Si Si6 0.839526 0.970317 0.311562
Si Si7 0.295519 0.742863 0.220237
O O1 0.121223 0.583357 0.462920
O O2 0.082536 0.187980 0.694156
O O3 0.000000 0.500000 0.500000
O O4 0.000000 0.500000 0.000000
O O5 0.734864 0.298196 0.967103
O O6 0.791346 0.587147 0.998941
O O7 0.857831 0.173710 0.042777
O O8 0.339967 0.130205 0.683992
O O9 0.206991 0.184363 0.701249
O O10 0.291697 0.516273 0.450237
O O11 0.614775 0.197330 0.939221
O O12 0.567707 0.229965 0.592286
O O13 0.500000 0.500000 0.000000
O O14 0.453299 0.149660 0.148984
O O15 0.500000 0.000000 0.500000
O O16 0.773808 0.076532 0.597465
#
# Coordination Sequence:
#
# PCOD9061728 Si02
#       7
#     2   2   2   2   2   2   2
#     4  12  29  53  82 118 159 197 248 324 396 474
#     4  11  28  45  78 111 143 202 254 307 387 467
#     4  11  23  46  67 104 148 198 259 316 370 463
#     4  11  24  42  62 100 146 193 250 315 371 433
#     4  11  26  39  63  99 146 199 251 311 384 429
#     4  11  26  48  76 107 155 195 256 305 383 465
#     4  11  24  44  72 103 141 200 256 309 377 456
#
# _framework density 24.434854999999999
#
# number of rings (size 3 to 8) (size 9 to 14) (size 15 to 20)
#    0.000    0.857    4.286    0.857   10.000    1.714 
#    0.000    0.000    0.000    0.000    0.000    0.000 
#    0.000    0.000    0.000    0.000    0.000    0.000 
#
# Total GULP energy -78316.081168 kJ/mol
# GULP energy per Si atom -5594.005798 kJ/mol
# Density = 2.437924 g / cm^3
# Si number density = 24.434855 Si / 1000 Ang^3
#
#
#
# Elastic Constant Matrix: (Units=GPa)
#
#
# Indices 1 2 3 4 5 6 
#
# 1 118.4884 47.7390 25.6614 19.5418 17.8372 -22.7670
# 2 47.7390 159.9774 61.3958 36.5193 8.0010 -28.6486
# 3 25.6614 61.3958 108.7140 8.7410 -15.4850 -15.3114
# 4 19.5418 36.5193 8.7410 42.6012 9.3589 0.7175
# 5 17.8372 8.0010 -15.4850 9.3589 39.5009 -1.8969
# 6 -22.7670 -28.6486 -15.3114 0.7175 -1.8969 58.9184
#
#
#
# Elastic Compliance Matrix: (Units=1/GPa)
#
#
# Indices 1 2 3 4 5 6 
#
# 1 0.011089 -0.001126 -0.002008 -0.002712 -0.004775 0.003095
# 2 -0.001126 0.010993 -0.005074 -0.007544 -0.001745 0.003627
# 3 -0.002008 -0.005074 0.013534 0.000938 0.007041 0.000490
# 4 -0.002712 -0.007544 0.000938 0.032115 -0.004729 -0.005016
# 5 -0.004775 -0.001745 0.007041 -0.004729 0.031717 0.000215
# 6 0.003095 0.003627 0.000490 -0.005016 0.000215 0.020127
#
#
# Mechanical properties :
#
#
# Convention : Reuss Voigt Hill
#
# Bulk Modulus (GPa) = 52.08078 72.97469 62.52774
# Shear Modulus (GPa) = 35.11453 45.02968 40.07210
#
# Velocity S-wave (km/s) = 3.79498 4.29750 4.05403
# Velocity P-wave (km/s) = 6.36890 7.38610 6.89628
#
# Compressibility (1/GPa) = 0.01920094
#
# Stress axis : x y z
#
# Youngs Moduli (GPa) = 90.17876 90.96664 73.88751
#
# Poissons Ratio (x) = 0.10247 0.14833
# Poissons Ratio (y) = 0.10158 0.37488
# Poissons Ratio (z) = 0.18104 0.46153
#
# Static dielectric constant tensor:
#      x y z
#    x 1.956450 0.018660 0.040480 
#    y 0.018660 1.998290 -0.067500 
#    z 0.040480 -0.067500 2.165000 
# 
# From -- ./inp_files/6722.got.cif
#   From: 2010.05.17/outbox.cif.g08.bks.cpg/sg2_4_cif.got.tgz:6722.got - 2010.06.03 11:33:40.
