data_PCOD9061759
_publ_section_title
;
Structure prediction by ZEFSAII (Michael W. Deem and Ramdas Pophale) SiO2 
 PCOD9061759
Probable space group: P -1
;
_chemical_formula_sum "Si O2"
_cell_formula_units_Z 10
_cell_length_a 10.916637
_cell_length_b 6.855588
_cell_length_c 8.402217
_cell_angle_alpha 45.595065
_cell_angle_beta 101.445778
_cell_angle_gamma 83.392527
_cell_volume 410.332606
_symmetry_space_group_name_H-M "P -1"
_symmetry_group_IT_number 2
_symmetry_cell_setting 'triclinic'
loop_
_space_group_symop_operation_xyz
x,y,z
-x,-y,-z
loop_
_atom_site_type_symbol
_atom_site_label
_atom_site_fract_x
_atom_site_fract_y
_atom_site_fract_z
Si Si1 0.815770 0.872460 0.839342
Si Si2 0.139941 0.731061 0.711537
Si Si3 0.121674 0.606033 0.437228
Si Si4 0.534420 0.147467 0.759198
Si Si5 0.299599 0.086322 0.567620
O O1 0.745526 0.910941 0.626700
O O2 0.911999 0.051542 0.796992
O O3 0.692545 0.002468 0.854935
O O4 0.889746 0.529993 0.068219
O O5 0.196072 0.591913 0.633256
O O6 0.245716 0.840526 0.764399
O O7 0.000000 0.000000 0.500000
O O8 0.215533 0.392829 0.454653
O O9 0.000000 0.500000 0.500000
O O10 0.500000 0.500000 0.500000
O O11 0.451741 0.035905 0.671878
O O12 0.500000 0.000000 0.000000
#
# Coordination Sequence:
#
# PCOD9061759 Si02
#       5
#     2   2   2   2   2
#     4  11  27  45  77 109 152 204 256 316 389 459
#     4  11  25  46  68 108 150 199 255 312 377 459
#     4  11  23  46  69 106 149 196 254 309 380 451
#     4  12  27  50  83 115 154 202 260 319 390 463
#     4  11  25  46  75 109 154 199 253 317 389 453
#
# _framework density 24.370476
#
# number of rings (size 3 to 8) (size 9 to 14) (size 15 to 20)
#    0.000    0.800    4.000    1.800    5.600    6.400 
#    0.000    0.000    0.000    0.000    0.000    0.000 
#    0.000    0.000    0.000    0.000    0.000    0.000 
#
# Total GULP energy -55776.193663 kJ/mol
# GULP energy per Si atom -5577.619366 kJ/mol
# Density = 2.431501 g / cm^3
# Si number density = 24.370476 Si / 1000 Ang^3
#
#
#
# Elastic Constant Matrix: (Units=GPa)
#
#
# Indices 1 2 3 4 5 6 
#
# 1 98.5762 33.8237 43.9363 -26.9617 -26.6835 20.7625
# 2 33.8237 124.3653 49.9948 -14.7404 -25.4078 20.7436
# 3 43.9363 49.9948 159.3907 -41.6880 -23.0304 14.0521
# 4 -26.9617 -14.7404 -41.6880 56.5183 8.2385 -17.0346
# 5 -26.6835 -25.4078 -23.0304 8.2385 34.4399 -6.0796
# 6 20.7625 20.7436 14.0521 -17.0346 -6.0796 59.1099
#
#
#
# Elastic Compliance Matrix: (Units=1/GPa)
#
#
# Indices 1 2 3 4 5 6 
#
# 1 0.015016 -0.000859 -0.001370 0.003866 0.008694 -0.002639
# 2 -0.000859 0.010635 -0.002334 -0.000922 0.005383 -0.002588
# 3 -0.001370 -0.002334 0.009009 0.005350 0.002123 0.000919
# 4 0.003866 -0.000922 0.005350 0.024584 0.000871 0.004868
# 5 0.008694 0.005383 0.002123 0.000871 0.040778 -0.001003
# 6 -0.002639 -0.002588 0.000919 0.004868 -0.001003 0.019834
#
#
# Mechanical properties :
#
#
# Convention : Reuss Voigt Hill
#
# Bulk Modulus (GPa) = 39.16298 70.87133 55.01716
# Shear Modulus (GPa) = 36.36550 46.98545 41.67548
#
# Velocity S-wave (km/s) = 3.86708 4.39562 4.13980
# Velocity P-wave (km/s) = 6.00365 7.40986 6.74351
#
# Compressibility (1/GPa) = 0.02553432
#
# Stress axis : x y z
#
# Youngs Moduli (GPa) = 66.59389 94.03034 111.00343
#
# Poissons Ratio (x) = 0.08074 0.15206
# Poissons Ratio (y) = 0.05718 0.25912
# Poissons Ratio (z) = 0.09122 0.21950
#
# Static dielectric constant tensor:
#      x y z
#    x 1.994250 -0.036280 -0.150700 
#    y -0.036280 1.895720 0.044250 
#    z -0.150700 0.044250 2.208660 
# 
# From -- ./inp_files/1717.got.cif
#   From: 2010.05.17/outbox.cif.g08.bks.cpg/sg2_1_cif.got.tgz:1717.got - 2010.06.03 11:33:40.
