data_PCOD9061406
_publ_section_title
;
Structure prediction by ZEFSAII (Michael W. Deem and Ramdas Pophale) SiO2 
 PCOD9061406
Probable space group: P -1
;
_chemical_formula_sum "Si O2"
_cell_formula_units_Z 12
_cell_length_a 12.497938
_cell_length_b 12.698892
_cell_length_c 8.380752
_cell_angle_alpha 134.877545
_cell_angle_beta 100.506798
_cell_angle_gamma 44.531607
_cell_volume 505.010229
_symmetry_space_group_name_H-M "P -1"
_symmetry_group_IT_number 2
_symmetry_cell_setting 'triclinic'
loop_
_space_group_symop_operation_xyz
x,y,z
-x,-y,-z
loop_
_atom_site_type_symbol
_atom_site_label
_atom_site_fract_x
_atom_site_fract_y
_atom_site_fract_z
Si Si1 0.969690 0.385620 0.723318
Si Si2 0.937419 0.000931 0.818451
Si Si3 0.078228 0.305045 0.174336
Si Si4 0.445439 0.894524 0.310242
Si Si5 0.410843 0.738372 0.837729
Si Si6 0.828504 0.381535 0.997932
O O1 0.901447 0.388531 0.870781
O O2 0.940979 0.287622 0.483096
O O3 0.207853 0.147254 0.537125
O O4 0.867554 0.650973 0.913499
O O5 0.946828 0.097408 0.772795
O O6 0.710202 0.213569 0.009348
O O7 0.000000 0.000000 0.000000
O O8 0.000000 0.500000 0.500000
O O9 0.890636 0.418193 0.197273
O O10 0.258388 0.998181 0.956397
O O11 0.500000 0.000000 0.500000
O O12 0.496415 0.775707 0.015225
O O13 0.593732 0.627112 0.174210
O O14 0.500000 0.500000 0.500000
#
# Coordination Sequence:
#
# PCOD9061406 Si02
#       6
#     2   2   2   2   2   2
#     4  11  25  44  74 106 144 191 252 303 364 442
#     4  11  23  45  70 101 144 195 239 297 373 441
#     4  12  21  47  75  99 148 199 239 304 369 438
#     4  11  24  46  72 108 146 190 251 306 364 439
#     4  11  26  45  73 112 150 185 253 312 367 438
#     4  12  25  42  74 104 144 195 245 301 374 439
#
# _framework density 23.761897000000001
#
# number of rings (size 3 to 8) (size 9 to 14) (size 15 to 20)
#    0.000    0.667    6.667    1.000    2.333    5.333 
#    0.000    0.833    0.000    0.000    0.000    0.000 
#    0.000    0.000    0.000    0.000    0.000    0.000 
#
# Total GULP energy -66904.601510 kJ/mol
# GULP energy per Si atom -5575.383459 kJ/mol
# Density = 2.370781 g / cm^3
# Si number density = 23.761897 Si / 1000 Ang^3
#
#
#
# Elastic Constant Matrix: (Units=GPa)
#
#
# Indices 1 2 3 4 5 6 
#
# 1 83.1655 50.1680 32.2505 -0.1064 10.4561 16.4291
# 2 50.1680 166.7235 52.7217 10.4617 25.2979 7.6002
# 3 32.2505 52.7217 141.4085 -12.1533 30.5988 -2.4041
# 4 -0.1064 10.4617 -12.1533 47.9566 -2.4623 14.7991
# 5 10.4561 25.2979 30.5988 -2.4623 39.0896 -6.4576
# 6 16.4291 7.6002 -2.4041 14.7991 -6.4576 50.7383
#
#
#
# Elastic Compliance Matrix: (Units=1/GPa)
#
#
# Indices 1 2 3 4 5 6 
#
# 1 0.016453 -0.004060 -0.001925 0.002095 -0.001052 -0.005555
# 2 -0.004060 0.008384 -0.001746 -0.002539 -0.003079 0.000325
# 3 -0.001925 -0.001746 0.009624 0.002563 -0.005750 -0.000138
# 4 0.002095 -0.002539 0.002563 0.024294 -0.000606 -0.007340
# 5 -0.001052 -0.003079 -0.005750 -0.000606 0.033132 0.004923
# 6 -0.005555 0.000325 -0.000138 -0.007340 0.004923 0.024220
#
#
# Mechanical properties :
#
#
# Convention : Reuss Voigt Hill
#
# Bulk Modulus (GPa) = 52.64106 73.50865 63.07486
# Shear Modulus (GPa) = 36.25768 44.63405 40.44586
#
# Velocity S-wave (km/s) = 3.91048 4.33874 4.13017
# Velocity P-wave (km/s) = 6.52616 7.49014 7.02471
#
# Compressibility (1/GPa) = 0.01899658
#
# Stress axis : x y z
#
# Youngs Moduli (GPa) = 60.78095 119.28060 103.90813
#
# Poissons Ratio (x) = 0.48433 0.20005
# Poissons Ratio (y) = 0.24680 0.18143
# Poissons Ratio (z) = 0.11702 0.20827
#
# Static dielectric constant tensor:
#      x y z
#    x 2.036480 -0.046170 -0.000440 
#    y -0.046170 1.909500 -0.022700 
#    z -0.000440 -0.022700 1.993580 
# 
# From -- ./inp_files/312133.got.cif
#   From: 2010.05.17/outbox.cif.g08.bks.cpg/sg2_157_cif.got.tgz:312133.got - 2010.06.03 11:33:40.
