data_PCOD9061739
_publ_section_title
;
Structure prediction by ZEFSAII (Michael W. Deem and Ramdas Pophale) SiO2 
 PCOD9061739
Probable space group: P -1
;
_chemical_formula_sum "Si O2"
_cell_formula_units_Z 14
_cell_length_a 6.612545
_cell_length_b 7.648954
_cell_length_c 24.543892
_cell_angle_alpha 34.873452
_cell_angle_beta 105.053284
_cell_angle_gamma 118.719535
_cell_volume 599.661430
_symmetry_space_group_name_H-M "P -1"
_symmetry_group_IT_number 2
_symmetry_cell_setting 'triclinic'
loop_
_space_group_symop_operation_xyz
x,y,z
-x,-y,-z
loop_
_atom_site_type_symbol
_atom_site_label
_atom_site_fract_x
_atom_site_fract_y
_atom_site_fract_z
Si Si1 0.264350 0.001654 0.500619
Si Si2 0.224571 0.255664 0.987537
Si Si3 0.938193 0.084884 0.381518
Si Si4 0.811281 0.073946 0.169626
Si Si5 0.326422 0.685809 0.179872
Si Si6 0.323790 0.297488 0.171898
Si Si7 0.455903 0.187214 0.666969
O O1 0.071371 0.887060 0.468219
O O2 0.356101 0.410207 0.414388
O O3 0.500000 0.000000 0.500000
O O4 0.156845 0.804970 0.599823
O O5 0.168070 0.545380 0.934967
O O6 0.460602 0.458039 0.915099
O O7 0.280236 0.015153 0.092746
O O8 0.000000 0.000000 0.000000
O O9 0.139102 0.401804 0.280342
O O10 0.715841 0.869014 0.381644
O O11 0.067732 0.100365 0.175131
O O12 0.598107 0.807658 0.184687
O O13 0.711387 0.955689 0.254431
O O14 0.289540 0.525560 0.158192
O O15 0.405020 0.034721 0.271165
#
# Coordination Sequence:
#
# PCOD9061739 Si02
#       7
#     2   2   2   2   2   2   2
#     4  11  27  48  72 104 135 176 233 285 353 410
#     4  11  23  46  68 101 146 180 234 285 330 405
#     4  11  25  47  70 104 138 179 226 291 338 413
#     4  11  24  43  68 103 140 185 232 278 335 404
#     4  12  23  45  70 101 142 185 231 279 344 402
#     4  11  25  44  70 101 142 187 224 279 345 404
#     4  11  24  46  70 103 139 178 231 282 341 415
#
# _framework density 23.346509999999999
#
# number of rings (size 3 to 8) (size 9 to 14) (size 15 to 20)
#    0.000    0.857    4.286    2.143    2.000    4.571 
#    5.143    0.000    0.000    0.000    0.000    0.000 
#    0.000    0.000    0.000    0.000    0.000    0.000 
#
# Total GULP energy -78438.547108 kJ/mol
# GULP energy per Si atom -5602.753365 kJ/mol
# Density = 2.329337 g / cm^3
# Si number density = 23.346510 Si / 1000 Ang^3
#
#
#
# Elastic Constant Matrix: (Units=GPa)
#
#
# Indices 1 2 3 4 5 6 
#
# 1 126.2153 22.3454 16.0966 2.6644 -4.7761 28.1495
# 2 22.3454 81.4633 9.8282 7.1881 7.5736 32.5159
# 3 16.0966 9.8282 46.6900 -1.3892 0.3712 -5.2151
# 4 2.6644 7.1881 -1.3892 35.3443 7.0934 4.0958
# 5 -4.7761 7.5736 0.3712 7.0934 25.9068 1.6363
# 6 28.1495 32.5159 -5.2151 4.0958 1.6363 47.1972
#
#
#
# Elastic Compliance Matrix: (Units=1/GPa)
#
#
# Indices 1 2 3 4 5 6 
#
# 1 0.010014 0.000259 -0.004290 -0.000696 0.002442 -0.006650
# 2 0.000259 0.018746 -0.005550 -0.001686 -0.004045 -0.013396
# 3 -0.004290 -0.005550 0.025124 0.001493 -0.000509 0.009046
# 4 -0.000696 -0.001686 0.001493 0.030414 -0.007945 -0.000622
# 5 0.002442 -0.004045 -0.000509 -0.007945 0.042384 0.000494
# 6 -0.006650 -0.013396 0.009046 -0.000622 0.000494 0.035419
#
#
# Mechanical properties :
#
#
# Convention : Reuss Voigt Hill
#
# Bulk Modulus (GPa) = 28.79914 38.98988 33.89451
# Shear Modulus (GPa) = 25.92879 35.42955 30.67917
#
# Velocity S-wave (km/s) = 3.33619 3.89980 3.62896
# Velocity P-wave (km/s) = 5.21561 6.08397 5.66645
#
# Compressibility (1/GPa) = 0.03472325
#
# Stress axis : x y z
#
# Youngs Moduli (GPa) = 99.85659 53.34577 39.80276
#
# Poissons Ratio (x) = -0.01382 0.17075
# Poissons Ratio (y) = -0.02588 0.22089
# Poissons Ratio (z) = 0.42838 0.29604
#
# Static dielectric constant tensor:
#      x y z
#    x 1.857090 -0.000570 0.014070 
#    y -0.000570 1.860840 0.009870 
#    z 0.014070 0.009870 1.881990 
# 
# From -- ./inp_files/51787.got.cif
#   From: 2010.05.17/outbox.cif.g08.bks.cpg/sg2_26_cif.got.tgz:51787.got - 2010.06.03 11:33:40.
