data_PCOD9061409
_publ_section_title
;
Structure prediction by ZEFSAII (Michael W. Deem and Ramdas Pophale) SiO2 
 PCOD9061409
Probable space group: P -1
;
_chemical_formula_sum "Si O2"
_cell_formula_units_Z 14
_cell_length_a 9.579218
_cell_length_b 19.577117
_cell_length_c 10.177275
_cell_angle_alpha 36.306078
_cell_angle_beta 139.523782
_cell_angle_gamma 147.261903
_cell_volume 590.344234
_symmetry_space_group_name_H-M "P -1"
_symmetry_group_IT_number 2
_symmetry_cell_setting 'triclinic'
loop_
_space_group_symop_operation_xyz
x,y,z
-x,-y,-z
loop_
_atom_site_type_symbol
_atom_site_label
_atom_site_fract_x
_atom_site_fract_y
_atom_site_fract_z
Si Si1 0.967059 0.999605 0.700560
Si Si2 0.568631 0.573994 0.795141
Si Si3 0.823356 0.182945 0.462102
Si Si4 0.335943 0.973977 0.153123
Si Si5 0.186619 0.704345 0.980406
Si Si6 0.419935 0.160196 0.559176
Si Si7 0.729973 0.535067 0.511178
O O1 0.195897 0.058091 0.663827
O O2 0.954102 0.124569 0.555065
O O3 0.059527 0.949444 0.963868
O O4 0.707892 0.882704 0.612840
O O5 0.500933 0.687257 0.584057
O O6 0.382855 0.472571 0.701230
O O7 0.882969 0.649735 0.874287
O O8 0.500000 0.500000 0.000000
O O9 0.754628 0.262285 0.185892
O O10 0.018173 0.309418 0.507380
O O11 0.640438 0.053515 0.634348
O O12 0.586405 0.137453 0.045171
O O13 0.360145 0.868268 0.245630
O O14 0.219145 0.585275 0.241961
O O15 0.500000 0.500000 0.500000
#
# Coordination Sequence:
#
# PCOD9061409 Si02
#       7
#     2   2   2   2   2   2   2
#     4  11  23  46  70 105 146 189 236 304 366 433
#     4  12  29  49  75 106 149 198 250 303 366 446
#     4  12  25  48  72 113 145 192 245 305 368 438
#     4  12  26  42  77 108 145 186 247 303 369 432
#     4  12  25  49  75 105 149 193 243 306 367 434
#     4  11  23  45  70 102 146 187 246 295 367 430
#     4  12  27  49  77 105 152 198 246 300 371 443
#
# _framework density 23.714977000000001
#
# number of rings (size 3 to 8) (size 9 to 14) (size 15 to 20)
#    0.000    0.286    4.286    4.286    4.000    1.714 
#    0.000    0.000    0.000    0.000    0.000    0.000 
#    0.000    0.000    0.000    0.000    0.000    0.000 
#
# Total GULP energy -78308.201619 kJ/mol
# GULP energy per Si atom -5593.442973 kJ/mol
# Density = 2.366100 g / cm^3
# Si number density = 23.714977 Si / 1000 Ang^3
#
#
#
# Elastic Constant Matrix: (Units=GPa)
#
#
# Indices 1 2 3 4 5 6 
#
# 1 82.5941 12.2132 29.4699 5.3136 4.4252 -13.6855
# 2 12.2132 91.0234 19.6503 18.5464 -2.4261 -13.1025
# 3 29.4699 19.6503 89.2654 26.6941 0.1923 -4.7541
# 4 5.3136 18.5464 26.6941 34.8815 -11.9992 -10.0366
# 5 4.4252 -2.4261 0.1923 -11.9992 43.9293 0.9630
# 6 -13.6855 -13.1025 -4.7541 -10.0366 0.9630 31.1352
#
#
#
# Elastic Compliance Matrix: (Units=1/GPa)
#
#
# Indices 1 2 3 4 5 6 
#
# 1 0.015159 -0.000681 -0.005761 0.004263 -0.000526 0.006887
# 2 -0.000681 0.012801 -0.000796 -0.005428 -0.000774 0.003240
# 3 -0.005761 -0.000796 0.017385 -0.014558 -0.003411 -0.004800
# 4 0.004263 -0.005428 -0.014558 0.050224 0.012765 0.013162
# 5 -0.000526 -0.000774 -0.003411 0.012765 0.026227 0.002226
# 6 0.006887 0.003240 -0.004800 0.013162 0.002226 0.039950
#
#
# Mechanical properties :
#
#
# Convention : Reuss Voigt Hill
#
# Bulk Modulus (GPa) = 32.39589 42.83884 37.61737
# Shear Modulus (GPa) = 26.80790 35.42583 31.11687
#
# Velocity S-wave (km/s) = 3.36582 3.86919 3.62625
# Velocity P-wave (km/s) = 5.36611 6.16961 5.78183
#
# Compressibility (1/GPa) = 0.03086811
#
# Stress axis : x y z
#
# Youngs Moduli (GPa) = 65.96772 78.11832 57.52100
#
# Poissons Ratio (x) = 0.05323 0.33140
# Poissons Ratio (y) = 0.04495 0.04577
# Poissons Ratio (z) = 0.38007 0.06215
#
# Static dielectric constant tensor:
#      x y z
#    x 2.037480 0.258730 -0.276430 
#    y 0.258730 2.180280 -0.470430 
#    z -0.276430 -0.470430 1.939240 
# 
# From -- ./inp_files/214175.got.cif
#   From: 2010.05.17/outbox.cif.g08.bks.cpg/sg2_108_cif.got.tgz:214175.got - 2010.06.03 11:33:40.
