data_PCOD9061757
_publ_section_title
;
Structure prediction by ZEFSAII (Michael W. Deem and Ramdas Pophale) SiO2 
 PCOD9061757
Probable space group: P -1
;
_chemical_formula_sum "Si O2"
_cell_formula_units_Z 11
_cell_length_a 14.138447
_cell_length_b 5.487073
_cell_length_c 10.908634
_cell_angle_alpha 97.257953
_cell_angle_beta 29.784730
_cell_angle_gamma 101.492189
_cell_volume 410.064072
_symmetry_space_group_name_H-M "P -1"
_symmetry_group_IT_number 2
_symmetry_cell_setting 'triclinic'
loop_
_space_group_symop_operation_xyz
x,y,z
-x,-y,-z
loop_
_atom_site_type_symbol
_atom_site_label
_atom_site_fract_x
_atom_site_fract_y
_atom_site_fract_z
Si Si1 0.571173 0.463360 0.640143
Si Si2 0.818790 0.196575 0.489027
Si Si3 0.817709 0.413328 0.957745
Si Si4 0.066445 0.191249 0.829027
Si Si5 0.500000 0.500000 0.000000
Si Si6 0.775313 0.010930 0.777885
O O1 0.669607 0.227844 0.550474
O O2 0.722473 0.638475 0.393988
O O3 0.576268 0.584412 0.778507
O O4 0.356438 0.435180 0.828744
O O5 0.716708 0.167590 0.734656
O O6 0.993005 0.430929 0.311539
O O7 0.917323 0.970696 0.322350
O O8 0.746054 0.170549 0.939844
O O9 0.901677 0.347832 0.989143
O O10 0.000000 0.000000 0.000000
O O11 0.658931 0.732529 0.894913
O O12 0.000000 0.000000 0.500000
#
# Coordination Sequence:
#
# PCOD9061757 Si02
#       6
#     2   2   2   2   1   2
#     4  11  25  42  68 108 140 183 237 287 359 429
#     4  11  23  46  69 103 146 188 233 299 362 424
#     4  11  25  43  73 106 141 191 237 294 360 436
#     4  11  26  49  71  99 143 192 245 300 354 419
#     4  12  24  40  72 114 146 186 228 298 364 436
#     4  12  22  43  72 110 154 187 234 293 370 442
#
# _framework density 26.825075999999999
#
# number of rings (size 3 to 8) (size 9 to 14) (size 15 to 20)
#    0.000    0.727    3.636    3.818    2.545    5.091 
#    0.000    1.818    0.000    0.000    0.000    0.000 
#    0.000    0.000    0.000    0.000    0.000    0.000 
#
# Total GULP energy -61477.585784 kJ/mol
# GULP energy per Si atom -5588.871435 kJ/mol
# Density = 2.676402 g / cm^3
# Si number density = 26.825076 Si / 1000 Ang^3
#
#
#
# Elastic Constant Matrix: (Units=GPa)
#
#
# Indices 1 2 3 4 5 6 
#
# 1 111.4697 15.9335 75.1315 -10.4608 -5.1778 -34.7240
# 2 15.9335 70.5830 54.4867 -23.9122 -12.9283 11.3050
# 3 75.1315 54.4867 177.1173 -30.1607 -6.8449 -19.5534
# 4 -10.4608 -23.9122 -30.1607 55.4137 -7.0025 1.4179
# 5 -5.1778 -12.9283 -6.8449 -7.0025 63.8710 10.1806
# 6 -34.7240 11.3050 -19.5534 1.4179 10.1806 61.9082
#
#
#
# Elastic Compliance Matrix: (Units=1/GPa)
#
#
# Indices 1 2 3 4 5 6 
#
# 1 0.014763 -0.000525 -0.005496 -0.000687 -0.000652 0.006763
# 2 -0.000525 0.024544 -0.006631 0.007895 0.006372 -0.008100
# 3 -0.005496 -0.006631 0.010437 0.001651 -0.000729 0.001507
# 4 -0.000687 0.007895 0.001651 0.022875 0.004640 -0.002593
# 5 -0.000652 0.006372 -0.000729 0.004640 0.018096 -0.004841
# 6 0.006763 -0.008100 0.001507 -0.002593 -0.004841 0.022757
#
#
# Mechanical properties :
#
#
# Convention : Reuss Voigt Hill
#
# Bulk Modulus (GPa) = 40.91870 72.25262 56.58566
# Shear Modulus (GPa) = 34.03160 50.47979 42.25569
#
# Velocity S-wave (km/s) = 3.56567 4.34269 3.97322
# Velocity P-wave (km/s) = 5.67794 7.22070 6.49529
#
# Compressibility (1/GPa) = 0.02443870
#
# Stress axis : x y z
#
# Youngs Moduli (GPa) = 67.73880 40.74234 95.81605
#
# Poissons Ratio (x) = 0.02139 0.52662
# Poissons Ratio (y) = 0.03556 0.63539
# Poissons Ratio (z) = 0.37230 0.27018
#
# Static dielectric constant tensor:
#      x y z
#    x 2.116440 -0.008360 0.032920 
#    y -0.008360 1.850350 -0.058750 
#    z 0.032920 -0.058750 1.994900 
# 
# From -- ./inp_files/74739.got.cif
#   From: 2010.05.17/outbox.cif.g08.bks.cpg/sg2_38_cif.got.tgz:74739.got - 2010.06.03 11:33:40.
