data_PCOD9062077
_publ_section_title
;
Structure prediction by ZEFSAII (Michael W. Deem and Ramdas Pophale) SiO2 
 PCOD9062077
Probable space group: P -1
;
_chemical_formula_sum "Si O2"
_cell_formula_units_Z 16
_cell_length_a 16.015578
_cell_length_b 8.725487
_cell_length_c 12.593689
_cell_angle_alpha 99.010738
_cell_angle_beta 26.653394
_cell_angle_gamma 90.733635
_cell_volume 746.918529
_symmetry_space_group_name_H-M "P -1"
_symmetry_group_IT_number 2
_symmetry_cell_setting 'triclinic'
loop_
_space_group_symop_operation_xyz
x,y,z
-x,-y,-z
loop_
_atom_site_type_symbol
_atom_site_label
_atom_site_fract_x
_atom_site_fract_y
_atom_site_fract_z
Si Si1 0.323291 0.667915 0.552620
Si Si2 0.789277 0.584145 0.797884
Si Si3 0.859515 0.456477 0.069759
Si Si4 0.577095 0.349957 0.114343
Si Si5 0.973576 0.179929 0.754102
Si Si6 0.349269 0.173221 0.206105
Si Si7 0.023838 0.073707 0.096424
Si Si8 0.684902 0.756319 0.156452
O O1 0.261958 0.643993 0.739581
O O2 0.447263 0.491909 0.352201
O O3 0.130163 0.747594 0.713102
O O4 0.456346 0.788416 0.401881
O O5 0.676175 0.718445 0.858305
O O6 0.000000 0.500000 0.500000
O O7 0.679555 0.448109 0.928798
O O8 0.790181 0.673305 0.919711
O O9 0.732015 0.619101 0.178834
O O10 0.975270 0.341023 0.834200
O O11 0.000000 0.500000 0.000000
O O12 0.438052 0.262878 0.205244
O O13 0.756651 0.224365 0.956762
O O14 0.141029 0.152866 0.473765
O O15 0.014897 0.035347 0.776121
O O16 0.500000 0.000000 0.000000
O O17 0.232740 0.100443 0.883416
O O18 0.000000 0.000000 0.000000
#
# Coordination Sequence:
#
# PCOD9062077 Si02
#       8
#     2   2   2   2   2   2   2   2
#     4  11  24  42  74 104 136 185 234 274 345 419
#     4  11  23  47  72 100 134 181 234 286 344 402
#     4  12  20  43  73 101 137 181 226 279 336 412
#     4  11  26  46  74 101 135 182 233 287 336 422
#     4  12  26  47  66 104 142 176 233 282 349 407
#     4  12  29  47  71 103 136 180 232 292 355 403
#     4  12  27  45  67 105 147 184 222 287 355 404
#     4  11  25  42  71 100 139 182 234 283 334 417
#
# _framework density 21.421344999999999
#
# number of rings (size 3 to 8) (size 9 to 14) (size 15 to 20)
#    0.000    0.500    6.250    1.500    7.000    2.000 
#    0.000    0.000    0.000    0.000    0.000    0.000 
#    0.000    0.000    0.000    0.000    0.000    0.000 
#
# Total GULP energy -89496.735894 kJ/mol
# GULP energy per Si atom -5593.545993 kJ/mol
# Density = 2.137259 g / cm^3
# Si number density = 21.421345 Si / 1000 Ang^3
#
#
#
# Elastic Constant Matrix: (Units=GPa)
#
#
# Indices 1 2 3 4 5 6 
#
# 1 104.6450 19.6589 11.1550 -4.0607 -11.2212 -8.5302
# 2 19.6589 58.6005 3.5161 -5.2255 -0.6353 -13.8228
# 3 11.1550 3.5161 87.1532 3.5086 0.2646 -4.9263
# 4 -4.0607 -5.2255 3.5086 28.7050 -6.4656 -5.9107
# 5 -11.2212 -0.6353 0.2646 -6.4656 24.5944 -3.7408
# 6 -8.5302 -13.8228 -4.9263 -5.9107 -3.7408 56.6514
#
#
#
# Elastic Compliance Matrix: (Units=1/GPa)
#
#
# Indices 1 2 3 4 5 6 
#
# 1 0.011139 -0.002974 -0.001353 0.002868 0.006007 0.001530
# 2 -0.002974 0.019631 -0.000319 0.004427 0.001055 0.004846
# 3 -0.001353 -0.000319 0.011765 -0.001853 -0.001168 0.000471
# 4 0.002868 0.004427 -0.001853 0.040549 0.013083 0.006445
# 5 0.006007 0.001055 -0.001168 0.013083 0.047728 0.005577
# 6 0.001530 0.004846 0.000471 0.006445 0.005577 0.020146
#
#
# Mechanical properties :
#
#
# Convention : Reuss Voigt Hill
#
# Bulk Modulus (GPa) = 30.08142 35.45099 32.76621
# Shear Modulus (GPa) = 29.18335 36.39473 32.78904
#
# Velocity S-wave (km/s) = 3.69501 4.12636 3.91662
# Velocity P-wave (km/s) = 5.68131 6.26799 5.98185
#
# Compressibility (1/GPa) = 0.03324311
#
# Stress axis : x y z
#
# Youngs Moduli (GPa) = 89.77377 50.94036 84.99880
#
# Poissons Ratio (x) = 0.15150 0.11500
# Poissons Ratio (y) = 0.26699 0.02710
# Poissons Ratio (z) = 0.12146 0.01624
#
# Static dielectric constant tensor:
#      x y z
#    x 1.771300 0.030040 -0.006140 
#    y 0.030040 1.798170 0.003140 
#    z -0.006140 0.003140 1.792640 
# 
# From -- ./inp_files/447591.got.cif
#   From: 2010.05.17/outbox.cif.g08.bks.cpg/sg2_224_cif.got.tgz:447591.got - 2010.06.03 11:33:40.
