data_PCOD9062263
_publ_section_title
;
Structure prediction by ZEFSAII (Michael W. Deem and Ramdas Pophale) SiO2 
 PCOD9062263
Probable space group: P -1
;
_chemical_formula_sum "Si O2"
_cell_formula_units_Z 16
_cell_length_a 6.264412
_cell_length_b 10.789632
_cell_length_c 11.492641
_cell_angle_alpha 104.545594
_cell_angle_beta 88.244166
_cell_angle_gamma 107.623974
_cell_volume 715.738516
_symmetry_space_group_name_H-M "P -1"
_symmetry_group_IT_number 2
_symmetry_cell_setting 'triclinic'
loop_
_space_group_symop_operation_xyz
x,y,z
-x,-y,-z
loop_
_atom_site_type_symbol
_atom_site_label
_atom_site_fract_x
_atom_site_fract_y
_atom_site_fract_z
Si Si1 0.994285 0.148526 0.065683
Si Si2 0.864930 0.797524 0.378996
Si Si3 0.422688 0.646934 0.261256
Si Si4 0.096475 0.641008 0.470616
Si Si5 0.170575 0.651209 0.038294
Si Si6 0.325102 0.022231 0.412076
Si Si7 0.473169 0.352537 0.164448
Si Si8 0.319879 0.810829 0.717351
O O1 0.932202 0.235659 0.982627
O O2 0.234369 0.240077 0.129441
O O3 0.812786 0.140684 0.168438
O O4 0.000000 0.000000 0.000000
O O5 0.668530 0.754922 0.278307
O O6 0.773995 0.868185 0.502226
O O7 0.907802 0.664756 0.396206
O O8 0.107689 0.895661 0.364312
O O9 0.311219 0.651171 0.389544
O O10 0.263631 0.675490 0.172309
O O11 0.440375 0.497993 0.208645
O O12 0.165149 0.755276 0.595028
O O13 0.000000 0.500000 0.500000
O O14 0.377093 0.652061 0.951369
O O15 0.000000 0.500000 0.000000
O O16 0.464996 0.074852 0.306674
O O17 0.500000 0.000000 0.500000
O O18 0.601129 0.310899 0.260683
#
# Coordination Sequence:
#
# PCOD9062263 Si02
#       8
#     2   2   2   2   2   2   2   2
#     4  11  27  53  75 107 146 202 252 306 379 442
#     4  11  25  43  70 106 150 192 240 291 373 444
#     4  12  25  45  76 112 143 190 250 307 368 447
#     4  12  26  43  71 113 150 189 239 295 376 448
#     4  11  26  50  77 107 148 191 256 318 366 435
#     4  11  23  49  67 103 152 193 241 295 365 450
#     4  11  26  48  75 104 145 195 248 310 374 431
#     4  11  25  46  73 106 147 193 241 310 362 451
#
# _framework density 22.354533
#
# number of rings (size 3 to 8) (size 9 to 14) (size 15 to 20)
#    0.000    0.750    3.750    1.875    7.000    3.000 
#   13.500    0.000    0.000    0.000    0.000    0.000 
#    0.000    0.000    0.000    0.000    0.000    0.000 
#
# Total GULP energy -89613.426174 kJ/mol
# GULP energy per Si atom -5600.839136 kJ/mol
# Density = 2.230365 g / cm^3
# Si number density = 22.354533 Si / 1000 Ang^3
#
#
#
# Elastic Constant Matrix: (Units=GPa)
#
#
# Indices 1 2 3 4 5 6 
#
# 1 116.2653 61.0318 47.0772 3.1883 -0.9867 12.2371
# 2 61.0318 131.2941 53.1707 2.6483 -11.7167 13.7488
# 3 47.0772 53.1707 89.8979 -5.4138 3.7687 4.3688
# 4 3.1883 2.6483 -5.4138 39.2973 5.7553 -7.2809
# 5 -0.9867 -11.7167 3.7687 5.7553 40.4367 6.5014
# 6 12.2371 13.7488 4.3688 -7.2809 6.5014 52.8217
#
#
#
# Elastic Compliance Matrix: (Units=1/GPa)
#
#
# Indices 1 2 3 4 5 6 
#
# 1 0.012634 -0.003879 -0.004342 -0.001715 0.000124 -0.001810
# 2 -0.003879 0.012445 -0.005546 -0.002520 0.004841 -0.002825
# 3 -0.004342 -0.005546 0.016997 0.004080 -0.004220 0.002125
# 4 -0.001715 -0.002520 0.004080 0.028190 -0.006024 0.005343
# 5 0.000124 0.004841 -0.004220 -0.006024 0.028230 -0.005245
# 6 -0.001810 -0.002825 0.002125 0.005343 -0.005245 0.021292
#
#
# Mechanical properties :
#
#
# Convention : Reuss Voigt Hill
#
# Bulk Modulus (GPa) = 68.77479 73.33517 71.05498
# Shear Modulus (GPa) = 32.85772 38.25632 35.55702
#
# Velocity S-wave (km/s) = 3.83802 4.14133 3.99255
# Velocity P-wave (km/s) = 7.10442 7.46620 7.28756
#
# Compressibility (1/GPa) = 0.01454021
#
# Stress axis : x y z
#
# Youngs Moduli (GPa) = 79.15011 80.35617 58.83242
#
# Poissons Ratio (x) = 0.31172 0.25547
# Poissons Ratio (y) = 0.30704 0.32631
# Poissons Ratio (z) = 0.34370 0.44569
#
# Static dielectric constant tensor:
#      x y z
#    x 1.827370 -0.007230 0.031780 
#    y -0.007230 1.817180 -0.010480 
#    z 0.031780 -0.010480 1.824110 
# 
# From -- ./inp_files/69272.got.cif
#   From: 2010.05.17/outbox.cif.g08.bks.cpg/sg2_35_cif.got.tgz:69272.got - 2010.06.03 11:33:40.
