data_PCOD9062301
_publ_section_title
;
Structure prediction by ZEFSAII (Michael W. Deem and Ramdas Pophale) SiO2 
 PCOD9062301
Probable space group: P -1
;
_chemical_formula_sum "Si O2"
_cell_formula_units_Z 10
_cell_length_a 18.380492
_cell_length_b 12.692548
_cell_length_c 9.226918
_cell_angle_alpha 143.468857
_cell_angle_beta 142.751189
_cell_angle_gamma 18.108229
_cell_volume 392.153065
_symmetry_space_group_name_H-M "P -1"
_symmetry_group_IT_number 2
_symmetry_cell_setting 'triclinic'
loop_
_space_group_symop_operation_xyz
x,y,z
-x,-y,-z
loop_
_atom_site_type_symbol
_atom_site_label
_atom_site_fract_x
_atom_site_fract_y
_atom_site_fract_z
Si Si1 0.168600 0.245823 0.122206
Si Si2 0.989569 0.222308 0.358764
Si Si3 0.644640 0.701429 0.102035
Si Si4 0.488822 0.740870 0.595452
Si Si5 0.743725 0.241997 0.185167
O O1 0.116167 0.459877 0.394295
O O2 0.435979 0.916263 0.122012
O O3 0.000000 0.500000 0.000000
O O4 0.122132 0.111035 0.961318
O O5 0.887157 0.340238 0.165255
O O6 0.886902 0.202327 0.276668
O O7 0.271628 0.882545 0.431476
O O8 0.618828 0.943776 0.298942
O O9 0.592828 0.669637 0.834558
O O10 0.672983 0.420215 0.422926
O O11 0.500000 0.500000 0.000000
#
# Coordination Sequence:
#
# PCOD9062301 Si02
#       5
#     2   2   2   2   2
#     4  12  25  50  78 112 152 204 248 311 385 448
#     4  12  25  52  80 109 153 203 251 311 382 448
#     4  11  23  49  78 110 159 195 253 315 374 450
#     4  11  26  48  77 116 150 201 252 315 375 450
#     4  12  27  50  80 113 152 198 258 314 374 454
#
# _framework density 25.500247000000002
#
# number of rings (size 3 to 8) (size 9 to 14) (size 15 to 20)
#    0.000    0.400    6.000    2.400    0.000    2.400 
#    3.600    0.000    0.000    0.000    0.000    0.000 
#    0.000    0.000    0.000    0.000    0.000    0.000 
#
# Total GULP energy -56269.537017 kJ/mol
# GULP energy per Si atom -5626.953702 kJ/mol
# Density = 2.544221 g / cm^3
# Si number density = 25.500247 Si / 1000 Ang^3
#
#
#
# Elastic Constant Matrix: (Units=GPa)
#
#
# Indices 1 2 3 4 5 6 
#
# 1 193.7050 57.8096 88.8877 15.4261 30.5703 8.4976
# 2 57.8096 93.0383 56.0063 5.6325 14.2648 16.8271
# 3 88.8877 56.0063 124.5645 16.2147 0.1424 -2.9515
# 4 15.4261 5.6325 16.2147 50.4625 -1.0910 2.2783
# 5 30.5703 14.2648 0.1424 -1.0910 59.6661 8.4616
# 6 8.4976 16.8271 -2.9515 2.2783 8.4616 50.3176
#
#
#
# Elastic Compliance Matrix: (Units=1/GPa)
#
#
# Indices 1 2 3 4 5 6 
#
# 1 0.008906 -0.001315 -0.005669 -0.000814 -0.004156 -0.000661
# 2 -0.001315 0.017128 -0.007012 0.000936 -0.002604 -0.005522
# 3 -0.005669 -0.007012 0.015646 -0.002591 0.003976 0.003669
# 4 -0.000814 0.000936 -0.002591 0.020874 0.000780 -0.001404
# 5 -0.004156 -0.002604 0.003976 0.000780 0.019736 -0.001548
# 6 -0.000661 -0.005522 0.003669 -0.001404 -0.001548 0.022371
#
#
# Mechanical properties :
#
#
# Convention : Reuss Voigt Hill
#
# Bulk Modulus (GPa) = 73.06163 90.74610 81.90386
# Shear Modulus (GPa) = 36.43894 45.99620 41.21757
#
# Velocity S-wave (km/s) = 3.78427 4.25167 4.02476
# Velocity P-wave (km/s) = 6.91432 7.73084 7.33395
#
# Compressibility (1/GPa) = 0.01368708
#
# Stress axis : x y z
#
# Youngs Moduli (GPa) = 112.28202 58.38465 63.91546
#
# Poissons Ratio (x) = 0.07679 0.36233
# Poissons Ratio (y) = 0.14768 0.44818
# Poissons Ratio (z) = 0.63651 0.40940
#
# Static dielectric constant tensor:
#      x y z
#    x 1.957330 -0.006750 0.009660 
#    y -0.006750 2.020450 -0.001550 
#    z 0.009660 -0.001550 1.994150 
# 
# From -- ./inp_files/148452.got.cif
#   From: 2010.05.17/outbox.cif.g08.bks.cpg/sg2_75_cif.got.tgz:148452.got - 2010.06.03 11:33:40.
