data_PCOD9062370
_publ_section_title
;
Structure prediction by ZEFSAII (Michael W. Deem and Ramdas Pophale) SiO2 
 PCOD9062370
Probable space group: P -1
;
_chemical_formula_sum "Si O2"
_cell_formula_units_Z 16
_cell_length_a 9.388369
_cell_length_b 8.554835
_cell_length_c 15.037425
_cell_angle_alpha 113.293010
_cell_angle_beta 139.754107
_cell_angle_gamma 70.223129
_cell_volume 715.329966
_symmetry_space_group_name_H-M "P -1"
_symmetry_group_IT_number 2
_symmetry_cell_setting 'triclinic'
loop_
_space_group_symop_operation_xyz
x,y,z
-x,-y,-z
loop_
_atom_site_type_symbol
_atom_site_label
_atom_site_fract_x
_atom_site_fract_y
_atom_site_fract_z
Si Si1 0.263403 0.577594 0.698767
Si Si2 0.759417 0.694935 0.692518
Si Si3 0.867936 0.871173 0.302539
Si Si4 0.123614 0.160508 0.394265
Si Si5 0.711793 0.349429 0.479496
Si Si6 0.422757 0.193319 0.699587
Si Si7 0.478768 0.817001 0.993904
Si Si8 0.862589 0.172882 0.001299
O O1 0.313697 0.604038 0.625476
O O2 0.306687 0.382086 0.701739
O O3 0.412114 0.685162 0.858536
O O4 0.016738 0.660418 0.614701
O O5 0.821463 0.837165 0.682431
O O6 0.742664 0.517269 0.592161
O O7 0.514876 0.733061 0.620889
O O8 0.952060 0.694610 0.857790
O O9 0.695916 0.924416 0.311559
O O10 0.074523 0.771664 0.424007
O O11 0.713436 0.766767 0.140741
O O12 0.964880 0.021606 0.325196
O O13 0.346473 0.146731 0.554693
O O14 0.679331 0.205835 0.844734
O O15 0.290587 0.832896 0.984248
O O16 0.500000 0.000000 0.000000
O O17 0.000000 0.000000 0.000000
#
# Coordination Sequence:
#
# PCOD9062370 Si02
#       8
#     2   2   2   2   2   2   2   2
#     4  12  23  44  74 100 138 180 226 296 333 403
#     4  11  25  48  65  97 141 184 226 276 352 406
#     4  11  24  39  70 103 135 177 230 286 341 398
#     4  12  22  43  68 103 139 174 232 283 335 412
#     4  11  26  44  70  99 138 182 228 289 337 411
#     4  11  25  42  72 107 132 180 234 279 349 401
#     4  11  24  44  68 104 137 178 229 281 348 403
#     4  11  27  45  68  97 144 183 220 281 343 411
#
# _framework density 22.367298999999999
#
# number of rings (size 3 to 8) (size 9 to 14) (size 15 to 20)
#    0.000    0.750    5.000    1.500    5.250    1.500 
#    2.250    0.625    0.000    0.000    0.000    0.000 
#    0.000    0.000    0.000    0.000    0.000    0.000 
#
# Total GULP energy -89489.657786 kJ/mol
# GULP energy per Si atom -5593.103612 kJ/mol
# Density = 2.231639 g / cm^3
# Si number density = 22.367299 Si / 1000 Ang^3
#
#
#
# Elastic Constant Matrix: (Units=GPa)
#
#
# Indices 1 2 3 4 5 6 
#
# 1 70.5082 29.0897 43.8856 1.0967 16.7962 0.8795
# 2 29.0897 58.5638 29.2929 1.4872 10.5830 1.0767
# 3 43.8856 29.2929 222.2455 -7.0398 18.1290 -6.5624
# 4 1.0967 1.4872 -7.0398 32.5104 -5.8549 -1.7786
# 5 16.7962 10.5830 18.1290 -5.8549 33.7739 0.3213
# 6 0.8795 1.0767 -6.5624 -1.7786 0.3213 27.8002
#
#
#
# Elastic Compliance Matrix: (Units=1/GPa)
#
#
# Indices 1 2 3 4 5 6 
#
# 1 0.020633 -0.007632 -0.002611 -0.002201 -0.006840 -0.001035
# 2 -0.007632 0.022040 -0.001256 -0.001562 -0.002698 -0.000977
# 3 -0.002611 -0.001256 0.005343 0.001207 -0.000981 0.001481
# 4 -0.002201 -0.001562 0.001207 0.032477 0.006543 0.002417
# 5 -0.006840 -0.002698 -0.000981 0.006543 0.035515 0.000098
# 6 -0.001035 -0.000977 0.001481 0.002417 0.000098 0.036545
#
#
# Mechanical properties :
#
#
# Convention : Reuss Voigt Hill
#
# Bulk Modulus (GPa) = 39.97173 61.76154 50.86663
# Shear Modulus (GPa) = 27.19027 35.42019 31.30523
#
# Velocity S-wave (km/s) = 3.49037 3.98373 3.74518
# Velocity P-wave (km/s) = 5.84405 6.98802 6.44148
#
# Compressibility (1/GPa) = 0.02501768
#
# Stress axis : x y z
#
# Youngs Moduli (GPa) = 48.46619 45.37235 187.17596
#
# Poissons Ratio (x) = 0.34628 0.48866
# Poissons Ratio (y) = 0.36989 0.23513
# Poissons Ratio (z) = 0.12653 0.05700
#
# Static dielectric constant tensor:
#      x y z
#    x 1.817790 0.012220 -0.004810 
#    y 0.012220 1.849180 0.029540 
#    z -0.004810 0.029540 1.850040 
# 
# From -- ./inp_files/495534.got.cif
#   From: 2010.05.17/outbox.cif.g08.bks.cpg/sg2_248_cif.got.tgz:495534.got - 2010.06.03 11:33:40.
