data_PCOD9062746
_publ_section_title
;
Structure prediction by ZEFSAII (Michael W. Deem and Ramdas Pophale) SiO2 
 PCOD9062746
Probable space group: P -1
;
_chemical_formula_sum "Si O2"
_cell_formula_units_Z 16
_cell_length_a 8.247349
_cell_length_b 10.709492
_cell_length_c 19.187164
_cell_angle_alpha 135.400824
_cell_angle_beta 135.704776
_cell_angle_gamma 43.040725
_cell_volume 741.608408
_symmetry_space_group_name_H-M "P -1"
_symmetry_group_IT_number 2
_symmetry_cell_setting 'triclinic'
loop_
_space_group_symop_operation_xyz
x,y,z
-x,-y,-z
loop_
_atom_site_type_symbol
_atom_site_label
_atom_site_fract_x
_atom_site_fract_y
_atom_site_fract_z
Si Si1 0.331562 0.965182 0.222602
Si Si2 0.493498 0.259029 0.456190
Si Si3 0.201838 0.698851 0.179872
Si Si4 0.404439 0.234359 0.576836
Si Si5 0.159213 0.822102 0.926200
Si Si6 0.942005 0.365581 0.604625
Si Si7 0.756000 0.592053 0.152162
Si Si8 0.286947 0.310573 0.974546
O O1 0.282068 0.804298 0.186097
O O2 0.521971 0.817551 0.164846
O O3 0.483403 0.056446 0.351086
O O4 0.057940 0.140611 0.183983
O O5 0.379075 0.316837 0.522545
O O6 0.780256 0.240401 0.522133
O O7 0.290552 0.426565 0.409652
O O8 0.368351 0.719431 0.302587
O O9 0.890413 0.802704 0.125399
O O10 0.262143 0.474058 0.089827
O O11 0.162811 0.303909 0.585974
O O12 0.500000 0.000000 0.500000
O O13 0.270548 0.601193 0.905799
O O14 0.411597 0.839927 0.987360
O O15 0.000000 0.000000 0.000000
O O16 0.060247 0.388818 0.723983
O O17 0.821216 0.557929 0.077549
#
# Coordination Sequence:
#
# PCOD9062746 Si02
#       8
#     2   2   2   2   2   2   2   2
#     4  12  23  43  70  96 138 178 225 277 341 405
#     4  11  25  44  68 106 136 176 234 288 337 413
#     4  11  24  44  66 101 135 179 227 274 347 402
#     4  12  23  44  70  98 138 182 226 283 345 405
#     4  12  23  40  69 100 132 177 225 275 345 397
#     4  11  24  44  72 101 137 178 231 284 347 408
#     4  12  22  44  71  97 136 179 222 281 337 408
#     4  11  24  42  69  99 138 175 225 284 331 412
#
# _framework density 21.574729999999999
#
# number of rings (size 3 to 8) (size 9 to 14) (size 15 to 20)
#    0.000    0.500    6.250    2.250    0.000    3.500 
#    0.000    0.000    0.000    0.000    0.000    0.000 
#    0.000    0.000    0.000    0.000    0.000    0.000 
#
# Total GULP energy -89120.305477 kJ/mol
# GULP energy per Si atom -5570.019092 kJ/mol
# Density = 2.152562 g / cm^3
# Si number density = 21.574730 Si / 1000 Ang^3
#
#
#
# Elastic Constant Matrix: (Units=GPa)
#
#
# Indices 1 2 3 4 5 6 
#
# 1 72.7046 14.5028 52.3593 -2.2689 18.3289 -21.7444
# 2 14.5028 61.5065 29.1073 -5.2835 -0.3871 -19.5920
# 3 52.3593 29.1073 162.1176 -10.6900 19.3497 -19.9346
# 4 -2.2689 -5.2835 -10.6900 24.2970 4.0479 -1.0572
# 5 18.3289 -0.3871 19.3497 4.0479 37.9262 -12.2890
# 6 -21.7444 -19.5920 -19.9346 -1.0572 -12.2890 27.4770
#
#
#
# Elastic Compliance Matrix: (Units=1/GPa)
#
#
# Indices 1 2 3 4 5 6 
#
# 1 0.022205 0.001537 -0.005279 0.001307 -0.003903 0.013143
# 2 0.001537 0.023791 -0.002978 0.003702 0.006854 0.019228
# 3 -0.005279 -0.002978 0.008809 0.003130 -0.002619 -0.000961
# 4 0.001307 0.003702 0.003130 0.044563 -0.005222 0.005323
# 5 -0.003903 0.006854 -0.002619 -0.005222 0.035223 0.015452
# 6 0.013143 0.019228 -0.000961 0.005323 0.015452 0.066923
#
#
# Mechanical properties :
#
#
# Convention : Reuss Voigt Hill
#
# Bulk Modulus (GPa) = 24.17534 54.25196 39.21365
# Shear Modulus (GPa) = 21.85858 31.29732 26.57795
#
# Velocity S-wave (km/s) = 3.18647 3.81287 3.51365
# Velocity P-wave (km/s) = 4.97673 6.67717 5.88865
#
# Compressibility (1/GPa) = 0.04136447
#
# Stress axis : x y z
#
# Youngs Moduli (GPa) = 45.03436 42.03263 113.52258
#
# Poissons Ratio (x) = -0.06459 0.59934
# Poissons Ratio (y) = -0.06921 0.33802
# Poissons Ratio (z) = 0.23776 0.12516
#
# Static dielectric constant tensor:
#      x y z
#    x 1.981260 -0.050040 0.030800 
#    y -0.050040 1.821070 -0.030200 
#    z 0.030800 -0.030200 1.828510 
# 
# From -- ./inp_files/589648.got.cif
#   From: 2010.05.17/outbox.cif.g08.bks.cpg/sg2_295_cif.got.tgz:589648.got - 2010.06.03 11:33:40.
