data_PCOD9062240
_publ_section_title
;
Structure prediction by ZEFSAII (Michael W. Deem and Ramdas Pophale) SiO2 
 PCOD9062240
Probable space group: P -1
;
_chemical_formula_sum "Si O2"
_cell_formula_units_Z 12
_cell_length_a 16.082450
_cell_length_b 13.785463
_cell_length_c 9.411395
_cell_angle_alpha 54.049023
_cell_angle_beta 139.310216
_cell_angle_gamma 158.132552
_cell_volume 444.444229
_symmetry_space_group_name_H-M "P -1"
_symmetry_group_IT_number 2
_symmetry_cell_setting 'triclinic'
loop_
_space_group_symop_operation_xyz
x,y,z
-x,-y,-z
loop_
_atom_site_type_symbol
_atom_site_label
_atom_site_fract_x
_atom_site_fract_y
_atom_site_fract_z
Si Si1 0.900867 0.068442 0.658918
Si Si2 0.439673 0.282683 0.995441
Si Si3 0.785657 0.059747 0.224089
Si Si4 0.949284 0.468455 0.792323
Si Si5 0.241825 0.933107 0.250182
Si Si6 0.409258 0.463430 0.574392
O O1 0.734375 0.940593 0.402569
O O2 0.861825 0.140120 0.660195
O O3 0.726119 0.807325 0.728580
O O4 0.271360 0.401772 0.825841
O O5 0.343159 0.295598 0.738987
O O6 0.469161 0.188051 0.014965
O O7 0.218945 0.037466 0.042350
O O8 0.819615 0.220696 0.196036
O O9 0.116117 0.301952 0.367132
O O10 0.955776 0.340850 0.846654
O O11 0.614519 0.225005 0.501499
O O12 0.000000 0.500000 0.000000
O O13 0.500000 0.500000 0.500000
#
# Coordination Sequence:
#
# PCOD9062240 Si02
#       6
#     2   2   2   2   2   2
#     4  12  26  47  71 111 146 184 244 292 364 425
#     4  12  26  45  75 107 144 189 239 296 354 431
#     4  12  26  49  71 109 145 188 245 294 356 432
#     4  11  23  48  76 100 147 189 235 303 354 422
#     4  11  26  46  75 108 142 188 243 294 360 422
#     4  12  27  47  75 105 149 192 238 294 362 427
#
# _framework density 27.000014
#
# number of rings (size 3 to 8) (size 9 to 14) (size 15 to 20)
#    0.000    0.333    6.667    1.000    2.333    4.667 
#    0.000    1.667    0.000    0.000    0.000    0.000 
#    0.000    0.000    0.000    0.000    0.000    0.000 
#
# Total GULP energy -66983.502329 kJ/mol
# GULP energy per Si atom -5581.958527 kJ/mol
# Density = 2.693856 g / cm^3
# Si number density = 27.000014 Si / 1000 Ang^3
#
#
#
# Elastic Constant Matrix: (Units=GPa)
#
#
# Indices 1 2 3 4 5 6 
#
# 1 151.3370 57.4306 38.4443 5.2978 -35.4171 -7.9504
# 2 57.4306 136.0959 34.5869 0.7692 9.8199 -33.3696
# 3 38.4443 34.5869 87.3820 -4.8859 -30.9478 4.4814
# 4 5.2978 0.7692 -4.8859 50.3042 -4.9254 -17.1231
# 5 -35.4171 9.8199 -30.9478 -4.9254 53.8589 12.2334
# 6 -7.9504 -33.3696 4.4814 -17.1231 12.2334 49.3955
#
#
#
# Elastic Compliance Matrix: (Units=1/GPa)
#
#
# Indices 1 2 3 4 5 6 
#
# 1 0.011724 -0.008613 0.003019 -0.002346 0.012652 -0.008152
# 2 -0.008613 0.020665 -0.012603 0.004254 -0.020911 0.020371
# 3 0.003019 -0.012603 0.023352 -0.001160 0.021183 -0.015795
# 4 -0.002346 0.004254 -0.001160 0.023568 -0.003471 0.011631
# 5 0.012652 -0.020911 0.021183 -0.003471 0.048752 -0.027290
# 6 -0.008152 0.020371 -0.015795 0.011631 -0.027290 0.044918
#
#
# Mechanical properties :
#
#
# Convention : Reuss Voigt Hill
#
# Bulk Modulus (GPa) = 51.69006 70.63759 61.16383
# Shear Modulus (GPa) = 23.16731 47.00195 35.08463
#
# Velocity S-wave (km/s) = 2.93242 4.17683 3.60867
# Velocity P-wave (km/s) = 5.53638 7.03421 6.32975
#
# Compressibility (1/GPa) = 0.01934608
#
# Stress axis : x y z
#
# Youngs Moduli (GPa) = 85.29373 48.39147 42.82347
#
# Poissons Ratio (x) = 0.41680 -0.12927
# Poissons Ratio (y) = 0.73464 0.53970
# Poissons Ratio (z) = -0.25748 0.60988
#
# Static dielectric constant tensor:
#      x y z
#    x 2.184080 -0.008840 0.153240 
#    y -0.008840 2.194290 0.004360 
#    z 0.153240 0.004360 2.220920 
# 
# From -- ./inp_files/33401.got.cif
#   From: 2010.05.17/outbox.cif.g08.bks.cpg/sg2_17_cif.got.tgz:33401.got - 2010.06.03 11:33:40.
