data_PCOD9062742
_publ_section_title
;
Structure prediction by ZEFSAII (Michael W. Deem and Ramdas Pophale) SiO2 
 PCOD9062742
Probable space group: P -1
;
_chemical_formula_sum "Si O2"
_cell_formula_units_Z 16
_cell_length_a 16.641642
_cell_length_b 9.444769
_cell_length_c 9.715848
_cell_angle_alpha 120.629504
_cell_angle_beta 29.605680
_cell_angle_gamma 115.665909
_cell_volume 648.998938
_symmetry_space_group_name_H-M "P -1"
_symmetry_group_IT_number 2
_symmetry_cell_setting 'triclinic'
loop_
_space_group_symop_operation_xyz
x,y,z
-x,-y,-z
loop_
_atom_site_type_symbol
_atom_site_label
_atom_site_fract_x
_atom_site_fract_y
_atom_site_fract_z
Si Si1 0.834403 0.096125 0.759535
Si Si2 0.320978 0.516417 0.112921
Si Si3 0.783455 0.476714 0.045610
Si Si4 0.723353 0.038085 0.329291
Si Si5 0.312934 0.040284 0.338815
Si Si6 0.361510 0.151300 0.895107
Si Si7 0.894522 0.342871 0.265327
Si Si8 0.322220 0.416115 0.469197
O O1 0.832062 0.284982 0.900746
O O2 0.795984 0.080555 0.647794
O O3 0.000000 0.000000 0.500000
O O4 0.694892 0.993379 0.992752
O O5 0.264007 0.510318 0.036639
O O6 0.219833 0.639011 0.420725
O O7 0.302710 0.333420 0.111425
O O8 0.508972 0.562200 0.850440
O O9 0.932058 0.594544 0.917476
O O10 0.653095 0.529979 0.382102
O O11 0.557471 0.144084 0.594017
O O12 0.875359 0.157402 0.148737
O O13 0.710382 0.975925 0.472508
O O14 0.716065 0.892864 0.158340
O O15 0.275205 0.226948 0.442105
O O16 0.500000 0.000000 0.000000
O O17 0.815662 0.465806 0.331386
#
# Coordination Sequence:
#
# PCOD9062742 Si02
#       8
#     2   2   2   2   2   2   2   2
#     4  12  26  46  70 101 141 182 224 280 350 409
#     4  12  25  43  71 103 136 181 230 281 340 407
#     4  12  27  46  69 102 143 181 225 285 345 408
#     4  11  24  42  69  99 134 178 224 283 337 400
#     4  12  24  43  70 103 137 178 233 284 334 405
#     4  11  24  43  68  99 136 174 227 280 343 401
#     4  12  25  46  69 100 137 182 229 279 342 409
#     4  12  25  44  70 103 137 181 232 282 340 408
#
# _framework density 24.653352999999999
#
# number of rings (size 3 to 8) (size 9 to 14) (size 15 to 20)
#    0.000    0.250    2.500    7.500    1.750    2.000 
#    0.000    1.875    0.000    0.000    0.000    0.000 
#    0.000    0.000    0.000    0.000    0.000    0.000 
#
# Total GULP energy -89787.478421 kJ/mol
# GULP energy per Si atom -5611.717401 kJ/mol
# Density = 2.459724 g / cm^3
# Si number density = 24.653353 Si / 1000 Ang^3
#
#
#
# Elastic Constant Matrix: (Units=GPa)
#
#
# Indices 1 2 3 4 5 6 
#
# 1 134.5898 17.2195 17.2351 -17.1283 18.5753 14.5544
# 2 17.2195 127.9868 11.4083 -8.9908 -1.2911 11.6775
# 3 17.2351 11.4083 55.9188 -3.2192 9.3657 11.3409
# 4 -17.1283 -8.9908 -3.2192 25.5196 3.4772 3.7156
# 5 18.5753 -1.2911 9.3657 3.4772 41.4896 -4.2341
# 6 14.5544 11.6775 11.3409 3.7156 -4.2341 41.5689
#
#
#
# Elastic Compliance Matrix: (Units=1/GPa)
#
#
# Indices 1 2 3 4 5 6 
#
# 1 0.009746 -0.000365 -0.000720 0.007676 -0.005298 -0.004339
# 2 -0.000365 0.008355 -0.001018 0.002861 0.000191 -0.002178
# 3 -0.000720 -0.001018 0.020579 0.003328 -0.005237 -0.005907
# 4 0.007676 0.002861 0.003328 0.048417 -0.009142 -0.009658
# 5 -0.005298 0.000191 -0.005237 -0.009142 0.029145 0.007016
# 6 -0.004339 -0.002178 -0.005907 -0.009658 0.007016 0.029377
#
#
# Mechanical properties :
#
#
# Convention : Reuss Voigt Hill
#
# Bulk Modulus (GPa) = 29.00723 45.58013 37.29368
# Shear Modulus (GPa) = 30.99498 39.89111 35.44304
#
# Velocity S-wave (km/s) = 3.54959 4.02690 3.79576
# Velocity P-wave (km/s) = 5.34706 6.33639 5.86263
#
# Compressibility (1/GPa) = 0.03447417
#
# Stress axis : x y z
#
# Youngs Moduli (GPa) = 102.60365 119.69215 48.59243
#
# Poissons Ratio (x) = 0.04374 0.03499
# Poissons Ratio (y) = 0.03750 0.04945
# Poissons Ratio (z) = 0.07388 0.12179
#
# Static dielectric constant tensor:
#      x y z
#    x 1.944700 -0.044960 0.007810 
#    y -0.044960 1.931710 -0.013530 
#    z 0.007810 -0.013530 1.957050 
# 
# From -- ./inp_files/299079.got.cif
#   From: 2010.05.17/outbox.cif.g08.bks.cpg/sg2_150_cif.got.tgz:299079.got - 2010.06.03 11:33:40.
