data_PCOD9062034
_publ_section_title
;
Structure prediction by ZEFSAII (Michael W. Deem and Ramdas Pophale) SiO2 
 PCOD9062034
Probable space group: P -1
;
_chemical_formula_sum "Si O2"
_cell_formula_units_Z 16
_cell_length_a 11.191459
_cell_length_b 5.768559
_cell_length_c 12.405561
_cell_angle_alpha 78.480574
_cell_angle_beta 75.623810
_cell_angle_gamma 57.458380
_cell_volume 651.857081
_symmetry_space_group_name_H-M "P -1"
_symmetry_group_IT_number 2
_symmetry_cell_setting 'triclinic'
loop_
_space_group_symop_operation_xyz
x,y,z
-x,-y,-z
loop_
_atom_site_type_symbol
_atom_site_label
_atom_site_fract_x
_atom_site_fract_y
_atom_site_fract_z
Si Si1 0.966487 0.307737 0.448919
Si Si2 0.434569 0.905227 0.928683
Si Si3 0.586745 0.077774 0.555324
Si Si4 0.235841 0.113243 0.266465
Si Si5 0.705985 0.393363 0.382484
Si Si6 0.909029 0.415327 0.897721
Si Si7 0.181013 0.463834 0.852599
Si Si8 0.690005 0.337925 0.857520
O O1 0.800242 0.462102 0.436366
O O2 0.000000 0.500000 0.500000
O O3 0.075416 0.237651 0.332990
O O4 0.000000 0.000000 0.500000
O O5 0.563674 0.656310 0.857742
O O6 0.329875 0.175355 0.860056
O O7 0.347984 0.781561 0.018379
O O8 0.500000 0.000000 0.000000
O O9 0.694225 0.143350 0.458335
O O10 0.458039 0.359656 0.610111
O O11 0.500000 0.000000 0.500000
O O12 0.676382 0.875816 0.652124
O O13 0.206985 0.276024 0.145644
O O14 0.312353 0.800050 0.240005
O O15 0.787168 0.357674 0.254714
O O16 0.854420 0.260803 0.846969
O O17 0.063921 0.379245 0.854823
O O18 0.875260 0.391552 0.031758
#
# Coordination Sequence:
#
# PCOD9062034 Si02
#       8
#     2   2   2   2   2   2   2   2
#     4  12  27  51  80 114 157 209 275 335 406 490
#     4  11  23  47  69 105 157 200 263 310 379 480
#     4  11  27  52  74 107 149 198 267 334 398 473
#     4  12  25  48  78 108 155 196 261 328 399 479
#     4  11  26  47  73 113 147 205 259 324 405 466
#     4  11  25  46  71 113 156 197 252 312 397 472
#     4  11  24  48  70 108 162 197 253 325 384 484
#     4  11  25  43  73 110 143 208 258 313 399 462
#
# _framework density 24.545256999999999
#
# number of rings (size 3 to 8) (size 9 to 14) (size 15 to 20)
#    0.000    0.750    5.000    0.750    5.250    2.500 
#    2.250    0.000    0.000    0.000    0.000    0.000 
#    0.000    0.000    0.000    0.000    0.000    0.000 
#
# Total GULP energy -89402.957705 kJ/mol
# GULP energy per Si atom -5587.684857 kJ/mol
# Density = 2.448939 g / cm^3
# Si number density = 24.545257 Si / 1000 Ang^3
#
#
#
# Elastic Constant Matrix: (Units=GPa)
#
#
# Indices 1 2 3 4 5 6 
#
# 1 169.8874 19.6227 55.5643 -6.1093 9.8304 3.5251
# 2 19.6227 54.4348 23.7970 8.1994 4.3784 -2.1031
# 3 55.5643 23.7970 126.5090 -3.4129 -13.2285 7.7047
# 4 -6.1093 8.1994 -3.4129 34.7952 -0.7379 3.2878
# 5 9.8304 4.3784 -13.2285 -0.7379 48.8332 -0.8354
# 6 3.5251 -2.1031 7.7047 3.2878 -0.8354 34.9176
#
#
#
# Elastic Compliance Matrix: (Units=1/GPa)
#
#
# Indices 1 2 3 4 5 6 
#
# 1 0.007227 -0.001269 -0.003111 0.001244 -0.002170 -0.000289
# 2 -0.001269 0.021940 -0.004214 -0.006141 -0.002897 0.002888
# 3 -0.003111 -0.004214 0.010662 0.001799 0.003879 -0.002369
# 4 0.001244 -0.006141 0.001799 0.030964 0.001191 -0.003779
# 5 -0.002170 -0.002897 0.003879 0.001191 0.022236 -0.000391
# 6 -0.000289 0.002888 -0.002369 -0.003779 -0.000391 0.029711
#
#
# Mechanical properties :
#
#
# Convention : Reuss Voigt Hill
#
# Bulk Modulus (GPa) = 44.16916 60.97768 52.57342
# Shear Modulus (GPa) = 33.90403 40.49901 37.20152
#
# Velocity S-wave (km/s) = 3.72060 4.06639 3.89733
# Velocity P-wave (km/s) = 6.04079 6.85159 6.45893
#
# Compressibility (1/GPa) = 0.02264023
#
# Stress axis : x y z
#
# Youngs Moduli (GPa) = 138.37696 45.57926 93.79010
#
# Poissons Ratio (x) = 0.05784 0.29179
# Poissons Ratio (y) = 0.17560 0.39524
# Poissons Ratio (z) = 0.43050 0.19207
#
# Static dielectric constant tensor:
#      x y z
#    x 1.992810 0.127740 -0.043890 
#    y 0.127740 2.116200 -0.076850 
#    z -0.043890 -0.076850 1.967810 
# 
# From -- ./inp_files/410253.got.cif
#   From: 2010.05.17/outbox.cif.g08.bks.cpg/sg2_206_cif.got.tgz:410253.got - 2010.06.03 11:33:40.
