data_PCOD9062345
_publ_section_title
;
Structure prediction by ZEFSAII (Michael W. Deem and Ramdas Pophale) SiO2 
 PCOD9062345
Probable space group: P -1
;
_chemical_formula_sum "Si O2"
_cell_formula_units_Z 12
_cell_length_a 10.094882
_cell_length_b 7.118659
_cell_length_c 10.248628
_cell_angle_alpha 87.087032
_cell_angle_beta 75.583120
_cell_angle_gamma 41.899118
_cell_volume 465.940377
_symmetry_space_group_name_H-M "P -1"
_symmetry_group_IT_number 2
_symmetry_cell_setting 'triclinic'
loop_
_space_group_symop_operation_xyz
x,y,z
-x,-y,-z
loop_
_atom_site_type_symbol
_atom_site_label
_atom_site_fract_x
_atom_site_fract_y
_atom_site_fract_z
Si Si1 0.761475 0.756043 0.597081
Si Si2 0.763836 0.335694 0.239833
Si Si3 0.397812 0.299229 0.960585
Si Si4 0.594566 0.147958 0.381566
Si Si5 0.067829 0.194398 0.897673
Si Si6 0.822875 0.915333 0.836860
O O1 0.625214 0.706727 0.619485
O O2 0.000000 0.500000 0.500000
O O3 0.642729 0.020223 0.517342
O O4 0.775506 0.819967 0.736911
O O5 0.619320 0.347326 0.356669
O O6 0.666287 0.613314 0.179599
O O7 0.837034 0.115441 0.116098
O O8 0.982386 0.164226 0.258243
O O9 0.178914 0.557093 0.079171
O O10 0.101918 0.235428 0.034019
O O11 0.595640 0.235118 0.915748
O O12 0.500000 0.000000 0.000000
O O13 0.784591 0.875113 0.249623
#
# Coordination Sequence:
#
# PCOD9062345 Si02
#       6
#     2   2   2   2   2   2
#     4  11  26  46  69 103 140 191 243 294 351 427
#     4   9  23  47  69 102 151 185 226 298 364 423
#     4  11  24  38  68 112 142 178 235 295 351 421
#     4   9  24  47  69  97 146 190 230 292 361 420
#     4   9  23  45  70 102 149 182 228 296 363 420
#     4  11  24  40  70 109 135 185 243 290 350 429
#
# _framework density 25.754366000000001
#
# number of rings (size 3 to 8) (size 9 to 14) (size 15 to 20)
#    1.000    1.000    0.000    2.000    4.667   12.667 
#    0.000    1.667    0.000    0.000    0.000    0.000 
#    0.000    0.000    0.000    0.000    0.000    0.000 
#
# Total GULP energy -66933.893649 kJ/mol
# GULP energy per Si atom -5577.824471 kJ/mol
# Density = 2.569575 g / cm^3
# Si number density = 25.754366 Si / 1000 Ang^3
#
#
#
# Elastic Constant Matrix: (Units=GPa)
#
#
# Indices 1 2 3 4 5 6 
#
# 1 192.3908 45.5283 61.7739 9.2304 -29.4888 -28.4708
# 2 45.5283 99.5084 39.5666 6.4587 -7.0588 -10.9664
# 3 61.7739 39.5666 170.9473 6.2725 -11.8538 -4.6576
# 4 9.2304 6.4587 6.2725 34.4102 -9.5938 -18.7165
# 5 -29.4888 -7.0588 -11.8538 -9.5938 56.8067 5.1338
# 6 -28.4708 -10.9664 -4.6576 -18.7165 5.1338 39.1374
#
#
#
# Elastic Compliance Matrix: (Units=1/GPa)
#
#
# Indices 1 2 3 4 5 6 
#
# 1 0.007466 -0.001975 -0.001967 0.002579 0.003162 0.005462
# 2 -0.001975 0.011929 -0.001999 -0.000646 -0.000194 0.001385
# 3 -0.001967 -0.001999 0.007032 -0.001322 0.000137 -0.001805
# 4 0.002579 -0.000646 -0.001322 0.041689 0.006156 0.020667
# 5 0.003162 -0.000194 0.000137 0.006156 0.020056 0.002575
# 6 0.005462 0.001385 -0.001805 0.020667 0.002575 0.039244
#
#
# Mechanical properties :
#
#
# Convention : Reuss Voigt Hill
#
# Bulk Modulus (GPa) = 68.75775 84.06490 76.41133
# Shear Modulus (GPa) = 34.68674 47.13603 40.91138
#
# Velocity S-wave (km/s) = 3.67390 4.28274 3.98995
# Velocity P-wave (km/s) = 6.68971 7.56093 7.13862
#
# Compressibility (1/GPa) = 0.01454381
#
# Stress axis : x y z
#
# Youngs Moduli (GPa) = 133.94041 83.83180 142.19989
#
# Poissons Ratio (x) = 0.16555 0.27977
# Poissons Ratio (y) = 0.26450 0.28431
# Poissons Ratio (z) = 0.26352 0.16761
#
# Static dielectric constant tensor:
#      x y z
#    x 2.111820 0.044950 -0.075790 
#    y 0.044950 2.084270 0.033490 
#    z -0.075790 0.033490 2.078900 
# 
# From -- ./inp_files/488369.got.cif
#   From: 2010.05.17/outbox.cif.g08.bks.cpg/sg2_245_cif.got.tgz:488369.got - 2010.06.03 11:33:40.
