data_PCOD9062777
_publ_section_title
;
Structure prediction by ZEFSAII (Michael W. Deem and Ramdas Pophale) SiO2 
 PCOD9062777
Probable space group: P -1
;
_chemical_formula_sum "Si O2"
_cell_formula_units_Z 16
_cell_length_a 18.162745
_cell_length_b 9.292799
_cell_length_c 6.698891
_cell_angle_alpha 47.695107
_cell_angle_beta 90.100276
_cell_angle_gamma 98.465843
_cell_volume 819.737561
_symmetry_space_group_name_H-M "P -1"
_symmetry_group_IT_number 2
_symmetry_cell_setting 'triclinic'
loop_
_space_group_symop_operation_xyz
x,y,z
-x,-y,-z
loop_
_atom_site_type_symbol
_atom_site_label
_atom_site_fract_x
_atom_site_fract_y
_atom_site_fract_z
Si Si1 0.205890 0.832045 0.517921
Si Si2 0.551110 0.552475 0.255072
Si Si3 0.959380 0.183944 0.326334
Si Si4 0.051747 0.524137 0.283161
Si Si5 0.290976 0.161424 0.909983
Si Si6 0.302711 0.821629 0.919355
Si Si7 0.456319 0.780198 0.750250
Si Si8 0.209618 0.507189 0.492822
O O1 0.121381 0.862627 0.522566
O O2 0.243495 0.815067 0.746914
O O3 0.202614 0.630440 0.579584
O O4 0.256407 0.011106 0.226783
O O5 0.500000 0.500000 0.500000
O O6 0.631847 0.689428 0.173012
O O7 0.560250 0.352942 0.324941
O O8 0.506837 0.672889 0.993847
O O9 0.014324 0.355464 0.286941
O O10 0.946529 0.269603 0.026500
O O11 0.000000 0.000000 0.500000
O O12 0.133535 0.498444 0.376720
O O13 0.000000 0.500000 0.500000
O O14 0.230798 0.296326 0.729883
O O15 0.306508 0.023673 0.855063
O O16 0.380449 0.798750 0.844164
O O17 0.275148 0.641297 0.238866
O O18 0.500000 0.000000 0.500000
#
# Coordination Sequence:
#
# PCOD9062777 Si02
#       8
#     2   2   2   2   2   2   2   2
#     4  11  24  43  62  94 134 165 219 264 323 382
#     4  11  24  44  66 100 130 168 220 257 320 383
#     4  11  26  42  66  97 127 170 215 272 320 381
#     4  11  24  44  66  94 129 170 219 262 326 380
#     4  11  26  40  66  97 126 174 212 263 322 383
#     4  11  24  43  63  95 132 166 216 263 323 379
#     4  11  24  42  70  95 130 170 209 270 315 380
#     4  11  24  43  65  92 131 173 211 269 318 384
#
# _framework density 19.518443999999999
#
# number of rings (size 3 to 8) (size 9 to 14) (size 15 to 20)
#    0.000    1.000    2.500    3.000    3.500    8.500 
#    0.000    0.000    0.000    0.000    0.000    0.000 
#    0.000    0.000    0.000    0.000    0.000    0.000 
#
# Total GULP energy -89493.631491 kJ/mol
# GULP energy per Si atom -5593.351968 kJ/mol
# Density = 1.947402 g / cm^3
# Si number density = 19.518444 Si / 1000 Ang^3
#
#
#
# Elastic Constant Matrix: (Units=GPa)
#
#
# Indices 1 2 3 4 5 6 
#
# 1 85.7598 31.4980 12.0005 -2.0913 -12.8977 -11.2150
# 2 31.4980 103.9312 48.8505 5.4418 -2.4977 -9.1640
# 3 12.0005 48.8505 75.7055 1.7128 -3.3931 -15.1658
# 4 -2.0913 5.4418 1.7128 29.4262 -3.1756 2.5756
# 5 -12.8977 -2.4977 -3.3931 -3.1756 38.9811 3.5791
# 6 -11.2150 -9.1640 -15.1658 2.5756 3.5791 42.4507
#
#
#
# Elastic Compliance Matrix: (Units=1/GPa)
#
#
# Indices 1 2 3 4 5 6 
#
# 1 0.014300 -0.004819 0.001556 0.002055 0.004469 0.002792
# 2 -0.004819 0.015558 -0.009484 -0.002747 -0.001555 -0.001005
# 3 0.001556 -0.009484 0.020223 0.000338 0.001193 0.005468
# 4 0.002055 -0.002747 0.000338 0.035216 0.003620 -0.002371
# 5 0.004469 -0.001555 0.001193 0.003620 0.027548 -0.001271
# 6 0.002792 -0.001005 0.005468 -0.002371 -0.001271 0.026282
#
#
# Mechanical properties :
#
#
# Convention : Reuss Voigt Hill
#
# Bulk Modulus (GPa) = 40.67204 50.01051 45.34128
# Shear Modulus (GPa) = 28.93231 33.70810 31.32020
#
# Velocity S-wave (km/s) = 3.85425 4.16021 4.01015
# Velocity P-wave (km/s) = 6.37887 6.98243 6.68746
#
# Compressibility (1/GPa) = 0.02458691
#
# Stress axis : x y z
#
# Youngs Moduli (GPa) = 69.92941 64.27596 49.44794
#
# Poissons Ratio (x) = 0.30976 -0.07694
# Poissons Ratio (y) = 0.33701 0.46896
# Poissons Ratio (z) = -0.10882 0.60959
#
# Static dielectric constant tensor:
#      x y z
#    x 1.661000 0.005410 -0.001740 
#    y 0.005410 1.657250 0.006880 
#    z -0.001740 0.006880 1.665730 
# 
# From -- ./inp_files/14288.got.cif
#   From: 2010.05.17/outbox.cif.g08.bks.cpg/sg2_8_cif.got.tgz:14288.got - 2010.06.03 11:33:40.
