data_PCOD9062139
_publ_section_title
;
Structure prediction by ZEFSAII (Michael W. Deem and Ramdas Pophale) SiO2 
 PCOD9062139
Probable space group: P -1
;
_chemical_formula_sum "Si O2"
_cell_formula_units_Z 15
_cell_length_a 11.156380
_cell_length_b 18.007810
_cell_length_c 11.817667
_cell_angle_alpha 159.678202
_cell_angle_beta 119.724319
_cell_angle_gamma 50.263409
_cell_volume 584.369565
_symmetry_space_group_name_H-M "P -1"
_symmetry_group_IT_number 2
_symmetry_cell_setting 'triclinic'
loop_
_space_group_symop_operation_xyz
x,y,z
-x,-y,-z
loop_
_atom_site_type_symbol
_atom_site_label
_atom_site_fract_x
_atom_site_fract_y
_atom_site_fract_z
Si Si1 0.725868 0.947622 0.182314
Si Si2 0.811153 0.318651 0.758143
Si Si3 0.478621 0.764947 0.141441
Si Si4 0.643328 0.512418 0.190609
Si Si5 0.191361 0.256408 0.324275
Si Si6 0.663034 0.222486 0.146021
Si Si7 0.896852 0.404882 0.572475
Si Si8 0.000000 0.500000 0.000000
O O1 0.845284 0.041989 0.400549
O O2 0.538591 0.214601 0.485306
O O3 0.776137 0.852431 0.941372
O O4 0.750479 0.716859 0.939522
O O5 0.968960 0.318313 0.801355
O O6 0.669273 0.495603 0.846415
O O7 0.715169 0.489394 0.067672
O O8 0.500000 0.000000 0.500000
O O9 0.383024 0.714324 0.121363
O O10 0.368248 0.811982 0.047342
O O11 0.771551 0.524412 0.347529
O O12 0.022987 0.354066 0.455581
O O13 0.325338 0.004470 0.101834
O O14 0.500000 0.500000 0.500000
O O15 0.817715 0.242882 0.278669
O O16 0.982453 0.366462 0.679621
#
# Coordination Sequence:
#
# PCOD9062139 Si02
#       8
#     2   2   2   2   2   2   2   1
#     4  11  24  45  76 104 151 193 261 307 378 453
#     4  11  25  47  70 112 147 202 251 317 376 451
#     4  11  24  43  74 111 144 193 250 312 370 443
#     4  11  23  47  75 111 151 198 256 311 376 455
#     4  12  24  47  72 111 156 199 246 312 387 454
#     4  12  25  45  74 110 148 197 257 309 379 439
#     4  12  27  48  73 111 153 206 247 320 383 452
#     4  12  26  48  70 104 162 186 262 304 388 444
#
# _framework density 25.668689000000001
#
# number of rings (size 3 to 8) (size 9 to 14) (size 15 to 20)
#    0.000    0.533    1.333    8.400    0.000    3.733 
#    2.400    0.000    0.000    0.000    0.000    0.000 
#    0.000    0.000    0.000    0.000    0.000    0.000 
#
# Total GULP energy -83725.675332 kJ/mol
# GULP energy per Si atom -5581.711689 kJ/mol
# Density = 2.561027 g / cm^3
# Si number density = 25.668689 Si / 1000 Ang^3
#
#
#
# Elastic Constant Matrix: (Units=GPa)
#
#
# Indices 1 2 3 4 5 6 
#
# 1 93.1634 7.8468 50.8442 -15.1261 17.5831 22.4615
# 2 7.8468 104.5914 43.3626 -20.7685 -12.9792 19.4486
# 3 50.8442 43.3626 103.6769 -13.4710 23.8570 1.2704
# 4 -15.1261 -20.7685 -13.4710 60.3685 -0.9184 3.3609
# 5 17.5831 -12.9792 23.8570 -0.9184 58.6076 -8.0299
# 6 22.4615 19.4486 1.2704 3.3609 -8.0299 30.8323
#
#
#
# Elastic Compliance Matrix: (Units=1/GPa)
#
#
# Indices 1 2 3 4 5 6 
#
# 1 0.026941 0.010922 -0.015663 0.008502 -0.002931 -0.027561
# 2 0.010922 0.020039 -0.013405 0.007806 0.004021 -0.019849
# 3 -0.015663 -0.013405 0.023382 -0.004402 -0.005393 0.017978
# 4 0.008502 0.007806 -0.004402 0.021135 -0.000532 -0.013379
# 5 -0.002931 0.004021 -0.005393 -0.000532 0.021780 0.005551
# 6 -0.027561 -0.019849 0.017978 -0.013379 0.005551 0.067195
#
#
# Mechanical properties :
#
#
# Convention : Reuss Voigt Hill
#
# Bulk Modulus (GPa) = 29.35224 56.17098 42.76161
# Shear Modulus (GPa) = 21.91814 43.25357 32.58585
#
# Velocity S-wave (km/s) = 2.92530 4.10942 3.56684
# Velocity P-wave (km/s) = 4.78223 6.66686 5.80158
#
# Compressibility (1/GPa) = 0.03406895
#
# Stress axis : x y z
#
# Youngs Moduli (GPa) = 37.11876 49.90264 42.76727
#
# Poissons Ratio (x) = -0.54504 0.66987
# Poissons Ratio (y) = -0.40542 0.57331
# Poissons Ratio (z) = 0.58140 0.66896
#
# Static dielectric constant tensor:
#      x y z
#    x 2.031610 -0.058610 -0.039510 
#    y -0.058610 2.201620 -0.007010 
#    z -0.039510 -0.007010 2.019470 
# 
# From -- ./inp_files/437471.got.cif
#   From: 2010.05.17/outbox.cif.g08.bks.cpg/sg2_219_cif.got.tgz:437471.got - 2010.06.03 11:33:40.
