data_PCOD9062585
_publ_section_title
;
Structure prediction by ZEFSAII (Michael W. Deem and Ramdas Pophale) SiO2 
 PCOD9062585
Probable space group: P -1
;
_chemical_formula_sum "Si O2"
_cell_formula_units_Z 16
_cell_length_a 12.148011
_cell_length_b 13.411977
_cell_length_c 9.340126
_cell_angle_alpha 108.185623
_cell_angle_beta 29.935423
_cell_angle_gamma 102.131307
_cell_volume 715.609594
_symmetry_space_group_name_H-M "P -1"
_symmetry_group_IT_number 2
_symmetry_cell_setting 'triclinic'
loop_
_space_group_symop_operation_xyz
x,y,z
-x,-y,-z
loop_
_atom_site_type_symbol
_atom_site_label
_atom_site_fract_x
_atom_site_fract_y
_atom_site_fract_z
Si Si1 0.014134 0.840365 0.621193
Si Si2 0.770380 0.957305 0.182904
Si Si3 0.519832 0.808608 0.550330
Si Si4 0.585768 0.112535 0.982113
Si Si5 0.689414 0.273169 0.511571
Si Si6 0.134364 0.502659 0.633886
Si Si7 0.699658 0.566959 0.281439
Si Si8 0.683106 0.701148 0.825083
O O1 0.171076 0.894389 0.363627
O O2 0.150603 0.787807 0.578806
O O3 0.911566 0.747871 0.615251
O O4 0.824037 0.921733 0.943824
O O5 0.736831 0.859796 0.280806
O O6 0.500000 0.000000 0.500000
O O7 0.000000 0.000000 0.000000
O O8 0.340903 0.803708 0.622094
O O9 0.601108 0.686213 0.424967
O O10 0.424104 0.860730 0.827336
O O11 0.449647 0.214575 0.098630
O O12 0.500000 0.000000 0.000000
O O13 0.772132 0.384247 0.425465
O O14 0.455716 0.294725 0.869366
O O15 0.176695 0.443393 0.710909
O O16 0.258194 0.419226 0.346538
O O17 0.866391 0.527554 0.946700
O O18 0.500000 0.500000 0.500000
#
# Coordination Sequence:
#
# PCOD9062585 Si02
#       8
#     2   2   2   2   2   2   2   2
#     4  11  26  48  69 104 149 190 249 308 377 458
#     4  12  27  49  79 110 147 202 262 323 382 452
#     4  12  24  48  78 107 147 196 249 320 375 453
#     4  11  27  48  73 104 146 191 247 311 383 450
#     4  11  24  45  74 105 145 190 248 304 380 454
#     4  11  24  41  71 104 143 191 242 302 372 456
#     4  11  24  42  67 105 145 185 243 302 376 454
#     4  11  25  46  70 105 145 190 242 309 377 448
#
# _framework density 22.358557999999999
#
# number of rings (size 3 to 8) (size 9 to 14) (size 15 to 20)
#    0.000    0.750    3.750    2.625    5.250    1.000 
#    4.500    0.000    0.000    0.000    0.000    0.000 
#    0.000    0.000    0.000    0.000    0.000    0.000 
#
# Total GULP energy -89341.444371 kJ/mol
# GULP energy per Si atom -5583.840273 kJ/mol
# Density = 2.230767 g / cm^3
# Si number density = 22.358558 Si / 1000 Ang^3
#
#
#
# Elastic Constant Matrix: (Units=GPa)
#
#
# Indices 1 2 3 4 5 6 
#
# 1 82.3460 24.0828 35.3702 2.5011 6.0499 12.9442
# 2 24.0828 118.8835 57.4074 -19.1212 -15.4422 11.8533
# 3 35.3702 57.4074 151.8412 -6.5771 7.7036 7.6147
# 4 2.5011 -19.1212 -6.5771 48.7684 5.3759 4.2843
# 5 6.0499 -15.4422 7.7036 5.3759 33.2581 3.2049
# 6 12.9442 11.8533 7.6147 4.2843 3.2049 28.1175
#
#
#
# Elastic Compliance Matrix: (Units=1/GPa)
#
#
# Indices 1 2 3 4 5 6 
#
# 1 0.014685 -0.001783 -0.002431 -0.001096 -0.002284 -0.004923
# 2 -0.001783 0.013027 -0.004444 0.004240 0.007192 -0.004933
# 3 -0.002431 -0.004444 0.008970 -0.000079 -0.003783 0.001006
# 4 -0.001096 0.004240 -0.000079 0.022733 -0.001044 -0.004606
# 5 -0.002284 0.007192 -0.003783 -0.001044 0.035333 -0.004824
# 6 -0.004923 -0.004933 0.001006 -0.004606 -0.004824 0.040890
#
#
# Mechanical properties :
#
#
# Convention : Reuss Voigt Hill
#
# Bulk Modulus (GPa) = 51.63696 65.19908 58.41802
# Shear Modulus (GPa) = 31.36616 37.77615 34.57116
#
# Velocity S-wave (km/s) = 3.74955 4.11489 3.93646
# Velocity P-wave (km/s) = 6.47230 7.19725 6.84438
#
# Compressibility (1/GPa) = 0.01936597
#
# Stress axis : x y z
#
# Youngs Moduli (GPa) = 68.09888 76.76647 111.48040
#
# Poissons Ratio (x) = 0.13686 0.27104
# Poissons Ratio (y) = 0.12141 0.49537
# Poissons Ratio (z) = 0.16557 0.34111
#
# Static dielectric constant tensor:
#      x y z
#    x 1.947000 -0.055650 -0.068630 
#    y -0.055650 1.852550 0.050820 
#    z -0.068630 0.050820 1.848420 
# 
# From -- ./inp_files/273536.got.cif
#   From: 2010.05.17/outbox.cif.g08.bks.cpg/sg2_137_cif.got.tgz:273536.got - 2010.06.03 11:33:40.
