data_PCOD9062215
_publ_section_title
;
Structure prediction by ZEFSAII (Michael W. Deem and Ramdas Pophale) SiO2 
 PCOD9062215
Probable space group: P -1
;
_chemical_formula_sum "Si O2"
_cell_formula_units_Z 12
_cell_length_a 17.281625
_cell_length_b 5.390743
_cell_length_c 8.865119
_cell_angle_alpha 111.241435
_cell_angle_beta 37.679820
_cell_angle_gamma 98.112430
_cell_volume 454.892746
_symmetry_space_group_name_H-M "P -1"
_symmetry_group_IT_number 2
_symmetry_cell_setting 'triclinic'
loop_
_space_group_symop_operation_xyz
x,y,z
-x,-y,-z
loop_
_atom_site_type_symbol
_atom_site_label
_atom_site_fract_x
_atom_site_fract_y
_atom_site_fract_z
Si Si1 0.696452 0.585153 0.988495
Si Si2 0.849350 0.629020 0.473053
Si Si3 0.095035 0.792098 0.196453
Si Si4 0.267085 0.721796 0.649740
Si Si5 0.386541 0.892506 0.073451
Si Si6 0.420792 0.170209 0.476196
O O1 0.800102 0.650818 0.726677
O O2 0.792570 0.374459 0.906011
O O3 0.615766 0.421014 0.972567
O O4 0.599399 0.756890 0.300758
O O5 0.809926 0.389865 0.388004
O O6 0.001589 0.615185 0.230275
O O7 0.753948 0.915225 0.624342
O O8 0.165578 0.892454 0.968280
O O9 0.000000 0.000000 0.500000
O O10 0.352310 0.921653 0.502904
O O11 0.350026 0.446132 0.549478
O O12 0.431077 0.909799 0.833137
O O13 0.500000 0.000000 0.000000
#
# Coordination Sequence:
#
# PCOD9062215 Si02
#       6
#     2   2   2   2   2   2
#     4  11  26  45  73 106 141 190 239 299 354 425
#     4  12  25  44  74 105 145 191 233 298 359 424
#     4  11  23  48  72 106 141 185 245 292 359 424
#     4  11  26  47  74 107 145 189 237 298 357 425
#     4  12  25  45  72 105 146 187 239 294 357 429
#     4  11  26  47  73 107 146 188 241 293 358 424
#
# _framework density 26.379846000000001
#
# number of rings (size 3 to 8) (size 9 to 14) (size 15 to 20)
#    0.000    0.667    3.333    3.500    4.667    3.333 
#    0.000    5.000    0.000    0.000    0.000    0.000 
#    0.000    0.000    0.000    0.000    0.000    0.000 
#
# Total GULP energy -67186.608041 kJ/mol
# GULP energy per Si atom -5598.884003 kJ/mol
# Density = 2.631980 g / cm^3
# Si number density = 26.379846 Si / 1000 Ang^3
#
#
#
# Elastic Constant Matrix: (Units=GPa)
#
#
# Indices 1 2 3 4 5 6 
#
# 1 104.5037 21.3166 7.0949 4.7690 -3.9876 20.8484
# 2 21.3166 101.3665 11.3436 -17.6866 -10.4062 19.4740
# 3 7.0949 11.3436 127.8577 -4.3790 0.7414 -7.6605
# 4 4.7690 -17.6866 -4.3790 48.6291 8.0282 7.8474
# 5 -3.9876 -10.4062 0.7414 8.0282 41.2184 -11.8854
# 6 20.8484 19.4740 -7.6605 7.8474 -11.8854 44.6538
#
#
#
# Elastic Compliance Matrix: (Units=1/GPa)
#
#
# Indices 1 2 3 4 5 6 
#
# 1 0.010854 -0.001536 -0.000763 -0.000894 -0.000445 -0.004490
# 2 -0.001536 0.012409 -0.001177 0.005444 0.000279 -0.005779
# 3 -0.000763 -0.001177 0.008104 -0.000020 0.000152 0.002304
# 4 -0.000894 0.005444 -0.000020 0.024863 -0.005827 -0.007881
# 5 -0.000445 0.000279 0.000152 -0.005827 0.027889 0.008559
# 6 -0.004490 -0.005779 0.002304 -0.007881 0.008559 0.031069
#
#
# Mechanical properties :
#
#
# Convention : Reuss Voigt Hill
#
# Bulk Modulus (GPa) = 40.95948 45.91535 43.43741
# Shear Modulus (GPa) = 38.37922 46.49844 42.43883
#
# Velocity S-wave (km/s) = 3.81841 4.20295 4.01529
# Velocity P-wave (km/s) = 5.91615 6.40283 6.16430
#
# Compressibility (1/GPa) = 0.02441437
#
# Stress axis : x y z
#
# Youngs Moduli (GPa) = 92.13446 80.58862 123.38938
#
# Poissons Ratio (x) = 0.12380 0.09415
# Poissons Ratio (y) = 0.14153 0.14524
# Poissons Ratio (z) = 0.07030 0.09486
#
# Static dielectric constant tensor:
#      x y z
#    x 2.113170 -0.000920 0.014630 
#    y -0.000920 2.172800 0.074530 
#    z 0.014630 0.074530 2.115170 
# 
# From -- ./inp_files/321901.got.cif
#   From: 2010.05.17/outbox.cif.g08.bks.cpg/sg2_161_cif.got.tgz:321901.got - 2010.06.03 11:33:40.
