data_PCOD9062593
_publ_section_title
;
Structure prediction by ZEFSAII (Michael W. Deem and Ramdas Pophale) SiO2 
 PCOD9062593
Probable space group: P -1
;
_chemical_formula_sum "Si O2"
_cell_formula_units_Z 16
_cell_length_a 12.469054
_cell_length_b 14.514467
_cell_length_c 17.112539
_cell_angle_alpha 31.717600
_cell_angle_beta 148.683102
_cell_angle_gamma 129.272772
_cell_volume 794.993572
_symmetry_space_group_name_H-M "P -1"
_symmetry_group_IT_number 2
_symmetry_cell_setting 'triclinic'
loop_
_space_group_symop_operation_xyz
x,y,z
-x,-y,-z
loop_
_atom_site_type_symbol
_atom_site_label
_atom_site_fract_x
_atom_site_fract_y
_atom_site_fract_z
Si Si1 0.990014 0.049645 0.549131
Si Si2 0.604091 0.827633 0.247505
Si Si3 0.146443 0.347770 0.761998
Si Si4 0.912432 0.547214 0.046173
Si Si5 0.359479 0.912644 0.196866
Si Si6 0.806049 0.766698 0.670927
Si Si7 0.586646 0.393770 0.050607
Si Si8 0.845213 0.405897 0.682403
O O1 0.167632 0.144285 0.608377
O O2 0.000000 0.000000 0.500000
O O3 0.993631 0.861754 0.728322
O O4 0.755478 0.192936 0.322388
O O5 0.454609 0.857543 0.209142
O O6 0.664360 0.614280 0.410788
O O7 0.500000 0.000000 0.000000
O O8 0.381167 0.374826 0.890849
O O9 0.000000 0.500000 0.500000
O O10 0.026983 0.389252 0.741541
O O11 0.197871 0.127312 0.937769
O O12 0.782784 0.695311 0.793795
O O13 0.735104 0.476985 0.029806
O O14 0.090313 0.392611 0.214919
O O15 0.044324 0.606534 0.154249
O O16 0.570263 0.889685 0.400154
O O17 0.250740 0.761481 0.264926
O O18 0.500000 0.500000 0.000000
#
# Coordination Sequence:
#
# PCOD9062593 Si02
#       8
#     2   2   2   2   2   2   2   2
#     4  12  20  43  67  95 131 170 228 277 325 397
#     4  12  25  41  70 103 132 176 226 282 337 398
#     4  12  27  47  68  99 136 186 228 278 342 407
#     4  11  24  43  68 105 133 178 221 284 343 402
#     4  12  25  45  67  99 137 184 220 279 345 402
#     4  11  24  41  72 102 135 173 228 279 345 404
#     4  12  22  44  72  92 132 176 226 285 330 393
#     4  12  25  47  64  99 144 175 227 281 338 409
#
# _framework density 20.12595
#
# number of rings (size 3 to 8) (size 9 to 14) (size 15 to 20)
#    0.000    0.250    7.500    1.500    3.500    1.000 
#    0.000    1.250    0.000    0.000    0.000    0.000 
#    0.000    0.000    0.000    0.000    0.000    0.000 
#
# Total GULP energy -89351.186817 kJ/mol
# GULP energy per Si atom -5584.449176 kJ/mol
# Density = 2.008014 g / cm^3
# Si number density = 20.125950 Si / 1000 Ang^3
#
#
#
# Elastic Constant Matrix: (Units=GPa)
#
#
# Indices 1 2 3 4 5 6 
#
# 1 90.7687 16.9249 22.3168 -3.9081 -3.9594 1.0710
# 2 16.9249 87.8656 23.3168 -13.5431 -1.8257 13.7826
# 3 22.3168 23.3168 105.5583 -12.0092 2.5411 -11.1954
# 4 -3.9081 -13.5431 -12.0092 30.6772 -0.6866 5.6881
# 5 -3.9594 -1.8257 2.5411 -0.6866 33.6600 -11.4012
# 6 1.0710 13.7826 -11.1954 5.6881 -11.4012 26.2168
#
#
#
# Elastic Compliance Matrix: (Units=1/GPa)
#
#
# Indices 1 2 3 4 5 6 
#
# 1 0.011934 -0.001736 -0.002168 -0.000095 0.001535 0.000187
# 2 -0.001736 0.015774 -0.003525 0.007665 -0.003265 -0.012810
# 3 -0.002168 -0.003525 0.011595 0.001422 0.001100 0.007063
# 4 -0.000095 0.007665 0.001422 0.038925 -0.003433 -0.013357
# 5 0.001535 -0.003265 0.001100 -0.003433 0.035805 0.018439
# 6 0.000187 -0.012810 0.007063 -0.013357 0.018439 0.058803
#
#
# Mechanical properties :
#
#
# Convention : Reuss Voigt Hill
#
# Bulk Modulus (GPa) = 40.90723 45.47884 43.19303
# Shear Modulus (GPa) = 25.53078 32.88641 29.20859
#
# Velocity S-wave (km/s) = 3.56554 4.04670 3.81371
# Velocity P-wave (km/s) = 6.10905 6.66937 6.39535
#
# Compressibility (1/GPa) = 0.02444556
#
# Stress axis : x y z
#
# Youngs Moduli (GPa) = 83.79250 63.39631 86.24590
#
# Poissons Ratio (x) = 0.11004 0.18694
# Poissons Ratio (y) = 0.14544 0.30404
# Poissons Ratio (z) = 0.18162 0.22349
#
# Static dielectric constant tensor:
#      x y z
#    x 1.696810 0.025750 -0.042770 
#    y 0.025750 1.731290 -0.031460 
#    z -0.042770 -0.031460 1.769040 
# 
# From -- ./inp_files/186640.got.cif
#   From: 2010.05.17/outbox.cif.g08.bks.cpg/sg2_94_cif.got.tgz:186640.got - 2010.06.03 11:33:40.
