data_PCOD9062072
_publ_section_title
;
Structure prediction by ZEFSAII (Michael W. Deem and Ramdas Pophale) SiO2 
 PCOD9062072
Probable space group: P -1
;
_chemical_formula_sum "Si O2"
_cell_formula_units_Z 14
_cell_length_a 21.469285
_cell_length_b 13.815302
_cell_length_c 6.690901
_cell_angle_alpha 92.843462
_cell_angle_beta 75.611159
_cell_angle_gamma 158.064039
_cell_volume 621.931154
_symmetry_space_group_name_H-M "P -1"
_symmetry_group_IT_number 2
_symmetry_cell_setting 'triclinic'
loop_
_space_group_symop_operation_xyz
x,y,z
-x,-y,-z
loop_
_atom_site_type_symbol
_atom_site_label
_atom_site_fract_x
_atom_site_fract_y
_atom_site_fract_z
Si Si1 0.988355 0.233602 0.693067
Si Si2 0.122282 0.245261 0.782661
Si Si3 0.769118 0.328423 0.774063
Si Si4 0.438267 0.852103 0.732688
Si Si5 0.458680 0.586812 0.485920
Si Si6 0.075413 0.711068 0.889344
Si Si7 0.592438 0.677209 0.748657
O O1 0.976862 0.105344 0.753718
O O2 0.164753 0.495116 0.419249
O O3 0.802914 0.009486 0.695571
O O4 0.997349 0.312510 0.892818
O O5 0.262583 0.525421 0.805105
O O6 0.288163 0.419576 0.552508
O O7 0.000000 0.000000 0.000000
O O8 0.963102 0.564151 0.752515
O O9 0.623878 0.062095 0.714174
O O10 0.641790 0.185207 0.046536
O O11 0.500000 0.000000 0.500000
O O12 0.472794 0.587221 0.713144
O O13 0.390186 0.388175 0.423001
O O14 0.684868 0.936203 0.279704
O O15 0.000000 0.500000 0.000000
O O16 0.500000 0.500000 0.000000
#
# Coordination Sequence:
#
# PCOD9062072 Si02
#       7
#     2   2   2   2   2   2   2
#     4  12  25  48  76 102 151 193 243 309 375 435
#     4  12  28  47  73 112 153 191 248 314 363 442
#     4  11  24  45  78 101 142 198 248 303 371 441
#     4  11  24  47  75 103 145 197 246 302 374 436
#     4  11  27  44  73 104 146 186 248 296 368 440
#     4  12  27  46  75 109 146 192 252 308 369 449
#     4  11  23  47  71  98 139 195 234 296 364 437
#
# _framework density 22.510529999999999
#
# number of rings (size 3 to 8) (size 9 to 14) (size 15 to 20)
#    0.000    0.571    5.714    0.857    8.000    2.286 
#    5.143    0.000    0.000    0.000    0.000    0.000 
#    0.000    0.000    0.000    0.000    0.000    0.000 
#
# Total GULP energy -78086.187427 kJ/mol
# GULP energy per Si atom -5577.584816 kJ/mol
# Density = 2.245929 g / cm^3
# Si number density = 22.510530 Si / 1000 Ang^3
#
#
#
# Elastic Constant Matrix: (Units=GPa)
#
#
# Indices 1 2 3 4 5 6 
#
# 1 92.5948 2.1561 33.8083 4.5931 11.7268 -3.8749
# 2 2.1561 91.1580 12.3315 6.9699 13.9077 6.4375
# 3 33.8083 12.3315 126.3689 -15.8031 27.2510 -0.0504
# 4 4.5931 6.9699 -15.8031 33.0697 -0.2904 10.1966
# 5 11.7268 13.9077 27.2510 -0.2904 38.4744 -6.0069
# 6 -3.8749 6.4375 -0.0504 10.1966 -6.0069 29.0720
#
#
#
# Elastic Compliance Matrix: (Units=1/GPa)
#
#
# Indices 1 2 3 4 5 6 
#
# 1 0.012650 0.000495 -0.003815 -0.004619 -0.000898 0.003004
# 2 0.000495 0.012092 -0.000588 -0.002065 -0.004563 -0.002831
# 3 -0.003815 -0.000588 0.011532 0.007494 -0.007442 -0.004525
# 4 -0.004619 -0.002065 0.007494 0.039500 -0.005209 -0.015076
# 5 -0.000898 -0.004563 -0.007442 -0.005209 0.034688 0.009872
# 6 0.003004 -0.002831 -0.004525 -0.015076 0.009872 0.042744
#
#
# Mechanical properties :
#
#
# Convention : Reuss Voigt Hill
#
# Bulk Modulus (GPa) = 35.14078 45.19040 40.16559
# Shear Modulus (GPa) = 29.32428 37.57827 33.45128
#
# Velocity S-wave (km/s) = 3.61320 4.09022 3.85909
# Velocity P-wave (km/s) = 5.74906 6.51347 6.14317
#
# Compressibility (1/GPa) = 0.02845696
#
# Stress axis : x y z
#
# Youngs Moduli (GPa) = 79.05234 82.70078 86.71730
#
# Poissons Ratio (x) = -0.04093 0.33086
# Poissons Ratio (y) = -0.03912 0.05097
# Poissons Ratio (z) = 0.30161 0.04861
#
# Static dielectric constant tensor:
#      x y z
#    x 1.847380 0.075250 -0.006280 
#    y 0.075250 1.948280 -0.024180 
#    z -0.006280 -0.024180 1.883850 
# 
# From -- ./inp_files/49299.got.cif
#   From: 2010.05.17/outbox.cif.g08.bks.cpg/sg2_25_cif.got.tgz:49299.got - 2010.06.03 11:33:40.
