data_PCOD9062480
_publ_section_title
;
Structure prediction by ZEFSAII (Michael W. Deem and Ramdas Pophale) SiO2 
 PCOD9062480
Probable space group: P -1
;
_chemical_formula_sum "Si O2"
_cell_formula_units_Z 16
_cell_length_a 15.111579
_cell_length_b 14.465731
_cell_length_c 14.893664
_cell_angle_alpha 20.054764
_cell_angle_beta 136.699350
_cell_angle_gamma 135.617961
_cell_volume 758.991662
_symmetry_space_group_name_H-M "P -1"
_symmetry_group_IT_number 2
_symmetry_cell_setting 'triclinic'
loop_
_space_group_symop_operation_xyz
x,y,z
-x,-y,-z
loop_
_atom_site_type_symbol
_atom_site_label
_atom_site_fract_x
_atom_site_fract_y
_atom_site_fract_z
Si Si1 0.302282 0.483166 0.652840
Si Si2 0.407124 0.723184 0.697580
Si Si3 0.591854 0.408906 0.891457
Si Si4 0.285482 0.988050 0.529435
Si Si5 0.176201 0.594905 0.274294
Si Si6 0.962513 0.784347 0.245903
Si Si7 0.996791 0.950749 0.313785
Si Si8 0.410450 0.708880 0.205261
O O1 0.337755 0.646955 0.621215
O O2 0.435530 0.387982 0.803200
O O3 0.237811 0.627670 0.390371
O O4 0.190633 0.245636 0.817249
O O5 0.311255 0.800073 0.634592
O O6 0.500000 0.000000 0.500000
O O7 0.500000 0.500000 0.000000
O O8 0.631427 0.392942 0.831978
O O9 0.650154 0.697253 0.715974
O O10 0.642656 0.156228 0.207910
O O11 0.132235 0.986014 0.434028
O O12 0.110531 0.279172 0.512707
O O13 0.289273 0.689035 0.201139
O O14 0.063640 0.775454 0.002386
O O15 0.030014 0.851113 0.329741
O O16 0.000000 0.500000 0.500000
O O17 0.000000 0.000000 0.000000
O O18 0.500000 0.500000 0.500000
O O19 0.500000 0.000000 0.000000
#
# Coordination Sequence:
#
# PCOD9062480 Si02
#       8
#     2   2   2   2   2   2   2   2
#     4  11  24  43  71 100 142 170 235 284 346 392
#     4  12  24  40  64  99 138 184 225 273 335 408
#     4  12  26  44  71 105 136 181 226 286 357 401
#     4  12  25  46  66  99 146 184 230 274 332 424
#     4  11  25  45  72 103 133 174 233 290 345 405
#     4  11  24  41  64  95 132 180 233 281 328 397
#     4  11  25  45  69  95 139 189 223 276 343 403
#     4  12  25  45  75 106 138 170 226 296 356 412
#
# _framework density 21.0806
#
# number of rings (size 3 to 8) (size 9 to 14) (size 15 to 20)
#    0.000    0.500    3.750    4.500    1.750    6.000 
#    0.000    3.750    0.000    0.000    0.000    0.000 
#    0.000    0.000    0.000    0.000    0.000    0.000 
#
# Total GULP energy -89467.752242 kJ/mol
# GULP energy per Si atom -5591.734515 kJ/mol
# Density = 2.103262 g / cm^3
# Si number density = 21.080600 Si / 1000 Ang^3
#
#
#
# Elastic Constant Matrix: (Units=GPa)
#
#
# Indices 1 2 3 4 5 6 
#
# 1 111.6109 24.6736 27.1752 4.9585 -17.8629 7.8621
# 2 24.6736 66.9255 29.4296 5.3284 2.3944 22.0299
# 3 27.1752 29.4296 131.7695 -6.8266 -1.1924 25.7979
# 4 4.9585 5.3284 -6.8266 30.9450 7.2280 2.3862
# 5 -17.8629 2.3944 -1.1924 7.2280 33.8495 -0.9055
# 6 7.8621 22.0299 25.7979 2.3862 -0.9055 38.2720
#
#
#
# Elastic Compliance Matrix: (Units=1/GPa)
#
#
# Indices 1 2 3 4 5 6 
#
# 1 0.011439 -0.003869 -0.001905 -0.003340 0.006997 0.001535
# 2 -0.003869 0.020746 -0.002058 -0.001851 -0.003447 -0.009725
# 3 -0.001905 -0.002058 0.009621 0.003509 -0.001408 -0.005161
# 4 -0.003340 -0.001851 0.003509 0.036368 -0.009357 -0.003103
# 5 0.006997 -0.003447 -0.001408 -0.009357 0.035506 0.002919
# 6 0.001535 -0.009725 -0.005161 -0.003103 0.002919 0.035153
#
#
# Mechanical properties :
#
#
# Convention : Reuss Voigt Hill
#
# Bulk Modulus (GPa) = 38.25575 52.54028 45.39802
# Shear Modulus (GPa) = 28.86637 35.88178 32.37407
#
# Velocity S-wave (km/s) = 3.70446 4.13016 3.92309
# Velocity P-wave (km/s) = 6.04021 6.90810 6.48868
#
# Compressibility (1/GPa) = 0.02613986
#
# Stress axis : x y z
#
# Youngs Moduli (GPa) = 87.41934 48.20287 103.93719
#
# Poissons Ratio (x) = 0.18651 0.19803
# Poissons Ratio (y) = 0.33825 0.21395
# Poissons Ratio (z) = 0.16656 0.09922
#
# Static dielectric constant tensor:
#      x y z
#    x 1.760570 -0.033750 -0.001090 
#    y -0.033750 1.788640 -0.000580 
#    z -0.001090 -0.000580 1.740090 
# 
# From -- ./inp_files/534027.got.cif
#   From: 2010.05.17/outbox.cif.g08.bks.cpg/sg2_268_cif.got.tgz:534027.got - 2010.06.03 11:33:40.
