data_PCOD9062984
_publ_section_title
;
Structure prediction by ZEFSAII (Michael W. Deem and Ramdas Pophale) SiO2 
 PCOD9062984
Probable space group: P -1
;
_chemical_formula_sum "Si O2"
_cell_formula_units_Z 14
_cell_length_a 5.742729
_cell_length_b 21.594577
_cell_length_c 13.818924
_cell_angle_alpha 22.511299
_cell_angle_beta 73.136173
_cell_angle_gamma 83.654046
_cell_volume 566.964690
_symmetry_space_group_name_H-M "P -1"
_symmetry_group_IT_number 2
_symmetry_cell_setting 'triclinic'
loop_
_space_group_symop_operation_xyz
x,y,z
-x,-y,-z
loop_
_atom_site_type_symbol
_atom_site_label
_atom_site_fract_x
_atom_site_fract_y
_atom_site_fract_z
Si Si1 0.573227 0.053121 0.680263
Si Si2 0.470115 0.150906 0.353332
Si Si3 0.373562 0.450979 0.282931
Si Si4 0.902937 0.383021 0.277906
Si Si5 0.791823 0.557535 0.338236
Si Si6 0.089140 0.091197 0.254602
Si Si7 0.054912 0.743308 0.234882
O O1 0.619634 0.176061 0.401113
O O2 0.765088 0.174571 0.564035
O O3 0.653245 0.903209 0.840240
O O4 0.272218 0.946839 0.910830
O O5 0.500000 0.000000 0.500000
O O6 0.542676 0.335204 0.022726
O O7 0.161948 0.049229 0.572398
O O8 0.647637 0.426043 0.274541
O O9 0.152775 0.408825 0.282351
O O10 0.215932 0.321128 0.577952
O O11 0.000000 0.500000 0.000000
O O12 0.500000 0.500000 0.500000
O O13 0.818531 0.383475 0.552343
O O14 0.988466 0.669140 0.240609
O O15 0.874239 0.708142 0.029758
O O16 0.000000 0.000000 0.500000
#
# Coordination Sequence:
#
# PCOD9062984 Si02
#       7
#     2   2   2   2   2   2   2
#     4  12  26  46  72 104 149 195 252 305 376 449
#     4  12  25  44  71 111 148 188 248 311 380 447
#     4  12  30  49  80 108 152 199 257 312 373 454
#     4  12  28  53  78 109 147 205 257 315 371 440
#     4  11  24  43  68 103 163 192 237 305 394 458
#     4  12  25  40  73 110 147 196 245 318 377 451
#     4  11  27  45  69 110 145 203 245 309 385 457
#
# _framework density 24.692896000000001
#
# number of rings (size 3 to 8) (size 9 to 14) (size 15 to 20)
#    0.000    0.286    5.714    2.143    8.000    1.143 
#    0.000    0.000    0.000    0.000    0.000    0.000 
#    0.000    0.000    0.000    0.000    0.000    0.000 
#
# Total GULP energy -78185.098166 kJ/mol
# GULP energy per Si atom -5584.649869 kJ/mol
# Density = 2.463669 g / cm^3
# Si number density = 24.692896 Si / 1000 Ang^3
#
#
#
# Elastic Constant Matrix: (Units=GPa)
#
#
# Indices 1 2 3 4 5 6 
#
# 1 97.7551 35.7632 8.9913 -0.1329 -6.3323 -0.4069
# 2 35.7632 73.0518 33.9645 4.1751 -2.5484 -4.9739
# 3 8.9913 33.9645 134.7693 12.8420 -9.4260 6.2745
# 4 -0.1329 4.1751 12.8420 38.0149 -0.7681 -12.0701
# 5 -6.3323 -2.5484 -9.4260 -0.7681 36.8952 7.8569
# 6 -0.4069 -4.9739 6.2745 -12.0701 7.8569 54.4772
#
#
#
# Elastic Compliance Matrix: (Units=1/GPa)
#
#
# Indices 1 2 3 4 5 6 
#
# 1 0.012724 -0.006698 0.001015 0.000194 0.002177 -0.000904
# 2 -0.006698 0.019232 -0.004643 0.000198 -0.001537 0.002506
# 3 0.001015 -0.004643 0.009150 -0.003348 0.002674 -0.002598
# 4 0.000194 0.000198 -0.003348 0.029676 -0.001730 0.007230
# 5 0.002177 -0.001537 0.002674 -0.001730 0.029085 -0.005010
# 6 -0.000904 0.002506 -0.002598 0.007230 -0.005010 0.021202
#
#
# Mechanical properties :
#
#
# Convention : Reuss Voigt Hill
#
# Bulk Modulus (GPa) = 48.88972 51.44603 50.16787
# Shear Modulus (GPa) = 33.66102 41.00128 37.33115
#
# Velocity S-wave (km/s) = 3.69614 4.07928 3.89243
# Velocity P-wave (km/s) = 6.16906 6.56254 6.36884
#
# Compressibility (1/GPa) = 0.02045420
#
# Stress axis : x y z
#
# Youngs Moduli (GPa) = 78.59039 51.99560 109.29492
#
# Poissons Ratio (x) = 0.34826 -0.11093
# Poissons Ratio (y) = 0.52639 0.50746
# Poissons Ratio (z) = -0.07977 0.24142
#
# Static dielectric constant tensor:
#      x y z
#    x 2.347730 0.055390 0.052080 
#    y 0.055390 1.982760 -0.008830 
#    z 0.052080 -0.008830 1.953800 
# 
# From -- ./inp_files/94464.got.cif
#   From: 2010.05.17/outbox.cif.g08.bks.cpg/sg2_48_cif.got.tgz:94464.got - 2010.06.03 11:33:40.
