data_PCOD9062604
_publ_section_title
;
Structure prediction by ZEFSAII (Michael W. Deem and Ramdas Pophale) SiO2 
 PCOD9062604
Probable space group: P -1
;
_chemical_formula_sum "Si O2"
_cell_formula_units_Z 10
_cell_length_a 8.811255
_cell_length_b 4.690423
_cell_length_c 14.537009
_cell_angle_alpha 60.554310
_cell_angle_beta 133.194309
_cell_angle_gamma 101.333062
_cell_volume 372.033887
_symmetry_space_group_name_H-M "P -1"
_symmetry_group_IT_number 2
_symmetry_cell_setting 'triclinic'
loop_
_space_group_symop_operation_xyz
x,y,z
-x,-y,-z
loop_
_atom_site_type_symbol
_atom_site_label
_atom_site_fract_x
_atom_site_fract_y
_atom_site_fract_z
Si Si1 0.684252 0.646218 0.623858
Si Si2 0.289492 0.241763 0.915917
Si Si3 0.926815 0.344436 0.086263
Si Si4 0.782288 0.507506 0.349873
Si Si5 0.419887 0.125208 0.639092
O O1 0.624163 0.295444 0.685230
O O2 0.723986 0.626764 0.534261
O O3 0.879212 0.701145 0.755186
O O4 0.500000 0.000000 0.500000
O O5 0.276884 0.446782 0.973287
O O6 0.199736 0.472316 0.754515
O O7 0.129641 0.001424 0.907862
O O8 0.500000 0.000000 0.000000
O O9 0.000000 0.500000 0.000000
O O10 0.633875 0.831768 0.283041
O O11 0.000000 0.500000 0.500000
O O12 0.647268 0.221993 0.358395
#
# Coordination Sequence:
#
# PCOD9062604 Si02
#       5
#     2   2   2   2   2
#     4  11  25  45  77 112 155 193 261 317 385 454
#     4  12  29  52  76 111 157 203 263 320 383 465
#     4  12  29  52  79 111 156 206 263 318 386 461
#     4  12  24  44  74 105 150 195 253 311 392 446
#     4  11  24  41  72 111 148 191 249 316 384 448
#
# _framework density 26.879270000000002
#
# number of rings (size 3 to 8) (size 9 to 14) (size 15 to 20)
#    0.000    0.400    2.000    5.400    8.400    1.600 
#    0.000    0.000    0.000    0.000    0.000    0.000 
#    0.000    0.000    0.000    0.000    0.000    0.000 
#
# Total GULP energy -55837.257539 kJ/mol
# GULP energy per Si atom -5583.725754 kJ/mol
# Density = 2.681809 g / cm^3
# Si number density = 26.879270 Si / 1000 Ang^3
#
#
#
# Elastic Constant Matrix: (Units=GPa)
#
#
# Indices 1 2 3 4 5 6 
#
# 1 128.0806 22.4094 34.6091 -18.6500 -25.7544 -15.2174
# 2 22.4094 184.2889 -4.1461 9.2578 -0.1271 20.2709
# 3 34.6091 -4.1461 45.7266 -3.5184 -3.2663 2.1612
# 4 -18.6500 9.2578 -3.5184 29.6631 1.0622 -8.7403
# 5 -25.7544 -0.1271 -3.2663 1.0622 68.2408 2.6315
# 6 -15.2174 20.2709 2.1612 -8.7403 2.6315 50.3899
#
#
#
# Elastic Compliance Matrix: (Units=1/GPa)
#
#
# Indices 1 2 3 4 5 6 
#
# 1 0.014875 -0.003511 -0.010754 0.011395 0.004603 0.008102
# 2 -0.003511 0.006712 0.003018 -0.005316 -0.000902 -0.004765
# 3 -0.010754 0.003018 0.029972 -0.006034 -0.002267 -0.006676
# 4 0.011395 -0.005316 -0.006034 0.045736 0.002765 0.013627
# 5 0.004603 -0.000902 -0.002267 0.002765 0.016181 0.001485
# 6 0.008102 -0.004765 -0.006676 0.013627 0.001485 0.026781
#
#
# Mechanical properties :
#
#
# Convention : Reuss Voigt Hill
#
# Bulk Modulus (GPa) = 34.40789 51.53787 42.97288
# Shear Modulus (GPa) = 28.99547 50.00700 39.50123
#
# Velocity S-wave (km/s) = 3.28797 4.31795 3.83767
# Velocity P-wave (km/s) = 5.21948 6.63890 5.97152
#
# Compressibility (1/GPa) = 0.02906310
#
# Stress axis : x y z
#
# Youngs Moduli (GPa) = 67.22489 148.99423 33.36474
#
# Poissons Ratio (x) = 0.52316 0.35882
# Poissons Ratio (y) = 0.23605 -0.10069
# Poissons Ratio (z) = 0.72297 -0.44965
#
# Static dielectric constant tensor:
#      x y z
#    x 2.329860 -0.109520 0.066990 
#    y -0.109520 2.108150 0.030460 
#    z 0.066990 0.030460 2.155980 
# 
# From -- ./inp_files/486854.got.cif
#   From: 2010.05.17/outbox.cif.g08.bks.cpg/sg2_244_cif.got.tgz:486854.got - 2010.06.03 11:33:40.
