data_PCOD9062304
_publ_section_title
;
Structure prediction by ZEFSAII (Michael W. Deem and Ramdas Pophale) SiO2 
 PCOD9062304
Probable space group: P -1
;
_chemical_formula_sum "Si O2"
_cell_formula_units_Z 16
_cell_length_a 9.576061
_cell_length_b 12.251897
_cell_length_c 7.358128
_cell_angle_alpha 131.968576
_cell_angle_beta 65.187555
_cell_angle_gamma 117.386930
_cell_volume 561.659941
_symmetry_space_group_name_H-M "P -1"
_symmetry_group_IT_number 2
_symmetry_cell_setting 'triclinic'
loop_
_space_group_symop_operation_xyz
x,y,z
-x,-y,-z
loop_
_atom_site_type_symbol
_atom_site_label
_atom_site_fract_x
_atom_site_fract_y
_atom_site_fract_z
Si Si1 0.610021 0.893594 0.447908
Si Si2 0.914253 0.885361 0.082882
Si Si3 0.497426 0.529453 0.817010
Si Si4 0.517932 0.162458 0.003736
Si Si5 0.067272 0.451593 0.206850
Si Si6 0.812178 0.888671 0.667814
Si Si7 0.180436 0.426068 0.704751
Si Si8 0.694847 0.321431 0.438960
O O1 0.731490 0.850934 0.475985
O O2 0.438602 0.775444 0.451078
O O3 0.735852 0.907803 0.228947
O O4 0.578949 0.049810 0.712275
O O5 0.048253 0.957777 0.240527
O O6 0.910857 0.706111 0.895067
O O7 0.000000 0.000000 0.000000
O O8 0.488145 0.695238 0.957194
O O9 0.364042 0.435161 0.648327
O O10 0.649029 0.480129 0.613424
O O11 0.500000 0.500000 0.000000
O O12 0.340767 0.101750 0.117715
O O13 0.637462 0.218236 0.173655
O O14 0.890367 0.461284 0.254220
O O15 0.855275 0.392267 0.549192
O O16 0.143203 0.459838 0.973099
O O17 0.886394 0.748024 0.516783
#
# Coordination Sequence:
#
# PCOD9062304 Si02
#       8
#     2   2   2   2   2   2   2   2
#     4  11  25  53  85 118 166 226 280 354 431 515
#     4  12  29  51  83 123 178 223 281 349 438 527
#     4  12  24  45  80 120 164 225 283 351 424 510
#     4  11  27  48  86 122 168 222 289 355 429 512
#     4  11  26  49  84 130 167 226 291 358 434 509
#     4  11  24  50  79 118 165 226 272 347 441 505
#     4  11  24  46  82 122 172 226 286 354 434 502
#     4  11  23  49  88 123 165 215 298 362 422 504
#
# _framework density 28.486988
#
# number of rings (size 3 to 8) (size 9 to 14) (size 15 to 20)
#    0.000    0.750    5.000    2.250    3.500    1.000 
#    4.500    3.750    5.500    2.250    0.000    0.000 
#    0.000    0.000    0.000    0.000    0.000    0.000 
#
# Total GULP energy -89360.827093 kJ/mol
# GULP energy per Si atom -5585.051693 kJ/mol
# Density = 2.842215 g / cm^3
# Si number density = 28.486988 Si / 1000 Ang^3
#
#
#
# Elastic Constant Matrix: (Units=GPa)
#
#
# Indices 1 2 3 4 5 6 
#
# 1 107.6787 58.0127 52.0071 -15.9721 15.2278 7.8314
# 2 58.0127 139.6169 57.3003 15.8846 18.5893 -5.3895
# 3 52.0071 57.3003 167.8376 11.0243 -1.8338 -0.9033
# 4 -15.9721 15.8846 11.0243 58.7844 -7.2642 2.7274
# 5 15.2278 18.5893 -1.8338 -7.2642 52.5132 7.3880
# 6 7.8314 -5.3895 -0.9033 2.7274 7.3880 59.4931
#
#
#
# Elastic Compliance Matrix: (Units=1/GPa)
#
#
# Indices 1 2 3 4 5 6 
#
# 1 0.015166 -0.005620 -0.003217 0.006208 -0.001285 -0.002679
# 2 -0.005620 0.011351 -0.001844 -0.004785 -0.003451 0.002388
# 3 -0.003217 -0.001844 0.007711 -0.001637 0.001593 0.000251
# 4 0.006208 -0.004785 -0.001637 0.020800 0.003081 -0.002612
# 5 -0.001285 -0.003451 0.001593 0.003081 0.021532 -0.002934
# 6 -0.002679 0.002388 0.000251 -0.002612 -0.002934 0.017866
#
#
# Mechanical properties :
#
#
# Convention : Reuss Voigt Hill
#
# Bulk Modulus (GPa) = 77.73021 83.30816 80.51919
# Shear Modulus (GPa) = 41.64048 50.67900 46.15974
#
# Velocity S-wave (km/s) = 3.82741 4.22242 4.02976
# Velocity P-wave (km/s) = 6.84672 7.28557 7.06955
#
# Compressibility (1/GPa) = 0.01286501
#
# Stress axis : x y z
#
# Youngs Moduli (GPa) = 65.93739 88.10090 129.68779
#
# Poissons Ratio (x) = 0.49513 0.41720
# Poissons Ratio (y) = 0.37057 0.23917
# Poissons Ratio (z) = 0.21212 0.16248
#
# Static dielectric constant tensor:
#      x y z
#    x 2.398490 -0.034540 0.161560 
#    y -0.034540 2.468500 -0.163940 
#    z 0.161560 -0.163940 2.447570 
# 
# From -- ./inp_files/263312.got.cif
#   From: 2010.05.17/outbox.cif.g08.bks.cpg/sg2_132_cif.got.tgz:263312.got - 2010.06.03 11:33:40.
