data_PCOD9062128
_publ_section_title
;
Structure prediction by ZEFSAII (Michael W. Deem and Ramdas Pophale) SiO2 
 PCOD9062128
Probable space group: P -1
;
_chemical_formula_sum "Si O2"
_cell_formula_units_Z 13
_cell_length_a 10.625586
_cell_length_b 12.741373
_cell_length_c 9.848186
_cell_angle_alpha 143.776411
_cell_angle_beta 107.527995
_cell_angle_gamma 47.197635
_cell_volume 475.129047
_symmetry_space_group_name_H-M "P -1"
_symmetry_group_IT_number 2
_symmetry_cell_setting 'triclinic'
loop_
_space_group_symop_operation_xyz
x,y,z
-x,-y,-z
loop_
_atom_site_type_symbol
_atom_site_label
_atom_site_fract_x
_atom_site_fract_y
_atom_site_fract_z
Si Si1 0.470057 0.824737 0.349092
Si Si2 0.000000 0.500000 0.500000
Si Si3 0.252620 0.583776 0.612239
Si Si4 0.684756 0.007492 0.218632
Si Si5 0.081425 0.740404 0.179904
Si Si6 0.761581 0.530552 0.784180
Si Si7 0.300926 0.897934 0.104280
O O1 0.395005 0.894262 0.550561
O O2 0.304432 0.912691 0.283341
O O3 0.500000 0.000000 0.500000
O O4 0.690961 0.496000 0.059399
O O5 0.154816 0.515918 0.582939
O O6 0.175304 0.189841 0.303272
O O7 0.502200 0.285372 0.363081
O O8 0.159192 0.678238 0.527940
O O9 0.232977 0.784595 0.897569
O O10 0.910579 0.859474 0.140069
O O11 0.725950 0.758565 0.939590
O O12 0.106514 0.582447 0.153901
O O13 0.000000 0.000000 0.500000
O O14 0.544969 0.675292 0.916460
#
# Coordination Sequence:
#
# PCOD9062128 Si02
#       7
#     2   1   2   2   2   2   2
#     4  11  23  47  74 107 152 189 249 310 368 446
#     4  12  26  48  68 110 146 198 248 300 388 436
#     4  12  27  48  73 106 150 194 249 308 372 446
#     4  12  24  46  77 107 144 201 244 307 376 441
#     4  11  26  46  74 113 146 196 253 304 378 448
#     4  11  24  49  70 108 147 194 247 309 373 445
#     4  11  25  47  73 106 144 195 248 310 372 441
#
# _framework density 27.360987999999999
#
# number of rings (size 3 to 8) (size 9 to 14) (size 15 to 20)
#    0.000    0.615    4.615    3.692    2.154    3.692 
#    5.538    0.000    0.000    0.000    0.000    0.000 
#    0.000    0.000    0.000    0.000    0.000    0.000 
#
# Total GULP energy -72779.214838 kJ/mol
# GULP energy per Si atom -5598.401141 kJ/mol
# Density = 2.729871 g / cm^3
# Si number density = 27.360988 Si / 1000 Ang^3
#
#
#
# Elastic Constant Matrix: (Units=GPa)
#
#
# Indices 1 2 3 4 5 6 
#
# 1 87.7903 44.6399 50.5904 2.7230 26.8838 -24.2876
# 2 44.6399 120.2532 41.0607 -14.1172 2.3074 -20.0260
# 3 50.5904 41.0607 152.3561 -11.2606 3.5022 -1.3575
# 4 2.7230 -14.1172 -11.2606 49.6696 -6.8732 0.4491
# 5 26.8838 2.3074 3.5022 -6.8732 45.0257 3.8873
# 6 -24.2876 -20.0260 -1.3575 0.4491 3.8873 47.6220
#
#
#
# Elastic Compliance Matrix: (Units=1/GPa)
#
#
# Indices 1 2 3 4 5 6 
#
# 1 0.028819 -0.006336 -0.007896 -0.007870 -0.018627 0.013403
# 2 -0.006336 0.011539 -0.000788 0.003956 0.003749 0.001255
# 3 -0.007896 -0.000788 0.009473 0.003072 0.004877 -0.004515
# 4 -0.007870 0.003956 0.003072 0.023538 0.008122 -0.003148
# 5 -0.018627 0.003749 0.004877 0.008122 0.034924 -0.010712
# 6 0.013403 0.001255 -0.004515 -0.003148 -0.010712 0.029137
#
#
# Mechanical properties :
#
#
# Convention : Reuss Voigt Hill
#
# Bulk Modulus (GPa) = 50.53325 70.33130 60.43227
# Shear Modulus (GPa) = 28.72469 43.40404 36.06436
#
# Velocity S-wave (km/s) = 3.24364 3.98722 3.63450
# Velocity P-wave (km/s) = 5.70416 6.85259 6.30458
#
# Compressibility (1/GPa) = 0.01978895
#
# Stress axis : x y z
#
# Youngs Moduli (GPa) = 34.69949 86.66610 105.56830
#
# Poissons Ratio (x) = 0.54916 0.83354
# Poissons Ratio (y) = 0.21987 0.08322
# Poissons Ratio (z) = 0.27398 0.06832
#
# Static dielectric constant tensor:
#      x y z
#    x 2.139930 0.001950 -0.071090 
#    y 0.001950 2.189990 -0.034290 
#    z -0.071090 -0.034290 2.128760 
# 
# From -- ./inp_files/237811.got.cif
#   From: 2010.05.17/outbox.cif.g08.bks.cpg/sg2_119_cif.got.tgz:237811.got - 2010.06.03 11:33:40.
