data_PCOD9062277
_publ_section_title
;
Structure prediction by ZEFSAII (Michael W. Deem and Ramdas Pophale) SiO2 
 PCOD9062277
Probable space group: P -1
;
_chemical_formula_sum "Si O2"
_cell_formula_units_Z 14
_cell_length_a 9.584515
_cell_length_b 16.374430
_cell_length_c 11.236121
_cell_angle_alpha 42.082299
_cell_angle_beta 57.191420
_cell_angle_gamma 29.335862
_cell_volume 548.505842
_symmetry_space_group_name_H-M "P -1"
_symmetry_group_IT_number 2
_symmetry_cell_setting 'triclinic'
loop_
_space_group_symop_operation_xyz
x,y,z
-x,-y,-z
loop_
_atom_site_type_symbol
_atom_site_label
_atom_site_fract_x
_atom_site_fract_y
_atom_site_fract_z
Si Si1 0.330899 0.183536 0.475852
Si Si2 0.092967 0.578522 0.915165
Si Si3 0.935285 0.359288 0.673715
Si Si4 0.697685 0.255182 0.893984
Si Si5 0.824836 0.671818 0.166092
Si Si6 0.919211 0.949627 0.492943
Si Si7 0.401950 0.744141 0.318562
O O1 0.214588 0.178349 0.648306
O O2 0.028911 0.429117 0.301469
O O3 0.500000 0.000000 0.500000
O O4 0.561380 0.150463 0.436103
O O5 0.453799 0.348235 0.993365
O O6 0.028878 0.744372 0.694895
O O7 0.000000 0.500000 0.000000
O O8 0.919309 0.705271 0.982898
O O9 0.810545 0.311342 0.834764
O O10 0.648596 0.575030 0.492411
O O11 0.056048 0.365299 0.719320
O O12 0.555901 0.353531 0.719545
O O13 0.000000 0.000000 0.000000
O O14 0.481119 0.836699 0.147386
O O15 0.086120 0.896562 0.355186
O O16 0.000000 0.000000 0.500000
#
# Coordination Sequence:
#
# PCOD9062277 Si02
#       7
#     2   2   2   2   2   2   2
#     4  11  24  41  73 106 144 188 257 296 359 449
#     4  12  27  49  74 108 153 199 243 308 382 442
#     4  11  24  46  72 105 142 199 246 302 369 442
#     4  12  28  44  72 106 148 190 253 303 371 440
#     4  11  25  47  75 104 153 195 240 310 381 434
#     4  12  26  45  74 109 142 191 251 302 364 441
#     4  11  23  49  72 102 145 197 242 303 363 446
#
# _framework density 25.523885
#
# number of rings (size 3 to 8) (size 9 to 14) (size 15 to 20)
#    0.000    0.571    2.857    5.571    8.000    1.714 
#    0.000    2.143    0.000    0.000    0.000    0.000 
#    0.000    0.000    0.000    0.000    0.000    0.000 
#
# Total GULP energy -78263.840487 kJ/mol
# GULP energy per Si atom -5590.274320 kJ/mol
# Density = 2.546579 g / cm^3
# Si number density = 25.523885 Si / 1000 Ang^3
#
#
#
# Elastic Constant Matrix: (Units=GPa)
#
#
# Indices 1 2 3 4 5 6 
#
# 1 154.7071 36.4324 30.7887 14.8897 -17.0903 -15.4753
# 2 36.4324 137.0195 38.8189 35.8669 -10.1449 -27.4481
# 3 30.7887 38.8189 65.5306 18.1352 -3.4506 -11.3082
# 4 14.8897 35.8669 18.1352 48.8918 -6.3487 -7.5307
# 5 -17.0903 -10.1449 -3.4506 -6.3487 33.2437 12.8127
# 6 -15.4753 -27.4481 -11.3082 -7.5307 12.8127 63.3679
#
#
#
# Elastic Compliance Matrix: (Units=1/GPa)
#
#
# Indices 1 2 3 4 5 6 
#
# 1 0.007631 -0.000896 -0.002785 -0.000169 0.003209 0.000309
# 2 -0.000896 0.010731 -0.003828 -0.005691 0.000159 0.003038
# 3 -0.002785 -0.003828 0.019994 -0.003806 -0.001682 0.001117
# 4 -0.000169 -0.005691 -0.003806 0.026388 0.003080 -0.000672
# 5 0.003209 0.000159 -0.001682 0.003080 0.034530 -0.006063
# 6 0.000309 0.003038 0.001117 -0.000672 -0.006063 0.018518
#
#
# Mechanical properties :
#
#
# Convention : Reuss Voigt Hill
#
# Bulk Modulus (GPa) = 42.85133 63.25970 53.05551
# Shear Modulus (GPa) = 35.56461 45.84847 40.70654
#
# Velocity S-wave (km/s) = 3.73686 4.24287 3.99788
# Velocity P-wave (km/s) = 5.95348 6.98863 6.49172
#
# Compressibility (1/GPa) = 0.02333650
#
# Stress axis : x y z
#
# Youngs Moduli (GPa) = 131.04691 93.18750 50.01497
#
# Poissons Ratio (x) = 0.08350 0.13931
# Poissons Ratio (y) = 0.11742 0.19148
# Poissons Ratio (z) = 0.36500 0.35676
#
# Static dielectric constant tensor:
#      x y z
#    x 2.057100 -0.033350 0.020960 
#    y -0.033350 2.053850 -0.009760 
#    z 0.020960 -0.009760 2.184180 
# 
# From -- ./inp_files/158532.got.cif
#   From: 2010.05.17/outbox.cif.g08.bks.cpg/sg2_80_cif.got.tgz:158532.got - 2010.06.03 11:33:40.
