data_PCOD9062413
_publ_section_title
;
Structure prediction by ZEFSAII (Michael W. Deem and Ramdas Pophale) SiO2 
 PCOD9062413
Probable space group: P -1
;
_chemical_formula_sum "Si O2"
_cell_formula_units_Z 16
_cell_length_a 25.238091
_cell_length_b 12.786170
_cell_length_c 5.352927
_cell_angle_alpha 58.222790
_cell_angle_beta 113.111601
_cell_angle_gamma 151.613308
_cell_volume 687.343374
_symmetry_space_group_name_H-M "P -1"
_symmetry_group_IT_number 2
_symmetry_cell_setting 'triclinic'
loop_
_space_group_symop_operation_xyz
x,y,z
-x,-y,-z
loop_
_atom_site_type_symbol
_atom_site_label
_atom_site_fract_x
_atom_site_fract_y
_atom_site_fract_z
Si Si1 0.162284 0.796261 0.564524
Si Si2 0.084434 0.039790 0.096443
Si Si3 0.258893 0.770753 0.054560
Si Si4 0.668367 0.728952 0.970122
Si Si5 0.540477 0.674935 0.150235
Si Si6 0.963619 0.565384 0.627133
Si Si7 0.232311 0.296844 0.548159
Si Si8 0.421859 0.841195 0.301059
O O1 0.095923 0.650615 0.372156
O O2 0.078576 0.699080 0.740169
O O3 0.253255 0.067717 0.347203
O O4 0.215064 0.757231 0.741420
O O5 0.170167 0.204112 0.286507
O O6 0.150226 0.171881 0.789573
O O7 0.018307 0.786953 0.312691
O O8 0.000000 0.000000 0.000000
O O9 0.141183 0.569472 0.242386
O O10 0.317650 0.747867 0.216042
O O11 0.366173 0.056067 0.942709
O O12 0.573918 0.474152 0.977366
O O13 0.602746 0.719191 0.987335
O O14 0.735190 0.784303 0.240176
O O15 0.500000 0.500000 0.500000
O O16 0.350078 0.585002 0.446427
O O17 0.500000 0.000000 0.500000
O O18 0.500000 0.000000 0.000000
#
# Coordination Sequence:
#
# PCOD9062413 Si02
#       8
#     2   2   2   2   2   2   2   2
#     4  11  24  44  72 110 148 196 245 311 383 460
#     4  12  28  48  77 107 151 199 256 303 377 446
#     4  12  26  43  77 101 153 190 254 311 383 452
#     4  11  24  43  70 107 147 191 247 305 380 454
#     4  11  24  40  68 104 144 189 239 303 378 448
#     4  11  26  44  71 109 152 193 252 305 388 445
#     4  12  28  49  78 106 150 197 251 313 369 447
#     4  12  30  52  81 112 151 201 261 317 383 448
#
# _framework density 23.278027000000002
#
# number of rings (size 3 to 8) (size 9 to 14) (size 15 to 20)
#    0.000    0.500    3.750    3.000   10.500    0.000 
#    0.000    0.000    0.000    0.000    0.000    0.000 
#    0.000    0.000    0.000    0.000    0.000    0.000 
#
# Total GULP energy -89144.071047 kJ/mol
# GULP energy per Si atom -5571.504440 kJ/mol
# Density = 2.322505 g / cm^3
# Si number density = 23.278027 Si / 1000 Ang^3
#
#
#
# Elastic Constant Matrix: (Units=GPa)
#
#
# Indices 1 2 3 4 5 6 
#
# 1 83.8742 23.2245 30.1234 8.9267 0.8454 29.9938
# 2 23.2245 94.8755 40.7852 -2.6425 -21.4130 15.0992
# 3 30.1234 40.7852 83.3138 -0.9540 -16.3353 13.7884
# 4 8.9267 -2.6425 -0.9540 46.0322 15.1546 8.8061
# 5 0.8454 -21.4130 -16.3353 15.1546 40.9803 3.1315
# 6 29.9938 15.0992 13.7884 8.8061 3.1315 35.5074
#
#
#
# Elastic Compliance Matrix: (Units=1/GPa)
#
#
# Indices 1 2 3 4 5 6 
#
# 1 0.018590 -0.000865 -0.004346 -0.000777 -0.001261 -0.013344
# 2 -0.000865 0.015019 -0.005132 -0.000349 0.006265 -0.004129
# 3 -0.004346 -0.005132 0.017139 -0.000351 0.004454 -0.001108
# 4 -0.000777 -0.000349 -0.000351 0.025867 -0.009518 -0.004635
# 5 -0.001261 0.006265 0.004454 -0.009518 0.033295 -0.003905
# 6 -0.013344 -0.004129 -0.001108 -0.004635 -0.003905 0.043115
#
#
# Mechanical properties :
#
#
# Convention : Reuss Voigt Hill
#
# Bulk Modulus (GPa) = 33.26339 50.03664 41.65002
# Shear Modulus (GPa) = 27.21331 35.69933 31.45632
#
# Velocity S-wave (km/s) = 3.42286 3.92038 3.68003
# Velocity P-wave (km/s) = 5.47192 6.48339 5.99901
#
# Compressibility (1/GPa) = 0.03006308
#
# Stress axis : x y z
#
# Youngs Moduli (GPa) = 53.79149 66.58051 58.34576
#
# Poissons Ratio (x) = 0.05759 0.25356
# Poissons Ratio (y) = 0.04653 0.29944
# Poissons Ratio (z) = 0.23377 0.34170
#
# Static dielectric constant tensor:
#      x y z
#    x 2.003490 0.173430 0.053190 
#    y 0.173430 2.398570 0.097140 
#    z 0.053190 0.097140 1.971720 
# 
# From -- ./inp_files/123589.got.cif
#   From: 2010.05.17/outbox.cif.g08.bks.cpg/sg2_62_cif.got.tgz:123589.got - 2010.06.03 11:33:40.
