data_PCOD9062610
_publ_section_title
;
Structure prediction by ZEFSAII (Michael W. Deem and Ramdas Pophale) SiO2 
 PCOD9062610
Probable space group: P -1
;
_chemical_formula_sum "Si O2"
_cell_formula_units_Z 16
_cell_length_a 9.718322
_cell_length_b 15.691102
_cell_length_c 9.715461
_cell_angle_alpha 111.174034
_cell_angle_beta 44.178185
_cell_angle_gamma 82.468660
_cell_volume 769.974537
_symmetry_space_group_name_H-M "P -1"
_symmetry_group_IT_number 2
_symmetry_cell_setting 'triclinic'
loop_
_space_group_symop_operation_xyz
x,y,z
-x,-y,-z
loop_
_atom_site_type_symbol
_atom_site_label
_atom_site_fract_x
_atom_site_fract_y
_atom_site_fract_z
Si Si1 0.236068 0.867503 0.758974
Si Si2 0.998945 0.284031 0.521974
Si Si3 0.240496 0.535237 0.762174
Si Si4 0.055775 0.199074 0.914885
Si Si5 0.137170 0.491091 0.111132
Si Si6 0.402314 0.752669 0.273251
Si Si7 0.631662 0.892873 0.617866
Si Si8 0.351491 0.148375 0.949907
O O1 0.298564 0.813390 0.531101
O O2 0.463409 0.860941 0.652749
O O3 0.159967 0.804987 0.874843
O O4 0.000000 0.000000 0.000000
O O5 0.205375 0.193894 0.429120
O O6 0.907991 0.409165 0.702978
O O7 0.778147 0.272562 0.674443
O O8 0.124519 0.246455 0.260708
O O9 0.500000 0.500000 0.500000
O O10 0.116972 0.490299 0.732325
O O11 0.250341 0.494657 0.886716
O O12 0.051284 0.672812 0.974389
O O13 0.190518 0.121037 0.639925
O O14 0.251456 0.155229 0.872605
O O15 0.331065 0.367191 0.964413
O O16 0.443573 0.830202 0.195905
O O17 0.459471 0.024908 0.861143
#
# Coordination Sequence:
#
# PCOD9062610 Si02
#       8
#     2   2   2   2   2   2   2   2
#     4  12  23  40  73 104 132 179 228 281 339 399
#     4  12  28  45  67 101 143 183 222 285 347 399
#     4  11  24  41  73 104 133 172 232 286 337 396
#     4  12  22  43  71 104 130 179 231 277 340 404
#     4  11  25  46  67 101 140 179 222 288 339 403
#     4  12  25  45  70  98 142 182 227 277 342 413
#     4  12  25  46  70 103 140 173 236 288 330 404
#     4  12  25  44  71 101 138 183 227 280 342 406
#
# _framework density 20.779907000000001
#
# number of rings (size 3 to 8) (size 9 to 14) (size 15 to 20)
#    0.000    0.250    6.250    2.625    3.500    3.000 
#    0.000    0.000    0.000    0.000    0.000    0.000 
#    0.000    0.000    0.000    0.000    0.000    0.000 
#
# Total GULP energy -89592.727473 kJ/mol
# GULP energy per Si atom -5599.545467 kJ/mol
# Density = 2.073261 g / cm^3
# Si number density = 20.779907 Si / 1000 Ang^3
#
#
#
# Elastic Constant Matrix: (Units=GPa)
#
#
# Indices 1 2 3 4 5 6 
#
# 1 67.2194 14.1292 10.9467 7.5600 -6.9312 20.2822
# 2 14.1292 54.1935 -10.0754 7.4364 -1.6035 15.2946
# 3 10.9467 -10.0754 51.8687 8.0430 -3.4741 17.6637
# 4 7.5600 7.4364 8.0430 43.1383 12.8150 -7.0038
# 5 -6.9312 -1.6035 -3.4741 12.8150 27.4311 -0.6766
# 6 20.2822 15.2946 17.6637 -7.0038 -0.6766 45.3406
#
#
#
# Elastic Compliance Matrix: (Units=1/GPa)
#
#
# Indices 1 2 3 4 5 6 
#
# 1 0.019580 -0.000977 0.000684 -0.007403 0.008195 -0.009717
# 2 -0.000977 0.027575 0.013392 -0.012126 0.008335 -0.015831
# 3 0.000684 0.013392 0.031291 -0.014733 0.011330 -0.019121
# 4 -0.007403 -0.012126 -0.014733 0.038962 -0.022183 0.018829
# 5 0.008195 0.008335 0.011330 -0.022183 0.050477 -0.013565
# 6 -0.009717 -0.015831 -0.019121 0.018829 -0.013565 0.041897
#
#
# Mechanical properties :
#
#
# Convention : Reuss Voigt Hill
#
# Bulk Modulus (GPa) = 9.55615 22.58695 16.07155
# Shear Modulus (GPa) = 22.88674 33.73407 28.31041
#
# Velocity S-wave (km/s) = 3.32232 4.03351 3.69507
# Velocity P-wave (km/s) = 4.39611 5.70837 5.09467
#
# Compressibility (1/GPa) = 0.10464464
#
# Stress axis : x y z
#
# Youngs Moduli (GPa) = 51.07211 36.26414 31.95760
#
# Poissons Ratio (x) = 0.03544 -0.02185
# Poissons Ratio (y) = 0.04991 -0.42799
# Poissons Ratio (z) = -0.03491 -0.48567
#
# Static dielectric constant tensor:
#      x y z
#    x 1.714200 0.005060 -0.007770 
#    y 0.005060 1.740610 -0.003620 
#    z -0.007770 -0.003620 1.727970 
# 
# From -- ./inp_files/186431.got.cif
#   From: 2010.05.17/outbox.cif.g08.bks.cpg/sg2_94_cif.got.tgz:186431.got - 2010.06.03 11:33:40.
