data_PCOD9062799
_publ_section_title
;
Structure prediction by ZEFSAII (Michael W. Deem and Ramdas Pophale) SiO2 
 PCOD9062799
Probable space group: P -1
;
_chemical_formula_sum "Si O2"
_cell_formula_units_Z 16
_cell_length_a 12.106803
_cell_length_b 9.892970
_cell_length_c 9.178897
_cell_angle_alpha 72.396790
_cell_angle_beta 110.654264
_cell_angle_gamma 62.459977
_cell_volume 755.052192
_symmetry_space_group_name_H-M "P -1"
_symmetry_group_IT_number 2
_symmetry_cell_setting 'triclinic'
loop_
_space_group_symop_operation_xyz
x,y,z
-x,-y,-z
loop_
_atom_site_type_symbol
_atom_site_label
_atom_site_fract_x
_atom_site_fract_y
_atom_site_fract_z
Si Si1 0.434362 0.690382 0.482855
Si Si2 0.111298 0.538605 0.168166
Si Si3 0.406245 0.681887 0.804836
Si Si4 0.501427 0.112880 0.092981
Si Si5 0.108093 0.834161 0.216910
Si Si6 0.857826 0.525596 0.134821
Si Si7 0.596298 0.844799 0.475472
Si Si8 0.083033 0.796435 0.542987
O O1 0.500000 0.500000 0.500000
O O2 0.473408 0.673947 0.679450
O O3 0.252198 0.822401 0.329881
O O4 0.508192 0.769368 0.416564
O O5 0.158993 0.651464 0.220497
O O6 0.238668 0.324173 0.334700
O O7 0.955573 0.597128 0.148953
O O8 0.110788 0.555596 0.988094
O O9 0.400347 0.817776 0.870143
O O10 0.257302 0.710720 0.677317
O O11 0.500000 0.500000 0.000000
O O12 0.591209 0.954263 0.306324
O O13 0.323251 0.298924 0.980842
O O14 0.500000 0.000000 0.000000
O O15 0.041712 0.830318 0.341705
O O16 0.000000 0.000000 0.000000
O O17 0.922453 0.354256 0.331508
O O18 0.500000 0.000000 0.500000
O O19 0.000000 0.000000 0.500000
#
# Coordination Sequence:
#
# PCOD9062799 Si02
#       8
#     2   2   2   2   2   2   2   2
#     4  11  24  42  71  98 132 178 232 286 337 405
#     4  11  25  44  71  98 141 180 232 291 341 418
#     4  11  24  44  68  98 137 178 228 284 340 408
#     4  12  28  45  70 105 143 185 232 286 349 418
#     4  11  26  44  68 102 134 181 235 287 347 414
#     4  11  25  46  67 102 138 184 231 284 353 413
#     4  12  24  45  70 101 139 186 234 281 346 411
#     4  11  26  44  69  98 139 182 231 284 351 416
#
# _framework density 21.190588999999999
#
# number of rings (size 3 to 8) (size 9 to 14) (size 15 to 20)
#    0.000    0.750    5.000    0.750    7.000    2.500 
#    0.000    0.000    0.000    0.000    0.000    0.000 
#    0.000    0.000    0.000    0.000    0.000    0.000 
#
# Total GULP energy -89193.753984 kJ/mol
# GULP energy per Si atom -5574.609624 kJ/mol
# Density = 2.114236 g / cm^3
# Si number density = 21.190589 Si / 1000 Ang^3
#
#
#
# Elastic Constant Matrix: (Units=GPa)
#
#
# Indices 1 2 3 4 5 6 
#
# 1 51.2851 -3.8990 10.8771 -6.1321 -2.9907 14.7740
# 2 -3.8990 93.1600 26.1171 4.0943 -10.6045 16.8836
# 3 10.8771 26.1171 152.4091 -13.0946 -16.2801 -2.5376
# 4 -6.1321 4.0943 -13.0946 41.3405 7.2934 2.8507
# 5 -2.9907 -10.6045 -16.2801 7.2934 28.1361 -4.6801
# 6 14.7740 16.8836 -2.5376 2.8507 -4.6801 36.2386
#
#
#
# Elastic Compliance Matrix: (Units=1/GPa)
#
#
# Indices 1 2 3 4 5 6 
#
# 1 0.024097 0.003643 -0.002281 0.003361 -0.000249 -0.011978
# 2 0.003643 0.013342 -0.002467 -0.001619 0.003188 -0.007335
# 3 -0.002281 -0.002467 0.007688 0.001546 0.003363 0.002930
# 4 0.003361 -0.001619 0.001546 0.026795 -0.006887 -0.003505
# 5 -0.000249 0.003188 0.003363 -0.006887 0.041233 0.004719
# 6 -0.011978 -0.007335 0.002930 -0.003505 0.004719 0.036986
#
#
# Mechanical properties :
#
#
# Convention : Reuss Voigt Hill
#
# Bulk Modulus (GPa) = 23.30145 40.33829 31.81987
# Shear Modulus (GPa) = 30.00200 38.72695 34.36448
#
# Velocity S-wave (km/s) = 3.76682 4.27963 4.03138
# Velocity P-wave (km/s) = 5.47161 6.59527 6.05954
#
# Compressibility (1/GPa) = 0.04291578
#
# Stress axis : x y z
#
# Youngs Moduli (GPa) = 41.49819 74.95354 130.07918
#
# Poissons Ratio (x) = -0.27304 0.29675
# Poissons Ratio (y) = -0.15117 0.32089
# Poissons Ratio (z) = 0.09467 0.18490
#
# Static dielectric constant tensor:
#      x y z
#    x 1.800320 -0.033180 -0.055420 
#    y -0.033180 1.587260 0.182980 
#    z -0.055420 0.182980 1.394780 
# 
# From -- ./inp_files/243101.got.cif
#   From: 2010.05.17/outbox.cif.g08.bks.cpg/sg2_122_cif.got.tgz:243101.got - 2010.06.03 11:33:40.
