data_PCOD9062902
_publ_section_title
;
Structure prediction by ZEFSAII (Michael W. Deem and Ramdas Pophale) SiO2 
 PCOD9062902
Probable space group: P -1
;
_chemical_formula_sum "Si O2"
_cell_formula_units_Z 16
_cell_length_a 24.685908
_cell_length_b 5.392320
_cell_length_c 24.566988
_cell_angle_alpha 101.098464
_cell_angle_beta 168.535526
_cell_angle_gamma 79.722996
_cell_volume 636.952260
_symmetry_space_group_name_H-M "P -1"
_symmetry_group_IT_number 2
_symmetry_cell_setting 'triclinic'
loop_
_space_group_symop_operation_xyz
x,y,z
-x,-y,-z
loop_
_atom_site_type_symbol
_atom_site_label
_atom_site_fract_x
_atom_site_fract_y
_atom_site_fract_z
Si Si1 0.305570 0.384139 0.587513
Si Si2 0.333663 0.899529 0.221522
Si Si3 0.842291 0.706681 0.097793
Si Si4 0.886899 0.973256 0.706341
Si Si5 0.262120 0.453718 0.220588
Si Si6 0.496390 0.964077 0.913108
Si Si7 0.760036 0.662618 0.245082
Si Si8 0.021905 0.086114 0.380074
O O1 0.280938 0.127441 0.516664
O O2 0.213458 0.318134 0.555344
O O3 0.071851 0.537077 0.338209
O O4 0.572352 0.546715 0.841201
O O5 0.241261 0.164947 0.166385
O O6 0.642000 0.971832 0.508276
O O7 0.313321 0.664775 0.232960
O O8 0.125324 0.824803 0.963900
O O9 0.930111 0.788502 0.127088
O O10 0.863770 0.954814 0.167843
O O11 0.500000 0.500000 0.500000
O O12 0.000000 0.500000 0.000000
O O13 0.291158 0.075282 0.761173
O O14 0.260748 0.918237 0.633541
O O15 0.679152 0.741271 0.107075
O O16 0.758809 0.146234 0.160251
O O17 0.000000 0.500000 0.500000
O O18 0.500000 0.500000 0.000000
#
# Coordination Sequence:
#
# PCOD9062902 Si02
#       8
#     2   2   2   2   2   2   2   2
#     4  11  24  43  69  98 145 183 230 294 353 423
#     4  12  26  44  76 106 146 196 250 302 380 441
#     4  11  24  43  69  98 145 183 230 294 353 423
#     4  11  26  43  68 109 142 184 242 297 354 439
#     4  12  26  48  72 106 150 194 248 312 372 441
#     4  11  24  43  68  97 144 175 234 298 348 437
#     4  11  24  43  68 100 133 181 229 295 358 420
#     4  11  24  43  66 102 136 188 230 284 364 427
#
# _framework density 25.119620999999999
#
# number of rings (size 3 to 8) (size 9 to 14) (size 15 to 20)
#    0.000    0.750    0.000    6.750    5.250   10.000 
#    0.000    0.000    0.000    0.000    0.000    0.000 
#    0.000    0.000    0.000    0.000    0.000    0.000 
#
# Total GULP energy -89253.301507 kJ/mol
# GULP energy per Si atom -5578.331344 kJ/mol
# Density = 2.506245 g / cm^3
# Si number density = 25.119621 Si / 1000 Ang^3
#
#
#
# Elastic Constant Matrix: (Units=GPa)
#
#
# Indices 1 2 3 4 5 6 
#
# 1 79.5339 39.2680 58.9109 4.0584 14.1709 29.7503
# 2 39.2680 112.3772 38.1018 -0.1546 3.8224 32.6325
# 3 58.9109 38.1018 239.3376 3.0241 23.0791 32.8637
# 4 4.0584 -0.1546 3.0241 48.8645 5.1142 -4.1707
# 5 14.1709 3.8224 23.0791 5.1142 56.4451 1.3590
# 6 29.7503 32.6325 32.8637 -4.1707 1.3590 45.7954
#
#
#
# Elastic Compliance Matrix: (Units=1/GPa)
#
#
# Indices 1 2 3 4 5 6 
#
# 1 0.020431 -0.003493 -0.002926 -0.001928 -0.003311 -0.008761
# 2 -0.003493 0.011963 -0.000234 -0.000214 0.000329 -0.006117
# 3 -0.002926 -0.000234 0.005303 -0.000088 -0.001369 -0.001705
# 4 -0.001928 -0.000214 -0.000088 0.021075 -0.001458 0.003431
# 5 -0.003311 0.000329 -0.001369 -0.001458 0.019164 0.002197
# 6 -0.008761 -0.006117 -0.001705 0.003431 0.002197 0.033358
#
#
# Mechanical properties :
#
#
# Convention : Reuss Voigt Hill
#
# Bulk Modulus (GPa) = 40.99906 78.20111 59.60009
# Shear Modulus (GPa) = 37.67058 49.88552 43.77805
#
# Velocity S-wave (km/s) = 3.87673 4.46120 4.17919
# Velocity P-wave (km/s) = 6.03288 7.59839 6.86044
#
# Compressibility (1/GPa) = 0.02439080
#
# Stress axis : x y z
#
# Youngs Moduli (GPa) = 48.94618 83.58955 188.57466
#
# Poissons Ratio (x) = 0.29197 0.55180
# Poissons Ratio (y) = 0.17097 0.04410
# Poissons Ratio (z) = 0.14323 0.01955
#
# Static dielectric constant tensor:
#      x y z
#    x 2.191510 -0.146710 -0.038000 
#    y -0.146710 1.983890 0.036240 
#    z -0.038000 0.036240 1.908080 
# 
# From -- ./inp_files/621069.got.cif
#   From: 2010.05.17/outbox.cif.g08.bks.cpg/sg2_311_cif.got.tgz:621069.got - 2010.06.03 11:33:40.
