data_PCOD9062335
_publ_section_title
;
Structure prediction by ZEFSAII (Michael W. Deem and Ramdas Pophale) SiO2 
 PCOD9062335
Probable space group: P -1
;
_chemical_formula_sum "Si O2"
_cell_formula_units_Z 16
_cell_length_a 12.286005
_cell_length_b 17.865044
_cell_length_c 9.596084
_cell_angle_alpha 41.602015
_cell_angle_beta 34.992617
_cell_angle_gamma 35.810424
_cell_volume 684.543024
_symmetry_space_group_name_H-M "P -1"
_symmetry_group_IT_number 2
_symmetry_cell_setting 'triclinic'
loop_
_space_group_symop_operation_xyz
x,y,z
-x,-y,-z
loop_
_atom_site_type_symbol
_atom_site_label
_atom_site_fract_x
_atom_site_fract_y
_atom_site_fract_z
Si Si1 0.084159 0.687366 0.075645
Si Si2 0.974129 0.376447 0.471439
Si Si3 0.951994 0.975569 0.740690
Si Si4 0.053530 0.176328 0.420132
Si Si5 0.570673 0.354723 0.670447
Si Si6 0.398453 0.396162 0.087215
Si Si7 0.468568 0.170614 0.893250
Si Si8 0.655807 0.671763 0.457753
O O1 0.087401 0.674437 0.256191
O O2 0.866732 0.685032 0.257364
O O3 0.296855 0.553345 0.983637
O O4 0.054378 0.824035 0.874439
O O5 0.035085 0.272502 0.429393
O O6 0.191548 0.382730 0.272799
O O7 0.772291 0.528920 0.456290
O O8 0.682338 0.054845 0.909923
O O9 0.047897 0.045214 0.641982
O O10 0.000000 0.000000 0.500000
O O11 0.814400 0.263260 0.476275
O O12 0.264997 0.147196 0.149172
O O13 0.500000 0.500000 0.500000
O O14 0.417712 0.302613 0.845020
O O15 0.572838 0.339447 0.857161
O O16 0.448663 0.337831 0.272655
O O17 0.493517 0.207918 0.657269
#
# Coordination Sequence:
#
# PCOD9062335 Si02
#       8
#     2   2   2   2   2   2   2   2
#     4   9  20  39  66  93 133 168 216 267 312 385
#     4   9  18  39  66  98 126 169 208 264 336 382
#     4  11  26  44  63  93 127 174 226 263 310 380
#     4  11  24  41  66  95 132 172 215 263 323 385
#     4  11  24  37  65 103 132 166 210 268 332 383
#     4   9  19  40  68  98 133 163 207 270 329 384
#     4  11  24  43  68  95 131 171 215 269 318 382
#     4   9  19  37  69  99 125 172 209 261 337 379
#
# _framework density 23.373258
#
# number of rings (size 3 to 8) (size 9 to 14) (size 15 to 20)
#    0.000    2.000    1.250    3.000    7.000    3.500 
#    2.250    2.500    0.000    0.000    0.000    0.000 
#    0.000    0.000    0.000    0.000    0.000    0.000 
#
# Total GULP energy -89462.263219 kJ/mol
# GULP energy per Si atom -5591.391451 kJ/mol
# Density = 2.332006 g / cm^3
# Si number density = 23.373258 Si / 1000 Ang^3
#
#
#
# Elastic Constant Matrix: (Units=GPa)
#
#
# Indices 1 2 3 4 5 6 
#
# 1 91.6834 24.3625 40.8728 -9.8125 -4.0595 9.2796
# 2 24.3625 79.0797 64.7112 -21.8752 -5.5919 8.3830
# 3 40.8728 64.7112 128.5629 -10.4608 -15.5364 -9.3924
# 4 -9.8125 -21.8752 -10.4608 44.8307 0.4240 -6.2739
# 5 -4.0595 -5.5919 -15.5364 0.4240 39.9377 -0.2499
# 6 9.2796 8.3830 -9.3924 -6.2739 -0.2499 34.0043
#
#
#
# Elastic Compliance Matrix: (Units=1/GPa)
#
#
# Indices 1 2 3 4 5 6 
#
# 1 0.013584 0.000884 -0.005071 0.001519 -0.000516 -0.005049
# 2 0.000884 0.027314 -0.014192 0.008931 -0.001759 -0.009260
# 3 -0.005071 -0.014192 0.017523 -0.002692 0.004401 0.009258
# 4 0.001519 0.008931 -0.002692 0.026584 0.000085 0.001546
# 5 -0.000516 -0.001759 0.004401 0.000085 0.026464 0.002000
# 6 -0.005049 -0.009260 0.009258 0.001546 0.002000 0.035926
#
#
# Mechanical properties :
#
#
# Convention : Reuss Voigt Hill
#
# Bulk Modulus (GPa) = 46.16204 62.13546 54.14875
# Shear Modulus (GPa) = 26.12705 35.04649 30.58677
#
# Velocity S-wave (km/s) = 3.34701 3.87644 3.62141
# Velocity P-wave (km/s) = 5.89317 6.83209 6.37992
#
# Compressibility (1/GPa) = 0.02166282
#
# Stress axis : x y z
#
# Youngs Moduli (GPa) = 73.61764 36.61139 57.06813
#
# Poissons Ratio (x) = -0.03236 0.28939
# Poissons Ratio (y) = -0.06507 0.80990
# Poissons Ratio (z) = 0.37331 0.51958
#
# Static dielectric constant tensor:
#      x y z
#    x 1.941980 0.015730 -0.044460 
#    y 0.015730 1.895950 0.014000 
#    z -0.044460 0.014000 1.861350 
# 
# From -- ./inp_files/278753.got.cif
#   From: 2010.05.17/outbox.cif.g08.bks.cpg/sg2_140_cif.got.tgz:278753.got - 2010.06.03 11:33:40.
