data_PCOD9062716
_publ_section_title
;
Structure prediction by ZEFSAII (Michael W. Deem and Ramdas Pophale) SiO2 
 PCOD9062716
Probable space group: P -1
;
_chemical_formula_sum "Si O2"
_cell_formula_units_Z 16
_cell_length_a 9.349654
_cell_length_b 8.707080
_cell_length_c 12.505807
_cell_angle_alpha 126.879561
_cell_angle_beta 97.785138
_cell_angle_gamma 63.255372
_cell_volume 714.208700
_symmetry_space_group_name_H-M "P -1"
_symmetry_group_IT_number 2
_symmetry_cell_setting 'triclinic'
loop_
_space_group_symop_operation_xyz
x,y,z
-x,-y,-z
loop_
_atom_site_type_symbol
_atom_site_label
_atom_site_fract_x
_atom_site_fract_y
_atom_site_fract_z
Si Si1 0.016458 0.997571 0.627028
Si Si2 0.632608 0.289173 0.485467
Si Si3 0.132601 0.519923 0.684070
Si Si4 0.458672 0.080955 0.741718
Si Si5 0.025737 0.536033 0.141394
Si Si6 0.536890 0.541136 0.245229
Si Si7 0.604050 0.766464 0.968295
Si Si8 0.818259 0.814848 0.635359
O O1 0.017464 0.214455 0.751901
O O2 0.187328 0.780492 0.570398
O O3 0.000000 0.000000 0.500000
O O4 0.868008 0.988785 0.666659
O O5 0.500000 0.500000 0.500000
O O6 0.599020 0.356133 0.633381
O O7 0.608043 0.075722 0.379182
O O8 0.281629 0.577359 0.733904
O O9 0.195138 0.311945 0.524297
O O10 0.083276 0.493160 0.788883
O O11 0.965050 0.676088 0.672310
O O12 0.459728 0.263361 0.739892
O O13 0.647035 0.919995 0.720097
O O14 0.372174 0.189770 0.887795
O O15 0.215581 0.376542 0.120864
O O16 0.000000 0.500000 0.000000
O O17 0.493881 0.374186 0.108037
O O18 0.500000 0.000000 0.000000
#
# Coordination Sequence:
#
# PCOD9062716 Si02
#       8
#     2   2   2   2   2   2   2   2
#     4  12  24  42  69 101 138 182 232 283 342 412
#     4  12  25  42  68 104 140 180 230 284 342 409
#     4  11  24  43  68 101 139 178 226 287 346 409
#     4  12  25  45  70 102 139 184 231 285 344 414
#     4  12  26  47  71 102 142 186 232 285 350 418
#     4  12  25  44  70 103 137 182 232 284 349 411
#     4  12  27  48  71 101 142 186 231 286 349 421
#     4  11  24  42  69 101 137 178 229 287 346 404
#
# _framework density 22.402415000000001
#
# number of rings (size 3 to 8) (size 9 to 14) (size 15 to 20)
#    0.000    0.250    2.500    7.500    1.750    2.000 
#    0.000    1.875    0.000    0.000    0.000    0.000 
#    0.000    0.000    0.000    0.000    0.000    0.000 
#
# Total GULP energy -89528.330164 kJ/mol
# GULP energy per Si atom -5595.520635 kJ/mol
# Density = 2.235143 g / cm^3
# Si number density = 22.402415 Si / 1000 Ang^3
#
#
#
# Elastic Constant Matrix: (Units=GPa)
#
#
# Indices 1 2 3 4 5 6 
#
# 1 71.2612 -11.1428 2.7838 10.7915 -7.7157 -23.8744
# 2 -11.1428 75.1710 16.2745 1.6641 4.1217 -9.2880
# 3 2.7838 16.2745 121.8205 -0.9206 5.4460 7.0339
# 4 10.7915 1.6641 -0.9206 31.2836 -1.2694 -8.9490
# 5 -7.7157 4.1217 5.4460 -1.2694 42.6790 6.7388
# 6 -23.8744 -9.2880 7.0339 -8.9490 6.7388 46.3788
#
#
#
# Elastic Compliance Matrix: (Units=1/GPa)
#
#
# Indices 1 2 3 4 5 6 
#
# 1 0.018841 0.004378 -0.001682 -0.003900 0.001526 0.009856
# 2 0.004378 0.015270 -0.002418 -0.000813 -0.001301 0.005710
# 3 -0.001682 -0.002418 0.008753 0.000213 -0.000783 -0.002523
# 4 -0.003900 -0.000813 0.000213 0.034643 -0.000339 0.004531
# 5 0.001526 -0.001301 -0.000783 -0.000339 0.024390 -0.002966
# 6 0.009856 0.005710 -0.002523 0.004531 -0.002966 0.029467
#
#
# Mechanical properties :
#
#
# Convention : Reuss Voigt Hill
#
# Bulk Modulus (GPa) = 23.03137 31.56486 27.29811
# Shear Modulus (GPa) = 34.41601 41.42409 37.92005
#
# Velocity S-wave (km/s) = 3.92377 4.30477 4.11868
# Velocity P-wave (km/s) = 5.55257 6.23126 5.90168
#
# Compressibility (1/GPa) = 0.04341904
#
# Stress axis : x y z
#
# Youngs Moduli (GPa) = 53.07561 65.48704 114.25306
#
# Poissons Ratio (x) = -0.28667 0.19219
# Poissons Ratio (y) = -0.23234 0.27624
# Poissons Ratio (z) = 0.08928 0.15833
#
# Static dielectric constant tensor:
#      x y z
#    x 1.818260 -0.035550 0.024260 
#    y -0.035550 1.925170 0.006590 
#    z 0.024260 0.006590 1.765900 
# 
# From -- ./inp_files/383295.got.cif
#   From: 2010.05.17/outbox.cif.g08.bks.cpg/sg2_192_cif.got.tgz:383295.got - 2010.06.03 11:33:40.
