data_PCOD9062712
_publ_section_title
;
Structure prediction by ZEFSAII (Michael W. Deem and Ramdas Pophale) SiO2 
 PCOD9062712
Probable space group: P -1
;
_chemical_formula_sum "Si O2"
_cell_formula_units_Z 16
_cell_length_a 10.781431
_cell_length_b 13.971652
_cell_length_c 25.112743
_cell_angle_alpha 151.836572
_cell_angle_beta 153.542940
_cell_angle_gamma 43.843068
_cell_volume 752.686828
_symmetry_space_group_name_H-M "P -1"
_symmetry_group_IT_number 2
_symmetry_cell_setting 'triclinic'
loop_
_space_group_symop_operation_xyz
x,y,z
-x,-y,-z
loop_
_atom_site_type_symbol
_atom_site_label
_atom_site_fract_x
_atom_site_fract_y
_atom_site_fract_z
Si Si1 0.122981 0.449063 0.273495
Si Si2 0.968884 0.080403 0.756213
Si Si3 0.845118 0.290253 0.302615
Si Si4 0.371488 0.123605 0.568974
Si Si5 0.862437 0.245672 0.964293
Si Si6 0.794207 0.751093 0.681697
Si Si7 0.770217 0.773839 0.317521
Si Si8 0.694302 0.579795 0.870850
O O1 0.455598 0.608605 0.472314
O O2 0.118657 0.311692 0.257464
O O3 0.911698 0.590642 0.270985
O O4 0.019704 0.309886 0.112725
O O5 0.894243 0.043050 0.646951
O O6 0.121361 0.912559 0.752834
O O7 0.644857 0.033568 0.635198
O O8 0.156957 0.312332 0.963965
O O9 0.515540 0.288371 0.165092
O O10 0.000000 0.500000 0.500000
O O11 0.007184 0.299789 0.313111
O O12 0.284718 0.199658 0.628267
O O13 0.499472 0.335965 0.686052
O O14 0.539868 0.267434 0.851033
O O15 0.828353 0.000834 0.817042
O O16 0.059195 0.391345 0.064912
O O17 0.000000 0.000000 0.500000
#
# Coordination Sequence:
#
# PCOD9062712 Si02
#       8
#     2   2   2   2   2   2   2   2
#     4  11  26  44  71  99 133 189 225 281 330 397
#     4  11  24  42  69 100 136 179 215 279 343 400
#     4  12  23  43  69 101 136 178 221 277 345 403
#     4  11  25  46  68 102 137 175 224 279 345 398
#     4  12  25  46  72  99 135 181 232 275 342 400
#     4  11  24  48  67  98 145 173 229 281 334 405
#     4  12  25  49  70  97 141 180 229 279 331 403
#     4  12  24  44  71 101 137 174 224 283 337 406
#
# _framework density 21.257180000000002
#
# number of rings (size 3 to 8) (size 9 to 14) (size 15 to 20)
#    0.000    0.500    5.000    3.000    0.000    1.000 
#    4.500    0.000    0.000    0.000    0.000    0.000 
#    0.000    0.000    0.000    0.000    0.000    0.000 
#
# Total GULP energy -89601.171542 kJ/mol
# GULP energy per Si atom -5600.073221 kJ/mol
# Density = 2.120880 g / cm^3
# Si number density = 21.257180 Si / 1000 Ang^3
#
#
#
# Elastic Constant Matrix: (Units=GPa)
#
#
# Indices 1 2 3 4 5 6 
#
# 1 63.1388 3.8942 28.4577 -4.5821 -12.5779 4.5829
# 2 3.8942 95.2091 25.0347 -12.2594 5.3381 -2.4020
# 3 28.4577 25.0347 81.6570 -22.9186 -23.4323 6.6784
# 4 -4.5821 -12.2594 -22.9186 35.3457 1.5658 -1.0518
# 5 -12.5779 5.3381 -23.4323 1.5658 46.2055 -2.4738
# 6 4.5829 -2.4020 6.6784 -1.0518 -2.4738 26.6218
#
#
#
# Elastic Compliance Matrix: (Units=1/GPa)
#
#
# Indices 1 2 3 4 5 6 
#
# 1 0.019165 0.000634 -0.006776 -0.001808 0.001690 -0.001456
# 2 0.000634 0.012153 -0.004720 0.001452 -0.003573 0.001897
# 3 -0.006776 -0.004720 0.022235 0.011381 0.009403 -0.003514
# 4 -0.001808 0.001452 0.011381 0.035750 0.003866 -0.000641
# 5 0.001690 -0.003573 0.009403 0.003866 0.027137 -0.000298
# 6 -0.001456 0.001897 -0.003514 -0.000641 -0.000298 0.038814
#
#
# Mechanical properties :
#
#
# Convention : Reuss Voigt Hill
#
# Bulk Modulus (GPa) = 31.41914 39.41978 35.41946
# Shear Modulus (GPa) = 26.65421 33.80916 30.23169
#
# Velocity S-wave (km/s) = 3.54488 3.99241 3.77528
# Velocity P-wave (km/s) = 5.61849 6.31165 5.97513
#
# Compressibility (1/GPa) = 0.03182773
#
# Stress axis : x y z
#
# Youngs Moduli (GPa) = 52.17973 82.28131 44.97459
#
# Poissons Ratio (x) = -0.05214 0.30476
# Poissons Ratio (y) = -0.03306 0.21227
# Poissons Ratio (z) = 0.35359 0.38835
#
# Static dielectric constant tensor:
#      x y z
#    x 1.737960 0.011650 -0.013180 
#    y 0.011650 1.763140 -0.013760 
#    z -0.013180 -0.013760 1.755780 
# 
# From -- ./inp_files/608196.got.cif
#   From: 2010.05.17/outbox.cif.g08.bks.cpg/sg2_305_cif.got.tgz:608196.got - 2010.06.03 11:33:40.
