data_PCOD9062800
_publ_section_title
;
Structure prediction by ZEFSAII (Michael W. Deem and Ramdas Pophale) SiO2 
 PCOD9062800
Probable space group: P -1
;
_chemical_formula_sum "Si O2"
_cell_formula_units_Z 16
_cell_length_a 6.770416
_cell_length_b 22.843974
_cell_length_c 8.561607
_cell_angle_alpha 133.973821
_cell_angle_beta 124.853230
_cell_angle_gamma 45.799220
_cell_volume 673.291715
_symmetry_space_group_name_H-M "P -1"
_symmetry_group_IT_number 2
_symmetry_cell_setting 'triclinic'
loop_
_space_group_symop_operation_xyz
x,y,z
-x,-y,-z
loop_
_atom_site_type_symbol
_atom_site_label
_atom_site_fract_x
_atom_site_fract_y
_atom_site_fract_z
Si Si1 0.604846 0.373799 0.400845
Si Si2 0.755731 0.523726 0.308497
Si Si3 0.793960 0.949125 0.127879
Si Si4 0.234319 0.313629 0.579673
Si Si5 0.301936 0.104425 0.674732
Si Si6 0.870363 0.585765 0.977654
Si Si7 0.308457 0.825980 0.925967
Si Si8 0.231352 0.870645 0.631248
O O1 0.503693 0.444440 0.634141
O O2 0.384232 0.412065 0.229517
O O3 0.920029 0.342680 0.443390
O O4 0.595552 0.280526 0.273147
O O5 0.702145 0.612784 0.344431
O O6 0.000000 0.500000 0.500000
O O7 0.891288 0.436435 0.086439
O O8 0.764936 0.909586 0.204473
O O9 0.032267 0.867271 0.980480
O O10 0.865829 0.032407 0.324178
O O11 0.500000 0.000000 0.000000
O O12 0.469898 0.209750 0.443498
O O13 0.234702 0.326310 0.790661
O O14 0.461784 0.162009 0.855945
O O15 0.008213 0.155246 0.547290
O O16 0.500000 0.000000 0.500000
O O17 0.000000 0.500000 0.000000
O O18 0.247046 0.884979 0.848647
#
# Coordination Sequence:
#
# PCOD9062800 Si02
#       8
#     2   2   2   2   2   2   2   2
#     4  11  24  42  71  98 142 182 223 284 344 405
#     4   9  20  44  67  99 133 174 225 271 339 416
#     4  12  24  44  71  97 136 186 227 279 345 408
#     4  11  24  43  67 103 139 178 222 286 342 405
#     4  12  27  46  71  99 138 185 231 292 338 405
#     4   9  22  42  69 100 135 172 229 274 338 417
#     4  12  26  45  67 102 136 186 233 280 346 404
#     4  12  25  45  68 101 141 179 238 280 343 411
#
# _framework density 23.763845
#
# number of rings (size 3 to 8) (size 9 to 14) (size 15 to 20)
#    0.000    1.000    3.750    2.250    1.750    6.000 
#    0.000    2.500    0.000    0.000    0.000    0.000 
#    0.000    0.000    0.000    0.000    0.000    0.000 
#
# Total GULP energy -89553.341376 kJ/mol
# GULP energy per Si atom -5597.083836 kJ/mol
# Density = 2.370976 g / cm^3
# Si number density = 23.763845 Si / 1000 Ang^3
#
#
#
# Elastic Constant Matrix: (Units=GPa)
#
#
# Indices 1 2 3 4 5 6 
#
# 1 96.1476 36.8954 43.5842 4.6059 -13.7202 -28.4178
# 2 36.8954 68.9621 24.5226 -12.7909 -16.2011 -11.4869
# 3 43.5842 24.5226 96.3666 -15.7542 -17.4364 -20.6293
# 4 4.6059 -12.7909 -15.7542 39.6636 -13.9671 3.8374
# 5 -13.7202 -16.2011 -17.4364 -13.9671 53.6792 2.7412
# 6 -28.4178 -11.4869 -20.6293 3.8374 2.7412 48.4757
#
#
#
# Elastic Compliance Matrix: (Units=1/GPa)
#
#
# Indices 1 2 3 4 5 6 
#
# 1 0.019170 -0.009097 -0.006964 -0.009657 -0.002981 0.007052
# 2 -0.009097 0.022860 0.001625 0.012048 0.008270 -0.000646
# 3 -0.006964 0.001625 0.016362 0.009915 0.006497 0.002113
# 4 -0.009657 0.012048 0.009915 0.039627 0.014830 -0.002563
# 5 -0.002981 0.008270 0.006497 0.014830 0.026316 0.000315
# 6 0.007052 -0.000646 0.002113 -0.002563 0.000315 0.025694
#
#
# Mechanical properties :
#
#
# Convention : Reuss Voigt Hill
#
# Bulk Modulus (GPa) = 33.87485 52.38676 43.13080
# Shear Modulus (GPa) = 26.49143 38.79529 32.64336
#
# Velocity S-wave (km/s) = 3.34245 4.04485 3.71031
# Velocity P-wave (km/s) = 5.40201 6.62623 6.04519
#
# Compressibility (1/GPa) = 0.02952043
#
# Stress axis : x y z
#
# Youngs Moduli (GPa) = 52.16601 43.74521 61.11716
#
# Poissons Ratio (x) = 0.39793 0.42560
# Poissons Ratio (y) = 0.47453 -0.09930
# Poissons Ratio (z) = 0.36327 -0.07108
#
# Static dielectric constant tensor:
#      x y z
#    x 1.910640 -0.007910 0.039390 
#    y -0.007910 1.889300 0.019880 
#    z 0.039390 0.019880 1.967960 
# 
# From -- ./inp_files/142696.got.cif
#   From: 2010.05.17/outbox.cif.g08.bks.cpg/sg2_72_cif.got.tgz:142696.got - 2010.06.03 11:33:40.
