data_PCOD9062228
_publ_section_title
;
Structure prediction by ZEFSAII (Michael W. Deem and Ramdas Pophale) SiO2 
 PCOD9062228
Probable space group: P -1
;
_chemical_formula_sum "Si O2"
_cell_formula_units_Z 14
_cell_length_a 5.914932
_cell_length_b 12.497109
_cell_length_c 14.743241
_cell_angle_alpha 140.740062
_cell_angle_beta 66.941418
_cell_angle_gamma 97.018740
_cell_volume 603.113127
_symmetry_space_group_name_H-M "P -1"
_symmetry_group_IT_number 2
_symmetry_cell_setting 'triclinic'
loop_
_space_group_symop_operation_xyz
x,y,z
-x,-y,-z
loop_
_atom_site_type_symbol
_atom_site_label
_atom_site_fract_x
_atom_site_fract_y
_atom_site_fract_z
Si Si1 0.452482 0.139814 0.515580
Si Si2 0.072930 0.880210 0.709909
Si Si3 0.416110 0.849070 0.963180
Si Si4 0.842940 0.476418 0.095427
Si Si5 0.933597 0.689479 0.449551
Si Si6 0.684578 0.593579 0.891689
Si Si7 0.716970 0.370735 0.319717
O O1 0.704073 0.112521 0.392580
O O2 0.315753 0.336611 0.708740
O O3 0.238526 0.146377 0.475448
O O4 0.500000 0.000000 0.500000
O O5 0.156506 0.789478 0.735117
O O6 0.946014 0.753653 0.591251
O O7 0.853180 0.063109 0.885186
O O8 0.644592 0.751404 0.930201
O O9 0.383499 0.707720 0.803006
O O10 0.500000 0.000000 0.000000
O O11 0.618656 0.396029 0.040721
O O12 0.096111 0.387088 0.061104
O O13 0.000000 0.500000 0.000000
O O14 0.848744 0.512616 0.355369
O O15 0.199969 0.603475 0.298849
O O16 0.500000 0.500000 0.500000
#
# Coordination Sequence:
#
# PCOD9062228 Si02
#       7
#     2   2   2   2   2   2   2
#     4  11  26  46  70 105 148 196 247 309 381 442
#     4  12  25  45  73 108 152 188 247 312 382 443
#     4  12  27  44  70 116 149 191 244 312 385 447
#     4  11  25  48  76 105 142 198 264 306 365 442
#     4  11  23  48  74 105 143 198 253 303 374 459
#     4  11  24  47  75 104 147 196 249 309 367 454
#     4  12  23  45  78 104 149 197 251 302 375 459
#
# _framework density 23.212892
#
# number of rings (size 3 to 8) (size 9 to 14) (size 15 to 20)
#    0.000    0.571    2.857    5.571    2.000    2.857 
#    0.000    0.000    0.000    0.000    0.000    0.000 
#    0.000    0.000    0.000    0.000    0.000    0.000 
#
# Total GULP energy -78027.711149 kJ/mol
# GULP energy per Si atom -5573.407939 kJ/mol
# Density = 2.316006 g / cm^3
# Si number density = 23.212892 Si / 1000 Ang^3
#
#
#
# Elastic Constant Matrix: (Units=GPa)
#
#
# Indices 1 2 3 4 5 6 
#
# 1 152.4623 86.4459 43.1433 3.4524 -18.9514 -13.4181
# 2 86.4459 154.6254 22.2407 -5.4110 -18.4829 -25.3863
# 3 43.1433 22.2407 77.5202 -12.6360 -21.4700 7.5745
# 4 3.4524 -5.4110 -12.6360 35.7607 0.1997 -6.5478
# 5 -18.9514 -18.4829 -21.4700 0.1997 33.3594 12.9451
# 6 -13.4181 -25.3863 7.5745 -6.5478 12.9451 46.4183
#
#
#
# Elastic Compliance Matrix: (Units=1/GPa)
#
#
# Indices 1 2 3 4 5 6 
#
# 1 0.011433 -0.005665 -0.005556 -0.003791 -0.000472 0.000710
# 2 -0.005665 0.010480 0.000652 0.003092 0.001427 0.004026
# 3 -0.005556 0.000652 0.021546 0.006756 0.014029 -0.007725
# 4 -0.003791 0.003092 0.006756 0.031774 0.002438 0.003295
# 5 -0.000472 0.001427 0.014029 0.002438 0.044875 -0.013816
# 6 0.000710 0.004026 -0.007725 0.003295 -0.013816 0.029529
#
#
# Mechanical properties :
#
#
# Convention : Reuss Voigt Hill
#
# Bulk Modulus (GPa) = 44.79902 76.47417 60.63659
# Shear Modulus (GPa) = 28.05577 38.62622 33.34099
#
# Velocity S-wave (km/s) = 3.48031 4.08364 3.79398
# Velocity P-wave (km/s) = 5.95744 7.43310 6.73581
#
# Compressibility (1/GPa) = 0.02232192
#
# Stress axis : x y z
#
# Youngs Moduli (GPa) = 87.46634 95.41540 46.41144
#
# Poissons Ratio (x) = 0.54055 0.25785
# Poissons Ratio (y) = 0.49552 -0.03026
# Poissons Ratio (z) = 0.48595 -0.06222
#
# Static dielectric constant tensor:
#      x y z
#    x 2.049140 -0.004840 -0.065450 
#    y -0.004840 1.986640 -0.020030 
#    z -0.065450 -0.020030 1.857040 
# 
# From -- ./inp_files/483084.got.cif
#   From: 2010.05.17/outbox.cif.g08.bks.cpg/sg2_242_cif.got.tgz:483084.got - 2010.06.03 11:33:40.
