data_PCOD9062760
_publ_section_title
;
Structure prediction by ZEFSAII (Michael W. Deem and Ramdas Pophale) SiO2 
 PCOD9062760
Probable space group: P -1
;
_chemical_formula_sum "Si O2"
_cell_formula_units_Z 14
_cell_length_a 9.517652
_cell_length_b 24.985074
_cell_length_c 11.951549
_cell_angle_alpha 27.439548
_cell_angle_beta 141.544807
_cell_angle_gamma 152.229607
_cell_volume 610.178141
_symmetry_space_group_name_H-M "P -1"
_symmetry_group_IT_number 2
_symmetry_cell_setting 'triclinic'
loop_
_space_group_symop_operation_xyz
x,y,z
-x,-y,-z
loop_
_atom_site_type_symbol
_atom_site_label
_atom_site_fract_x
_atom_site_fract_y
_atom_site_fract_z
Si Si1 0.246221 0.044084 0.981516
Si Si2 0.191692 0.301348 0.218990
Si Si3 0.646254 0.109236 0.500009
Si Si4 0.899117 0.951675 0.714708
Si Si5 0.167137 0.442003 0.158647
Si Si6 0.866085 0.710227 0.052706
Si Si7 0.291962 0.666692 0.411696
O O1 0.491848 0.220845 0.764740
O O2 0.056512 0.956065 0.915116
O O3 0.400781 0.988937 0.240908
O O4 0.000000 0.000000 0.000000
O O5 0.125699 0.386019 0.105417
O O6 0.510849 0.347130 0.359964
O O7 0.160155 0.329204 0.020883
O O8 0.992292 0.116997 0.454235
O O9 0.458892 0.163220 0.288161
O O10 0.994543 0.269518 0.421407
O O11 0.500000 0.000000 0.500000
O O12 0.961688 0.877667 0.799116
O O13 0.533448 0.574931 0.150376
O O14 0.000000 0.500000 0.000000
O O15 0.137450 0.731738 0.240273
O O16 0.000000 0.500000 0.500000
#
# Coordination Sequence:
#
# PCOD9062760 Si02
#       7
#     2   2   2   2   2   2   2
#     4  11  24  42  70 104 134 182 243 283 344 426
#     4  11  24  46  74  99 138 189 238 285 357 430
#     4  12  22  42  72  97 138 189 230 288 354 410
#     4  11  24  44  69 102 138 181 238 288 346 423
#     4  12  25  44  70 109 140 180 246 292 348 431
#     4  12  26  45  70 106 142 186 235 294 356 418
#     4  11  25  43  73 103 143 185 235 289 360 417
#
# _framework density 22.944119000000001
#
# number of rings (size 3 to 8) (size 9 to 14) (size 15 to 20)
#    0.000    0.571    5.714    2.571    0.000    3.429 
#    0.000    0.714    0.000    0.000    0.000    0.000 
#    0.000    0.000    0.000    0.000    0.000    0.000 
#
# Total GULP energy -77972.020781 kJ/mol
# GULP energy per Si atom -5569.430056 kJ/mol
# Density = 2.289190 g / cm^3
# Si number density = 22.944119 Si / 1000 Ang^3
#
#
#
# Elastic Constant Matrix: (Units=GPa)
#
#
# Indices 1 2 3 4 5 6 
#
# 1 110.4890 33.9569 32.9593 4.0520 26.4011 -2.2069
# 2 33.9569 94.0290 35.7999 5.7931 1.2008 14.1659
# 3 32.9593 35.7999 89.9999 5.0548 6.8841 -16.0552
# 4 4.0520 5.7931 5.0548 49.8175 -0.2252 -2.4149
# 5 26.4011 1.2008 6.8841 -0.2252 42.2206 1.5147
# 6 -2.2069 14.1659 -16.0552 -2.4149 1.5147 24.7949
#
#
#
# Elastic Compliance Matrix: (Units=1/GPa)
#
#
# Indices 1 2 3 4 5 6 
#
# 1 0.012814 -0.004183 -0.001942 -0.000262 -0.007676 0.002716
# 2 -0.004183 0.018149 -0.008934 -0.001666 0.004155 -0.016942
# 3 -0.001942 -0.008934 0.018588 0.000131 -0.002175 0.017113
# 4 -0.000262 -0.001666 0.000131 0.020421 0.000191 0.002990
# 5 -0.007676 0.004155 -0.002175 0.000191 0.028945 -0.006215
# 6 0.002716 -0.016942 0.017113 0.002990 -0.006215 0.062004
#
#
# Mechanical properties :
#
#
# Convention : Reuss Voigt Hill
#
# Bulk Modulus (GPa) = 51.46111 55.55002 53.50556
# Shear Modulus (GPa) = 25.31427 36.15340 30.73383
#
# Velocity S-wave (km/s) = 3.32520 3.97383 3.66390
# Velocity P-wave (km/s) = 6.10084 6.73192 6.42413
#
# Compressibility (1/GPa) = 0.01943215
#
# Stress axis : x y z
#
# Youngs Moduli (GPa) = 78.04247 55.09904 53.79789
#
# Poissons Ratio (x) = 0.23047 0.10449
# Poissons Ratio (y) = 0.32644 0.48063
# Poissons Ratio (z) = 0.15158 0.49226
#
# Static dielectric constant tensor:
#      x y z
#    x 5.710800 -1.059910 5.405660 
#    y -1.059910 2.343060 -1.607480 
#    z 5.405660 -1.607480 9.718340 
# 
# From -- ./inp_files/406878.got.cif
#   From: 2010.05.17/outbox.cif.g08.bks.cpg/sg2_204_cif.got.tgz:406878.got - 2010.06.03 11:33:40.
