data_PCOD9062473
_publ_section_title
;
Structure prediction by ZEFSAII (Michael W. Deem and Ramdas Pophale) SiO2 
 PCOD9062473
Probable space group: P -1
;
_chemical_formula_sum "Si O2"
_cell_formula_units_Z 12
_cell_length_a 8.626763
_cell_length_b 5.546905
_cell_length_c 13.828243
_cell_angle_alpha 102.314273
_cell_angle_beta 49.445801
_cell_angle_gamma 120.290803
_cell_volume 427.438815
_symmetry_space_group_name_H-M "P -1"
_symmetry_group_IT_number 2
_symmetry_cell_setting 'triclinic'
loop_
_space_group_symop_operation_xyz
x,y,z
-x,-y,-z
loop_
_atom_site_type_symbol
_atom_site_label
_atom_site_fract_x
_atom_site_fract_y
_atom_site_fract_z
Si Si1 0.214518 0.657231 0.000315
Si Si2 0.203975 0.472314 0.704949
Si Si3 0.791238 0.361415 0.484636
Si Si4 0.775431 0.834280 0.003215
Si Si5 0.923509 0.870744 0.725290
Si Si6 0.669375 0.846652 0.638788
O O1 0.054757 0.610864 0.157245
O O2 0.353334 0.487223 0.939042
O O3 0.350342 0.980329 0.939499
O O4 0.000000 0.500000 0.000000
O O5 0.304488 0.679479 0.590290
O O6 0.392956 0.625462 0.724767
O O7 0.169986 0.167622 0.662757
O O8 0.777305 0.643243 0.542562
O O9 0.036752 0.377706 0.355149
O O10 0.707533 0.113851 0.578809
O O11 0.845167 0.821983 0.863665
O O12 0.000000 0.000000 0.000000
O O13 0.779400 0.932501 0.707825
#
# Coordination Sequence:
#
# PCOD9062473 Si02
#       6
#     2   2   2   2   2   2
#     4   9  18  34  60  86 110 151 202 244 299 361
#     4  11  24  41  64  88 126 165 204 254 308 357
#     4  12  24  42  60  91 125 174 204 248 302 362
#     4   9  18  34  60  86 110 151 202 244 299 361
#     4  11  24  41  64  88 126 165 204 254 308 357
#     4  12  28  38  60  93 129 160 212 250 296 366
#
# _framework density 28.074193000000001
#
# number of rings (size 3 to 8) (size 9 to 14) (size 15 to 20)
#    0.000    1.333    3.333    2.000    4.667    0.000 
#    0.000    0.000    0.000   18.000    0.000    0.000 
#    0.000    0.000    0.000    0.000    0.000    0.000 
#
# Total GULP energy -66916.030950 kJ/mol
# GULP energy per Si atom -5576.335912 kJ/mol
# Density = 2.801030 g / cm^3
# Si number density = 28.074193 Si / 1000 Ang^3
#
#
#
# Elastic Constant Matrix: (Units=GPa)
#
#
# Indices 1 2 3 4 5 6 
#
# 1 106.4914 63.2957 54.7369 -12.4780 32.4551 -6.0582
# 2 63.2957 225.4791 54.2804 6.1423 9.0242 -65.8322
# 3 54.7369 54.2804 107.3591 -5.3332 29.2240 -8.7032
# 4 -12.4780 6.1423 -5.3332 36.1853 -10.9450 4.4657
# 5 32.4551 9.0242 29.2240 -10.9450 48.0940 1.8938
# 6 -6.0582 -65.8322 -8.7032 4.4657 1.8938 66.6825
#
#
#
# Elastic Compliance Matrix: (Units=1/GPa)
#
#
# Indices 1 2 3 4 5 6 
#
# 1 0.016694 -0.004513 -0.004529 0.004326 -0.006539 -0.003634
# 2 -0.004513 0.008556 -0.001960 -0.003849 0.001440 0.007998
# 3 -0.004529 -0.001960 0.013972 -0.000707 -0.005214 -0.000327
# 4 0.004326 -0.003849 -0.000707 0.032141 0.005776 -0.005816
# 5 -0.006539 0.001440 -0.005214 0.005776 0.029460 -0.001076
# 6 -0.003634 0.007998 -0.000327 -0.005816 -0.001076 0.022940
#
#
# Mechanical properties :
#
#
# Convention : Reuss Voigt Hill
#
# Bulk Modulus (GPa) = 58.07901 87.10619 72.59260
# Shear Modulus (GPa) = 33.00186 47.99346 40.49766
#
# Velocity S-wave (km/s) = 3.43231 4.13912 3.80218
# Velocity P-wave (km/s) = 6.03658 7.34422 6.72227
#
# Compressibility (1/GPa) = 0.01721793
#
# Stress axis : x y z
#
# Youngs Moduli (GPa) = 59.90197 116.87689 71.57016
#
# Poissons Ratio (x) = 0.52747 0.32417
# Poissons Ratio (y) = 0.27034 0.14026
# Poissons Ratio (z) = 0.27132 0.22905
#
# Static dielectric constant tensor:
#      x y z
#    x 2.181110 -0.036780 -0.019410 
#    y -0.036780 2.270680 0.066450 
#    z -0.019410 0.066450 2.309030 
# 
# From -- ./inp_files/33917.got.cif
#   From: 2010.05.17/outbox.cif.g08.bks.cpg/sg2_17_cif.got.tgz:33917.got - 2010.06.03 11:33:40.
