data_PCOD9062548
_publ_section_title
;
Structure prediction by ZEFSAII (Michael W. Deem and Ramdas Pophale) SiO2 
 PCOD9062548
Probable space group: P -1
;
_chemical_formula_sum "Si O2"
_cell_formula_units_Z 15
_cell_length_a 6.666017
_cell_length_b 20.452456
_cell_length_c 8.969151
_cell_angle_alpha 137.464022
_cell_angle_beta 64.355795
_cell_angle_gamma 85.927074
_cell_volume 572.776019
_symmetry_space_group_name_H-M "P -1"
_symmetry_group_IT_number 2
_symmetry_cell_setting 'triclinic'
loop_
_space_group_symop_operation_xyz
x,y,z
-x,-y,-z
loop_
_atom_site_type_symbol
_atom_site_label
_atom_site_fract_x
_atom_site_fract_y
_atom_site_fract_z
Si Si1 0.370291 0.144066 0.896034
Si Si2 0.589496 0.681585 0.645051
Si Si3 0.500000 0.500000 0.500000
Si Si4 0.950475 0.883345 0.255435
Si Si5 0.460431 0.459049 0.106954
Si Si6 0.051784 0.098503 0.135352
Si Si7 0.924553 0.792656 0.410377
Si Si8 0.383258 0.317832 0.698447
O O1 0.203260 0.172874 0.846184
O O2 0.713307 0.034238 0.578964
O O3 0.278235 0.262867 0.218549
O O4 0.262237 0.077678 0.905219
O O5 0.590211 0.586290 0.585136
O O6 0.709530 0.631040 0.355425
O O7 0.253258 0.810124 0.951905
O O8 0.361288 0.535027 0.422407
O O9 0.013684 0.840118 0.332007
O O10 0.500000 0.500000 0.000000
O O11 0.286547 0.412455 0.025928
O O12 0.784829 0.342762 0.861754
O O13 0.181632 0.111489 0.261560
O O14 0.730261 0.230586 0.442053
O O15 0.000000 0.000000 0.000000
O O16 0.706583 0.768231 0.396887
#
# Coordination Sequence:
#
# PCOD9062548 Si02
#       8
#     2   2   1   2   2   2   2   2
#     4  11  25  43  70 108 149 199 241 295 372 440
#     4  12  24  47  73 101 147 196 246 307 370 437
#     4  12  26  50  76 108 140 196 248 310 374 438
#     4  11  25  43  69 107 152 190 246 300 364 448
#     4  11  25  48  72 103 145 188 248 314 370 434
#     4  11  24  41  69 104 144 187 240 295 358 441
#     4  11  25  44  71 106 142 190 244 296 372 442
#     4  11  24  44  71  99 146 188 239 306 360 442
#
# _framework density 26.188248999999999
#
# number of rings (size 3 to 8) (size 9 to 14) (size 15 to 20)
#    0.000    0.800    5.333    1.200    3.733    3.733 
#    0.000    1.333    0.000    0.000    0.000    0.000 
#    0.000    0.000    0.000    0.000    0.000    0.000 
#
# Total GULP energy -83631.268741 kJ/mol
# GULP energy per Si atom -5575.417916 kJ/mol
# Density = 2.612864 g / cm^3
# Si number density = 26.188249 Si / 1000 Ang^3
#
#
#
# Elastic Constant Matrix: (Units=GPa)
#
#
# Indices 1 2 3 4 5 6 
#
# 1 111.0989 25.8358 36.6677 2.3935 28.9383 15.0844
# 2 25.8358 106.6815 26.4155 -8.9442 23.1709 13.2760
# 3 36.6677 26.4155 80.8179 -2.3763 12.9647 2.7953
# 4 2.3935 -8.9442 -2.3763 31.4592 1.9695 8.7047
# 5 28.9383 23.1709 12.9647 1.9695 52.8199 6.5805
# 6 15.0844 13.2760 2.7953 8.7047 6.5805 48.8067
#
#
#
# Elastic Compliance Matrix: (Units=1/GPa)
#
#
# Indices 1 2 3 4 5 6 
#
# 1 0.012296 -0.000448 -0.004535 -0.000348 -0.005081 -0.002671
# 2 -0.000448 0.011791 -0.002772 0.004296 -0.004016 -0.003135
# 3 -0.004535 -0.002772 0.015343 0.000388 -0.000234 0.001239
# 4 -0.000348 0.004296 0.000388 0.035155 -0.002221 -0.007054
# 5 -0.005081 -0.004016 -0.000234 -0.002221 0.023632 -0.000114
# 6 -0.002671 -0.003135 0.001239 -0.007054 -0.000114 0.023370
#
#
# Mechanical properties :
#
#
# Convention : Reuss Voigt Hill
#
# Bulk Modulus (GPa) = 41.80493 52.93736 47.37115
# Shear Modulus (GPa) = 34.46620 40.59577 37.53098
#
# Velocity S-wave (km/s) = 3.63174 3.94147 3.78977
# Velocity P-wave (km/s) = 5.79516 6.40091 6.10555
#
# Compressibility (1/GPa) = 0.02392062
#
# Stress axis : x y z
#
# Youngs Moduli (GPa) = 81.33021 84.80972 65.17597
#
# Poissons Ratio (x) = 0.03799 0.29557
# Poissons Ratio (y) = 0.03644 0.18064
# Poissons Ratio (z) = 0.36883 0.23506
#
# Static dielectric constant tensor:
#      x y z
#    x 2.112210 -0.040940 0.005800 
#    y -0.040940 1.993700 -0.012170 
#    z 0.005800 -0.012170 2.215600 
# 
# From -- ./inp_files/141687.got.cif
#   From: 2010.05.17/outbox.cif.g08.bks.cpg/sg2_71_cif.got.tgz:141687.got - 2010.06.03 11:33:40.
