data_PCOD9062936
_publ_section_title
;
Structure prediction by ZEFSAII (Michael W. Deem and Ramdas Pophale) SiO2 
 PCOD9062936
Probable space group: P -1
;
_chemical_formula_sum "Si O2"
_cell_formula_units_Z 16
_cell_length_a 8.924951
_cell_length_b 15.223164
_cell_length_c 8.993939
_cell_angle_alpha 41.363974
_cell_angle_beta 69.912628
_cell_angle_gamma 74.204146
_cell_volume 758.199862
_symmetry_space_group_name_H-M "P -1"
_symmetry_group_IT_number 2
_symmetry_cell_setting 'triclinic'
loop_
_space_group_symop_operation_xyz
x,y,z
-x,-y,-z
loop_
_atom_site_type_symbol
_atom_site_label
_atom_site_fract_x
_atom_site_fract_y
_atom_site_fract_z
Si Si1 0.080026 0.642110 0.293664
Si Si2 0.114701 0.127138 0.811496
Si Si3 0.666244 0.979034 0.891252
Si Si4 0.779959 0.157966 0.234672
Si Si5 0.809623 0.246588 0.440195
Si Si6 0.833680 0.852275 0.557007
Si Si7 0.538645 0.833251 0.868311
Si Si8 0.387996 0.627666 0.392544
O O1 0.253766 0.613195 0.333338
O O2 0.000000 0.500000 0.500000
O O3 0.990646 0.739372 0.315709
O O4 0.104205 0.738872 0.020760
O O5 0.212983 0.129820 0.622635
O O6 0.226147 0.126068 0.920227
O O7 0.000000 0.000000 0.000000
O O8 0.618157 0.957849 0.764181
O O9 0.767899 0.109456 0.708493
O O10 0.500000 0.000000 0.000000
O O11 0.750557 0.227367 0.315703
O O12 0.616964 0.145751 0.208032
O O13 0.857650 0.007458 0.403392
O O14 0.705532 0.349619 0.447147
O O15 0.003106 0.236646 0.375615
O O16 0.688668 0.785449 0.778538
O O17 0.490031 0.748632 0.137534
O O18 0.500000 0.500000 0.500000
#
# Coordination Sequence:
#
# PCOD9062936 Si02
#       8
#     2   2   2   2   2   2   2   2
#     4  11  25  46  69  98 135 187 232 276 344 415
#     4  12  23  42  69 101 142 178 226 289 341 404
#     4  12  23  37  68 103 136 178 225 268 352 411
#     4  11  24  43  67 103 145 174 220 287 345 409
#     4  12  24  42  69 103 135 175 226 284 342 409
#     4  12  23  40  69 106 140 170 221 288 350 400
#     4  11  26  42  65 103 141 177 221 279 346 411
#     4  11  26  51  67  93 136 185 234 282 337 413
#
# _framework density 21.102616000000001
#
# number of rings (size 3 to 8) (size 9 to 14) (size 15 to 20)
#    0.000    0.500    6.250    1.500    5.250    0.000 
#    2.250    2.500    0.000    0.000    0.000    0.000 
#    0.000    0.000    0.000    0.000    0.000    0.000 
#
# Total GULP energy -89155.342560 kJ/mol
# GULP energy per Si atom -5572.208910 kJ/mol
# Density = 2.105459 g / cm^3
# Si number density = 21.102616 Si / 1000 Ang^3
#
#
#
# Elastic Constant Matrix: (Units=GPa)
#
#
# Indices 1 2 3 4 5 6 
#
# 1 104.5057 36.1853 22.2232 0.7313 2.2621 -14.1989
# 2 36.1853 120.7724 47.2354 10.7121 0.9997 -19.6833
# 3 22.2232 47.2354 55.8957 6.8177 -11.0803 -3.8654
# 4 0.7313 10.7121 6.8177 43.7633 -1.4425 -1.0195
# 5 2.2621 0.9997 -11.0803 -1.4425 40.1544 3.7323
# 6 -14.1989 -19.6833 -3.8654 -1.0195 3.7323 38.8522
#
#
#
# Elastic Compliance Matrix: (Units=1/GPa)
#
#
# Indices 1 2 3 4 5 6 
#
# 1 0.011305 -0.001604 -0.003366 0.000743 -0.001794 0.003176
# 2 -0.001604 0.014561 -0.011875 -0.001686 -0.004164 0.005965
# 3 -0.003366 -0.011875 0.030987 -0.001672 0.009451 -0.005115
# 4 0.000743 -0.001686 -0.001672 0.023520 0.000399 -0.000170
# 5 -0.001794 -0.004164 0.009451 0.000399 0.028151 -0.004519
# 6 0.003176 0.005965 -0.005115 -0.000170 -0.004519 0.029842
#
#
# Mechanical properties :
#
#
# Convention : Reuss Voigt Hill
#
# Bulk Modulus (GPa) = 43.16963 54.71796 48.94379
# Shear Modulus (GPa) = 27.81223 36.25597 32.03410
#
# Velocity S-wave (km/s) = 3.63430 4.14947 3.90040
# Velocity P-wave (km/s) = 6.17351 6.99594 6.59756
#
# Compressibility (1/GPa) = 0.02316443
#
# Stress axis : x y z
#
# Youngs Moduli (GPa) = 88.45498 68.67596 32.27144
#
# Poissons Ratio (x) = 0.11018 0.10862
# Poissons Ratio (y) = 0.14191 0.38321
# Poissons Ratio (z) = 0.29771 0.81549
#
# Static dielectric constant tensor:
#      x y z
#    x 1.799730 0.019030 -0.058150 
#    y 0.019030 1.838220 0.022980 
#    z -0.058150 0.022980 1.826220 
# 
# From -- ./inp_files/205025.got.cif
#   From: 2010.05.17/outbox.cif.g08.bks.cpg/sg2_103_cif.got.tgz:205025.got - 2010.06.03 11:33:40.
