data_PCOD9062512
_publ_section_title
;
Structure prediction by ZEFSAII (Michael W. Deem and Ramdas Pophale) SiO2 
 PCOD9062512
Probable space group: P -1
;
_chemical_formula_sum "Si O2"
_cell_formula_units_Z 14
_cell_length_a 19.130360
_cell_length_b 13.040523
_cell_length_c 5.107206
_cell_angle_alpha 101.162418
_cell_angle_beta 99.476235
_cell_angle_gamma 26.478877
_cell_volume 557.222097
_symmetry_space_group_name_H-M "P -1"
_symmetry_group_IT_number 2
_symmetry_cell_setting 'triclinic'
loop_
_space_group_symop_operation_xyz
x,y,z
-x,-y,-z
loop_
_atom_site_type_symbol
_atom_site_label
_atom_site_fract_x
_atom_site_fract_y
_atom_site_fract_z
Si Si1 0.266790 0.542797 0.106713
Si Si2 0.944239 0.182675 0.413838
Si Si3 0.447516 0.806412 0.579147
Si Si4 0.820103 0.680418 0.310029
Si Si5 0.625477 0.424173 0.092205
Si Si6 0.070583 0.525334 0.221155
Si Si7 0.192926 0.976077 0.678284
O O1 0.164571 0.634668 0.325579
O O2 0.443609 0.280102 0.177998
O O3 0.159902 0.678651 0.844956
O O4 0.308019 0.612829 0.148802
O O5 0.093901 0.060860 0.416919
O O6 0.000000 0.000000 0.500000
O O7 0.549485 0.618356 0.316100
O O8 0.315341 0.064391 0.546381
O O9 0.345096 0.844013 0.643831
O O10 0.855217 0.549206 0.486945
O O11 0.973095 0.548700 0.258098
O O12 0.794098 0.663618 0.002918
O O13 0.760422 0.185317 0.206919
O O14 0.500000 0.500000 0.000000
O O15 0.932615 0.780000 0.152821
#
# Coordination Sequence:
#
# PCOD9062512 Si02
#       7
#     2   2   2   2   2   2   2
#     4  12  25  44  62  95 132 179 217 259 332 389
#     4  12  26  42  64  92 138 183 216 263 322 401
#     4  11  24  43  70 100 131 177 217 279 322 395
#     4   9  20  38  65  91 128 161 222 264 332 374
#     4  12  25  38  68 104 137 168 220 275 331 392
#     4   9  20  38  60  97 125 166 208 281 321 378
#     4  11  24  41  67 101 135 171 221 275 329 388
#
# _framework density 25.12463
#
# number of rings (size 3 to 8) (size 9 to 14) (size 15 to 20)
#    0.000    1.143    4.286    0.857    4.000    4.571 
#    0.000    0.000    0.000    5.143    0.000    0.000 
#    0.000    0.000    0.000    0.000    0.000    0.000 
#
# Total GULP energy -77997.820312 kJ/mol
# GULP energy per Si atom -5571.272879 kJ/mol
# Density = 2.506745 g / cm^3
# Si number density = 25.124630 Si / 1000 Ang^3
#
#
#
# Elastic Constant Matrix: (Units=GPa)
#
#
# Indices 1 2 3 4 5 6 
#
# 1 53.1825 22.3049 16.3836 -8.2392 2.8506 -20.5445
# 2 22.3049 114.5702 54.2215 2.8594 -13.4192 17.2700
# 3 16.3836 54.2215 129.8713 -13.0210 -12.0559 0.2187
# 4 -8.2392 2.8594 -13.0210 44.7651 -4.4426 15.7086
# 5 2.8506 -13.4192 -12.0559 -4.4426 37.7624 -16.5327
# 6 -20.5445 17.2700 0.2187 15.7086 -16.5327 41.4989
#
#
#
# Elastic Compliance Matrix: (Units=1/GPa)
#
#
# Indices 1 2 3 4 5 6 
#
# 1 0.029636 -0.008305 -0.000055 -0.000609 0.003343 0.019690
# 2 -0.008305 0.014140 -0.004909 -0.000401 -0.000316 -0.009944
# 3 -0.000055 -0.004909 0.010297 0.002882 0.002746 0.001964
# 4 -0.000609 -0.000401 0.002882 0.026718 -0.000638 -0.010517
# 5 0.003343 -0.000316 0.002746 -0.000638 0.033673 0.015429
# 6 0.019690 -0.009944 0.001964 -0.010517 0.015429 0.048100
#
#
# Mechanical properties :
#
#
# Convention : Reuss Voigt Hill
#
# Bulk Modulus (GPa) = 36.31676 53.71601 45.01638
# Shear Modulus (GPa) = 25.21681 38.45290 31.83485
#
# Velocity S-wave (km/s) = 3.17151 3.91639 3.56346
# Velocity P-wave (km/s) = 5.28179 6.47125 5.90654
#
# Compressibility (1/GPa) = 0.02753550
#
# Stress axis : x y z
#
# Youngs Moduli (GPa) = 33.74256 70.72096 97.11729
#
# Poissons Ratio (x) = 0.58733 0.00537
# Poissons Ratio (y) = 0.28023 0.47672
# Poissons Ratio (z) = 0.00186 0.34715
#
# Static dielectric constant tensor:
#      x y z
#    x 2.059180 -0.021970 0.143200 
#    y -0.021970 2.056910 0.002310 
#    z 0.143200 0.002310 2.181650 
# 
# From -- ./inp_files/124332.got.cif
#   From: 2010.05.17/outbox.cif.g08.bks.cpg/sg2_63_cif.got.tgz:124332.got - 2010.06.03 11:33:40.
