data_PCOD9062336
_publ_section_title
;
Structure prediction by ZEFSAII (Michael W. Deem and Ramdas Pophale) SiO2 
 PCOD9062336
Probable space group: P -1
;
_chemical_formula_sum "Si O2"
_cell_formula_units_Z 10
_cell_length_a 6.817442
_cell_length_b 9.046507
_cell_length_c 8.220266
_cell_angle_alpha 98.520286
_cell_angle_beta 89.910434
_cell_angle_gamma 51.929390
_cell_volume 391.892056
_symmetry_space_group_name_H-M "P -1"
_symmetry_group_IT_number 2
_symmetry_cell_setting 'triclinic'
loop_
_space_group_symop_operation_xyz
x,y,z
-x,-y,-z
loop_
_atom_site_type_symbol
_atom_site_label
_atom_site_fract_x
_atom_site_fract_y
_atom_site_fract_z
Si Si1 0.261834 0.978677 0.326166
Si Si2 0.367777 0.353438 0.954779
Si Si3 0.974039 0.284435 0.842635
Si Si4 0.547534 0.084350 0.170308
Si Si5 0.750945 0.290292 0.505539
O O1 0.376970 0.807703 0.165257
O O2 0.300894 0.857631 0.466177
O O3 0.418811 0.055680 0.311826
O O4 0.974394 0.170197 0.354864
O O5 0.164340 0.337248 0.868888
O O6 0.236176 0.576524 0.000213
O O7 0.415167 0.293543 0.136251
O O8 0.876125 0.308474 0.665568
O O9 0.155233 0.059055 0.840062
O O10 0.500000 0.000000 0.000000
O O11 0.500000 0.500000 0.500000
#
# Coordination Sequence:
#
# PCOD9062336 Si02
#       5
#     2   2   2   2   2
#     4   9  21  39  55  79 113 147 187 222 269 334
#     4   9  19  38  63  86 105 135 186 241 279 314
#     4   9  19  36  58  85 110 139 186 229 273 327
#     4   8  17  36  60  81 106 136 180 237 277 312
#     4  11  24  38  52  79 120 156 180 215 271 333
#
# _framework density 25.517232
#
# number of rings (size 3 to 8) (size 9 to 14) (size 15 to 20)
#    0.000    3.200    0.000    0.000    0.000   15.200 
#    0.000   15.000    0.000    0.000    0.000    0.000 
#    0.000    0.000    0.000    0.000    0.000    0.000 
#
# Total GULP energy -55758.348969 kJ/mol
# GULP energy per Si atom -5575.834897 kJ/mol
# Density = 2.545915 g / cm^3
# Si number density = 25.517232 Si / 1000 Ang^3
#
#
#
# Elastic Constant Matrix: (Units=GPa)
#
#
# Indices 1 2 3 4 5 6 
#
# 1 99.9099 67.4398 50.4707 13.8411 6.6643 -22.9585
# 2 67.4398 182.5996 64.2308 11.9924 7.9745 -40.6316
# 3 50.4707 64.2308 70.1581 17.4563 4.9577 -15.9664
# 4 13.8411 11.9924 17.4563 53.4868 -0.9706 1.3815
# 5 6.6643 7.9745 4.9577 -0.9706 57.5550 2.8799
# 6 -22.9585 -40.6316 -15.9664 1.3815 2.8799 48.4325
#
#
#
# Elastic Compliance Matrix: (Units=1/GPa)
#
#
# Indices 1 2 3 4 5 6 
#
# 1 0.017143 -0.002250 -0.009187 -0.001038 -0.001065 0.003303
# 2 -0.002250 0.009546 -0.005988 0.000252 -0.000793 0.005008
# 3 -0.009187 -0.005988 0.027698 -0.005328 -0.000579 -0.000061
# 4 -0.001038 0.000252 -0.005328 0.020735 0.001028 -0.002689
# 5 -0.001065 -0.000793 -0.000579 0.001028 0.017797 -0.002448
# 6 0.003303 0.005008 -0.000061 -0.002689 -0.002448 0.026616
#
#
# Mechanical properties :
#
#
# Convention : Reuss Voigt Hill
#
# Bulk Modulus (GPa) = 51.18820 79.66114 65.42467
# Shear Modulus (GPa) = 31.07562 43.26327 37.16944
#
# Velocity S-wave (km/s) = 3.49353 4.12205 3.82074
# Velocity P-wave (km/s) = 6.03132 7.34448 6.72005
#
# Compressibility (1/GPa) = 0.01953575
#
# Stress axis : x y z
#
# Youngs Moduli (GPa) = 58.33451 104.75290 36.10432
#
# Poissons Ratio (x) = 0.23571 0.33169
# Poissons Ratio (y) = 0.13126 0.21620
# Poissons Ratio (z) = 0.53592 0.62728
#
# Static dielectric constant tensor:
#      x y z
#    x 2.153360 0.018690 -0.040950 
#    y 0.018690 2.052260 -0.029210 
#    z -0.040950 -0.029210 2.070050 
# 
# From -- ./inp_files/163008.got.cif
#   From: 2010.05.17/outbox.cif.g08.bks.cpg/sg2_82_cif.got.tgz:163008.got - 2010.06.03 11:33:40.
