data_PCOD9062731
_publ_section_title
;
Structure prediction by ZEFSAII (Michael W. Deem and Ramdas Pophale) SiO2 
 PCOD9062731
Probable space group: P -1
;
_chemical_formula_sum "Si O2"
_cell_formula_units_Z 15
_cell_length_a 16.471422
_cell_length_b 9.557461
_cell_length_c 6.428669
_cell_angle_alpha 67.119606
_cell_angle_beta 119.132264
_cell_angle_gamma 133.718588
_cell_volume 636.710599
_symmetry_space_group_name_H-M "P -1"
_symmetry_group_IT_number 2
_symmetry_cell_setting 'triclinic'
loop_
_space_group_symop_operation_xyz
x,y,z
-x,-y,-z
loop_
_atom_site_type_symbol
_atom_site_label
_atom_site_fract_x
_atom_site_fract_y
_atom_site_fract_z
Si Si1 0.321537 0.689670 0.470016
Si Si2 0.875234 0.523763 0.953780
Si Si3 0.463257 0.349124 0.724960
Si Si4 0.720756 0.860133 0.055518
Si Si5 0.418695 0.091184 0.486328
Si Si6 0.029569 0.843849 0.615425
Si Si7 0.000000 0.500000 0.500000
Si Si8 0.274906 0.441322 0.927534
O O1 0.221136 0.654019 0.214736
O O2 0.439169 0.752605 0.461687
O O3 0.259793 0.505674 0.648605
O O4 0.375161 0.875904 0.572282
O O5 0.959324 0.705220 0.805390
O O6 0.792570 0.543497 0.983581
O O7 0.949465 0.494966 0.217083
O O8 0.500000 0.500000 0.500000
O O9 0.376893 0.318948 0.812978
O O10 0.391548 0.145836 0.634529
O O11 0.584415 0.412716 0.936840
O O12 0.765543 0.773223 0.010054
O O13 0.830292 0.027010 0.230617
O O14 0.647777 0.902453 0.796764
O O15 0.003766 0.699312 0.472112
O O16 0.000000 0.000000 0.500000
#
# Coordination Sequence:
#
# PCOD9062731 Si02
#       8
#     2   2   2   2   2   2   1   2
#     4  11  24  44  69 106 147 187 240 305 381 445
#     4  12  27  50  78 108 151 203 253 314 382 451
#     4  12  24  42  71 108 147 193 242 303 380 446
#     4  12  26  45  73 108 149 191 253 306 372 459
#     4  11  24  42  69 106 145 186 237 307 373 451
#     4  12  30  52  80 115 152 206 259 315 377 453
#     4  12  28  54  80 110 154 204 258 316 378 444
#     4  12  25  44  75 107 149 195 246 310 376 451
#
# _framework density 23.558586999999999
#
# number of rings (size 3 to 8) (size 9 to 14) (size 15 to 20)
#    0.000    0.267    4.000    4.800    1.867    8.000 
#    0.000    0.000    0.000    0.000    0.000    0.000 
#    0.000    0.000    0.000    0.000    0.000    0.000 
#
# Total GULP energy -83565.167669 kJ/mol
# GULP energy per Si atom -5571.011178 kJ/mol
# Density = 2.350497 g / cm^3
# Si number density = 23.558587 Si / 1000 Ang^3
#
#
#
# Elastic Constant Matrix: (Units=GPa)
#
#
# Indices 1 2 3 4 5 6 
#
# 1 72.4653 41.0050 22.1486 2.5306 -3.6654 3.5601
# 2 41.0050 81.8209 30.1890 6.3406 7.8521 -6.5665
# 3 22.1486 30.1890 130.6170 15.7409 27.9295 12.4988
# 4 2.5306 6.3406 15.7409 30.4175 -2.4676 4.1411
# 5 -3.6654 7.8521 27.9295 -2.4676 23.1927 12.3426
# 6 3.5601 -6.5665 12.4988 4.1411 12.3426 40.8235
#
#
#
# Elastic Compliance Matrix: (Units=1/GPa)
#
#
# Indices 1 2 3 4 5 6 
#
# 1 0.024312 -0.013478 -0.005258 0.006468 0.020498 -0.009532
# 2 -0.013478 0.021614 0.000535 -0.006326 -0.016083 0.009993
# 3 -0.005258 0.000535 0.013389 -0.008663 -0.019823 0.003317
# 4 0.006468 -0.006326 -0.008663 0.041433 0.023443 -0.010220
# 5 0.020498 -0.016083 -0.019823 0.023443 0.093590 -0.028980
# 6 -0.009532 0.009993 0.003317 -0.010220 -0.028980 0.035717
#
#
# Mechanical properties :
#
#
# Convention : Reuss Voigt Hill
#
# Bulk Modulus (GPa) = 43.64082 52.39871 48.01977
# Shear Modulus (GPa) = 18.24183 31.65743 24.94963
#
# Velocity S-wave (km/s) = 2.78568 3.66973 3.25783
# Velocity P-wave (km/s) = 5.37692 6.34398 5.88036
#
# Compressibility (1/GPa) = 0.02291432
#
# Stress axis : x y z
#
# Youngs Moduli (GPa) = 41.13122 46.26533 74.68713
#
# Poissons Ratio (x) = 0.62355 0.39271
# Poissons Ratio (y) = 0.55435 -0.03995
# Poissons Ratio (z) = 0.21627 -0.02475
#
# Static dielectric constant tensor:
#      x y z
#    x 1.996110 -0.148720 0.062010 
#    y -0.148720 2.115670 -0.042440 
#    z 0.062010 -0.042440 1.859090 
# 
# From -- ./inp_files/106575.got.cif
#   From: 2010.05.17/outbox.cif.g08.bks.cpg/sg2_54_cif.got.tgz:106575.got - 2010.06.03 11:33:40.
