data_PCOD9062684
_publ_section_title
;
Structure prediction by ZEFSAII (Michael W. Deem and Ramdas Pophale) SiO2 
 PCOD9062684
Probable space group: P -1
;
_chemical_formula_sum "Si O2"
_cell_formula_units_Z 16
_cell_length_a 8.947373
_cell_length_b 15.384900
_cell_length_c 5.158800
_cell_angle_alpha 88.559999
_cell_angle_beta 76.723791
_cell_angle_gamma 110.095016
_cell_volume 644.860573
_symmetry_space_group_name_H-M "P -1"
_symmetry_group_IT_number 2
_symmetry_cell_setting 'triclinic'
loop_
_space_group_symop_operation_xyz
x,y,z
-x,-y,-z
loop_
_atom_site_type_symbol
_atom_site_label
_atom_site_fract_x
_atom_site_fract_y
_atom_site_fract_z
Si Si1 0.987838 0.559894 0.249330
Si Si2 0.852879 0.681764 0.023590
Si Si3 0.643395 0.965263 0.046919
Si Si4 0.512832 0.402737 0.928935
Si Si5 0.964481 0.130077 0.752384
Si Si6 0.867325 0.272877 0.497217
Si Si7 0.420616 0.678076 0.595620
Si Si8 0.691857 0.867526 0.536118
O O1 0.000000 0.500000 0.500000
O O2 0.119121 0.662736 0.260298
O O3 0.839411 0.596954 0.233070
O O4 0.000000 0.500000 0.000000
O O5 0.970596 0.676768 0.742217
O O6 0.674240 0.668835 0.996346
O O7 0.942561 0.782568 0.105530
O O8 0.648017 0.888688 0.840424
O O9 0.821856 0.047136 0.951464
O O10 0.627559 0.923626 0.344292
O O11 0.500000 0.000000 0.000000
O O12 0.588666 0.394472 0.623143
O O13 0.500000 0.500000 0.000000
O O14 0.608848 0.374123 0.118937
O O15 0.873286 0.173688 0.578127
O O16 0.112266 0.104270 0.574885
O O17 0.708668 0.272006 0.408795
O O18 0.598937 0.758968 0.520581
#
# Coordination Sequence:
#
# PCOD9062684 Si02
#       8
#     2   2   2   2   2   2   2   2
#     4  11  24  42  68 101 142 183 248 304 360 425
#     4  11  26  46  74 104 146 198 240 307 364 433
#     4  12  28  47  78 114 150 187 242 301 357 440
#     4  12  29  49  73 104 149 196 250 304 369 432
#     4  11  26  47  75 110 150 191 247 293 368 439
#     4  11  27  44  76 105 145 195 243 305 370 426
#     4  12  28  49  73 108 149 194 243 307 370 435
#     4  12  26  50  76 108 150 195 239 294 370 433
#
# _framework density 24.811565000000002
#
# number of rings (size 3 to 8) (size 9 to 14) (size 15 to 20)
#    0.000    0.500    2.500    3.750   14.000    0.000 
#    0.000    0.000    0.000    0.000    0.000    0.000 
#    0.000    0.000    0.000    0.000    0.000    0.000 
#
# Total GULP energy -89631.180168 kJ/mol
# GULP energy per Si atom -5601.948761 kJ/mol
# Density = 2.475509 g / cm^3
# Si number density = 24.811565 Si / 1000 Ang^3
#
#
#
# Elastic Constant Matrix: (Units=GPa)
#
#
# Indices 1 2 3 4 5 6 
#
# 1 104.4876 -2.0701 21.9503 12.1417 9.7840 -8.4652
# 2 -2.0701 74.4997 17.1161 11.1877 6.2548 -0.4385
# 3 21.9503 17.1161 112.5390 11.5777 17.8756 -6.7865
# 4 12.1417 11.1877 11.5777 38.6839 -10.1149 2.6045
# 5 9.7840 6.2548 17.8756 -10.1149 42.7293 -6.1839
# 6 -8.4652 -0.4385 -6.7865 2.6045 -6.1839 35.3330
#
#
#
# Elastic Compliance Matrix: (Units=1/GPa)
#
#
# Indices 1 2 3 4 5 6 
#
# 1 0.010824 0.001506 -0.001308 -0.004336 -0.002863 0.002179
# 2 0.001506 0.014844 -0.001531 -0.005118 -0.003076 0.000090
# 3 -0.001308 -0.001531 0.010535 -0.003571 -0.004562 0.001156
# 4 -0.004336 -0.005118 -0.003571 0.032699 0.010638 -0.002337
# 5 -0.002863 -0.003076 -0.004562 0.010638 0.029333 0.002749
# 6 0.002179 0.000090 0.001156 -0.002337 0.002749 0.029701
#
#
# Mechanical properties :
#
#
# Convention : Reuss Voigt Hill
#
# Bulk Modulus (GPa) = 29.81826 40.61323 35.21575
# Shear Modulus (GPa) = 35.26564 40.31790 37.79177
#
# Velocity S-wave (km/s) = 3.77415 4.03546 3.90699
# Velocity P-wave (km/s) = 5.57102 6.17393 5.88021
#
# Compressibility (1/GPa) = 0.03353650
#
# Stress axis : x y z
#
# Youngs Moduli (GPa) = 92.39061 67.36883 94.91856
#
# Poissons Ratio (x) = -0.10143 0.12414
# Poissons Ratio (y) = -0.13910 0.14530
# Poissons Ratio (z) = 0.12083 0.10313
#
# Static dielectric constant tensor:
#      x y z
#    x 1.982320 -0.004050 0.010950 
#    y -0.004050 1.981190 -0.013400 
#    z 0.010950 -0.013400 1.991840 
# 
# From -- ./inp_files/38037.got.cif
#   From: 2010.05.17/outbox.cif.g08.bks.cpg/sg2_20_cif.got.tgz:38037.got - 2010.06.03 11:33:40.
