data_PCOD9062611
_publ_section_title
;
Structure prediction by ZEFSAII (Michael W. Deem and Ramdas Pophale) SiO2 
 PCOD9062611
Probable space group: P -1
;
_chemical_formula_sum "Si O2"
_cell_formula_units_Z 14
_cell_length_a 12.138459
_cell_length_b 9.533579
_cell_length_c 15.683423
_cell_angle_alpha 127.432923
_cell_angle_beta 26.375513
_cell_angle_gamma 136.400644
_cell_volume 551.032949
_symmetry_space_group_name_H-M "P -1"
_symmetry_group_IT_number 2
_symmetry_cell_setting 'triclinic'
loop_
_space_group_symop_operation_xyz
x,y,z
-x,-y,-z
loop_
_atom_site_type_symbol
_atom_site_label
_atom_site_fract_x
_atom_site_fract_y
_atom_site_fract_z
Si Si1 0.916515 0.874131 0.123760
Si Si2 0.099510 0.591076 0.571347
Si Si3 0.530819 0.226538 0.893336
Si Si4 0.296832 0.273791 0.595306
Si Si5 0.241352 0.827568 0.735036
Si Si6 0.197188 0.995624 0.286536
Si Si7 0.313822 0.371374 0.237427
O O1 0.792998 0.751740 0.252168
O O2 0.999820 0.763888 0.952000
O O3 0.727998 0.968206 0.252755
O O4 0.227449 0.082911 0.004702
O O5 0.171548 0.675433 0.647566
O O6 0.330636 0.550783 0.349814
O O7 0.810659 0.364508 0.693851
O O8 0.990184 0.712958 0.633998
O O9 0.588697 0.070925 0.849423
O O10 0.517052 0.391134 0.026148
O O11 0.500000 0.500000 0.500000
O O12 0.475197 0.156504 0.415492
O O13 0.009832 0.168597 0.699860
O O14 0.332808 0.213646 0.228348
O O15 0.000000 0.000000 0.500000
#
# Coordination Sequence:
#
# PCOD9062611 Si02
#       7
#     2   2   2   2   2   2   2
#     4  11  26  47  75 103 134 193 233 286 357 412
#     4  11  24  45  70 109 139 176 235 294 345 411
#     4  12  23  45  73 104 138 178 237 291 341 419
#     4  12  27  48  68 103 144 185 233 287 349 421
#     4  11  25  49  71 103 145 182 234 287 349 426
#     4  12  24  46  70 102 140 186 229 282 352 408
#     4  11  24  41  73 104 139 181 227 289 355 400
#
# _framework density 25.406829999999999
#
# number of rings (size 3 to 8) (size 9 to 14) (size 15 to 20)
#    0.000    0.571    4.286    3.000    0.000    1.714 
#    5.143    0.000    0.000    0.000    0.000    0.000 
#    0.000    0.000    0.000    0.000    0.000    0.000 
#
# Total GULP energy -78448.480645 kJ/mol
# GULP energy per Si atom -5603.462903 kJ/mol
# Density = 2.534900 g / cm^3
# Si number density = 25.406830 Si / 1000 Ang^3
#
#
#
# Elastic Constant Matrix: (Units=GPa)
#
#
# Indices 1 2 3 4 5 6 
#
# 1 88.7511 43.8529 37.5668 6.5337 19.0834 -12.8330
# 2 43.8529 101.8874 38.0307 -3.4312 -2.0986 -11.6941
# 3 37.5668 38.0307 127.9453 15.0392 30.8094 -0.8601
# 4 6.5337 -3.4312 15.0392 43.4837 -5.6732 8.4717
# 5 19.0834 -2.0986 30.8094 -5.6732 59.3247 4.0920
# 6 -12.8330 -11.6941 -0.8601 8.4717 4.0920 45.3455
#
#
#
# Elastic Compliance Matrix: (Units=1/GPa)
#
#
# Indices 1 2 3 4 5 6 
#
# 1 0.017365 -0.006831 -0.001069 -0.004440 -0.006008 0.004504
# 2 -0.006831 0.014575 -0.004061 0.004159 0.005185 0.000504
# 3 -0.001069 -0.004061 0.011429 -0.004997 -0.006238 0.000363
# 4 -0.004440 0.004159 -0.004997 0.027864 0.007259 -0.006139
# 5 -0.006008 0.005185 -0.006238 0.007259 0.023177 -0.003929
# 6 0.004504 0.000504 0.000363 -0.006139 -0.003929 0.024966
#
#
# Mechanical properties :
#
#
# Convention : Reuss Voigt Hill
#
# Bulk Modulus (GPa) = 51.42261 61.94271 56.68266
# Shear Modulus (GPa) = 33.38202 42.90634 38.14418
#
# Velocity S-wave (km/s) = 3.62871 4.11393 3.87891
# Velocity P-wave (km/s) = 6.15145 6.85559 6.51304
#
# Compressibility (1/GPa) = 0.01944670
#
# Stress axis : x y z
#
# Youngs Moduli (GPa) = 57.58569 68.60902 87.49842
#
# Poissons Ratio (x) = 0.46869 0.09358
# Poissons Ratio (y) = 0.39338 0.35530
# Poissons Ratio (z) = 0.06159 0.27860
#
# Static dielectric constant tensor:
#      x y z
#    x 2.023260 0.027190 0.000800 
#    y 0.027190 2.016470 -0.021510 
#    z 0.000800 -0.021510 1.989320 
# 
# From -- ./inp_files/472762.got.cif
#   From: 2010.05.17/outbox.cif.g08.bks.cpg/sg2_237_cif.got.tgz:472762.got - 2010.06.03 11:33:40.
