data_PCOD9062536
_publ_section_title
;
Structure prediction by ZEFSAII (Michael W. Deem and Ramdas Pophale) SiO2 
 PCOD9062536
Probable space group: P -1
;
_chemical_formula_sum "Si O2"
_cell_formula_units_Z 16
_cell_length_a 14.222913
_cell_length_b 10.401200
_cell_length_c 9.157838
_cell_angle_alpha 94.009830
_cell_angle_beta 105.037763
_cell_angle_gamma 32.981124
_cell_volume 683.537047
_symmetry_space_group_name_H-M "P -1"
_symmetry_group_IT_number 2
_symmetry_cell_setting 'triclinic'
loop_
_space_group_symop_operation_xyz
x,y,z
-x,-y,-z
loop_
_atom_site_type_symbol
_atom_site_label
_atom_site_fract_x
_atom_site_fract_y
_atom_site_fract_z
Si Si1 0.509991 0.862284 0.100706
Si Si2 0.867859 0.401096 0.724145
Si Si3 0.075920 0.117851 0.304347
Si Si4 0.536025 0.743234 0.807677
Si Si5 0.563412 0.423167 0.685456
Si Si6 0.728331 0.460914 0.364504
Si Si7 0.910833 0.741377 0.958553
Si Si8 0.872025 0.753733 0.401688
O O1 0.640386 0.693906 0.282514
O O2 0.306465 0.041600 0.080435
O O3 0.591260 0.678206 0.993561
O O4 0.500000 0.000000 0.000000
O O5 0.680151 0.653027 0.752146
O O6 0.796502 0.394633 0.556567
O O7 0.997745 0.351275 0.685996
O O8 0.005923 0.234371 0.906953
O O9 0.038383 0.272921 0.185704
O O10 0.153616 0.104630 0.477160
O O11 0.903314 0.236729 0.313121
O O12 0.224464 0.861831 0.261844
O O13 0.539247 0.591210 0.752034
O O14 0.334317 0.033143 0.724054
O O15 0.500000 0.500000 0.500000
O O16 0.430022 0.467556 0.707216
O O17 0.000000 0.500000 0.000000
O O18 0.000000 0.500000 0.500000
#
# Coordination Sequence:
#
# PCOD9062536 Si02
#       8
#     2   2   2   2   2   2   2   2
#     4  12  27  49  73 109 151 190 245 307 374 441
#     4  11  24  44  71 107 143 190 246 294 373 427
#     4  11  24  44  72 105 147 192 244 300 367 424
#     4  12  26  46  74 106 148 197 242 304 366 430
#     4  12  24  48  74 107 153 194 252 301 356 444
#     4  11  25  47  76 108 143 198 245 300 371 433
#     4  12  24  47  72 107 151 189 243 311 363 439
#     4  11  24  41  68 108 146 189 243 299 367 438
#
# _framework density 23.407658000000001
#
# number of rings (size 3 to 8) (size 9 to 14) (size 15 to 20)
#    0.000    0.500    5.000    3.000    3.500    2.500 
#    0.000    1.250    0.000    0.000    0.000    0.000 
#    0.000    0.000    0.000    0.000    0.000    0.000 
#
# Total GULP energy -89196.437723 kJ/mol
# GULP energy per Si atom -5574.777358 kJ/mol
# Density = 2.335438 g / cm^3
# Si number density = 23.407658 Si / 1000 Ang^3
#
#
#
# Elastic Constant Matrix: (Units=GPa)
#
#
# Indices 1 2 3 4 5 6 
#
# 1 73.5813 57.4842 30.4839 1.4066 -6.5757 -27.8173
# 2 57.4842 100.6298 16.3061 -6.4772 2.1241 -31.1318
# 3 30.4839 16.3061 100.5330 9.0294 -2.1182 -8.4346
# 4 1.4066 -6.4772 9.0294 36.5927 -5.9458 -4.3401
# 5 -6.5757 2.1241 -2.1182 -5.9458 36.1043 9.8699
# 6 -27.8173 -31.1318 -8.4346 -4.3401 9.8699 62.0265
#
#
#
# Elastic Compliance Matrix: (Units=1/GPa)
#
#
# Indices 1 2 3 4 5 6 
#
# 1 0.029752 -0.014859 -0.006065 -0.001024 0.004605 0.004256
# 2 -0.014859 0.019934 0.001230 0.003605 -0.004434 0.004466
# 3 -0.006065 0.001230 0.011760 -0.002643 -0.000767 -0.000566
# 4 -0.001024 0.003605 -0.002643 0.029542 0.003634 0.002480
# 5 0.004605 -0.004434 -0.000767 0.003634 0.030688 -0.004894
# 6 0.004256 0.004466 -0.000566 0.002480 -0.004894 0.021147
#
#
# Mechanical properties :
#
#
# Convention : Reuss Voigt Hill
#
# Bulk Modulus (GPa) = 45.33783 53.69916 49.51849
# Shear Modulus (GPa) = 26.37624 38.30935 32.34279
#
# Velocity S-wave (km/s) = 3.36046 4.04990 3.72118
# Velocity P-wave (km/s) = 5.87092 6.69773 6.29791
#
# Compressibility (1/GPa) = 0.02205664
#
# Stress axis : x y z
#
# Youngs Moduli (GPa) = 33.61158 50.16636 85.03192
#
# Poissons Ratio (x) = 0.74543 0.51574
# Poissons Ratio (y) = 0.49944 -0.10458
# Poissons Ratio (z) = 0.20386 -0.06170
#
# Static dielectric constant tensor:
#      x y z
#    x 1.874760 -0.067200 -0.155080 
#    y -0.067200 1.683400 -0.379660 
#    z -0.155080 -0.379660 1.258020 
# 
# From -- ./inp_files/307569.got.cif
#   From: 2010.05.17/outbox.cif.g08.bks.cpg/sg2_154_cif.got.tgz:307569.got - 2010.06.03 11:33:40.
