data_PCOD9062755
_publ_section_title
;
Structure prediction by ZEFSAII (Michael W. Deem and Ramdas Pophale) SiO2 
 PCOD9062755
Probable space group: P -1
;
_chemical_formula_sum "Si O2"
_cell_formula_units_Z 15
_cell_length_a 6.550483
_cell_length_b 11.967233
_cell_length_c 13.342578
_cell_angle_alpha 108.936273
_cell_angle_beta 132.061737
_cell_angle_gamma 63.699502
_cell_volume 695.543529
_symmetry_space_group_name_H-M "P -1"
_symmetry_group_IT_number 2
_symmetry_cell_setting 'triclinic'
loop_
_space_group_symop_operation_xyz
x,y,z
-x,-y,-z
loop_
_atom_site_type_symbol
_atom_site_label
_atom_site_fract_x
_atom_site_fract_y
_atom_site_fract_z
Si Si1 0.344319 0.100289 0.392533
Si Si2 0.293333 0.451551 0.023078
Si Si3 0.049631 0.543613 0.418661
Si Si4 0.320846 0.953360 0.138256
Si Si5 0.500000 0.000000 0.000000
Si Si6 0.546404 0.666703 0.151441
Si Si7 0.659126 0.231135 0.208615
Si Si8 0.517522 0.688953 0.608478
O O1 0.505869 0.200670 0.446575
O O2 0.005768 0.177366 0.327059
O O3 0.500000 0.000000 0.500000
O O4 0.339392 0.026590 0.266251
O O5 0.350151 0.578702 0.048474
O O6 0.553413 0.360784 0.149132
O O7 0.254529 0.370577 0.892396
O O8 0.000000 0.500000 0.000000
O O9 0.259822 0.628273 0.506876
O O10 0.196837 0.423829 0.361744
O O11 0.000000 0.500000 0.500000
O O12 0.740465 0.624353 0.299466
O O13 0.525879 0.970268 0.121843
O O14 0.378862 0.810426 0.142236
O O15 0.000000 0.000000 0.000000
O O16 0.573477 0.130183 0.084274
O O17 0.486515 0.258635 0.265202
#
# Coordination Sequence:
#
# PCOD9062755 Si02
#       8
#     2   2   2   2   1   2   2   2
#     4  12  28  46  72 107 147 197 245 303 368 444
#     4  11  24  42  70 102 136 180 231 295 362 425
#     4  11  25  47  72 104 141 191 239 298 367 441
#     4  12  26  47  70 103 144 191 242 299 362 433
#     4  12  24  46  74 100 140 202 234 304 364 430
#     4  11  25  42  67 102 138 175 237 293 348 428
#     4  12  25  47  70 105 146 187 246 308 365 435
#     4  11  25  45  73  99 145 189 238 297 372 432
#
# _framework density 21.565867000000001
#
# number of rings (size 3 to 8) (size 9 to 14) (size 15 to 20)
#    0.000    0.533    4.000    3.200    5.600    4.800 
#    0.000    0.000    0.000    0.000    0.000    0.000 
#    0.000    0.000    0.000    0.000    0.000    0.000 
#
# Total GULP energy -83613.007476 kJ/mol
# GULP energy per Si atom -5574.200498 kJ/mol
# Density = 2.151678 g / cm^3
# Si number density = 21.565867 Si / 1000 Ang^3
#
#
#
# Elastic Constant Matrix: (Units=GPa)
#
#
# Indices 1 2 3 4 5 6 
#
# 1 81.3619 52.4316 32.1317 3.8146 -21.9999 -0.3686
# 2 52.4316 160.7727 47.8336 -11.7153 -3.9240 9.1985
# 3 32.1317 47.8336 100.8832 -18.6064 -22.2988 -8.8418
# 4 3.8146 -11.7153 -18.6064 41.1469 7.9284 -5.9921
# 5 -21.9999 -3.9240 -22.2988 7.9284 29.0578 2.0193
# 6 -0.3686 9.1985 -8.8418 -5.9921 2.0193 36.7028
#
#
#
# Elastic Compliance Matrix: (Units=1/GPa)
#
#
# Indices 1 2 3 4 5 6 
#
# 1 0.022420 -0.006964 -0.001641 -0.008192 0.017059 -0.000701
# 2 -0.006964 0.009782 -0.003774 0.002782 -0.007428 -0.002568
# 3 -0.001641 -0.003774 0.015472 0.005199 0.008352 0.005046
# 4 -0.008192 0.002782 0.005199 0.031178 -0.010772 0.006156
# 5 0.017059 -0.007428 0.008352 -0.010772 0.055729 -0.000780
# 6 -0.000701 -0.002568 0.005046 0.006156 -0.000780 0.030146
#
#
# Mechanical properties :
#
#
# Convention : Reuss Voigt Hill
#
# Bulk Modulus (GPa) = 43.63670 67.53463 55.58566
# Shear Modulus (GPa) = 25.36486 35.42290 30.39388
#
# Velocity S-wave (km/s) = 3.43324 4.05723 3.75821
# Velocity P-wave (km/s) = 5.99952 7.30285 6.68303
#
# Compressibility (1/GPa) = 0.02291649
#
# Stress axis : x y z
#
# Youngs Moduli (GPa) = 44.60286 102.22524 64.63401
#
# Poissons Ratio (x) = 0.71191 0.10604
# Poissons Ratio (y) = 0.31062 0.24394
# Poissons Ratio (z) = 0.07317 0.38581
#
# Static dielectric constant tensor:
#      x y z
#    x 1.819840 -0.014040 -0.013850 
#    y -0.014040 1.773460 0.034530 
#    z -0.013850 0.034530 1.786250 
# 
# From -- ./inp_files/363246.got.cif
#   From: 2010.05.17/outbox.cif.g08.bks.cpg/sg2_182_cif.got.tgz:363246.got - 2010.06.03 11:33:40.
