data_PCOD9062099
_publ_section_title
;
Structure prediction by ZEFSAII (Michael W. Deem and Ramdas Pophale) SiO2 
 PCOD9062099
Probable space group: P -1
;
_chemical_formula_sum "Si O2"
_cell_formula_units_Z 15
_cell_length_a 7.756889
_cell_length_b 10.971000
_cell_length_c 21.477074
_cell_angle_alpha 155.626659
_cell_angle_beta 123.018339
_cell_angle_gamma 70.506854
_cell_volume 558.225827
_symmetry_space_group_name_H-M "P -1"
_symmetry_group_IT_number 2
_symmetry_cell_setting 'triclinic'
loop_
_space_group_symop_operation_xyz
x,y,z
-x,-y,-z
loop_
_atom_site_type_symbol
_atom_site_label
_atom_site_fract_x
_atom_site_fract_y
_atom_site_fract_z
Si Si1 0.864264 0.155765 0.278779
Si Si2 0.741859 0.455337 0.932957
Si Si3 0.742884 0.657111 0.660114
Si Si4 0.561565 0.282071 0.193412
Si Si5 0.183986 0.684768 0.947474
Si Si6 0.014814 0.331715 0.624580
Si Si7 0.500000 0.500000 0.000000
Si Si8 0.326365 0.653364 0.273448
O O1 0.631366 0.152941 0.207806
O O2 0.000000 0.500000 0.500000
O O3 0.036157 0.163017 0.261019
O O4 0.783763 0.811104 0.139901
O O5 0.636040 0.389660 0.812537
O O6 0.572411 0.233544 0.849832
O O7 0.000000 0.500000 0.000000
O O8 0.500000 0.500000 0.500000
O O9 0.800015 0.386148 0.581512
O O10 0.762614 0.949210 0.846428
O O11 0.366845 0.393494 0.202457
O O12 0.805353 0.588057 0.359974
O O13 0.500000 0.000000 0.000000
O O14 0.130904 0.623141 0.835002
O O15 0.937269 0.432353 0.812949
O O16 0.344228 0.517673 0.919225
O O17 0.000000 0.000000 0.500000
O O18 0.500000 0.000000 0.500000
#
# Coordination Sequence:
#
# PCOD9062099 Si02
#       8
#     2   2   2   2   2   2   1   2
#     4  11  26  45  73 105 148 201 261 317 391 478
#     4  12  25  52  75 112 162 203 261 329 399 479
#     4  11  26  49  73 113 161 209 268 328 406 485
#     4  11  23  47  73 101 147 202 257 314 387 469
#     4  12  26  49  73 114 157 210 264 334 406 480
#     4  11  26  47  75 113 157 202 270 331 395 482
#     4  12  28  44  88 108 160 212 270 326 418 462
#     4  12  25  47  76 111 152 206 259 327 403 472
#
# _framework density 26.870843000000001
#
# number of rings (size 3 to 8) (size 9 to 14) (size 15 to 20)
#    0.000    0.533    4.000    2.800    5.600    2.133 
#    2.400    0.000    0.000    0.000    0.000    0.000 
#    0.000    0.000    0.000    0.000    0.000    0.000 
#
# Total GULP energy -83792.627466 kJ/mol
# GULP energy per Si atom -5586.175164 kJ/mol
# Density = 2.680968 g / cm^3
# Si number density = 26.870843 Si / 1000 Ang^3
#
#
#
# Elastic Constant Matrix: (Units=GPa)
#
#
# Indices 1 2 3 4 5 6 
#
# 1 137.9045 17.7347 7.5849 -10.3926 -9.8498 -16.2054
# 2 17.7347 183.1890 55.1607 -1.8207 1.5758 -32.1041
# 3 7.5849 55.1607 161.2795 -3.1519 -18.6443 -18.7577
# 4 -10.3926 -1.8207 -3.1519 56.6068 2.5508 -0.3014
# 5 -9.8498 1.5758 -18.6443 2.5508 33.2856 -7.9732
# 6 -16.2054 -32.1041 -18.7577 -0.3014 -7.9732 58.3800
#
#
#
# Elastic Compliance Matrix: (Units=1/GPa)
#
#
# Indices 1 2 3 4 5 6 
#
# 1 0.007907 -0.000480 0.000473 0.001335 0.003128 0.002517
# 2 -0.000480 0.006601 -0.002027 0.000068 -0.000944 0.002717
# 3 0.000473 -0.002027 0.007716 0.000235 0.005064 0.002189
# 4 0.001335 0.000068 0.000235 0.017962 -0.000739 0.000475
# 5 0.003128 -0.000944 0.005064 -0.000739 0.035542 0.006826
# 6 0.002517 0.002717 0.002189 0.000475 0.006826 0.020960
#
#
# Mechanical properties :
#
#
# Convention : Reuss Voigt Hill
#
# Bulk Modulus (GPa) = 55.08252 71.48152 63.28202
# Shear Modulus (GPa) = 46.81339 56.44731 51.63035
#
# Velocity S-wave (km/s) = 4.17845 4.58830 4.38816
# Velocity P-wave (km/s) = 6.61988 7.39795 7.01970
#
# Compressibility (1/GPa) = 0.01815458
#
# Stress axis : x y z
#
# Youngs Moduli (GPa) = 126.47141 151.50288 129.60154
#
# Poissons Ratio (x) = 0.07279 -0.06128
# Poissons Ratio (y) = 0.06076 0.26268
# Poissons Ratio (z) = -0.05980 0.30707
#
# Static dielectric constant tensor:
#      x y z
#    x 1.624780 0.091790 0.077490 
#    y 0.091790 1.636170 -0.803030 
#    z 0.077490 -0.803030 0.710520 
# 
# From -- ./inp_files/607786.got.cif
#   From: 2010.05.17/outbox.cif.g08.bks.cpg/sg2_304_cif.got.tgz:607786.got - 2010.06.03 11:33:40.
