data_PCOD9062788
_publ_section_title
;
Structure prediction by ZEFSAII (Michael W. Deem and Ramdas Pophale) SiO2 
 PCOD9062788
Probable space group: P -1
;
_chemical_formula_sum "Si O2"
_cell_formula_units_Z 12
_cell_length_a 8.825644
_cell_length_b 17.123496
_cell_length_c 6.676025
_cell_angle_alpha 129.377394
_cell_angle_beta 131.369373
_cell_angle_gamma 49.696010
_cell_volume 538.366598
_symmetry_space_group_name_H-M "P -1"
_symmetry_group_IT_number 2
_symmetry_cell_setting 'triclinic'
loop_
_space_group_symop_operation_xyz
x,y,z
-x,-y,-z
loop_
_atom_site_type_symbol
_atom_site_label
_atom_site_fract_x
_atom_site_fract_y
_atom_site_fract_z
Si Si1 0.884844 0.411901 0.710765
Si Si2 0.011424 0.891431 0.206202
Si Si3 0.204052 0.168512 0.440087
Si Si4 0.525080 0.549795 0.308630
Si Si5 0.500991 0.769183 0.519447
Si Si6 0.380405 0.098667 0.897118
O O1 0.713578 0.463833 0.466233
O O2 0.714559 0.408309 0.727856
O O3 0.049938 0.288281 0.591932
O O4 0.000000 0.500000 0.000000
O O5 0.259572 0.807633 0.283966
O O6 0.863605 0.846575 0.137754
O O7 0.000000 0.000000 0.500000
O O8 0.915693 0.894504 0.902499
O O9 0.363417 0.194625 0.466149
O O10 0.338291 0.092504 0.617580
O O11 0.603792 0.644707 0.467819
O O12 0.500000 0.500000 0.000000
O O13 0.486018 0.827945 0.816967
O O14 0.500000 0.000000 0.000000
#
# Coordination Sequence:
#
# PCOD9062788 Si02
#       6
#     2   2   2   2   2   2
#     4  11  24  44  69 106 139 180 228 277 346 412
#     4  11  24  45  66  98 135 180 233 284 344 403
#     4  11  26  42  70  99 139 183 232 284 348 408
#     4  11  24  42  71 102 142 179 226 280 340 416
#     4  11  24  43  67  99 138 180 233 282 344 407
#     4  11  24  46  65  97 135 179 233 289 341 403
#
# _framework density 22.289643999999999
#
# number of rings (size 3 to 8) (size 9 to 14) (size 15 to 20)
#    0.000    1.000    1.667    4.000    0.000   14.000 
#    0.000    0.000    0.000    0.000    0.000    0.000 
#    0.000    0.000    0.000    0.000    0.000    0.000 
#
# Total GULP energy -66884.573798 kJ/mol
# GULP energy per Si atom -5573.714483 kJ/mol
# Density = 2.223891 g / cm^3
# Si number density = 22.289644 Si / 1000 Ang^3
#
#
#
# Elastic Constant Matrix: (Units=GPa)
#
#
# Indices 1 2 3 4 5 6 
#
# 1 89.1957 31.8249 35.2769 -30.1827 -14.0374 -11.9112
# 2 31.8249 104.6809 56.2285 -7.4547 -22.0455 -3.8084
# 3 35.2769 56.2285 176.7375 -20.7514 -26.2561 8.7238
# 4 -30.1827 -7.4547 -20.7514 35.7038 0.4534 -0.5260
# 5 -14.0374 -22.0455 -26.2561 0.4534 36.0104 -1.7905
# 6 -11.9112 -3.8084 8.7238 -0.5260 -1.7905 36.2535
#
#
#
# Elastic Compliance Matrix: (Units=1/GPa)
#
#
# Indices 1 2 3 4 5 6 
#
# 1 0.019601 -0.003133 -0.000614 0.015590 0.005414 0.006752
# 2 -0.003133 0.013071 -0.003123 -0.001774 0.004590 0.001296
# 3 -0.000614 -0.003123 0.007765 0.003267 0.003360 -0.002185
# 4 0.015590 -0.001774 0.003267 0.042701 0.007090 0.005119
# 5 0.005414 0.004590 0.003360 0.007090 0.035215 0.003295
# 6 0.006752 0.001296 -0.002185 0.005119 0.003295 0.030701
#
#
# Mechanical properties :
#
#
# Convention : Reuss Voigt Hill
#
# Bulk Modulus (GPa) = 37.45947 68.58610 53.02278
# Shear Modulus (GPa) = 29.12162 38.07911 33.60037
#
# Velocity S-wave (km/s) = 3.61849 4.13774 3.88679
# Velocity P-wave (km/s) = 5.85664 7.32564 6.63194
#
# Compressibility (1/GPa) = 0.02669552
#
# Stress axis : x y z
#
# Youngs Moduli (GPa) = 51.01696 76.50813 128.78235
#
# Poissons Ratio (x) = 0.23971 0.07908
# Poissons Ratio (y) = 0.15985 0.40224
# Poissons Ratio (z) = 0.03133 0.23896
#
# Static dielectric constant tensor:
#      x y z
#    x 1.817380 -0.014030 0.032310 
#    y -0.014030 1.812070 0.093050 
#    z 0.032310 0.093050 1.825190 
# 
# From -- ./inp_files/9002.got.cif
#   From: 2010.05.17/outbox.cif.g08.bks.cpg/sg2_5_cif.got.tgz:9002.got - 2010.06.03 11:33:40.
