data_PCOD9062570
_publ_section_title
;
Structure prediction by ZEFSAII (Michael W. Deem and Ramdas Pophale) SiO2 
 PCOD9062570
Probable space group: P -1
;
_chemical_formula_sum "Si O2"
_cell_formula_units_Z 15
_cell_length_a 8.961205
_cell_length_b 6.484115
_cell_length_c 14.242902
_cell_angle_alpha 96.939684
_cell_angle_beta 125.662499
_cell_angle_gamma 104.545571
_cell_volume 612.105082
_symmetry_space_group_name_H-M "P -1"
_symmetry_group_IT_number 2
_symmetry_cell_setting 'triclinic'
loop_
_space_group_symop_operation_xyz
x,y,z
-x,-y,-z
loop_
_atom_site_type_symbol
_atom_site_label
_atom_site_fract_x
_atom_site_fract_y
_atom_site_fract_z
Si Si1 0.000000 0.000000 0.500000
Si Si2 0.719325 0.507550 0.667096
Si Si3 0.415894 0.596683 0.835077
Si Si4 0.968895 0.334902 0.892748
Si Si5 0.050543 0.720098 0.670807
Si Si6 0.639247 0.868707 0.759930
Si Si7 0.719768 0.812852 0.111977
Si Si8 0.393603 0.055544 0.553768
O O1 0.047057 0.822144 0.574228
O O2 0.840095 0.016035 0.524147
O O3 0.855851 0.424744 0.779356
O O4 0.713880 0.747192 0.700979
O O5 0.498329 0.327454 0.599101
O O6 0.831328 0.542179 0.611200
O O7 0.206663 0.603482 0.730735
O O8 0.558773 0.691507 0.804317
O O9 0.369506 0.342384 0.837230
O O10 0.529765 0.764919 0.971669
O O11 0.150742 0.300532 0.904688
O O12 0.827726 0.091522 0.868531
O O13 0.000000 0.500000 0.000000
O O14 0.145379 0.934642 0.790685
O O15 0.477858 0.958490 0.666175
O O16 0.500000 0.000000 0.500000
#
# Coordination Sequence:
#
# PCOD9062570 Si02
#       8
#     1   2   2   2   2   2   2   2
#     4  12  28  48  80 110 144 190 256 306 360 460
#     4  11  25  46  73 103 147 190 242 304 371 440
#     4  11  25  43  70 106 145 193 234 303 365 435
#     4  11  24  41  70 108 145 192 243 292 363 447
#     4  12  25  48  72 105 146 195 244 304 374 431
#     4  11  24  45  71 107 145 187 244 300 364 439
#     4  11  25  44  70 106 148 189 247 300 359 449
#     4  11  27  51  75 110 147 191 247 314 370 443
#
# _framework density 24.505593999999999
#
# number of rings (size 3 to 8) (size 9 to 14) (size 15 to 20)
#    0.000    0.800    4.000    2.000    5.600    5.333 
#    0.000    2.000    0.000    0.000    0.000    0.000 
#    0.000    0.000    0.000    0.000    0.000    0.000 
#
# Total GULP energy -83684.632314 kJ/mol
# GULP energy per Si atom -5578.975488 kJ/mol
# Density = 2.444982 g / cm^3
# Si number density = 24.505594 Si / 1000 Ang^3
#
#
#
# Elastic Constant Matrix: (Units=GPa)
#
#
# Indices 1 2 3 4 5 6 
#
# 1 113.6234 28.6060 9.5069 -10.0752 6.6804 21.6352
# 2 28.6060 38.6294 18.1509 0.4328 -2.5443 11.9915
# 3 9.5069 18.1509 37.3832 -28.4151 2.7416 7.5772
# 4 -10.0752 0.4328 -28.4151 41.8458 -7.2864 -15.7227
# 5 6.6804 -2.5443 2.7416 -7.2864 28.3508 -10.7644
# 6 21.6352 11.9915 7.5772 -15.7227 -10.7644 33.5286
#
#
#
# Elastic Compliance Matrix: (Units=1/GPa)
#
#
# Indices 1 2 3 4 5 6 
#
# 1 0.013257 -0.016121 0.013756 0.011437 -0.003604 -0.001691
# 2 -0.016121 0.141466 -0.162693 -0.157466 -0.042797 -0.091006
# 3 0.013756 -0.162693 0.247711 0.229893 0.063418 0.121494
# 4 0.011437 -0.157466 0.229893 0.250465 0.078309 0.139576
# 5 -0.003604 -0.042797 0.063418 0.078309 0.070003 0.062496
# 6 -0.001691 -0.091006 0.121494 0.139576 0.062496 0.121524
#
#
# Mechanical properties :
#
#
# Convention : Reuss Voigt Hill
#
# Bulk Modulus (GPa) = 13.82779 33.57373 23.70076
# Shear Modulus (GPa) = 4.17137 29.63651 16.90394
#
# Velocity S-wave (km/s) = 1.30610 3.48138 2.62925
# Velocity P-wave (km/s) = 2.81594 5.46719 4.34855
#
# Compressibility (1/GPa) = 0.07231815
#
# Stress axis : x y z
#
# Youngs Moduli (GPa) = 75.43360 7.06884 4.03696
#
# Poissons Ratio (x) = 0.11396 -0.05553
# Poissons Ratio (y) = 1.21607 0.65679
# Poissons Ratio (z) = -1.03768 1.15005
#
# Static dielectric constant tensor:
#      x y z
#    x 1.942190 -0.034730 -0.064100 
#    y -0.034730 1.948330 0.117830 
#    z -0.064100 0.117830 2.124880 
# 
# From -- ./inp_files/289249.got.cif
#   From: 2010.05.17/outbox.cif.g08.bks.cpg/sg2_145_cif.got.tgz:289249.got - 2010.06.03 11:33:40.
