data_PCOD9062380
_publ_section_title
;
Structure prediction by ZEFSAII (Michael W. Deem and Ramdas Pophale) SiO2 
 PCOD9062380
Probable space group: P -1
;
_chemical_formula_sum "Si O2"
_cell_formula_units_Z 14
_cell_length_a 6.641092
_cell_length_b 9.035257
_cell_length_c 17.552196
_cell_angle_alpha 48.898070
_cell_angle_beta 98.195067
_cell_angle_gamma 124.918829
_cell_volume 602.378338
_symmetry_space_group_name_H-M "P -1"
_symmetry_group_IT_number 2
_symmetry_cell_setting 'triclinic'
loop_
_space_group_symop_operation_xyz
x,y,z
-x,-y,-z
loop_
_atom_site_type_symbol
_atom_site_label
_atom_site_fract_x
_atom_site_fract_y
_atom_site_fract_z
Si Si1 0.145014 0.390802 0.576835
Si Si2 0.834422 0.346620 0.266111
Si Si3 0.168351 0.278316 0.778077
Si Si4 0.552029 0.234627 0.874903
Si Si5 0.756436 0.405621 0.071086
Si Si6 0.773479 0.863679 0.467554
Si Si7 0.306164 0.193972 0.019857
O O1 0.033520 0.239486 0.702651
O O2 0.459504 0.610242 0.542929
O O3 0.127828 0.215930 0.569044
O O4 0.000000 0.500000 0.500000
O O5 0.715070 0.442619 0.280638
O O6 0.759026 0.324492 0.182177
O O7 0.154357 0.567272 0.207494
O O8 0.758497 0.083799 0.374482
O O9 0.357622 0.204085 0.810734
O O10 0.964834 0.093462 0.897931
O O11 0.481519 0.338793 0.905682
O O12 0.500000 0.000000 0.000000
O O13 0.493411 0.184373 0.087998
O O14 0.761120 0.642882 0.000291
O O15 0.000000 0.500000 0.000000
O O16 0.000000 0.000000 0.500000
#
# Coordination Sequence:
#
# PCOD9062380 Si02
#       7
#     2   2   2   2   2   2   2
#     4  11  28  51  77 106 143 188 244 313 372 437
#     4  12  25  42  73 100 139 191 235 289 364 422
#     4  12  26  43  70 103 138 186 238 288 360 428
#     4  12  23  41  67 102 146 189 230 283 346 431
#     4  11  24  40  61  98 141 185 229 284 337 420
#     4  11  27  52  76 107 143 183 246 311 373 436
#     4  11  24  40  62  97 144 181 231 276 343 420
#
# _framework density 23.241205999999998
#
# number of rings (size 3 to 8) (size 9 to 14) (size 15 to 20)
#    0.000    0.571    4.286    3.000    4.000    4.571 
#    0.000    0.000    0.000    0.000    0.000    0.000 
#    0.000    0.000    0.000    0.000    0.000    0.000 
#
# Total GULP energy -78124.388307 kJ/mol
# GULP energy per Si atom -5580.313451 kJ/mol
# Density = 2.318831 g / cm^3
# Si number density = 23.241206 Si / 1000 Ang^3
#
#
#
# Elastic Constant Matrix: (Units=GPa)
#
#
# Indices 1 2 3 4 5 6 
#
# 1 86.2370 17.2801 21.8473 5.7065 22.8672 -10.5871
# 2 17.2801 91.1637 28.9684 12.1503 12.3995 -5.6441
# 3 21.8473 28.9684 84.6460 16.2313 20.8687 -3.4322
# 4 5.7065 12.1503 16.2313 49.4255 4.4341 4.8730
# 5 22.8672 12.3995 20.8687 4.4341 41.1551 3.4649
# 6 -10.5871 -5.6441 -3.4322 4.8730 3.4649 48.3246
#
#
#
# Elastic Compliance Matrix: (Units=1/GPa)
#
#
# Indices 1 2 3 4 5 6 
#
# 1 0.014568 -0.001030 -0.001321 -0.000689 -0.007341 0.003573
# 2 -0.001030 0.012759 -0.003307 -0.001928 -0.001499 0.001331
# 3 -0.001321 -0.003307 0.015484 -0.003717 -0.005823 0.001217
# 4 -0.000689 -0.001928 -0.003717 0.022233 0.000700 -0.002932
# 5 -0.007341 -0.001499 -0.005823 0.000700 0.032091 -0.004568
# 6 0.003573 0.001331 0.001217 -0.002932 -0.004568 0.022341
#
#
# Mechanical properties :
#
#
# Convention : Reuss Voigt Hill
#
# Bulk Modulus (GPa) = 31.75120 44.24870 37.99995
# Shear Modulus (GPa) = 35.38799 40.71107 38.04953
#
# Velocity S-wave (km/s) = 3.90634 4.18984 4.05057
# Velocity P-wave (km/s) = 5.83414 6.51818 6.18562
#
# Compressibility (1/GPa) = 0.03149488
#
# Stress axis : x y z
#
# Youngs Moduli (GPa) = 68.64461 78.37735 64.58100
#
# Poissons Ratio (x) = 0.08074 0.08529
# Poissons Ratio (y) = 0.07072 0.21359
# Poissons Ratio (z) = 0.09065 0.25921
#
# Static dielectric constant tensor:
#      x y z
#    x 1.977280 0.074020 0.025510 
#    y 0.074020 1.956360 0.017370 
#    z 0.025510 0.017370 1.872810 
# 
# From -- ./inp_files/547800.got.cif
#   From: 2010.05.17/outbox.cif.g08.bks.cpg/sg2_274_cif.got.tgz:547800.got - 2010.06.03 11:33:40.
