data_PCOD9062989
_publ_section_title
;
Structure prediction by ZEFSAII (Michael W. Deem and Ramdas Pophale) SiO2 
 PCOD9062989
Probable space group: P -1
;
_chemical_formula_sum "Si O2"
_cell_formula_units_Z 16
_cell_length_a 17.835288
_cell_length_b 14.333228
_cell_length_c 12.103828
_cell_angle_alpha 31.344690
_cell_angle_beta 128.978647
_cell_angle_gamma 149.149579
_cell_volume 759.822948
_symmetry_space_group_name_H-M "P -1"
_symmetry_group_IT_number 2
_symmetry_cell_setting 'triclinic'
loop_
_space_group_symop_operation_xyz
x,y,z
-x,-y,-z
loop_
_atom_site_type_symbol
_atom_site_label
_atom_site_fract_x
_atom_site_fract_y
_atom_site_fract_z
Si Si1 0.018040 0.740086 0.272767
Si Si2 0.563223 0.714012 0.241714
Si Si3 0.607902 0.439758 0.430134
Si Si4 0.362466 0.434640 0.910729
Si Si5 0.859046 0.367944 0.928437
Si Si6 0.942152 0.765359 0.419012
Si Si7 0.368893 0.793087 0.944584
Si Si8 0.200236 0.415705 0.960839
O O1 0.944637 0.708510 0.350655
O O2 0.000000 0.500000 0.500000
O O3 0.923122 0.672697 0.147311
O O4 0.197777 0.082355 0.091707
O O5 0.500000 0.500000 0.500000
O O6 0.565863 0.582326 0.274601
O O7 0.457024 0.733559 0.103746
O O8 0.740057 0.040852 0.103873
O O9 0.592144 0.391007 0.333813
O O10 0.789586 0.664078 0.400562
O O11 0.497961 0.141151 0.698163
O O12 0.500000 0.500000 0.000000
O O13 0.330762 0.519113 0.898211
O O14 0.928239 0.577716 0.676937
O O15 0.749108 0.333759 0.937131
O O16 0.000000 0.500000 0.000000
O O17 0.102460 0.112199 0.235941
O O18 0.272974 0.644984 0.890795
#
# Coordination Sequence:
#
# PCOD9062989 Si02
#       8
#     2   2   2   2   2   2   2   2
#     4  11  25  44  70 102 141 186 233 291 351 418
#     4  12  26  48  73 100 143 187 233 294 353 407
#     4  12  24  46  76  99 142 188 232 292 351 419
#     4  11  24  43  68 105 137 181 236 282 351 422
#     4  12  29  46  72 108 140 184 244 287 350 425
#     4  11  24  47  72  98 144 188 235 291 351 418
#     4  12  28  48  71 107 143 185 238 292 350 423
#     4  11  25  47  69 103 143 181 231 293 352 413
#
# _framework density 21.057538000000001
#
# number of rings (size 3 to 8) (size 9 to 14) (size 15 to 20)
#    0.000    0.500    5.000    2.625    8.750    3.000 
#    0.000    0.000    0.000    0.000    0.000    0.000 
#    0.000    0.000    0.000    0.000    0.000    0.000 
#
# Total GULP energy -89572.797678 kJ/mol
# GULP energy per Si atom -5598.299855 kJ/mol
# Density = 2.100961 g / cm^3
# Si number density = 21.057538 Si / 1000 Ang^3
#
#
#
# Elastic Constant Matrix: (Units=GPa)
#
#
# Indices 1 2 3 4 5 6 
#
# 1 77.6288 34.3454 32.5941 -17.8279 7.7001 -1.9356
# 2 34.3454 89.8167 29.1762 10.6030 -7.2922 4.8357
# 3 32.5941 29.1762 120.3738 9.5401 -5.2802 6.8950
# 4 -17.8279 10.6030 9.5401 24.6398 -2.0454 6.5098
# 5 7.7001 -7.2922 -5.2802 -2.0454 36.1062 3.0988
# 6 -1.9356 4.8357 6.8950 6.5098 3.0988 34.4133
#
#
#
# Elastic Compliance Matrix: (Units=1/GPa)
#
#
# Indices 1 2 3 4 5 6 
#
# 1 0.029036 -0.012756 -0.007414 0.028620 -0.008252 0.000240
# 2 -0.012756 0.018270 0.000637 -0.016669 0.005625 -0.000766
# 3 -0.007414 0.000637 0.011101 -0.009373 0.002907 -0.001219
# 4 0.028620 -0.016669 -0.009373 0.073589 -0.006024 -0.007548
# 5 -0.008252 0.005625 0.002907 -0.006024 0.030975 -0.003487
# 6 0.000240 -0.000766 -0.001219 -0.007548 -0.003487 0.031166
#
#
# Mechanical properties :
#
#
# Convention : Reuss Voigt Hill
#
# Bulk Modulus (GPa) = 51.70423 53.33899 52.52161
# Shear Modulus (GPa) = 20.86372 31.81210 26.33791
#
# Velocity S-wave (km/s) = 3.15111 3.89102 3.54044
# Velocity P-wave (km/s) = 6.15194 6.75069 6.45826
#
# Compressibility (1/GPa) = 0.01934078
#
# Stress axis : x y z
#
# Youngs Moduli (GPa) = 34.44003 54.73323 90.08341
#
# Poissons Ratio (x) = 0.69819 0.66791
# Poissons Ratio (y) = 0.43933 -0.05742
# Poissons Ratio (z) = 0.25535 -0.03489
#
# Static dielectric constant tensor:
#      x y z
#    x 1.762230 -0.003040 -0.001770 
#    y -0.003040 1.752490 -0.008960 
#    z -0.001770 -0.008960 1.744760 
# 
# From -- ./inp_files/206225.got.cif
#   From: 2010.05.17/outbox.cif.g08.bks.cpg/sg2_104_cif.got.tgz:206225.got - 2010.06.03 11:33:40.
