data_PCOD9062543
_publ_section_title
;
Structure prediction by ZEFSAII (Michael W. Deem and Ramdas Pophale) SiO2 
 PCOD9062543
Probable space group: P -1
;
_chemical_formula_sum "Si O2"
_cell_formula_units_Z 16
_cell_length_a 23.981901
_cell_length_b 6.925996
_cell_length_c 5.120451
_cell_angle_alpha 104.925725
_cell_angle_beta 53.166118
_cell_angle_gamma 99.691169
_cell_volume 657.646428
_symmetry_space_group_name_H-M "P -1"
_symmetry_group_IT_number 2
_symmetry_cell_setting 'triclinic'
loop_
_space_group_symop_operation_xyz
x,y,z
-x,-y,-z
loop_
_atom_site_type_symbol
_atom_site_label
_atom_site_fract_x
_atom_site_fract_y
_atom_site_fract_z
Si Si1 0.264881 0.433489 0.513343
Si Si2 0.675852 0.266052 0.937002
Si Si3 0.947980 0.023453 0.901105
Si Si4 0.841385 0.831293 0.512832
Si Si5 0.379055 0.177294 0.177293
Si Si6 0.427508 0.398346 0.585826
Si Si7 0.078089 0.560409 0.746999
Si Si8 0.822405 0.261169 0.856613
O O1 0.309918 0.612290 0.326194
O O2 0.234189 0.269246 0.344352
O O3 0.310072 0.291226 0.515745
O O4 0.199699 0.556495 0.837073
O O5 0.752132 0.254627 0.858833
O O6 0.641147 0.052375 0.896062
O O7 0.622019 0.413534 0.279696
O O8 0.881540 0.891796 0.149957
O O9 0.000000 0.000000 0.500000
O O10 0.913942 0.241089 0.029386
O O11 0.000000 0.000000 0.000000
O O12 0.884426 0.648844 0.433868
O O13 0.834334 0.026137 0.778596
O O14 0.433140 0.244545 0.273474
O O15 0.399248 0.276336 0.876726
O O16 0.500000 0.500000 0.500000
O O17 0.105740 0.660934 0.442253
O O18 0.000000 0.500000 0.000000
#
# Coordination Sequence:
#
# PCOD9062543 Si02
#       8
#     2   2   2   2   2   2   2   2
#     4  11  24  41  69 100 135 185 235 294 353 423
#     4  11  24  43  68 105 143 183 241 289 353 419
#     4  11  26  46  69  97 131 177 233 287 360 433
#     4  11  24  44  66  98 133 179 236 295 360 419
#     4  11  25  44  75 105 148 188 235 294 346 412
#     4  11  26  47  74 110 149 191 236 284 349 421
#     4  11  24  44  67  97 137 183 236 296 364 424
#     4  11  24  42  67  99 135 185 241 295 357 425
#
# _framework density 24.329180999999998
#
# number of rings (size 3 to 8) (size 9 to 14) (size 15 to 20)
#    0.000    1.000    5.000    0.375    3.500    4.500 
#    0.000    0.000    0.000    0.000    0.000    0.000 
#    0.000    0.000    0.000    0.000    0.000    0.000 
#
# Total GULP energy -89168.176829 kJ/mol
# GULP energy per Si atom -5573.011052 kJ/mol
# Density = 2.427381 g / cm^3
# Si number density = 24.329181 Si / 1000 Ang^3
#
#
#
# Elastic Constant Matrix: (Units=GPa)
#
#
# Indices 1 2 3 4 5 6 
#
# 1 63.9116 28.5688 -0.4474 -11.5941 6.3455 11.6105
# 2 28.5688 197.8270 37.4249 1.5104 14.3922 28.5511
# 3 -0.4474 37.4249 59.5798 -1.1694 13.7289 3.6238
# 4 -11.5941 1.5104 -1.1694 37.4491 6.1644 -4.6594
# 5 6.3455 14.3922 13.7289 6.1644 33.5918 -5.2054
# 6 11.6105 28.5511 3.6238 -4.6594 -5.2054 29.6199
#
#
#
# Elastic Compliance Matrix: (Units=1/GPa)
#
#
# Indices 1 2 3 4 5 6 
#
# 1 0.019569 -0.002201 0.003482 0.006542 -0.006315 -0.006056
# 2 -0.002201 0.007094 -0.003729 -0.001550 -0.001756 -0.006072
# 3 0.003482 -0.003729 0.021266 0.003126 -0.008539 -0.001381
# 4 0.006542 -0.001550 0.003126 0.030313 -0.007091 0.002070
# 5 -0.006315 -0.001756 -0.008539 -0.007091 0.038180 0.010807
# 6 -0.006056 -0.006072 -0.001381 0.002070 0.010807 0.044381
#
#
# Mechanical properties :
#
#
# Convention : Reuss Voigt Hill
#
# Bulk Modulus (GPa) = 23.23901 50.26786 36.75343
# Shear Modulus (GPa) = 27.77088 37.18362 32.47725
#
# Velocity S-wave (km/s) = 3.38222 3.91366 3.65760
# Velocity P-wave (km/s) = 4.98249 6.41317 5.74256
#
# Compressibility (1/GPa) = 0.04303109
#
# Stress axis : x y z
#
# Youngs Moduli (GPa) = 51.10167 140.96128 47.02388
#
# Poissons Ratio (x) = 0.31028 -0.16372
# Poissons Ratio (y) = 0.11248 0.17536
# Poissons Ratio (z) = -0.17791 0.52568
#
# Static dielectric constant tensor:
#      x y z
#    x 2.074500 -0.057430 0.045210 
#    y -0.057430 1.842290 0.056200 
#    z 0.045210 0.056200 2.076820 
# 
# From -- ./inp_files/125850.got.cif
#   From: 2010.05.17/outbox.cif.g08.bks.cpg/sg2_63_cif.got.tgz:125850.got - 2010.06.03 11:33:40.
