data_PCOD9062365
_publ_section_title
;
Structure prediction by ZEFSAII (Michael W. Deem and Ramdas Pophale) SiO2 
 PCOD9062365
Probable space group: P -1
;
_chemical_formula_sum "Si O2"
_cell_formula_units_Z 14
_cell_length_a 10.485991
_cell_length_b 12.328647
_cell_length_c 8.928417
_cell_angle_alpha 116.529235
_cell_angle_beta 106.496409
_cell_angle_gamma 43.309670
_cell_volume 706.794066
_symmetry_space_group_name_H-M "P -1"
_symmetry_group_IT_number 2
_symmetry_cell_setting 'triclinic'
loop_
_space_group_symop_operation_xyz
x,y,z
-x,-y,-z
loop_
_atom_site_type_symbol
_atom_site_label
_atom_site_fract_x
_atom_site_fract_y
_atom_site_fract_z
Si Si1 0.603711 0.312939 0.975232
Si Si2 0.040304 0.691347 0.680499
Si Si3 0.280379 0.135427 0.546053
Si Si4 0.650311 0.329324 0.350268
Si Si5 0.269172 0.398463 0.805908
Si Si6 0.156301 0.993178 0.606212
Si Si7 0.054934 0.762251 0.043971
O O1 0.598178 0.321567 0.158909
O O2 0.165412 0.563611 0.979427
O O3 0.500000 0.500000 0.000000
O O4 0.809384 0.208538 0.918082
O O5 0.164990 0.705758 0.635669
O O6 0.190333 0.499164 0.681631
O O7 0.865433 0.754426 0.570677
O O8 0.963768 0.803701 0.875877
O O9 0.234127 0.278691 0.728171
O O10 0.234732 0.033652 0.534918
O O11 0.512946 0.718570 0.159808
O O12 0.500000 0.500000 0.500000
O O13 0.690755 0.187177 0.375726
O O14 0.500000 0.000000 0.500000
O O15 0.070534 0.130402 0.792689
O O16 0.000000 0.000000 0.500000
#
# Coordination Sequence:
#
# PCOD9062365 Si02
#       7
#     2   2   2   2   2   2   2
#     4   9  18  37  69  99 122 173 217 267 326 392
#     4   9  21  44  68  95 128 182 216 269 330 393
#     4  12  27  43  66  99 139 178 216 273 334 397
#     4  11  24  39  67 101 137 165 223 278 327 391
#     4   9  21  41  71  91 132 174 220 259 337 394
#     4  12  27  42  65 101 133 173 225 279 331 380
#     4   8  21  40  68  94 131 164 228 267 329 385
#
# _framework density 19.807748
#
# number of rings (size 3 to 8) (size 9 to 14) (size 15 to 20)
#    0.857    1.143    2.857    0.429    8.000    4.000 
#    0.000    2.857    0.000    0.000    0.000    0.000 
#    0.000    0.000    0.000    0.000    0.000    0.000 
#
# Total GULP energy -77952.945863 kJ/mol
# GULP energy per Si atom -5568.067562 kJ/mol
# Density = 1.976267 g / cm^3
# Si number density = 19.807748 Si / 1000 Ang^3
#
#
#
# Elastic Constant Matrix: (Units=GPa)
#
#
# Indices 1 2 3 4 5 6 
#
# 1 100.3462 36.4015 44.9250 -6.1269 19.4055 -2.3355
# 2 36.4015 83.7739 33.0119 -6.9250 10.0048 5.6701
# 3 44.9250 33.0119 70.9653 6.7091 3.6661 -14.6555
# 4 -6.1269 -6.9250 6.7091 34.7918 -5.1635 6.6338
# 5 19.4055 10.0048 3.6661 -5.1635 32.6650 -2.6018
# 6 -2.3355 5.6701 -14.6555 6.6338 -2.6018 34.0423
#
#
#
# Elastic Compliance Matrix: (Units=1/GPa)
#
#
# Indices 1 2 3 4 5 6 
#
# 1 0.017324 -0.001302 -0.011429 0.004735 -0.008266 -0.005069
# 2 -0.001302 0.017840 -0.009711 0.006371 -0.003289 -0.008734
# 3 -0.011429 -0.009711 0.030109 -0.012054 0.005801 0.016588
# 4 0.004735 0.006371 -0.012054 0.035793 0.001226 -0.012807
# 5 -0.008266 -0.003289 0.005801 0.001226 0.036475 0.005027
# 6 -0.005069 -0.008734 0.016588 -0.012807 0.005027 0.040503
#
#
# Mechanical properties :
#
#
# Convention : Reuss Voigt Hill
#
# Bulk Modulus (GPa) = 49.04431 53.75135 51.39783
# Shear Modulus (GPa) = 21.76518 29.68295 25.72406
#
# Velocity S-wave (km/s) = 3.31844 3.87531 3.60764
# Velocity P-wave (km/s) = 6.28464 6.87165 6.58469
#
# Compressibility (1/GPa) = 0.02038972
#
# Stress axis : x y z
#
# Youngs Moduli (GPa) = 57.72237 56.05390 33.21234
#
# Poissons Ratio (x) = 0.07300 0.37958
# Poissons Ratio (y) = 0.07518 0.32251
# Poissons Ratio (z) = 0.65971 0.54431
#
# Static dielectric constant tensor:
#      x y z
#    x 1.614360 0.042790 -0.000420 
#    y 0.042790 1.701040 0.005850 
#    z -0.000420 0.005850 1.676350 
# 
# From -- ./inp_files/249913.got.cif
#   From: 2010.05.17/outbox.cif.g08.bks.cpg/sg2_125_cif.got.tgz:249913.got - 2010.06.03 11:33:40.
