data_PCOD9062442
_publ_section_title
;
Structure prediction by ZEFSAII (Michael W. Deem and Ramdas Pophale) SiO2 
 PCOD9062442
Probable space group: P -1
;
_chemical_formula_sum "Si O2"
_cell_formula_units_Z 14
_cell_length_a 8.944137
_cell_length_b 15.904779
_cell_length_c 9.261699
_cell_angle_alpha 79.901079
_cell_angle_beta 65.111785
_cell_angle_gamma 34.965301
_cell_volume 647.476990
_symmetry_space_group_name_H-M "P -1"
_symmetry_group_IT_number 2
_symmetry_cell_setting 'triclinic'
loop_
_space_group_symop_operation_xyz
x,y,z
-x,-y,-z
loop_
_atom_site_type_symbol
_atom_site_label
_atom_site_fract_x
_atom_site_fract_y
_atom_site_fract_z
Si Si1 0.336133 0.886939 0.873567
Si Si2 0.996836 0.343488 0.789613
Si Si3 0.674577 0.669697 0.524258
Si Si4 0.690899 0.357137 0.669719
Si Si5 0.682589 0.615852 0.017909
Si Si6 0.215458 0.109407 0.984628
Si Si7 0.740213 0.308052 0.355901
O O1 0.483031 0.791870 0.695090
O O2 0.306462 0.000985 0.861509
O O3 0.539575 0.760459 0.957979
O O4 0.000000 0.000000 0.000000
O O5 0.261354 0.286475 0.634310
O O6 0.100528 0.243501 0.912978
O O7 0.867082 0.335707 0.723912
O O8 0.748161 0.518002 0.894285
O O9 0.509799 0.656876 0.538495
O O10 0.000000 0.500000 0.500000
O O11 0.552776 0.330239 0.798824
O O12 0.872927 0.263165 0.475709
O O13 0.414345 0.537098 0.678519
O O14 0.000000 0.500000 0.000000
O O15 0.962483 0.185977 0.174853
O O16 0.500000 0.000000 0.000000
#
# Coordination Sequence:
#
# PCOD9062442 Si02
#       7
#     2   2   2   2   2   2   2
#     4  12  26  46  71 105 151 189 236 305 376 426
#     4  12  25  46  77 104 141 191 250 294 356 440
#     4  12  24  45  76 109 142 189 249 300 356 438
#     4  11  24  40  75 103 140 181 246 300 350 424
#     4  12  24  43  75 108 141 192 251 298 358 444
#     4  12  28  48  70 102 150 192 238 302 376 430
#     4  11  24  45  69 107 145 184 237 305 358 425
#
# _framework density 21.622391
#
# number of rings (size 3 to 8) (size 9 to 14) (size 15 to 20)
#    0.000    0.286    5.714    3.000    2.000    0.571 
#    2.571    1.429    0.000    0.000    0.000    0.000 
#    0.000    0.000    0.000    0.000    0.000    0.000 
#
# Total GULP energy -78350.904093 kJ/mol
# GULP energy per Si atom -5596.493150 kJ/mol
# Density = 2.157318 g / cm^3
# Si number density = 21.622391 Si / 1000 Ang^3
#
#
#
# Elastic Constant Matrix: (Units=GPa)
#
#
# Indices 1 2 3 4 5 6 
#
# 1 60.3341 1.0866 11.1257 -4.6738 -0.8808 -2.9239
# 2 1.0866 52.6497 24.9285 5.7618 -4.2389 1.3805
# 3 11.1257 24.9285 122.1408 -4.0124 0.2985 4.6272
# 4 -4.6738 5.7618 -4.0124 35.9243 10.8215 4.0508
# 5 -0.8808 -4.2389 0.2985 10.8215 37.7772 -0.3216
# 6 -2.9239 1.3805 4.6272 4.0508 -0.3216 35.0977
#
#
#
# Elastic Compliance Matrix: (Units=1/GPa)
#
#
# Indices 1 2 3 4 5 6 
#
# 1 0.017076 0.000140 -0.001575 0.001896 -0.000105 0.001405
# 2 0.000140 0.022128 -0.004730 -0.005327 0.004053 0.000417
# 3 -0.001575 -0.004730 0.009425 0.002152 -0.001271 -0.001448
# 4 0.001896 -0.005327 0.002152 0.032597 -0.009940 -0.003770
# 5 -0.000105 0.004053 -0.001271 -0.009940 0.029793 0.001420
# 6 0.001405 0.000417 -0.001448 -0.003770 0.001420 0.029231
#
#
# Mechanical properties :
#
#
# Convention : Reuss Voigt Hill
#
# Bulk Modulus (GPa) = 27.54784 34.37847 30.96315
# Shear Modulus (GPa) = 30.36213 34.95876 32.66045
#
# Velocity S-wave (km/s) = 3.75133 4.02529 3.89072
# Velocity P-wave (km/s) = 5.61528 6.12682 5.87662
#
# Compressibility (1/GPa) = 0.03630049
#
# Stress axis : x y z
#
# Youngs Moduli (GPa) = 58.56283 45.19080 106.10403
#
# Poissons Ratio (x) = -0.00634 0.16709
# Poissons Ratio (y) = -0.00822 0.50185
# Poissons Ratio (z) = 0.09222 0.21374
#
# Static dielectric constant tensor:
#      x y z
#    x 1.706870 -0.029240 0.026670 
#    y -0.029240 1.701940 -0.114910 
#    z 0.026670 -0.114910 1.154190 
# 
# From -- ./inp_files/153180.got.cif
#   From: 2010.05.17/outbox.cif.g08.bks.cpg/sg2_77_cif.got.tgz:153180.got - 2010.06.03 11:33:40.
