data_PCOD9062082
_publ_section_title
;
Structure prediction by ZEFSAII (Michael W. Deem and Ramdas Pophale) SiO2 
 PCOD9062082
Probable space group: P -1
;
_chemical_formula_sum "Si O2"
_cell_formula_units_Z 16
_cell_length_a 9.408125
_cell_length_b 8.976219
_cell_length_c 11.711161
_cell_angle_alpha 69.053499
_cell_angle_beta 55.728184
_cell_angle_gamma 48.383616
_cell_volume 610.791625
_symmetry_space_group_name_H-M "P -1"
_symmetry_group_IT_number 2
_symmetry_cell_setting 'triclinic'
loop_
_space_group_symop_operation_xyz
x,y,z
-x,-y,-z
loop_
_atom_site_type_symbol
_atom_site_label
_atom_site_fract_x
_atom_site_fract_y
_atom_site_fract_z
Si Si1 0.972498 0.577677 0.331623
Si Si2 0.253219 0.695291 0.573946
Si Si3 0.571365 0.388491 0.121129
Si Si4 0.500502 0.149845 0.540186
Si Si5 0.003568 0.338042 0.965947
Si Si6 0.835944 0.888681 0.842451
Si Si7 0.398263 0.145465 0.235003
Si Si8 0.177263 0.740782 0.333597
O O1 0.732967 0.642336 0.434222
O O2 0.168864 0.347831 0.328219
O O3 0.013358 0.710074 0.355004
O O4 0.976068 0.631946 0.183661
O O5 0.500000 0.500000 0.500000
O O6 0.303674 0.839817 0.566737
O O7 0.074558 0.713722 0.729907
O O8 0.155508 0.766701 0.472097
O O9 0.794711 0.343055 0.063219
O O10 0.555226 0.207110 0.167767
O O11 0.405385 0.536997 0.251729
O O12 0.500000 0.500000 0.000000
O O13 0.500000 0.000000 0.500000
O O14 0.527517 0.054377 0.678257
O O15 0.177448 0.138323 0.010415
O O16 0.000000 0.500000 0.000000
O O17 0.668243 0.871270 0.856596
O O18 0.814234 0.086417 0.769391
#
# Coordination Sequence:
#
# PCOD9062082 Si02
#       8
#     2   2   2   2   2   2   2   2
#     4  11  26  49  72 109 145 194 241 300 373 425
#     4  12  27  47  74 107 144 197 244 303 365 443
#     4  11  23  47  72 102 145 190 249 289 369 431
#     4  12  29  47  73 111 148 191 252 298 365 443
#     4  12  25  46  75 104 145 190 244 301 359 441
#     4  12  25  46  73 105 148 189 244 301 369 429
#     4  11  25  48  71 107 147 192 239 303 363 432
#     4  11  25  44  72 106 143 189 238 306 360 435
#
# _framework density 26.195515
#
# number of rings (size 3 to 8) (size 9 to 14) (size 15 to 20)
#    0.000    0.500    5.000    2.625   10.500    2.000 
#    0.000    1.875    0.000    0.000    0.000    0.000 
#    0.000    0.000    0.000    0.000    0.000    0.000 
#
# Total GULP energy -89701.589983 kJ/mol
# GULP energy per Si atom -5606.349374 kJ/mol
# Density = 2.613589 g / cm^3
# Si number density = 26.195515 Si / 1000 Ang^3
#
#
#
# Elastic Constant Matrix: (Units=GPa)
#
#
# Indices 1 2 3 4 5 6 
#
# 1 217.6203 30.7365 42.6573 0.5511 -12.4744 21.6969
# 2 30.7365 103.0172 5.2880 4.1309 -8.4486 5.2919
# 3 42.6573 5.2880 99.0551 -4.1839 7.4708 5.1272
# 4 0.5511 4.1309 -4.1839 42.8977 0.6591 -2.1954
# 5 -12.4744 -8.4486 7.4708 0.6591 60.6719 -6.4961
# 6 21.6969 5.2919 5.1272 -2.1954 -6.4961 41.4571
#
#
#
# Elastic Compliance Matrix: (Units=1/GPa)
#
#
# Indices 1 2 3 4 5 6 
#
# 1 0.005513 -0.001317 -0.002272 -0.000298 0.000987 -0.002297
# 2 -0.001317 0.010263 -0.000084 -0.001022 0.001127 -0.000488
# 3 -0.002272 -0.000084 0.011295 0.001146 -0.001929 -0.000439
# 4 -0.000298 -0.001022 0.001146 0.023600 -0.000459 0.001323
# 5 0.000987 0.001127 -0.001929 -0.000459 0.017327 0.002269
# 6 -0.002297 -0.000488 -0.000439 0.001323 0.002269 0.025866
#
#
# Mechanical properties :
#
#
# Convention : Reuss Voigt Hill
#
# Bulk Modulus (GPa) = 50.69663 64.11735 57.40699
# Shear Modulus (GPa) = 46.38888 51.73938 49.06413
#
# Velocity S-wave (km/s) = 4.21274 4.44906 4.33251
# Velocity P-wave (km/s) = 6.56186 7.13595 6.85492
#
# Compressibility (1/GPa) = 0.01972518
#
# Stress axis : x y z
#
# Youngs Moduli (GPa) = 181.39209 97.43798 88.53604
#
# Poissons Ratio (x) = 0.12836 0.20115
# Poissons Ratio (y) = 0.23895 0.00740
# Poissons Ratio (z) = 0.41211 0.00814
#
# Static dielectric constant tensor:
#      x y z
#    x 2.023440 -0.055370 0.029260 
#    y -0.055370 2.192050 0.021850 
#    z 0.029260 0.021850 2.071610 
# 
# From -- ./inp_files/274841.got.cif
#   From: 2010.05.17/outbox.cif.g08.bks.cpg/sg2_138_cif.got.tgz:274841.got - 2010.06.03 11:33:40.
