data_PCOD9062044
_publ_section_title
;
Structure prediction by ZEFSAII (Michael W. Deem and Ramdas Pophale) SiO2 
 PCOD9062044
Probable space group: P -1
;
_chemical_formula_sum "Si O2"
_cell_formula_units_Z 14
_cell_length_a 11.445155
_cell_length_b 8.821801
_cell_length_c 16.585256
_cell_angle_alpha 41.727582
_cell_angle_beta 146.176322
_cell_angle_gamma 125.025740
_cell_volume 615.599973
_symmetry_space_group_name_H-M "P -1"
_symmetry_group_IT_number 2
_symmetry_cell_setting 'triclinic'
loop_
_space_group_symop_operation_xyz
x,y,z
-x,-y,-z
loop_
_atom_site_type_symbol
_atom_site_label
_atom_site_fract_x
_atom_site_fract_y
_atom_site_fract_z
Si Si1 0.404490 0.759799 0.035539
Si Si2 0.216995 0.472014 0.588345
Si Si3 0.194422 0.147525 0.556040
Si Si4 0.702403 0.067999 0.634775
Si Si5 0.111979 0.751329 0.020422
Si Si6 0.922334 0.460451 0.156277
Si Si7 0.343384 0.050982 0.158380
O O1 0.605291 0.567748 0.224713
O O2 0.293238 0.704415 0.077411
O O3 0.234143 0.725345 0.883479
O O4 0.500000 0.000000 0.000000
O O5 0.225681 0.258160 0.617125
O O6 0.251895 0.687792 0.468294
O O7 0.000000 0.500000 0.500000
O O8 0.107207 0.358323 0.362725
O O9 0.414037 0.003488 0.710363
O O10 0.000000 0.000000 0.500000
O O11 0.500000 0.000000 0.500000
O O12 0.666771 0.047501 0.717958
O O13 0.909804 0.890726 0.806903
O O14 0.033948 0.542375 0.107105
O O15 0.201227 0.913372 0.073891
O O16 0.769332 0.685897 0.009771
#
# Coordination Sequence:
#
# PCOD9062044 Si02
#       7
#     2   2   2   2   2   2   2
#     4  12  26  45  68 104 144 188 231 295 358 423
#     4  12  26  46  71 103 144 187 234 291 363 419
#     4  12  28  46  73 108 144 186 241 298 350 428
#     4  11  25  43  75 107 139 182 238 301 346 425
#     4  11  23  47  70 103 142 181 240 291 355 423
#     4  11  26  45  75 102 142 187 235 296 357 419
#     4  11  25  48  74 105 142 186 242 292 357 422
#
# _framework density 22.742041
#
# number of rings (size 3 to 8) (size 9 to 14) (size 15 to 20)
#    0.000    0.571    1.429    7.286    8.000    1.714 
#    0.000    0.000    0.000    0.000    0.000    0.000 
#    0.000    0.000    0.000    0.000    0.000    0.000 
#
# Total GULP energy -78393.045984 kJ/mol
# GULP energy per Si atom -5599.503285 kJ/mol
# Density = 2.269028 g / cm^3
# Si number density = 22.742041 Si / 1000 Ang^3
#
#
#
# Elastic Constant Matrix: (Units=GPa)
#
#
# Indices 1 2 3 4 5 6 
#
# 1 84.1927 32.7320 33.9298 -5.7351 38.0859 6.5102
# 2 32.7320 125.6352 27.7479 8.6489 3.5094 14.0010
# 3 33.9298 27.7479 133.7894 14.0048 10.5627 8.1768
# 4 -5.7351 8.6489 14.0048 42.4212 5.9384 -5.1067
# 5 38.0859 3.5094 10.5627 5.9384 42.8060 7.9235
# 6 6.5102 14.0010 8.1768 -5.1067 7.9235 35.1695
#
#
#
# Elastic Compliance Matrix: (Units=1/GPa)
#
#
# Indices 1 2 3 4 5 6 
#
# 1 0.029488 -0.007262 -0.005470 0.011861 -0.027148 0.006543
# 2 -0.007262 0.010575 -0.000112 -0.004734 0.007233 -0.005156
# 3 -0.005470 -0.000112 0.009231 -0.004597 0.003716 -0.002594
# 4 0.011861 -0.004734 -0.004597 0.030777 -0.014889 0.008581
# 5 -0.027148 0.007233 0.003716 -0.014889 0.050333 -0.012220
# 6 0.006543 -0.005156 -0.002594 0.008581 -0.012220 0.033878
#
#
# Mechanical properties :
#
#
# Convention : Reuss Voigt Hill
#
# Bulk Modulus (GPa) = 42.36230 59.15962 50.76096
# Shear Modulus (GPa) = 25.27327 40.69319 32.98323
#
# Velocity S-wave (km/s) = 3.33724 4.23465 3.81244
# Velocity P-wave (km/s) = 5.78941 7.06961 6.46130
#
# Compressibility (1/GPa) = 0.02360590
#
# Stress axis : x y z
#
# Youngs Moduli (GPa) = 33.91212 94.56541 108.32740
#
# Poissons Ratio (x) = 0.68671 0.59259
# Poissons Ratio (y) = 0.24626 0.01212
# Poissons Ratio (z) = 0.18551 0.01058
#
# Static dielectric constant tensor:
#      x y z
#    x 1.922990 0.002070 0.064500 
#    y 0.002070 1.855630 -0.017880 
#    z 0.064500 -0.017880 1.887630 
# 
# From -- ./inp_files/159377.got.cif
#   From: 2010.05.17/outbox.cif.g08.bks.cpg/sg2_80_cif.got.tgz:159377.got - 2010.06.03 11:33:40.
