data_PCOD9062222
_publ_section_title
;
Structure prediction by ZEFSAII (Michael W. Deem and Ramdas Pophale) SiO2 
 PCOD9062222
Probable space group: P -1
;
_chemical_formula_sum "Si O2"
_cell_formula_units_Z 11
_cell_length_a 5.195769
_cell_length_b 11.962283
_cell_length_c 11.210341
_cell_angle_alpha 127.566770
_cell_angle_beta 126.883212
_cell_angle_gamma 82.301256
_cell_volume 411.120863
_symmetry_space_group_name_H-M "P -1"
_symmetry_group_IT_number 2
_symmetry_cell_setting 'triclinic'
loop_
_space_group_symop_operation_xyz
x,y,z
-x,-y,-z
loop_
_atom_site_type_symbol
_atom_site_label
_atom_site_fract_x
_atom_site_fract_y
_atom_site_fract_z
Si Si1 0.478689 0.608840 0.387577
Si Si2 0.500000 0.000000 0.000000
Si Si3 0.243965 0.788694 0.996289
Si Si4 0.404726 0.668612 0.667449
Si Si5 0.673130 0.599364 0.999917
Si Si6 0.403322 0.825708 0.342713
O O1 0.320048 0.649365 0.489256
O O2 0.689727 0.507532 0.428784
O O3 0.246937 0.495433 0.147572
O O4 0.630447 0.757998 0.444007
O O5 0.407030 0.948329 0.078583
O O6 0.668697 0.187102 0.205560
O O7 0.372860 0.802067 0.177503
O O8 0.401022 0.667114 0.914830
O O9 0.830943 0.734016 0.838078
O O10 0.500000 0.500000 0.000000
O O11 0.012949 0.737128 0.220643
O O12 0.500000 0.000000 0.500000
#
# Coordination Sequence:
#
# PCOD9062222 Si02
#       6
#     2   1   2   2   2   2
#     4  11  23  48  73 111 151 196 254 312 379 451
#     4  12  24  44  68 110 146 200 250 308 388 442
#     4  12  24  45  73 103 154 197 251 314 378 450
#     4  11  25  45  74 106 153 198 254 320 377 456
#     4  12  24  47  79 112 147 205 255 312 383 455
#     4  12  26  47  75 110 156 201 257 318 374 453
#
# _framework density 26.756125000000001
#
# number of rings (size 3 to 8) (size 9 to 14) (size 15 to 20)
#    0.000    0.364    5.455    3.273    0.000    2.909 
#    6.545    1.818    0.000    0.000    0.000    0.000 
#    0.000    0.000    0.000    0.000    0.000    0.000 
#
# Total GULP energy -61242.540572 kJ/mol
# GULP energy per Si atom -5567.503688 kJ/mol
# Density = 2.669523 g / cm^3
# Si number density = 26.756125 Si / 1000 Ang^3
#
#
#
# Elastic Constant Matrix: (Units=GPa)
#
#
# Indices 1 2 3 4 5 6 
#
# 1 54.6206 37.6674 29.5676 -0.4741 -2.2980 -1.0435
# 2 37.6674 240.6169 64.9398 11.8912 10.2221 51.4994
# 3 29.5676 64.9398 117.3759 17.7892 -32.9381 -14.8594
# 4 -0.4741 11.8912 17.7892 61.6699 -0.9760 -2.7348
# 5 -2.2980 10.2221 -32.9381 -0.9760 49.0090 -5.0635
# 6 -1.0435 51.4994 -14.8594 -2.7348 -5.0635 50.5909
#
#
#
# Elastic Compliance Matrix: (Units=1/GPa)
#
#
# Indices 1 2 3 4 5 6 
#
# 1 0.022720 -0.002794 -0.004580 0.002103 -0.001186 0.001963
# 2 -0.002794 0.011475 -0.010921 0.000020 -0.011527 -0.016099
# 3 -0.004580 -0.010921 0.024625 -0.003815 0.020615 0.020112
# 4 0.002103 0.000020 -0.003815 0.017277 -0.002164 -0.000380
# 5 -0.001186 -0.011527 0.020615 -0.002164 0.038789 0.021530
# 6 0.001963 -0.016099 0.020112 -0.000380 0.021530 0.044237
#
#
# Mechanical properties :
#
#
# Convention : Reuss Voigt Hill
#
# Bulk Modulus (GPa) = 44.98507 75.21812 60.10160
# Shear Modulus (GPa) = 24.61546 50.94987 37.78266
#
# Velocity S-wave (km/s) = 3.03643 4.36848 3.76189
# Velocity P-wave (km/s) = 5.39840 7.32246 6.43277
#
# Compressibility (1/GPa) = 0.02222960
#
# Stress axis : x y z
#
# Youngs Moduli (GPa) = 44.01331 87.14382 40.60952
#
# Poissons Ratio (x) = 0.24350 0.18601
# Poissons Ratio (y) = 0.12298 0.44349
# Poissons Ratio (z) = 0.20160 0.95168
#
# Static dielectric constant tensor:
#      x y z
#    x 2.392430 -0.047040 -0.008060 
#    y -0.047040 2.193870 -0.063870 
#    z -0.008060 -0.063870 2.158690 
# 
# From -- ./inp_files/17093.got.cif
#   From: 2010.05.17/outbox.cif.g08.bks.cpg/sg2_9_cif.got.tgz:17093.got - 2010.06.03 11:33:40.
