data_PCOD9062346
_publ_section_title
;
Structure prediction by ZEFSAII (Michael W. Deem and Ramdas Pophale) SiO2 
 PCOD9062346
Probable space group: P -1
;
_chemical_formula_sum "Si O2"
_cell_formula_units_Z 16
_cell_length_a 15.633458
_cell_length_b 10.413082
_cell_length_c 9.825629
_cell_angle_alpha 98.211835
_cell_angle_beta 122.947791
_cell_angle_gamma 128.304439
_cell_volume 721.203953
_symmetry_space_group_name_H-M "P -1"
_symmetry_group_IT_number 2
_symmetry_cell_setting 'triclinic'
loop_
_space_group_symop_operation_xyz
x,y,z
-x,-y,-z
loop_
_atom_site_type_symbol
_atom_site_label
_atom_site_fract_x
_atom_site_fract_y
_atom_site_fract_z
Si Si1 0.500845 0.966254 0.656201
Si Si2 0.599311 0.796264 0.632483
Si Si3 0.951063 0.753045 0.522187
Si Si4 0.084347 0.451755 0.289575
Si Si5 0.045978 0.812289 0.143370
Si Si6 0.289209 0.288335 0.837685
Si Si7 0.751266 0.701443 0.884186
Si Si8 0.145973 0.546241 0.834270
O O1 0.500000 0.000000 0.500000
O O2 0.585901 0.912230 0.723858
O O3 0.291988 0.733119 0.497873
O O4 0.639505 0.207806 0.894757
O O5 0.700635 0.791383 0.804330
O O6 0.392493 0.538576 0.364810
O O7 0.730412 0.950549 0.636602
O O8 0.926088 0.686704 0.646561
O O9 0.822729 0.737152 0.365250
O O10 0.881468 0.555078 0.346420
O O11 0.162380 0.023020 0.706337
O O12 0.019104 0.342278 0.065746
O O13 0.951050 0.417516 0.234694
O O14 0.956426 0.859822 0.064589
O O15 0.961627 0.656586 0.179196
O O16 0.500000 0.500000 0.000000
O O17 0.289830 0.349871 0.998784
#
# Coordination Sequence:
#
# PCOD9062346 Si02
#       8
#     2   2   2   2   2   2   2   2
#     4  12  24  43  68 105 139 178 231 281 340 408
#     4  11  24  38  69 103 135 171 227 286 341 403
#     4  11  28  48  67 104 137 181 236 274 342 413
#     4  12  25  43  73  98 141 182 226 288 333 407
#     4  12  22  43  71  99 135 179 221 286 344 399
#     4  11  27  47  73  96 141 184 223 283 344 412
#     4  11  24  43  66 106 131 175 229 284 341 409
#     4  12  25  45  68 100 138 183 229 278 345 404
#
# _framework density 22.185127999999999
#
# number of rings (size 3 to 8) (size 9 to 14) (size 15 to 20)
#    0.000    0.500    5.000    2.625    3.500    1.500 
#    0.000    0.000    0.000    0.000    0.000    0.000 
#    0.000    0.000    0.000    0.000    0.000    0.000 
#
# Total GULP energy -89566.360339 kJ/mol
# GULP energy per Si atom -5597.897521 kJ/mol
# Density = 2.213463 g / cm^3
# Si number density = 22.185128 Si / 1000 Ang^3
#
#
#
# Elastic Constant Matrix: (Units=GPa)
#
#
# Indices 1 2 3 4 5 6 
#
# 1 48.5538 -17.9776 6.4678 13.6002 -0.3378 -1.8519
# 2 -17.9776 73.3769 19.1485 5.8197 7.4573 0.8565
# 3 6.4678 19.1485 66.7715 15.1763 2.7126 6.1564
# 4 13.6002 5.8197 15.1763 37.9795 8.2934 10.2152
# 5 -0.3378 7.4573 2.7126 8.2934 27.9988 0.1489
# 6 -1.8519 0.8565 6.1564 10.2152 0.1489 31.5295
#
#
#
# Elastic Compliance Matrix: (Units=1/GPa)
#
#
# Indices 1 2 3 4 5 6 
#
# 1 0.027617 0.008214 -0.002927 -0.011974 0.001945 0.005841
# 2 0.008214 0.017535 -0.005103 -0.003502 -0.003051 0.002151
# 3 -0.002927 -0.005103 0.018012 -0.005095 0.001098 -0.001905
# 4 -0.011974 -0.003502 -0.005095 0.038647 -0.010101 -0.012087
# 5 0.001945 -0.003051 0.001098 -0.010101 0.039421 0.003069
# 6 0.005841 0.002151 -0.001905 -0.012087 0.003069 0.036274
#
#
# Mechanical properties :
#
#
# Convention : Reuss Voigt Hill
#
# Bulk Modulus (GPa) = 15.73968 22.66441 19.20205
# Shear Modulus (GPa) = 25.21221 31.57245 28.39233
#
# Velocity S-wave (km/s) = 3.37478 3.77654 3.58130
# Velocity P-wave (km/s) = 4.72182 5.40875 5.07692
#
# Compressibility (1/GPa) = 0.06353367
#
# Stress axis : x y z
#
# Youngs Moduli (GPa) = 36.20923 57.02869 55.51735
#
# Poissons Ratio (x) = -0.46843 0.16248
# Poissons Ratio (y) = -0.29742 0.28329
# Poissons Ratio (z) = 0.10597 0.29101
#
# Static dielectric constant tensor:
#      x y z
#    x 1.787650 -0.043630 0.012790 
#    y -0.043630 1.830840 0.005020 
#    z 0.012790 0.005020 1.796900 
# 
# From -- ./inp_files/333287.got.cif
#   From: 2010.05.17/outbox.cif.g08.bks.cpg/sg2_167_cif.got.tgz:333287.got - 2010.06.03 11:33:40.
