data_PCOD9062821
_publ_section_title
;
Structure prediction by ZEFSAII (Michael W. Deem and Ramdas Pophale) SiO2 
 PCOD9062821
Probable space group: P -1
;
_chemical_formula_sum "Si O2"
_cell_formula_units_Z 16
_cell_length_a 16.468994
_cell_length_b 15.061164
_cell_length_c 15.061557
_cell_angle_alpha 159.799129
_cell_angle_beta 126.197291
_cell_angle_gamma 45.328177
_cell_volume 880.201766
_symmetry_space_group_name_H-M "P -1"
_symmetry_group_IT_number 2
_symmetry_cell_setting 'triclinic'
loop_
_space_group_symop_operation_xyz
x,y,z
-x,-y,-z
loop_
_atom_site_type_symbol
_atom_site_label
_atom_site_fract_x
_atom_site_fract_y
_atom_site_fract_z
Si Si1 0.475717 0.585864 0.962325
Si Si2 0.751262 0.471707 0.525735
Si Si3 0.037388 0.398691 0.026549
Si Si4 0.721329 0.306370 0.750822
Si Si5 0.977310 0.928196 0.617102
Si Si6 0.694103 0.993229 0.118432
Si Si7 0.643968 0.961902 0.250009
Si Si8 0.598652 0.765791 0.537283
O O1 0.601824 0.439820 0.856285
O O2 0.407630 0.444475 0.738606
O O3 0.500000 0.500000 0.000000
O O4 0.407558 0.945701 0.239686
O O5 0.707761 0.582294 0.502210
O O6 0.897357 0.271448 0.433913
O O7 0.697387 0.271628 0.337352
O O8 0.697366 0.767800 0.833509
O O9 0.992372 0.683539 0.326886
O O10 0.000000 0.500000 0.000000
O O11 0.177892 0.204734 0.939645
O O12 0.992395 0.188288 0.831655
O O13 0.833162 0.118819 0.714733
O O14 0.713375 0.101173 0.475032
O O15 0.713382 0.598089 0.971959
O O16 0.615796 0.054313 0.213939
O O17 0.518899 0.105725 0.356229
#
# Coordination Sequence:
#
# PCOD9062821 Si02
#       8
#     2   2   2   2   2   2   2   2
#     4  10  21  38  61  81  95 119 158 209 262 308
#     4  10  21  33  48  72 103 143 172 195 237 288
#     4  10  18  27  42  65  96 134 174 211 238 266
#     4  10  19  33  52  75 101 127 164 213 259 290
#     4  10  19  30  46  68  98 133 165 199 242 294
#     4  10  19  30  45  70 103 140 180 204 229 278
#     4  10  20  32  49  73 101 136 174 214 246 272
#     4  10  21  37  55  76 103 130 161 203 252 302
#
# _framework density 18.177651000000001
#
# number of rings (size 3 to 8) (size 9 to 14) (size 15 to 20)
#    0.000    2.000    0.000    4.500    0.000    3.000 
#    0.000    0.000    0.000    1.500    0.000    0.000 
#    0.000    0.000    0.000    0.000    0.000    0.000 
#
# Total GULP energy -89105.558463 kJ/mol
# GULP energy per Si atom -5569.097404 kJ/mol
# Density = 1.813628 g / cm^3
# Si number density = 18.177651 Si / 1000 Ang^3
#
#
#
# Elastic Constant Matrix: (Units=GPa)
#
#
# Indices 1 2 3 4 5 6 
#
# 1 22.1384 35.5747 34.7296 -3.2320 7.9404 9.5860
# 2 35.5747 158.1120 66.6488 -11.5233 14.5432 12.1605
# 3 34.7296 66.6488 143.3084 1.1598 41.0820 12.3190
# 4 -3.2320 -11.5233 1.1598 64.9548 -1.8512 11.9013
# 5 7.9404 14.5432 41.0820 -1.8512 15.4535 4.1966
# 6 9.5860 12.1605 12.3190 11.9013 4.1966 34.7932
#
#
#
# Elastic Compliance Matrix: (Units=1/GPa)
#
#
# Indices 1 2 3 4 5 6 
#
# 1 0.114281 -0.013234 -0.035753 0.010076 0.056635 -0.024480
# 2 -0.013234 0.010246 -0.003373 0.001394 0.006284 0.000025
# 3 -0.035753 -0.003373 0.047493 -0.008163 -0.108428 0.010084
# 4 0.010076 0.001394 -0.008163 0.018526 0.019906 -0.009111
# 5 0.056635 0.006284 -0.108428 0.019906 0.327306 -0.025697
# 6 -0.024480 0.000025 0.010084 -0.009111 -0.025697 0.038123
#
#
# Mechanical properties :
#
#
# Convention : Reuss Voigt Hill
#
# Bulk Modulus (GPa) = 14.85878 66.38499 40.62189
# Shear Modulus (GPa) = 7.31927 35.48068 21.39997
#
# Velocity S-wave (km/s) = 2.00880 4.42281 3.43486
# Velocity P-wave (km/s) = 3.68406 7.91714 6.17468
#
# Compressibility (1/GPa) = 0.06730026
#
# Stress axis : x y z
#
# Youngs Moduli (GPa) = 8.75033 97.60266 21.05571
#
# Poissons Ratio (x) = 1.29169 0.75281
# Poissons Ratio (y) = 0.11580 0.07101
# Poissons Ratio (z) = 0.31285 0.32918
#
# Static dielectric constant tensor:
#      x y z
#    x 1.594200 -0.036240 -0.004930 
#    y -0.036240 1.630940 0.017070 
#    z -0.004930 0.017070 1.596640 
# 
# From -- ./inp_files/66738.got.cif
#   From: 2010.05.17/outbox.cif.g08.bks.cpg/sg2_34_cif.got.tgz:66738.got - 2010.06.03 11:33:40.
