data_PCOD9062757
_publ_section_title
;
Structure prediction by ZEFSAII (Michael W. Deem and Ramdas Pophale) SiO2 
 PCOD9062757
Probable space group: P -1
;
_chemical_formula_sum "Si O2"
_cell_formula_units_Z 16
_cell_length_a 9.056752
_cell_length_b 17.869353
_cell_length_c 11.802248
_cell_angle_alpha 148.725450
_cell_angle_beta 126.662892
_cell_angle_gamma 50.427033
_cell_volume 757.691578
_symmetry_space_group_name_H-M "P -1"
_symmetry_group_IT_number 2
_symmetry_cell_setting 'triclinic'
loop_
_space_group_symop_operation_xyz
x,y,z
-x,-y,-z
loop_
_atom_site_type_symbol
_atom_site_label
_atom_site_fract_x
_atom_site_fract_y
_atom_site_fract_z
Si Si1 0.576777 0.131515 0.356221
Si Si2 0.582628 0.912707 0.538726
Si Si3 0.199496 0.147620 0.057011
Si Si4 0.544148 0.418045 0.293072
Si Si5 0.120417 0.469203 0.402415
Si Si6 0.219489 0.605395 0.234481
Si Si7 0.896571 0.609414 0.260516
Si Si8 0.851278 0.104224 0.980568
O O1 0.560238 0.075668 0.404845
O O2 0.361006 0.156635 0.236437
O O3 0.665215 0.272827 0.576052
O O4 0.713662 0.001993 0.170851
O O5 0.692181 0.735885 0.343806
O O6 0.500000 0.000000 0.500000
O O7 0.746306 0.989740 0.738957
O O8 0.169413 0.297187 0.161879
O O9 0.992241 0.156554 0.027536
O O10 0.500000 0.500000 0.500000
O O11 0.688671 0.503605 0.426645
O O12 0.359048 0.463089 0.186110
O O13 0.677781 0.244491 0.132698
O O14 0.000000 0.500000 0.500000
O O15 0.011715 0.574761 0.387092
O O16 0.032671 0.664609 0.306669
O O17 0.146474 0.537786 0.002734
O O18 0.000000 0.000000 0.000000
#
# Coordination Sequence:
#
# PCOD9062757 Si02
#       8
#     2   2   2   2   2   2   2   2
#     4  11  25  43  70 104 134 182 232 288 339 411
#     4  12  27  46  70  99 141 181 230 280 351 416
#     4  11  24  42  70 103 140 178 231 289 339 407
#     4  12  25  39  71 105 136 183 235 286 340 412
#     4  12  23  43  68 101 137 177 232 282 343 402
#     4  11  25  46  70 100 139 179 231 283 352 407
#     4  11  26  47  69  99 140 184 223 290 349 419
#     4  12  25  43  69 100 141 183 229 282 347 405
#
# _framework density 21.116769999999999
#
# number of rings (size 3 to 8) (size 9 to 14) (size 15 to 20)
#    0.000    0.500    5.000    3.000    3.500    3.500 
#    0.000    1.875    0.000    0.000    0.000    0.000 
#    0.000    0.000    0.000    0.000    0.000    0.000 
#
# Total GULP energy -89277.121324 kJ/mol
# GULP energy per Si atom -5579.820083 kJ/mol
# Density = 2.106871 g / cm^3
# Si number density = 21.116770 Si / 1000 Ang^3
#
#
#
# Elastic Constant Matrix: (Units=GPa)
#
#
# Indices 1 2 3 4 5 6 
#
# 1 76.0164 -4.4891 18.8984 -8.4993 -4.2255 -2.0588
# 2 -4.4891 81.0056 12.9853 -6.4567 -11.9041 7.0679
# 3 18.8984 12.9853 87.0214 -5.0299 4.2760 6.0025
# 4 -8.4993 -6.4567 -5.0299 37.7593 -4.2704 -2.4228
# 5 -4.2255 -11.9041 4.2760 -4.2704 35.9854 4.2325
# 6 -2.0588 7.0679 6.0025 -2.4228 4.2325 27.5854
#
#
#
# Elastic Compliance Matrix: (Units=1/GPa)
#
#
# Indices 1 2 3 4 5 6 
#
# 1 0.014765 0.002028 -0.003535 0.003628 0.003115 0.001192
# 2 0.002028 0.014296 -0.002445 0.003025 0.006045 -0.003642
# 3 -0.003535 -0.002445 0.012893 0.000089 -0.002504 -0.002051
# 4 0.003628 0.003025 0.000089 0.028435 0.004642 0.001261
# 5 0.003115 0.006045 -0.002504 0.004642 0.031616 -0.005215
# 6 0.001192 -0.003642 -0.002051 0.001261 -0.005215 0.038630
#
#
# Mechanical properties :
#
#
# Convention : Reuss Voigt Hill
#
# Bulk Modulus (GPa) = 29.36742 33.20363 31.28553
# Shear Modulus (GPa) = 31.27150 34.70925 32.99038
#
# Velocity S-wave (km/s) = 3.85240 4.05863 3.95686
# Velocity P-wave (km/s) = 5.80735 6.14177 5.97690
#
# Compressibility (1/GPa) = 0.03405134
#
# Stress axis : x y z
#
# Youngs Moduli (GPa) = 67.72956 69.94810 77.55855
#
# Poissons Ratio (x) = -0.14183 0.27414
# Poissons Ratio (y) = -0.13733 0.18960
# Poissons Ratio (z) = 0.23940 0.17100
#
# Static dielectric constant tensor:
#      x y z
#    x 1.681190 0.000140 -0.047380 
#    y 0.000140 1.736870 0.033850 
#    z -0.047380 0.033850 1.756180 
# 
# From -- ./inp_files/403613.got.cif
#   From: 2010.05.17/outbox.cif.g08.bks.cpg/sg2_202_cif.got.tgz:403613.got - 2010.06.03 11:33:40.
