data_PCOD9062714
_publ_section_title
;
Structure prediction by ZEFSAII (Michael W. Deem and Ramdas Pophale) SiO2 
 PCOD9062714
Probable space group: P -1
;
_chemical_formula_sum "Si O2"
_cell_formula_units_Z 16
_cell_length_a 15.258433
_cell_length_b 16.250300
_cell_length_c 9.497402
_cell_angle_alpha 90.860946
_cell_angle_beta 70.805295
_cell_angle_gamma 27.948909
_cell_volume 754.365571
_symmetry_space_group_name_H-M "P -1"
_symmetry_group_IT_number 2
_symmetry_cell_setting 'triclinic'
loop_
_space_group_symop_operation_xyz
x,y,z
-x,-y,-z
loop_
_atom_site_type_symbol
_atom_site_label
_atom_site_fract_x
_atom_site_fract_y
_atom_site_fract_z
Si Si1 0.141609 0.793370 0.427701
Si Si2 0.985877 0.784181 0.312037
Si Si3 0.462603 0.259283 0.117776
Si Si4 0.564926 0.020619 0.859318
Si Si5 0.756776 0.296074 0.018535
Si Si6 0.118687 0.474561 0.534566
Si Si7 0.006769 0.913519 0.809253
Si Si8 0.435852 0.141107 0.608584
O O1 0.969909 0.863925 0.448738
O O2 0.431203 0.556113 0.189321
O O3 0.162522 0.759285 0.581521
O O4 0.000000 0.000000 0.500000
O O5 0.205638 0.530825 0.223987
O O6 0.114689 0.729612 0.115988
O O7 0.694666 0.985537 0.446990
O O8 0.390715 0.278185 0.306307
O O9 0.494783 0.162012 0.981792
O O10 0.732107 0.089368 0.972982
O O11 0.417832 0.142517 0.787251
O O12 0.889945 0.736376 0.658110
O O13 0.500000 0.000000 0.000000
O O14 0.815359 0.248453 0.151777
O O15 0.912573 0.087425 0.866162
O O16 0.188067 0.385712 0.653000
O O17 0.000000 0.500000 0.500000
O O18 0.500000 0.000000 0.500000
#
# Coordination Sequence:
#
# PCOD9062714 Si02
#       8
#     2   2   2   2   2   2   2   2
#     4  12  23  44  69  96 138 184 231 292 354 418
#     4  12  24  46  71 102 141 189 243 290 361 426
#     4  12  24  46  71 100 144 190 236 302 357 424
#     4  12  26  47  73 105 140 189 245 295 364 425
#     4  11  24  44  66 102 139 184 232 297 352 429
#     4  12  24  50  71  99 147 185 234 306 356 422
#     4  11  24  42  69 100 141 179 236 290 358 425
#     4  12  25  47  77 106 144 189 240 298 362 431
#
# _framework density 21.209875
#
# number of rings (size 3 to 8) (size 9 to 14) (size 15 to 20)
#    0.000    0.250    6.250    3.000    0.000    0.500 
#    6.750    0.000    0.000    0.000    0.000    0.000 
#    0.000    0.000    0.000    0.000    0.000    0.000 
#
# Total GULP energy -89510.361631 kJ/mol
# GULP energy per Si atom -5594.397602 kJ/mol
# Density = 2.116160 g / cm^3
# Si number density = 21.209875 Si / 1000 Ang^3
#
#
#
# Elastic Constant Matrix: (Units=GPa)
#
#
# Indices 1 2 3 4 5 6 
#
# 1 129.7561 40.4738 33.0890 -2.0203 5.5872 3.4554
# 2 40.4738 113.2827 26.1022 -23.4009 13.2616 -4.8499
# 3 33.0890 26.1022 111.5728 -23.1244 1.1234 -2.1496
# 4 -2.0203 -23.4009 -23.1244 35.3797 3.8671 4.7800
# 5 5.5872 13.2616 1.1234 3.8671 46.8924 0.5810
# 6 3.4554 -4.8499 -2.1496 4.7800 0.5810 35.7361
#
#
#
# Elastic Compliance Matrix: (Units=1/GPa)
#
#
# Indices 1 2 3 4 5 6 
#
# 1 0.009472 -0.003547 -0.002720 -0.003461 0.000239 -0.001102
# 2 -0.003547 0.012272 -0.000075 0.008141 -0.003730 0.000976
# 3 -0.002720 -0.000075 0.011291 0.007236 -0.000521 -0.000027
# 4 -0.003461 0.008141 0.007236 0.039199 -0.005255 -0.003283
# 5 0.000239 -0.003730 -0.000521 -0.005255 0.022801 -0.000228
# 6 -0.001102 0.000976 -0.000027 -0.003283 -0.000228 0.028663
#
#
# Mechanical properties :
#
#
# Convention : Reuss Voigt Hill
#
# Bulk Modulus (GPa) = 49.13944 61.54905 55.34425
# Shear Modulus (GPa) = 34.92399 40.59807 37.76103
#
# Velocity S-wave (km/s) = 4.06222 4.37980 4.22400
# Velocity P-wave (km/s) = 6.72463 7.39317 7.06681
#
# Compressibility (1/GPa) = 0.02035025
#
# Stress axis : x y z
#
# Youngs Moduli (GPa) = 105.57296 81.48353 88.56251
#
# Poissons Ratio (x) = 0.28906 0.24090
# Poissons Ratio (y) = 0.37451 0.00667
# Poissons Ratio (z) = 0.28717 0.00614
#
# Static dielectric constant tensor:
#      x y z
#    x 1.725330 -0.010050 -0.024120 
#    y -0.010050 1.789430 -0.034820 
#    z -0.024120 -0.034820 1.772740 
# 
# From -- ./inp_files/315231.got.cif
#   From: 2010.05.17/outbox.cif.g08.bks.cpg/sg2_158_cif.got.tgz:315231.got - 2010.06.03 11:33:40.
