data_PCOD9062787
_publ_section_title
;
Structure prediction by ZEFSAII (Michael W. Deem and Ramdas Pophale) SiO2 
 PCOD9062787
Probable space group: P -1
;
_chemical_formula_sum "Si O2"
_cell_formula_units_Z 14
_cell_length_a 9.412087
_cell_length_b 12.647561
_cell_length_c 16.185770
_cell_angle_alpha 42.619326
_cell_angle_beta 123.653194
_cell_angle_gamma 150.007420
_cell_volume 632.188305
_symmetry_space_group_name_H-M "P -1"
_symmetry_group_IT_number 2
_symmetry_cell_setting 'triclinic'
loop_
_space_group_symop_operation_xyz
x,y,z
-x,-y,-z
loop_
_atom_site_type_symbol
_atom_site_label
_atom_site_fract_x
_atom_site_fract_y
_atom_site_fract_z
Si Si1 0.854148 0.752406 0.474359
Si Si2 0.751529 0.416671 0.508716
Si Si3 0.589875 0.119726 0.210586
Si Si4 0.193688 0.458887 0.259537
Si Si5 0.583597 0.637688 0.709136
Si Si6 0.646536 0.474487 0.117155
Si Si7 0.683809 0.121368 0.905787
O O1 0.500000 0.500000 0.500000
O O2 0.909901 0.657211 0.481698
O O3 0.917442 0.750322 0.589947
O O4 0.072287 0.056162 0.348623
O O5 0.569091 0.369945 0.405777
O O6 0.000000 0.500000 0.500000
O O7 0.552703 0.145346 0.649614
O O8 0.530644 0.218552 0.197111
O O9 0.934149 0.340425 0.191441
O O10 0.475637 0.076367 0.108427
O O11 0.420474 0.540962 0.225836
O O12 0.293071 0.676330 0.223506
O O13 0.428610 0.548185 0.798360
O O14 0.996838 0.718762 0.075214
O O15 0.500000 0.500000 0.000000
O O16 0.500000 0.000000 0.000000
#
# Coordination Sequence:
#
# PCOD9062787 Si02
#       7
#     2   2   2   2   2   2   2
#     4  12  23  41  66 106 140 180 229 275 348 416
#     4  12  24  40  69 101 143 182 225 284 352 414
#     4  11  24  46  70  99 140 179 229 285 346 413
#     4  11  24  42  71 102 137 180 230 285 346 412
#     4  12  26  43  69 106 144 182 228 290 348 410
#     4  11  29  49  69 102 140 183 234 289 349 410
#     4  11  27  48  74 100 134 187 239 283 345 418
#
# _framework density 22.145301
#
# number of rings (size 3 to 8) (size 9 to 14) (size 15 to 20)
#    0.000    0.571    4.286    3.000    6.000    2.857 
#    2.571    0.000    0.000    0.000    0.000    0.000 
#    0.000    0.000    0.000    0.000    0.000    0.000 
#
# Total GULP energy -78241.119208 kJ/mol
# GULP energy per Si atom -5588.651372 kJ/mol
# Density = 2.209490 g / cm^3
# Si number density = 22.145301 Si / 1000 Ang^3
#
#
#
# Elastic Constant Matrix: (Units=GPa)
#
#
# Indices 1 2 3 4 5 6 
#
# 1 171.0063 44.9101 29.7847 25.9626 -10.9647 2.7427
# 2 44.9101 88.7559 22.8410 24.6760 -8.1202 3.2000
# 3 29.7847 22.8410 83.5449 27.1739 -11.5153 8.6231
# 4 25.9626 24.6760 27.1739 29.2340 -2.0780 -6.2441
# 5 -10.9647 -8.1202 -11.5153 -2.0780 42.1727 1.6375
# 6 2.7427 3.2000 8.6231 -6.2441 1.6375 36.4352
#
#
#
# Elastic Compliance Matrix: (Units=1/GPa)
#
#
# Indices 1 2 3 4 5 6 
#
# 1 0.007248 -0.002199 -0.000226 -0.004525 0.001220 -0.001129
# 2 -0.002199 0.016221 0.001680 -0.014015 0.002482 -0.004170
# 3 -0.000226 0.001680 0.020199 -0.021518 0.005062 -0.008826
# 4 -0.004525 -0.014015 -0.021518 0.073758 -0.006878 0.019614
# 5 0.001220 0.002482 0.005062 -0.006878 0.025700 -0.003842
# 6 -0.001129 -0.004170 -0.008826 0.019614 -0.003842 0.033520
#
#
# Mechanical properties :
#
#
# Convention : Reuss Voigt Hill
#
# Bulk Modulus (GPa) = 23.70903 59.81986 41.76444
# Shear Modulus (GPa) = 26.01535 37.95312 31.98424
#
# Velocity S-wave (km/s) = 3.43119 4.14433 3.80450
# Velocity P-wave (km/s) = 5.14070 7.06906 6.18055
#
# Compressibility (1/GPa) = 0.04217802
#
# Stress axis : x y z
#
# Youngs Moduli (GPa) = 137.97008 61.64846 49.50830
#
# Poissons Ratio (x) = 0.13555 0.01120
# Poissons Ratio (y) = 0.30337 -0.08319
# Poissons Ratio (z) = 0.03122 -0.10359
#
# Static dielectric constant tensor:
#      x y z
#    x 1.378570 0.613530 -0.213240 
#    y 0.613530 0.987920 0.225120 
#    z -0.213240 0.225120 1.796470 
# 
# From -- ./inp_files/27205.got.cif
#   From: 2010.05.17/outbox.cif.g08.bks.cpg/sg2_14_cif.got.tgz:27205.got - 2010.06.03 11:33:40.
