data_PCOD9062061
_publ_section_title
;
Structure prediction by ZEFSAII (Michael W. Deem and Ramdas Pophale) SiO2 
 PCOD9062061
Probable space group: P -1
;
_chemical_formula_sum "Si O2"
_cell_formula_units_Z 16
_cell_length_a 7.692123
_cell_length_b 10.803418
_cell_length_c 9.983235
_cell_angle_alpha 115.592672
_cell_angle_beta 105.109611
_cell_angle_gamma 108.423098
_cell_volume 628.765949
_symmetry_space_group_name_H-M "P -1"
_symmetry_group_IT_number 2
_symmetry_cell_setting 'triclinic'
loop_
_space_group_symop_operation_xyz
x,y,z
-x,-y,-z
loop_
_atom_site_type_symbol
_atom_site_label
_atom_site_fract_x
_atom_site_fract_y
_atom_site_fract_z
Si Si1 0.220656 0.422696 0.674453
Si Si2 0.076469 0.743328 0.685392
Si Si3 0.509844 0.303157 0.604847
Si Si4 0.434385 0.340149 0.997429
Si Si5 0.533598 0.859462 0.742384
Si Si6 0.981245 0.552359 0.845629
Si Si7 0.661376 0.193392 0.806145
Si Si8 0.150242 0.058268 0.931950
O O1 0.316912 0.305537 0.640334
O O2 0.067588 0.434720 0.758155
O O3 0.107284 0.392686 0.497860
O O4 0.427672 0.587669 0.808795
O O5 0.291178 0.786562 0.680655
O O6 0.060096 0.684366 0.805373
O O7 0.072050 0.906191 0.753909
O O8 0.449720 0.257754 0.416960
O O9 0.573478 0.186360 0.636979
O O10 0.731097 0.464343 0.749015
O O11 0.516726 0.238055 0.888704
O O12 0.201898 0.216442 0.936162
O O13 0.500000 0.500000 0.000000
O O14 0.638140 0.030115 0.771530
O O15 0.637919 0.897972 0.927298
O O16 0.112751 0.655184 0.047817
O O17 0.000000 0.000000 0.000000
#
# Coordination Sequence:
#
# PCOD9062061 Si02
#       8
#     2   2   2   2   2   2   2   2
#     4  11  25  44  70 109 143 191 239 305 369 435
#     4  12  24  47  70 105 142 191 246 302 372 434
#     4  12  26  44  72 106 147 191 245 301 360 446
#     4  11  24  47  75 106 148 190 244 303 369 437
#     4  12  24  48  71 103 144 195 243 301 367 433
#     4  11  25  44  72 104 144 186 246 304 366 434
#     4  11  23  47  71 103 143 197 240 293 371 432
#     4  12  27  46  74 110 145 195 249 306 368 443
#
# _framework density 25.446670000000001
#
# number of rings (size 3 to 8) (size 9 to 14) (size 15 to 20)
#    0.000    0.500    5.000    3.750    3.500    0.500 
#    4.500    2.500    0.000    0.000    0.000    0.000 
#    0.000    0.000    0.000    0.000    0.000    0.000 
#
# Total GULP energy -89421.258326 kJ/mol
# GULP energy per Si atom -5588.828645 kJ/mol
# Density = 2.538875 g / cm^3
# Si number density = 25.446670 Si / 1000 Ang^3
#
#
#
# Elastic Constant Matrix: (Units=GPa)
#
#
# Indices 1 2 3 4 5 6 
#
# 1 111.4923 21.7525 20.9055 12.0386 3.9799 3.8679
# 2 21.7525 100.4354 7.6335 25.3095 7.1499 17.2435
# 3 20.9055 7.6335 110.6939 3.8795 -2.9983 0.3326
# 4 12.0386 25.3095 3.8795 33.3538 1.9590 3.7913
# 5 3.9799 7.1499 -2.9983 1.9590 32.1403 -0.6046
# 6 3.8679 17.2435 0.3326 3.7913 -0.6046 27.0697
#
#
#
# Elastic Compliance Matrix: (Units=1/GPa)
#
#
# Indices 1 2 3 4 5 6 
#
# 1 0.009835 -0.001319 -0.001712 -0.002266 -0.000951 -0.000248
# 2 -0.001319 0.014055 -0.000448 -0.009128 -0.002591 -0.007539
# 3 -0.001712 -0.000448 0.009429 -0.000265 0.001216 0.000478
# 4 -0.002266 -0.009128 -0.000265 0.037658 0.000008 0.000868
# 5 -0.000951 -0.002591 0.001216 0.000008 0.031967 0.002484
# 6 -0.000248 -0.007539 0.000478 0.000868 0.002484 0.041707
#
#
# Mechanical properties :
#
#
# Convention : Reuss Voigt Hill
#
# Bulk Modulus (GPa) = 37.93336 47.02274 42.47805
# Shear Modulus (GPa) = 31.17285 36.66809 33.92047
#
# Velocity S-wave (km/s) = 3.50384 3.80014 3.65499
# Velocity P-wave (km/s) = 5.59540 6.14604 5.87717
#
# Compressibility (1/GPa) = 0.02636202
#
# Stress axis : x y z
#
# Youngs Moduli (GPa) = 101.68052 71.14746 106.05657
#
# Poissons Ratio (x) = 0.09382 0.18157
# Poissons Ratio (y) = 0.13408 0.04750
# Poissons Ratio (z) = 0.17408 0.03186
#
# Static dielectric constant tensor:
#      x y z
#    x 2.031420 -0.034800 0.025280 
#    y -0.034800 2.092290 -0.064720 
#    z 0.025280 -0.064720 2.187740 
# 
# From -- ./inp_files/391107.got.cif
#   From: 2010.05.17/outbox.cif.g08.bks.cpg/sg2_196_cif.got.tgz:391107.got - 2010.06.03 11:33:40.
