data_PCOD9062551
_publ_section_title
;
Structure prediction by ZEFSAII (Michael W. Deem and Ramdas Pophale) SiO2 
 PCOD9062551
Probable space group: P -1
;
_chemical_formula_sum "Si O2"
_cell_formula_units_Z 16
_cell_length_a 8.631935
_cell_length_b 7.499224
_cell_length_c 14.123177
_cell_angle_alpha 125.071671
_cell_angle_beta 109.890434
_cell_angle_gamma 55.331382
_cell_volume 615.272228
_symmetry_space_group_name_H-M "P -1"
_symmetry_group_IT_number 2
_symmetry_cell_setting 'triclinic'
loop_
_space_group_symop_operation_xyz
x,y,z
-x,-y,-z
loop_
_atom_site_type_symbol
_atom_site_label
_atom_site_fract_x
_atom_site_fract_y
_atom_site_fract_z
Si Si1 0.318460 0.187697 0.079247
Si Si2 0.299718 0.226254 0.497772
Si Si3 0.310089 0.285402 0.310158
Si Si4 0.075989 0.224549 0.631861
Si Si5 0.309820 0.633349 0.124903
Si Si6 0.898830 0.018960 0.131367
Si Si7 0.712689 0.533013 0.140454
Si Si8 0.288507 0.755506 0.643115
O O1 0.328793 0.123518 0.171816
O O2 0.305640 0.454525 0.150601
O O3 0.144936 0.176765 0.991991
O O4 0.500000 0.000000 0.000000
O O5 0.266305 0.193769 0.371261
O O6 0.153823 0.232393 0.546423
O O7 0.295031 0.492287 0.577005
O O8 0.500000 0.000000 0.500000
O O9 0.508493 0.284108 0.358285
O O10 0.138453 0.561845 0.341867
O O11 0.191264 0.309399 0.754945
O O12 0.136494 0.947226 0.595343
O O13 0.504307 0.637591 0.172298
O O14 0.115662 0.885072 0.161836
O O15 0.310219 0.492904 0.983860
O O16 0.836116 0.255473 0.123089
O O17 0.771852 0.113496 0.227318
#
# Coordination Sequence:
#
# PCOD9062551 Si02
#       8
#     2   2   2   2   2   2   2   2
#     4  12  23  44  72 107 155 200 250 306 376 451
#     4  12  28  56  81 110 154 198 256 322 380 452
#     4  12  27  49  79 111 154 208 252 314 384 448
#     4  12  27  50  78 117 151 200 258 317 382 451
#     4  11  24  41  69 106 154 212 244 307 377 449
#     4  12  23  44  71 111 153 199 252 305 381 453
#     4  11  24  44  68 109 158 195 256 307 372 453
#     4  12  26  51  80 112 155 199 250 320 377 456
#
# _framework density 26.004746999999998
#
# number of rings (size 3 to 8) (size 9 to 14) (size 15 to 20)
#    0.000    0.250    5.000    3.750    0.000    1.500 
#    2.250    0.000    0.000    0.000    0.000    0.000 
#    0.000    0.000    0.000    0.000    0.000    0.000 
#
# Total GULP energy -89904.574998 kJ/mol
# GULP energy per Si atom -5619.035937 kJ/mol
# Density = 2.594556 g / cm^3
# Si number density = 26.004747 Si / 1000 Ang^3
#
#
#
# Elastic Constant Matrix: (Units=GPa)
#
#
# Indices 1 2 3 4 5 6 
#
# 1 71.0175 49.2466 16.6642 5.4981 -11.6339 -15.1185
# 2 49.2466 191.8671 13.3927 -7.3645 -9.9800 -16.1194
# 3 16.6642 13.3927 137.4730 -10.1044 -26.3146 1.0972
# 4 5.4981 -7.3645 -10.1044 31.9173 4.5538 -10.4372
# 5 -11.6339 -9.9800 -26.3146 4.5538 48.9133 -4.3629
# 6 -15.1185 -16.1194 1.0972 -10.4372 -4.3629 52.4040
#
#
#
# Elastic Compliance Matrix: (Units=1/GPa)
#
#
# Indices 1 2 3 4 5 6 
#
# 1 0.019247 -0.004499 -0.001552 -0.004150 0.003539 0.003670
# 2 -0.004499 0.006580 0.000134 0.002726 0.000205 0.001283
# 3 -0.001552 0.000134 0.008387 0.002466 0.003962 0.000239
# 4 -0.004150 0.002726 0.002466 0.035872 -0.001857 0.006580
# 5 0.003539 0.000205 0.003962 -0.001857 0.023866 0.002618
# 6 0.003670 0.001283 0.000239 0.006580 0.002618 0.022059
#
#
# Mechanical properties :
#
#
# Convention : Reuss Voigt Hill
#
# Bulk Modulus (GPa) = 44.68118 62.10717 53.39418
# Shear Modulus (GPa) = 36.95343 48.05052 42.50197
#
# Velocity S-wave (km/s) = 3.77374 4.30322 4.04715
# Velocity P-wave (km/s) = 6.01726 6.97317 6.51278
#
# Compressibility (1/GPa) = 0.02238079
#
# Stress axis : x y z
#
# Youngs Moduli (GPa) = 51.95634 151.96548 119.23251
#
# Poissons Ratio (x) = 0.68365 0.18502
# Poissons Ratio (y) = 0.23374 -0.01594
# Poissons Ratio (z) = 0.08062 -0.02031
#
# Static dielectric constant tensor:
#      x y z
#    x 2.003980 0.022680 0.037240 
#    y 0.022680 1.997390 0.009880 
#    z 0.037240 0.009880 2.081580 
# 
# From -- ./inp_files/208499.got.cif
#   From: 2010.05.17/outbox.cif.g08.bks.cpg/sg2_105_cif.got.tgz:208499.got - 2010.06.03 11:33:40.
