data_PCOD9062584
_publ_section_title
;
Structure prediction by ZEFSAII (Michael W. Deem and Ramdas Pophale) SiO2 
 PCOD9062584
Probable space group: P -1
;
_chemical_formula_sum "Si O2"
_cell_formula_units_Z 14
_cell_length_a 11.551807
_cell_length_b 7.343224
_cell_length_c 15.650148
_cell_angle_alpha 131.409416
_cell_angle_beta 36.574904
_cell_angle_gamma 140.140614
_cell_volume 503.466089
_symmetry_space_group_name_H-M "P -1"
_symmetry_group_IT_number 2
_symmetry_cell_setting 'triclinic'
loop_
_space_group_symop_operation_xyz
x,y,z
-x,-y,-z
loop_
_atom_site_type_symbol
_atom_site_label
_atom_site_fract_x
_atom_site_fract_y
_atom_site_fract_z
Si Si1 0.732023 0.736720 0.839389
Si Si2 0.266397 0.464355 0.935592
Si Si3 0.293848 0.513233 0.513396
Si Si4 0.165045 0.763480 0.386039
Si Si5 0.388545 0.919154 0.864402
Si Si6 0.780573 0.848956 0.383872
Si Si7 0.139392 0.830724 0.806204
O O1 0.529735 0.622060 0.855172
O O2 0.795253 0.495628 0.730665
O O3 0.971191 0.019574 0.761333
O O4 0.637378 0.826713 0.003731
O O5 0.261303 0.657546 0.923977
O O6 0.161391 0.132131 0.872671
O O7 0.115064 0.426240 0.097641
O O8 0.565868 0.660835 0.390420
O O9 0.239921 0.338819 0.579892
O O10 0.244017 0.760013 0.643035
O O11 0.094214 0.325232 0.506246
O O12 0.350573 0.992631 0.280097
O O13 0.230442 0.895154 0.483168
O O14 0.279765 0.856399 0.815962
#
# Coordination Sequence:
#
# PCOD9062584 Si02
#       7
#     2   2   2   2   2   2   2
#     4  12  25  45  69 106 145 185 246 293 356 432
#     4  11  24  41  71 102 150 185 234 296 361 415
#     4  11  24  46  73 100 143 188 240 296 351 425
#     4  12  25  46  75 101 146 191 238 295 363 419
#     4  12  24  45  73 108 143 191 237 295 364 420
#     4  11  25  48  70 102 145 191 241 294 355 431
#     4  11  24  45  68 111 146 183 240 300 353 429
#
# _framework density 27.807234999999999
#
# number of rings (size 3 to 8) (size 9 to 14) (size 15 to 20)
#    0.000    0.571    2.857    4.714    4.000    0.571 
#    2.571    0.000    0.000    0.000    0.000    0.000 
#    0.000    0.000    0.000    0.000    0.000    0.000 
#
# Total GULP energy -78595.982890 kJ/mol
# GULP energy per Si atom -5613.998778 kJ/mol
# Density = 2.774394 g / cm^3
# Si number density = 27.807235 Si / 1000 Ang^3
#
#
#
# Elastic Constant Matrix: (Units=GPa)
#
#
# Indices 1 2 3 4 5 6 
#
# 1 120.7012 63.3708 26.5007 -14.0765 -19.6335 13.6739
# 2 63.3708 130.4845 48.9586 -25.8269 -8.9013 4.8395
# 3 26.5007 48.9586 142.7314 -24.7034 -7.9302 17.3232
# 4 -14.0765 -25.8269 -24.7034 68.5421 8.2989 -8.2152
# 5 -19.6335 -8.9013 -7.9302 8.2989 42.9875 -10.6045
# 6 13.6739 4.8395 17.3232 -8.2152 -10.6045 49.9724
#
#
#
# Elastic Compliance Matrix: (Units=1/GPa)
#
#
# Indices 1 2 3 4 5 6 
#
# 1 0.012032 -0.005600 0.000092 -0.000320 0.003921 -0.002003
# 2 -0.005600 0.011840 -0.002813 0.002580 -0.000720 0.001632
# 3 0.000092 -0.002813 0.008553 0.001740 0.000107 -0.002409
# 4 -0.000320 0.002580 0.001740 0.016560 -0.002116 0.001508
# 5 0.003921 -0.000720 0.000107 -0.002116 0.026370 0.004208
# 6 -0.002003 0.001632 -0.002409 0.001508 0.004208 0.022377
#
#
# Mechanical properties :
#
#
# Convention : Reuss Voigt Hill
#
# Bulk Modulus (GPa) = 63.35466 74.61970 68.98718
# Shear Modulus (GPa) = 41.79387 49.30621 45.55004
#
# Velocity S-wave (km/s) = 3.88104 4.21544 4.05169
# Velocity P-wave (km/s) = 6.55105 7.11239 6.83749
#
# Compressibility (1/GPa) = 0.01578416
#
# Stress axis : x y z
#
# Youngs Moduli (GPa) = 83.11277 84.46105 116.91184
#
# Poissons Ratio (x) = 0.47295 -0.01079
# Poissons Ratio (y) = 0.46540 0.32888
# Poissons Ratio (z) = -0.00767 0.23759
#
# Static dielectric constant tensor:
#      x y z
#    x 2.091640 -0.003920 -0.008920 
#    y -0.003920 2.231920 0.027040 
#    z -0.008920 0.027040 2.137890 
# 
# From -- ./inp_files/597251.got.cif
#   From: 2010.05.17/outbox.cif.g08.bks.cpg/sg2_299_cif.got.tgz:597251.got - 2010.06.03 11:33:40.
