data_PCOD9062890
_publ_section_title
;
Structure prediction by ZEFSAII (Michael W. Deem and Ramdas Pophale) SiO2 
 PCOD9062890
Probable space group: P -1
;
_chemical_formula_sum "Si O2"
_cell_formula_units_Z 14
_cell_length_a 9.277191
_cell_length_b 12.253308
_cell_length_c 8.773454
_cell_angle_alpha 79.383336
_cell_angle_beta 45.580710
_cell_angle_gamma 58.184914
_cell_volume 576.585483
_symmetry_space_group_name_H-M "P -1"
_symmetry_group_IT_number 2
_symmetry_cell_setting 'triclinic'
loop_
_space_group_symop_operation_xyz
x,y,z
-x,-y,-z
loop_
_atom_site_type_symbol
_atom_site_label
_atom_site_fract_x
_atom_site_fract_y
_atom_site_fract_z
Si Si1 0.422428 0.328939 0.054889
Si Si2 0.124016 0.740738 0.134074
Si Si3 0.821027 0.038801 0.348974
Si Si4 0.637727 0.755520 0.546324
Si Si5 0.502216 0.903659 0.149448
Si Si6 0.057600 0.747830 0.838537
Si Si7 0.081926 0.506288 0.767458
O O1 0.399793 0.277748 0.248739
O O2 0.151791 0.450510 0.175746
O O3 0.642010 0.347034 0.909255
O O4 0.500037 0.213633 0.902914
O O5 0.881708 0.752594 0.361077
O O6 0.176425 0.697271 0.930174
O O7 0.044317 0.895178 0.162527
O O8 0.598227 0.106325 0.375971
O O9 0.716502 0.023073 0.587939
O O10 0.890723 0.145870 0.288819
O O11 0.691983 0.635999 0.422100
O O12 0.764219 0.829579 0.058545
O O13 0.500000 0.000000 0.000000
O O14 0.127283 0.624244 0.708774
O O15 0.000000 0.500000 0.000000
#
# Coordination Sequence:
#
# PCOD9062890 Si02
#       7
#     2   2   2   2   2   2   2
#     4  11  26  43  68 104 136 177 233 289 337 409
#     4  12  24  43  71 106 139 177 229 287 347 407
#     4  12  25  42  74 104 140 184 228 279 353 411
#     4  12  24  44  73 103 136 184 231 285 345 401
#     4  11  24  43  65 101 145 183 225 282 342 414
#     4  11  24  44  70  99 137 186 227 287 344 406
#     4  11  24  50  71  97 142 183 234 282 345 411
#
# _framework density 24.280874000000001
#
# number of rings (size 3 to 8) (size 9 to 14) (size 15 to 20)
#    0.000    0.571    4.286    3.857    2.000    5.714 
#    0.000    0.000    0.000    0.000    0.000    0.000 
#    0.000    0.000    0.000    0.000    0.000    0.000 
#
# Total GULP energy -78504.525267 kJ/mol
# GULP energy per Si atom -5607.466090 kJ/mol
# Density = 2.422561 g / cm^3
# Si number density = 24.280874 Si / 1000 Ang^3
#
#
#
# Elastic Constant Matrix: (Units=GPa)
#
#
# Indices 1 2 3 4 5 6 
#
# 1 122.2881 23.3378 25.8635 0.7634 -16.6346 -2.6472
# 2 23.3378 87.9757 8.8324 13.5461 -6.3945 13.1607
# 3 25.8635 8.8324 93.1012 -8.9306 5.0882 0.2736
# 4 0.7634 13.5461 -8.9306 37.4679 3.9557 -3.5385
# 5 -16.6346 -6.3945 5.0882 3.9557 37.9642 -9.4792
# 6 -2.6472 13.1607 0.2736 -3.5385 -9.4792 42.9208
#
#
#
# Elastic Compliance Matrix: (Units=1/GPa)
#
#
# Indices 1 2 3 4 5 6 
#
# 1 0.009955 -0.002296 -0.002862 -0.000355 0.004998 0.002411
# 2 -0.002296 0.013746 -0.001255 -0.005756 0.000924 -0.004619
# 3 -0.002862 -0.001255 0.012213 0.003768 -0.003582 -0.000350
# 4 -0.000355 -0.005756 0.003768 0.030411 -0.003962 0.003351
# 5 0.004998 0.000924 -0.003582 -0.003962 0.031232 0.006619
# 6 0.002411 -0.004619 -0.000350 0.003351 0.006619 0.026604
#
#
# Mechanical properties :
#
#
# Convention : Reuss Voigt Hill
#
# Bulk Modulus (GPa) = 43.31257 46.60360 44.95809
# Shear Modulus (GPa) = 34.55800 40.02601 37.29200
#
# Velocity S-wave (km/s) = 3.77670 4.06453 3.92326
# Velocity P-wave (km/s) = 6.07411 6.42358 6.25129
#
# Compressibility (1/GPa) = 0.02308798
#
# Stress axis : x y z
#
# Youngs Moduli (GPa) = 100.45033 72.74639 81.87721
#
# Poissons Ratio (x) = 0.16705 0.23433
# Poissons Ratio (y) = 0.23066 0.10278
# Poissons Ratio (z) = 0.28748 0.09131
#
# Static dielectric constant tensor:
#      x y z
#    x 1.952080 0.027790 -0.032580 
#    y 0.027790 1.951850 -0.031870 
#    z -0.032580 -0.031870 1.856780 
# 
# From -- ./inp_files/186300.got.cif
#   From: 2010.05.17/outbox.cif.g08.bks.cpg/sg2_94_cif.got.tgz:186300.got - 2010.06.03 11:33:40.
