data_PCOD9062032
_publ_section_title
;
Structure prediction by ZEFSAII (Michael W. Deem and Ramdas Pophale) SiO2 
 PCOD9062032
Probable space group: P -1
;
_chemical_formula_sum "Si O2"
_cell_formula_units_Z 16
_cell_length_a 8.448164
_cell_length_b 13.350058
_cell_length_c 16.258745
_cell_angle_alpha 21.826667
_cell_angle_beta 81.394060
_cell_angle_gamma 83.967335
_cell_volume 671.241992
_symmetry_space_group_name_H-M "P -1"
_symmetry_group_IT_number 2
_symmetry_cell_setting 'triclinic'
loop_
_space_group_symop_operation_xyz
x,y,z
-x,-y,-z
loop_
_atom_site_type_symbol
_atom_site_label
_atom_site_fract_x
_atom_site_fract_y
_atom_site_fract_z
Si Si1 0.622360 0.257672 0.923929
Si Si2 0.632785 0.880564 0.637033
Si Si3 0.787349 0.354883 0.998712
Si Si4 0.879400 0.366273 0.435339
Si Si5 0.132468 0.629207 0.763045
Si Si6 0.336935 0.309560 0.677374
Si Si7 0.768135 0.743457 0.460417
Si Si8 0.336240 0.170681 0.140541
O O1 0.770920 0.308773 0.937138
O O2 0.623154 0.539452 0.662237
O O3 0.470561 0.184206 0.050225
O O4 0.635550 0.996930 0.065395
O O5 0.655087 0.565207 0.863928
O O6 0.600729 0.909854 0.713934
O O7 0.500000 0.000000 0.500000
O O8 0.801505 0.058930 0.467576
O O9 0.955140 0.512463 0.892267
O O10 0.768837 0.046176 0.266548
O O11 0.862356 0.418151 0.299797
O O12 0.775020 0.558463 0.349503
O O13 0.063626 0.371403 0.443925
O O14 0.803780 0.061418 0.691860
O O15 0.257761 0.452682 0.932964
O O16 0.500000 0.500000 0.500000
O O17 0.251736 0.266183 0.628494
#
# Coordination Sequence:
#
# PCOD9062032 Si02
#       8
#     2   2   2   2   2   2   2   2
#     4  11  25  44  71 106 144 197 236 297 366 420
#     4  11  27  48  75 109 143 189 242 298 366 436
#     4  11  24  46  71 106 145 184 245 301 360 435
#     4  11  23  47  69 104 148 187 242 297 363 427
#     4  11  24  44  75 106 141 194 239 303 366 422
#     4  11  25  43  71 109 143 191 251 300 353 427
#     4  11  25  45  72 103 147 197 240 299 362 424
#     4  11  25  46  73 106 146 189 237 301 362 429
#
# _framework density 23.836410000000001
#
# number of rings (size 3 to 8) (size 9 to 14) (size 15 to 20)
#    0.000    1.000    3.750    1.500    1.750    8.500 
#    0.000    0.625    0.000    0.000    0.000    0.000 
#    0.000    0.000    0.000    0.000    0.000    0.000 
#
# Total GULP energy -89554.235878 kJ/mol
# GULP energy per Si atom -5597.139742 kJ/mol
# Density = 2.378216 g / cm^3
# Si number density = 23.836410 Si / 1000 Ang^3
#
#
#
# Elastic Constant Matrix: (Units=GPa)
#
#
# Indices 1 2 3 4 5 6 
#
# 1 108.1364 19.3574 24.8813 1.7192 4.0530 -1.1754
# 2 19.3574 69.9701 33.4861 -5.5935 8.8004 2.8534
# 3 24.8813 33.4861 123.9390 -13.4293 -5.8962 -18.7766
# 4 1.7192 -5.5935 -13.4293 43.8799 1.3053 9.9922
# 5 4.0530 8.8004 -5.8962 1.3053 44.1645 1.7619
# 6 -1.1754 2.8534 -18.7766 9.9922 1.7619 30.4466
#
#
#
# Elastic Compliance Matrix: (Units=1/GPa)
#
#
# Indices 1 2 3 4 5 6 
#
# 1 0.010024 -0.001991 -0.001633 -0.001120 -0.000707 -0.000025
# 2 -0.001991 0.018307 -0.005347 0.002163 -0.004021 -0.005567
# 3 -0.001633 -0.005347 0.011107 0.001170 0.002394 0.006765
# 4 -0.001120 0.002163 0.001170 0.025256 -0.000608 -0.007778
# 5 -0.000707 -0.004021 0.002394 -0.000608 0.023820 0.000647
# 6 -0.000025 -0.005567 0.006765 -0.007778 0.000647 0.040052
#
#
# Mechanical properties :
#
#
# Convention : Reuss Voigt Hill
#
# Bulk Modulus (GPa) = 46.52193 50.83279 48.67736
# Shear Modulus (GPa) = 32.53638 38.65293 35.59465
#
# Velocity S-wave (km/s) = 3.69858 4.03127 3.86850
# Velocity P-wave (km/s) = 6.14808 6.56050 6.35763
#
# Compressibility (1/GPa) = 0.02149524
#
# Stress axis : x y z
#
# Youngs Moduli (GPa) = 99.76260 54.62327 90.03723
#
# Poissons Ratio (x) = 0.10876 0.14704
# Poissons Ratio (y) = 0.19863 0.48142
# Poissons Ratio (z) = 0.16293 0.29207
#
# Static dielectric constant tensor:
#      x y z
#    x 1.914430 -0.000280 0.004230 
#    y -0.000280 1.874780 0.002170 
#    z 0.004230 0.002170 1.961090 
# 
# From -- ./inp_files/561063.got.cif
#   From: 2010.05.17/outbox.cif.g08.bks.cpg/sg2_281_cif.got.tgz:561063.got - 2010.06.03 11:33:40.
