data_PCOD9062822
_publ_section_title
;
Structure prediction by ZEFSAII (Michael W. Deem and Ramdas Pophale) SiO2 
 PCOD9062822
Probable space group: P -1
;
_chemical_formula_sum "Si O2"
_cell_formula_units_Z 14
_cell_length_a 8.894278
_cell_length_b 8.488470
_cell_length_c 18.666179
_cell_angle_alpha 64.591351
_cell_angle_beta 30.486647
_cell_angle_gamma 72.361670
_cell_volume 638.931939
_symmetry_space_group_name_H-M "P -1"
_symmetry_group_IT_number 2
_symmetry_cell_setting 'triclinic'
loop_
_space_group_symop_operation_xyz
x,y,z
-x,-y,-z
loop_
_atom_site_type_symbol
_atom_site_label
_atom_site_fract_x
_atom_site_fract_y
_atom_site_fract_z
Si Si1 0.413720 0.587358 0.594362
Si Si2 0.129926 0.117091 0.701951
Si Si3 0.166866 0.260375 0.158587
Si Si4 0.683979 0.371863 0.646383
Si Si5 0.778304 0.775449 0.706073
Si Si6 0.395750 0.939864 0.367754
Si Si7 0.352760 0.628853 0.176635
O O1 0.500000 0.500000 0.500000
O O2 0.624533 0.776140 0.472326
O O3 0.492830 0.473491 0.650992
O O4 0.075441 0.621522 0.736209
O O5 0.307940 0.098322 0.706414
O O6 0.869420 0.239824 0.785908
O O7 0.998105 0.924540 0.766999
O O8 0.349651 0.221135 0.162177
O O9 0.372232 0.353878 0.993972
O O10 0.695629 0.188741 0.636760
O O11 0.560590 0.328698 0.784974
O O12 0.000000 0.500000 0.500000
O O13 0.799099 0.573994 0.718676
O O14 0.110839 0.888339 0.546936
O O15 0.593920 0.863899 0.704731
#
# Coordination Sequence:
#
# PCOD9062822 Si02
#       7
#     2   2   2   2   2   2   2
#     4  12  24  45  75 105 138 184 241 292 350 416
#     4  12  24  45  74 103 141 187 238 288 348 422
#     4  12  27  45  70 105 146 186 236 291 356 424
#     4  12  23  42  73 100 140 184 237 291 345 422
#     4  11  24  43  70 101 142 181 238 299 345 413
#     4  11  24  42  72 107 134 177 251 295 343 402
#     4  12  27  47  71 102 146 194 229 285 368 417
#
# _framework density 21.911567000000002
#
# number of rings (size 3 to 8) (size 9 to 14) (size 15 to 20)
#    0.000    0.286    5.714    3.000    2.000    0.571 
#    0.000    1.429    0.000    0.000    0.000    0.000 
#    0.000    0.000    0.000    0.000    0.000    0.000 
#
# Total GULP energy -78305.700503 kJ/mol
# GULP energy per Si atom -5593.264322 kJ/mol
# Density = 2.186169 g / cm^3
# Si number density = 21.911567 Si / 1000 Ang^3
#
#
#
# Elastic Constant Matrix: (Units=GPa)
#
#
# Indices 1 2 3 4 5 6 
#
# 1 132.2099 69.8192 39.4341 6.8643 24.1924 -18.2421
# 2 69.8192 124.2606 32.0849 -0.8668 2.3016 -20.8005
# 3 39.4341 32.0849 103.0313 17.1482 29.8957 -14.2013
# 4 6.8643 -0.8668 17.1482 25.4971 3.1309 -3.0763
# 5 24.1924 2.3016 29.8957 3.1309 31.0039 1.2716
# 6 -18.2421 -20.8005 -14.2013 -3.0763 1.2716 39.1991
#
#
#
# Elastic Compliance Matrix: (Units=1/GPa)
#
#
# Indices 1 2 3 4 5 6 
#
# 1 0.013663 -0.007285 0.001167 -0.002985 -0.011069 0.003040
# 2 -0.007285 0.013504 -0.004234 0.004541 0.008210 0.002332
# 3 0.001167 -0.004234 0.017721 -0.009760 -0.016882 0.004498
# 4 -0.002985 0.004541 -0.009760 0.046023 0.006720 0.000878
# 5 -0.011069 0.008210 -0.016882 0.006720 0.056218 -0.008207
# 6 0.003040 0.002332 0.004498 0.000878 -0.008207 0.030128
#
#
# Mechanical properties :
#
#
# Convention : Reuss Voigt Hill
#
# Bulk Modulus (GPa) = 41.34996 71.35314 56.35155
# Shear Modulus (GPa) = 24.26934 33.68425 28.97680
#
# Velocity S-wave (km/s) = 3.33168 3.92507 3.64049
# Velocity P-wave (km/s) = 5.80624 7.29222 6.59124
#
# Compressibility (1/GPa) = 0.02418382
#
# Stress axis : x y z
#
# Youngs Moduli (GPa) = 73.19237 74.05262 56.43117
#
# Poissons Ratio (x) = 0.53947 -0.06585
# Poissons Ratio (y) = 0.53320 0.23891
# Poissons Ratio (z) = -0.08540 0.31351
#
# Static dielectric constant tensor:
#      x y z
#    x 1.848880 -0.006140 0.011530 
#    y -0.006140 1.838470 0.009270 
#    z 0.011530 0.009270 1.786260 
# 
# From -- ./inp_files/271492.got.cif
#   From: 2010.05.17/outbox.cif.g08.bks.cpg/sg2_136_cif.got.tgz:271492.got - 2010.06.03 11:33:40.
