data_PCOD9062654
_publ_section_title
;
Structure prediction by ZEFSAII (Michael W. Deem and Ramdas Pophale) SiO2 
 PCOD9062654
Probable space group: P -1
;
_chemical_formula_sum "Si O2"
_cell_formula_units_Z 13
_cell_length_a 12.693226
_cell_length_b 9.727877
_cell_length_c 12.951460
_cell_angle_alpha 104.516554
_cell_angle_beta 143.587393
_cell_angle_gamma 104.747410
_cell_volume 558.644166
_symmetry_space_group_name_H-M "P -1"
_symmetry_group_IT_number 2
_symmetry_cell_setting 'triclinic'
loop_
_space_group_symop_operation_xyz
x,y,z
-x,-y,-z
loop_
_atom_site_type_symbol
_atom_site_label
_atom_site_fract_x
_atom_site_fract_y
_atom_site_fract_z
Si Si1 0.351012 0.248957 0.342470
Si Si2 0.895956 0.885077 0.283749
Si Si3 0.000000 0.500000 0.500000
Si Si4 0.159131 0.466505 0.819583
Si Si5 0.450435 0.174775 0.628618
Si Si6 0.751500 0.095671 0.141096
Si Si7 0.482282 0.904571 0.685210
O O1 0.500000 0.500000 0.500000
O O2 0.420800 0.232538 0.507829
O O3 0.498106 0.238009 0.372918
O O4 0.000000 0.000000 0.000000
O O5 0.747344 0.637579 0.131967
O O6 0.737356 0.918408 0.115620
O O7 0.000000 0.000000 0.500000
O O8 0.170224 0.030246 0.451690
O O9 0.214624 0.597584 0.788572
O O10 0.971508 0.646218 0.547170
O O11 0.807865 0.255755 0.506336
O O12 0.280690 0.601222 0.048217
O O13 0.479360 0.022898 0.617681
O O14 0.728815 0.093373 0.999680
O O15 0.500000 0.000000 0.000000
#
# Coordination Sequence:
#
# PCOD9062654 Si02
#       7
#     2   2   1   2   2   2   2
#     4  12  31  53  78 114 151 200 261 326 383 450
#     4  11  24  42  66 104 148 192 244 312 378 456
#     4  12  22  40  66 108 144 192 246 292 384 446
#     4  11  25  42  71 106 143 195 244 307 380 458
#     4  11  26  47  74 104 146 195 255 312 385 455
#     4  12  23  42  66  99 144 188 243 299 374 455
#     4  11  25  46  75 101 148 197 250 312 385 450
#
# _framework density 23.270627000000001
#
# number of rings (size 3 to 8) (size 9 to 14) (size 15 to 20)
#    0.000    0.615    4.615    2.308    8.615    3.692 
#    0.000    0.000    0.000    0.000    0.000    0.000 
#    0.000    0.000    0.000    0.000    0.000    0.000 
#
# Total GULP energy -72387.898322 kJ/mol
# GULP energy per Si atom -5568.299871 kJ/mol
# Density = 2.321766 g / cm^3
# Si number density = 23.270627 Si / 1000 Ang^3
#
#
#
# Elastic Constant Matrix: (Units=GPa)
#
#
# Indices 1 2 3 4 5 6 
#
# 1 74.3733 43.4596 15.5060 3.7950 -27.4634 -12.2030
# 2 43.4596 173.9765 36.2740 7.6710 -19.2320 -12.5359
# 3 15.5060 36.2740 91.1814 0.2363 -37.0466 6.1776
# 4 3.7950 7.6710 0.2363 44.4924 1.3143 -14.1396
# 5 -27.4634 -19.2320 -37.0466 1.3143 39.4921 -2.4638
# 6 -12.2030 -12.5359 6.1776 -14.1396 -2.4638 48.1402
#
#
#
# Elastic Compliance Matrix: (Units=1/GPa)
#
#
# Indices 1 2 3 4 5 6 
#
# 1 0.022628 -0.004292 0.005174 -0.000232 0.018809 0.004849
# 2 -0.004292 0.007319 -0.003198 -0.000504 -0.002344 0.000960
# 3 0.005174 -0.003198 0.019811 -0.001019 0.020577 -0.001310
# 4 -0.000232 -0.000504 -0.001019 0.024918 -0.001745 0.007170
# 5 0.018809 -0.002344 0.020577 -0.001745 0.056866 0.003915
# 6 0.004849 0.000960 -0.001310 0.007170 0.003915 0.024726
#
#
# Mechanical properties :
#
#
# Convention : Reuss Voigt Hill
#
# Bulk Modulus (GPa) = 22.16021 58.89006 40.52513
# Shear Modulus (GPa) = 28.41811 42.71103 35.56457
#
# Velocity S-wave (km/s) = 3.49836 4.28881 3.91359
# Velocity P-wave (km/s) = 5.08542 7.06305 6.15420
#
# Compressibility (1/GPa) = 0.04512593
#
# Stress axis : x y z
#
# Youngs Moduli (GPa) = 44.19246 136.62629 50.47604
#
# Poissons Ratio (x) = 0.58646 -0.26115
# Poissons Ratio (y) = 0.18969 0.16141
# Poissons Ratio (z) = -0.22864 0.43691
#
# Static dielectric constant tensor:
#      x y z
#    x 1.926050 0.036520 0.055170 
#    y 0.036520 1.996370 0.061900 
#    z 0.055170 0.061900 1.968400 
# 
# From -- ./inp_files/88715.got.cif
#   From: 2010.05.17/outbox.cif.g08.bks.cpg/sg2_45_cif.got.tgz:88715.got - 2010.06.03 11:33:40.
