data_PCOD9062872
_publ_section_title
;
Structure prediction by ZEFSAII (Michael W. Deem and Ramdas Pophale) SiO2 
 PCOD9062872
Probable space group: P -1
;
_chemical_formula_sum "Si O2"
_cell_formula_units_Z 16
_cell_length_a 14.808925
_cell_length_b 24.631688
_cell_length_c 5.405542
_cell_angle_alpha 101.264425
_cell_angle_beta 101.282768
_cell_angle_gamma 21.448703
_cell_volume 706.598054
_symmetry_space_group_name_H-M "P -1"
_symmetry_group_IT_number 2
_symmetry_cell_setting 'triclinic'
loop_
_space_group_symop_operation_xyz
x,y,z
-x,-y,-z
loop_
_atom_site_type_symbol
_atom_site_label
_atom_site_fract_x
_atom_site_fract_y
_atom_site_fract_z
Si Si1 0.625161 0.687949 0.538316
Si Si2 0.352912 0.951400 0.794646
Si Si3 0.102208 0.840139 0.998957
Si Si4 0.803147 0.153707 0.439203
Si Si5 0.655936 0.850849 0.183528
Si Si6 0.350867 0.594765 0.753948
Si Si7 0.869211 0.612205 0.227448
Si Si8 0.837479 0.857899 0.502759
O O1 0.518214 0.804596 0.705384
O O2 0.455092 0.733779 0.580865
O O3 0.639995 0.702827 0.279983
O O4 0.903485 0.510374 0.568229
O O5 0.175912 0.077384 0.603974
O O6 0.544982 0.894359 0.898880
O O7 0.166792 0.037100 0.989764
O O8 0.110287 0.880913 0.823314
O O9 0.286312 0.694519 0.841988
O O10 0.190098 0.806410 0.293879
O O11 0.000000 0.000000 0.500000
O O12 0.782259 0.722692 0.221581
O O13 0.821726 0.812545 0.276255
O O14 0.407788 0.001854 0.338888
O O15 0.500000 0.500000 0.500000
O O16 0.082385 0.716596 0.675430
O O17 0.500000 0.500000 0.000000
O O18 0.000000 0.500000 0.000000
#
# Coordination Sequence:
#
# PCOD9062872 Si02
#       8
#     2   2   2   2   2   2   2   2
#     4  11  26  42  68 105 152 194 251 308 384 452
#     4  12  22  44  75 106 152 195 255 313 387 456
#     4  12  27  46  75 107 147 201 249 311 379 451
#     4  12  27  44  73 113 147 191 259 314 369 446
#     4  11  24  42  77 104 145 191 256 315 378 439
#     4  12  27  50  76 106 151 199 249 311 390 460
#     4  11  24  44  69 103 146 199 238 303 385 457
#     4  11  25  46  72 111 144 190 262 314 373 453
#
# _framework density 22.643709000000001
#
# number of rings (size 3 to 8) (size 9 to 14) (size 15 to 20)
#    0.000    0.500    5.000    3.000    3.500    2.000 
#    0.000    0.000    0.000    0.000    0.000    0.000 
#    0.000    0.000    0.000    0.000    0.000    0.000 
#
# Total GULP energy -89162.801084 kJ/mol
# GULP energy per Si atom -5572.675068 kJ/mol
# Density = 2.259217 g / cm^3
# Si number density = 22.643709 Si / 1000 Ang^3
#
#
#
# Elastic Constant Matrix: (Units=GPa)
#
#
# Indices 1 2 3 4 5 6 
#
# 1 64.9654 15.0510 27.6777 -13.9906 5.4367 -8.0062
# 2 15.0510 114.1570 31.5552 -5.3208 -2.6952 8.5339
# 3 27.6777 31.5552 104.2611 4.6041 5.8585 -0.8516
# 4 -13.9906 -5.3208 4.6041 51.0775 4.4110 3.5359
# 5 5.4367 -2.6952 5.8585 4.4110 45.0393 7.5164
# 6 -8.0062 8.5339 -0.8516 3.5359 7.5164 32.2027
#
#
#
# Elastic Compliance Matrix: (Units=1/GPa)
#
#
# Indices 1 2 3 4 5 6 
#
# 1 0.019978 -0.001506 -0.004867 0.005668 -0.003323 0.005391
# 2 -0.001506 0.010095 -0.002823 0.001001 0.001659 -0.003622
# 3 -0.004867 -0.002823 0.011910 -0.002645 -0.000932 0.000361
# 4 0.005668 0.001001 -0.002645 0.021724 -0.002278 -0.000780
# 5 -0.003323 0.001659 -0.000932 -0.002278 0.024162 -0.006680
# 6 0.005391 -0.003622 0.000361 -0.000780 -0.006680 0.035008
#
#
# Mechanical properties :
#
#
# Convention : Reuss Voigt Hill
#
# Bulk Modulus (GPa) = 42.38776 47.99461 45.19118
# Shear Modulus (GPa) = 33.52713 39.60390 36.56551
#
# Velocity S-wave (km/s) = 3.85208 4.18664 4.02284
# Velocity P-wave (km/s) = 6.20844 6.67924 6.44814
#
# Compressibility (1/GPa) = 0.02359172
#
# Stress axis : x y z
#
# Youngs Moduli (GPa) = 50.05399 99.05702 83.96442
#
# Poissons Ratio (x) = 0.14917 0.40868
# Poissons Ratio (y) = 0.07538 0.23700
# Poissons Ratio (z) = 0.24363 0.27960
#
# Static dielectric constant tensor:
#      x y z
#    x 1.968780 0.009590 -0.014090 
#    y 0.009590 1.941390 -0.121730 
#    z -0.014090 -0.121730 2.021640 
# 
# From -- ./inp_files/101243.got.cif
#   From: 2010.05.17/outbox.cif.g08.bks.cpg/sg2_51_cif.got.tgz:101243.got - 2010.06.03 11:33:40.
