data_PCOD9062202
_publ_section_title
;
Structure prediction by ZEFSAII (Michael W. Deem and Ramdas Pophale) SiO2 
 PCOD9062202
Probable space group: P -1
;
_chemical_formula_sum "Si O2"
_cell_formula_units_Z 14
_cell_length_a 6.741701
_cell_length_b 17.602105
_cell_length_c 16.599525
_cell_angle_alpha 31.082007
_cell_angle_beta 72.266344
_cell_angle_gamma 51.759687
_cell_volume 663.826279
_symmetry_space_group_name_H-M "P -1"
_symmetry_group_IT_number 2
_symmetry_cell_setting 'triclinic'
loop_
_space_group_symop_operation_xyz
x,y,z
-x,-y,-z
loop_
_atom_site_type_symbol
_atom_site_label
_atom_site_fract_x
_atom_site_fract_y
_atom_site_fract_z
Si Si1 0.845235 0.226506 0.345195
Si Si2 0.767631 0.873708 0.457430
Si Si3 0.829759 0.432479 0.588174
Si Si4 0.850769 0.484726 0.802638
Si Si5 0.174325 0.112437 0.971324
Si Si6 0.935831 0.681594 0.890444
Si Si7 0.834739 0.198855 0.660574
O O1 0.502789 0.382352 0.277318
O O2 0.073643 0.172249 0.434587
O O3 0.834751 0.327240 0.174074
O O4 0.000000 0.000000 0.500000
O O5 0.846475 0.661747 0.625062
O O6 0.921360 0.901986 0.347075
O O7 0.406252 0.086298 0.298936
O O8 0.828246 0.350827 0.577051
O O9 0.504182 0.635772 0.481313
O O10 0.000000 0.500000 0.500000
O O11 0.970335 0.238938 0.804012
O O12 0.051329 0.289720 0.892090
O O13 0.991684 0.379508 0.969255
O O14 0.500000 0.000000 0.000000
O O15 0.142834 0.963787 0.144156
O O16 0.000000 0.500000 0.000000
#
# Coordination Sequence:
#
# PCOD9062202 Si02
#       7
#     2   2   2   2   2   2   2
#     4  12  25  49  76 103 147 191 238 298 367 434
#     4  12  27  47  71 107 148 187 242 294 367 433
#     4  11  23  48  71  97 141 184 237 297 359 415
#     4  12  28  47  73 107 149 193 243 301 361 433
#     4  12  27  46  73 104 144 189 245 297 358 426
#     4  12  26  47  76 107 147 188 238 299 363 436
#     4  11  27  43  73 104 137 190 237 296 357 428
#
# _framework density 21.089855
#
# number of rings (size 3 to 8) (size 9 to 14) (size 15 to 20)
#    0.000    0.286    4.286    3.857    8.000    2.286 
#    0.000    0.000    0.000    0.000    0.000    0.000 
#    0.000    0.000    0.000    0.000    0.000    0.000 
#
# Total GULP energy -78208.886099 kJ/mol
# GULP energy per Si atom -5586.349007 kJ/mol
# Density = 2.104185 g / cm^3
# Si number density = 21.089855 Si / 1000 Ang^3
#
#
#
# Elastic Constant Matrix: (Units=GPa)
#
#
# Indices 1 2 3 4 5 6 
#
# 1 84.2366 34.1315 32.7385 -12.2159 -9.8908 -16.8585
# 2 34.1315 119.5416 23.5743 -12.1089 -1.4781 -22.7640
# 3 32.7385 23.5743 102.1362 -2.6586 -4.8196 -25.5599
# 4 -12.2159 -12.1089 -2.6586 40.1328 2.6806 -11.6284
# 5 -9.8908 -1.4781 -4.8196 2.6806 51.7207 6.0639
# 6 -16.8585 -22.7640 -25.5599 -11.6284 6.0639 34.6865
#
#
#
# Elastic Compliance Matrix: (Units=1/GPa)
#
#
# Indices 1 2 3 4 5 6 
#
# 1 0.016124 -0.002366 -0.002990 0.005502 0.001794 0.005611
# 2 -0.002366 0.011062 0.000362 0.005147 -0.001347 0.008338
# 3 -0.002990 0.000362 0.013087 0.002856 -0.000603 0.009491
# 4 0.005502 0.005147 0.002856 0.034348 -0.002676 0.020140
# 5 0.001794 -0.001347 -0.000603 -0.002676 0.020296 -0.004901
# 6 0.005611 0.008338 0.009491 0.020140 -0.004901 0.051631
#
#
# Mechanical properties :
#
#
# Convention : Reuss Voigt Hill
#
# Bulk Modulus (GPa) = 33.02030 54.08923 43.55477
# Shear Modulus (GPa) = 30.00662 39.67267 34.83964
#
# Velocity S-wave (km/s) = 3.77609 4.34190 4.06884
# Velocity P-wave (km/s) = 5.89091 7.13014 6.53994
#
# Compressibility (1/GPa) = 0.03028440
#
# Stress axis : x y z
#
# Youngs Moduli (GPa) = 62.02097 90.40099 76.41375
#
# Poissons Ratio (x) = 0.21388 0.22848
# Poissons Ratio (y) = 0.14674 -0.02767
# Poissons Ratio (z) = 0.18544 -0.03273
#
# Static dielectric constant tensor:
#      x y z
#    x 1.786700 -0.002430 0.057810 
#    y -0.002430 1.808930 0.003510 
#    z 0.057810 0.003510 1.682570 
# 
# From -- ./inp_files/106169.got.cif
#   From: 2010.05.17/outbox.cif.g08.bks.cpg/sg2_54_cif.got.tgz:106169.got - 2010.06.03 11:33:40.
