data_PCOD9062713
_publ_section_title
;
Structure prediction by ZEFSAII (Michael W. Deem and Ramdas Pophale) SiO2 
 PCOD9062713
Probable space group: P -1
;
_chemical_formula_sum "Si O2"
_cell_formula_units_Z 16
_cell_length_a 17.216493
_cell_length_b 11.608718
_cell_length_c 8.285271
_cell_angle_alpha 51.005367
_cell_angle_beta 32.642032
_cell_angle_gamma 57.046576
_cell_volume 693.788997
_symmetry_space_group_name_H-M "P -1"
_symmetry_group_IT_number 2
_symmetry_cell_setting 'triclinic'
loop_
_space_group_symop_operation_xyz
x,y,z
-x,-y,-z
loop_
_atom_site_type_symbol
_atom_site_label
_atom_site_fract_x
_atom_site_fract_y
_atom_site_fract_z
Si Si1 0.915102 0.639462 0.611192
Si Si2 0.341922 0.546492 0.788992
Si Si3 0.758349 0.132400 0.773105
Si Si4 0.312369 0.181681 0.681845
Si Si5 0.310794 0.149028 0.339048
Si Si6 0.624873 0.146870 0.655875
Si Si7 0.981726 0.671390 0.822601
Si Si8 0.426609 0.633941 0.909573
O O1 0.843071 0.776717 0.513340
O O2 0.000000 0.500000 0.500000
O O3 0.996340 0.682643 0.592552
O O4 0.767447 0.567406 0.986228
O O5 0.500000 0.500000 0.500000
O O6 0.301204 0.702753 0.645894
O O7 0.345986 0.565993 0.957460
O O8 0.683842 0.090549 0.773006
O O9 0.914191 0.200410 0.408015
O O10 0.677166 0.272068 0.875078
O O11 0.731711 0.986335 0.054726
O O12 0.337717 0.197535 0.431838
O O13 0.453910 0.248263 0.457891
O O14 0.177858 0.281535 0.885623
O O15 0.323383 0.971555 0.462639
O O16 0.452891 0.179547 0.952567
O O17 0.000000 0.500000 0.000000
O O18 0.500000 0.500000 0.000000
#
# Coordination Sequence:
#
# PCOD9062713 Si02
#       8
#     2   2   2   2   2   2   2   2
#     4  12  25  46  70  99 138 180 227 283 342 408
#     4  12  23  41  67 100 133 178 229 278 340 400
#     4  12  25  45  68 102 135 182 227 277 343 406
#     4  12  25  44  69 102 139 180 226 282 344 406
#     4  11  24  43  68 101 135 180 220 285 342 403
#     4  11  24  42  69 100 138 173 231 279 340 404
#     4  12  26  47  70  98 139 182 228 278 342 413
#     4  12  24  41  67 101 137 175 227 279 336 405
#
# _framework density 23.061768000000001
#
# number of rings (size 3 to 8) (size 9 to 14) (size 15 to 20)
#    0.000    0.250    2.500    7.500    3.500    0.000 
#    0.000    1.875    0.000    0.000    0.000    0.000 
#    0.000    0.000    0.000    0.000    0.000    0.000 
#
# Total GULP energy -89413.331932 kJ/mol
# GULP energy per Si atom -5588.333246 kJ/mol
# Density = 2.300928 g / cm^3
# Si number density = 23.061768 Si / 1000 Ang^3
#
#
#
# Elastic Constant Matrix: (Units=GPa)
#
#
# Indices 1 2 3 4 5 6 
#
# 1 79.2442 13.0798 -4.0516 7.9722 3.5107 0.1788
# 2 13.0798 97.0234 1.9018 5.1870 10.9527 -5.6755
# 3 -4.0516 1.9018 44.6847 0.5621 -14.0477 -2.9257
# 4 7.9722 5.1870 0.5621 54.3227 4.5925 5.2387
# 5 3.5107 10.9527 -14.0477 4.5925 35.7361 -0.4609
# 6 0.1788 -5.6755 -2.9257 5.2387 -0.4609 34.4514
#
#
#
# Elastic Compliance Matrix: (Units=1/GPa)
#
#
# Indices 1 2 3 4 5 6 
#
# 1 0.013145 -0.001695 0.001276 -0.001780 -0.000041 0.000031
# 2 -0.001695 0.011135 -0.001703 -0.000643 -0.003811 0.001745
# 3 0.001276 -0.001703 0.026161 -0.001438 0.010895 0.002299
# 4 -0.001780 -0.000643 -0.001438 0.019283 -0.002713 -0.003187
# 5 -0.000041 -0.003811 0.010895 -0.002713 0.033801 0.001162
# 6 0.000031 0.001745 0.002299 -0.003187 0.001162 0.030009
#
#
# Mechanical properties :
#
#
# Convention : Reuss Voigt Hill
#
# Bulk Modulus (GPa) = 21.64746 26.97915 24.31330
# Shear Modulus (GPa) = 32.64150 38.90353 35.77252
#
# Velocity S-wave (km/s) = 3.76625 4.11168 3.94275
# Velocity P-wave (km/s) = 5.32165 5.85365 5.59398
#
# Compressibility (1/GPa) = 0.04619480
#
# Stress axis : x y z
#
# Youngs Moduli (GPa) = 76.07394 89.80366 38.22507
#
# Poissons Ratio (x) = 0.15226 -0.04876
# Poissons Ratio (y) = 0.12898 0.06511
# Poissons Ratio (z) = -0.09703 0.15296
#
# Static dielectric constant tensor:
#      x y z
#    x 1.925460 -0.026170 0.008830 
#    y -0.026170 1.852200 -0.024090 
#    z 0.008830 -0.024090 1.873620 
# 
# From -- ./inp_files/184201.got.cif
#   From: 2010.05.17/outbox.cif.g08.bks.cpg/sg2_93_cif.got.tgz:184201.got - 2010.06.03 11:33:40.
