data_PCOD9062238
_publ_section_title
;
Structure prediction by ZEFSAII (Michael W. Deem and Ramdas Pophale) SiO2 
 PCOD9062238
Probable space group: P -1
;
_chemical_formula_sum "Si O2"
_cell_formula_units_Z 14
_cell_length_a 7.474713
_cell_length_b 11.696969
_cell_length_c 14.501073
_cell_angle_alpha 128.451490
_cell_angle_beta 147.944073
_cell_angle_gamma 56.905655
_cell_volume 526.427626
_symmetry_space_group_name_H-M "P -1"
_symmetry_group_IT_number 2
_symmetry_cell_setting 'triclinic'
loop_
_space_group_symop_operation_xyz
x,y,z
-x,-y,-z
loop_
_atom_site_type_symbol
_atom_site_label
_atom_site_fract_x
_atom_site_fract_y
_atom_site_fract_z
Si Si1 0.537709 0.045066 0.799689
Si Si2 0.814973 0.443583 0.299399
Si Si3 0.651877 0.147386 0.100994
Si Si4 0.701729 0.698778 0.722339
Si Si5 0.154458 0.533463 0.985159
Si Si6 0.923565 0.268428 0.634182
Si Si7 0.632259 0.912595 0.597970
O O1 0.183879 0.130815 0.661761
O O2 0.602251 0.873743 0.770475
O O3 0.655909 0.126403 0.981740
O O4 0.500000 0.000000 0.000000
O O5 0.554728 0.317970 0.153273
O O6 0.000000 0.500000 0.500000
O O7 0.075643 0.365137 0.299848
O O8 0.552180 0.558920 0.190861
O O9 0.014080 0.156848 0.310739
O O10 0.312237 0.655747 0.511026
O O11 0.716495 0.031171 0.772777
O O12 0.929137 0.651368 0.885560
O O13 0.116663 0.390411 0.833294
O O14 0.000000 0.500000 0.000000
O O15 0.642305 0.197291 0.541961
O O16 0.500000 0.000000 0.500000
#
# Coordination Sequence:
#
# PCOD9062238 Si02
#       7
#     2   2   2   2   2   2   2
#     4  11  24  48  78 116 158 205 256 327 394 475
#     4  12  27  54  79 109 160 212 271 325 397 480
#     4  12  26  48  78 115 154 203 270 332 393 460
#     4  11  25  49  78 113 159 211 257 322 399 474
#     4  12  28  48  76 112 158 210 267 323 391 479
#     4  11  23  48  75 118 158 202 260 322 397 473
#     4  11  24  43  71 112 157 197 250 326 397 460
#
# _framework density 26.594349000000001
#
# number of rings (size 3 to 8) (size 9 to 14) (size 15 to 20)
#    0.000    0.571    4.286    4.714    2.000    0.000 
#    5.143    0.000    0.000    0.000    0.000    0.000 
#    0.000    0.000    0.000    0.000    0.000    0.000 
#
# Total GULP energy -78061.373115 kJ/mol
# GULP energy per Si atom -5575.812365 kJ/mol
# Density = 2.653382 g / cm^3
# Si number density = 26.594349 Si / 1000 Ang^3
#
#
#
# Elastic Constant Matrix: (Units=GPa)
#
#
# Indices 1 2 3 4 5 6 
#
# 1 87.0927 36.2353 37.9192 -19.2145 4.3205 -23.3652
# 2 36.2353 161.8596 67.4212 -23.9096 0.8865 -18.7592
# 3 37.9192 67.4212 195.3162 -40.9264 -8.4449 -18.4948
# 4 -19.2145 -23.9096 -40.9264 77.8677 -18.1411 9.0365
# 5 4.3205 0.8865 -8.4449 -18.1411 58.6266 -15.1871
# 6 -23.3652 -18.7592 -18.4948 9.0365 -15.1871 44.9370
#
#
#
# Elastic Compliance Matrix: (Units=1/GPa)
#
#
# Indices 1 2 3 4 5 6 
#
# 1 0.014863 -0.001796 -0.001195 0.001983 0.001042 0.006440
# 2 -0.001796 0.007688 -0.001992 0.000785 0.000338 0.001412
# 3 -0.001195 -0.001992 0.006963 0.003151 0.002518 0.001630
# 4 0.001983 0.000785 0.003151 0.016409 0.005706 0.001284
# 5 0.001042 0.000338 0.002518 0.005706 0.021099 0.007702
# 6 0.006440 0.001412 0.001630 0.001284 0.007702 0.029207
#
#
# Mechanical properties :
#
#
# Convention : Reuss Voigt Hill
#
# Bulk Modulus (GPa) = 51.15819 80.82443 65.99131
# Shear Modulus (GPa) = 44.36101 56.46578 50.41340
#
# Velocity S-wave (km/s) = 4.08862 4.61285 4.35862
# Velocity P-wave (km/s) = 6.44727 7.66999 7.08506
#
# Compressibility (1/GPa) = 0.01954721
#
# Stress axis : x y z
#
# Youngs Moduli (GPa) = 67.28048 130.07493 143.61418
#
# Poissons Ratio (x) = 0.23360 0.17166
# Poissons Ratio (y) = 0.12083 0.28612
# Poissons Ratio (z) = 0.08042 0.25915
#
# Static dielectric constant tensor:
#      x y z
#    x 2.152920 0.005990 0.061130 
#    y 0.005990 2.423720 -0.003430 
#    z 0.061130 -0.003430 2.158220 
# 
# From -- ./inp_files/568112.got.cif
#   From: 2010.05.17/outbox.cif.g08.bks.cpg/sg2_285_cif.got.tgz:568112.got - 2010.06.03 11:33:40.
