data_PCOD9062300
_publ_section_title
;
Structure prediction by ZEFSAII (Michael W. Deem and Ramdas Pophale) SiO2 
 PCOD9062300
Probable space group: P -1
;
_chemical_formula_sum "Si O2"
_cell_formula_units_Z 12
_cell_length_a 10.271357
_cell_length_b 7.289192
_cell_length_c 9.747665
_cell_angle_alpha 61.230262
_cell_angle_beta 107.302706
_cell_angle_gamma 129.618655
_cell_volume 492.731328
_symmetry_space_group_name_H-M "P -1"
_symmetry_group_IT_number 2
_symmetry_cell_setting 'triclinic'
loop_
_space_group_symop_operation_xyz
x,y,z
-x,-y,-z
loop_
_atom_site_type_symbol
_atom_site_label
_atom_site_fract_x
_atom_site_fract_y
_atom_site_fract_z
Si Si1 0.964355 0.276705 0.964609
Si Si2 0.374866 0.310826 0.906664
Si Si3 0.848068 0.869201 0.741383
Si Si4 0.655768 0.106200 0.610579
Si Si5 0.123415 0.416763 0.675087
Si Si6 0.585021 0.413507 0.665777
O O1 0.095658 0.218362 0.080228
O O2 0.014909 0.382534 0.787417
O O3 0.778603 0.999260 0.009027
O O4 0.000000 0.500000 0.000000
O O5 0.483699 0.322029 0.809128
O O6 0.283761 0.438200 0.777744
O O7 0.500000 0.500000 0.000000
O O8 0.771432 0.663291 0.671370
O O9 0.705571 0.911972 0.715387
O O10 0.015943 0.146741 0.657154
O O11 0.811958 0.348106 0.489594
O O12 0.606336 0.201519 0.689725
O O13 0.500000 0.000000 0.500000
O O14 0.500000 0.500000 0.500000
#
# Coordination Sequence:
#
# PCOD9062300 Si02
#       6
#     2   2   2   2   2   2
#     4  11  27  47  76 109 146 201 253 309 375 446
#     4  11  23  49  78 105 152 200 252 312 371 449
#     4  11  25  49  72 106 150 193 249 305 372 441
#     4  12  26  45  76 109 151 194 245 310 374 441
#     4  11  24  47  73 105 149 192 247 313 371 440
#     4  12  24  46  75 111 146 198 251 300 377 451
#
# _framework density 24.354044999999999
#
# number of rings (size 3 to 8) (size 9 to 14) (size 15 to 20)
#    0.000    0.667    3.333    4.500    4.667    0.667 
#    0.000    1.667    0.000    0.000    0.000    0.000 
#    0.000    0.000    0.000    0.000    0.000    0.000 
#
# Total GULP energy -67204.138496 kJ/mol
# GULP energy per Si atom -5600.344875 kJ/mol
# Density = 2.429861 g / cm^3
# Si number density = 24.354045 Si / 1000 Ang^3
#
#
#
# Elastic Constant Matrix: (Units=GPa)
#
#
# Indices 1 2 3 4 5 6 
#
# 1 128.5357 57.7324 63.7685 5.3230 -10.6463 -10.6435
# 2 57.7324 125.0427 63.9178 22.0314 -13.0975 0.9765
# 3 63.7685 63.9178 138.2650 18.9002 1.8425 4.9467
# 4 5.3230 22.0314 18.9002 59.8536 4.7354 0.7428
# 5 -10.6463 -13.0975 1.8425 4.7354 65.0211 -0.7340
# 6 -10.6435 0.9765 4.9467 0.7428 -0.7340 51.8528
#
#
#
# Elastic Compliance Matrix: (Units=1/GPa)
#
#
# Indices 1 2 3 4 5 6 
#
# 1 0.011623 -0.003407 -0.004092 0.001377 0.001265 0.002839
# 2 -0.003407 0.012249 -0.003663 -0.003220 0.002242 -0.000503
# 3 -0.004092 -0.003663 0.011126 -0.001650 -0.001624 -0.001832
# 4 0.001377 -0.003220 -0.001650 0.018424 -0.001716 0.000213
# 5 0.001265 0.002242 -0.001624 -0.001716 0.016216 0.000626
# 6 0.002839 -0.000503 -0.001832 0.000213 0.000626 0.020058
#
#
# Mechanical properties :
#
#
# Convention : Reuss Voigt Hill
#
# Bulk Modulus (GPa) = 78.90466 84.74231 81.82349
# Shear Modulus (GPa) = 43.01246 49.10714 46.05980
#
# Velocity S-wave (km/s) = 4.20710 4.49529 4.35358
# Velocity P-wave (km/s) = 7.48792 7.86225 7.67737
#
# Compressibility (1/GPa) = 0.01267352
#
# Stress axis : x y z
#
# Youngs Moduli (GPa) = 86.03449 81.64131 89.88048
#
# Poissons Ratio (x) = 0.27815 0.36783
# Poissons Ratio (y) = 0.29312 0.32921
# Poissons Ratio (z) = 0.35209 0.29904
#
# Static dielectric constant tensor:
#      x y z
#    x 1.969640 0.035570 0.005680 
#    y 0.035570 1.949170 -0.015970 
#    z 0.005680 -0.015970 1.981440 
# 
# From -- ./inp_files/376729.got.cif
#   From: 2010.05.17/outbox.cif.g08.bks.cpg/sg2_189_cif.got.tgz:376729.got - 2010.06.03 11:33:40.
