data_PCOD9062171
_publ_section_title
;
Structure prediction by ZEFSAII (Michael W. Deem and Ramdas Pophale) SiO2 
 PCOD9062171
Probable space group: P -1
;
_chemical_formula_sum "Si O2"
_cell_formula_units_Z 14
_cell_length_a 22.128869
_cell_length_b 7.528243
_cell_length_c 20.152921
_cell_angle_alpha 33.129109
_cell_angle_beta 161.576430
_cell_angle_gamma 145.734558
_cell_volume 569.900234
_symmetry_space_group_name_H-M "P -1"
_symmetry_group_IT_number 2
_symmetry_cell_setting 'triclinic'
loop_
_space_group_symop_operation_xyz
x,y,z
-x,-y,-z
loop_
_atom_site_type_symbol
_atom_site_label
_atom_site_fract_x
_atom_site_fract_y
_atom_site_fract_z
Si Si1 0.335958 0.058020 0.521457
Si Si2 0.578911 0.626912 0.826768
Si Si3 0.925036 0.430231 0.111364
Si Si4 0.956508 0.238293 0.595076
Si Si5 0.033135 0.830661 0.975011
Si Si6 0.903545 0.302974 0.281186
Si Si7 0.499272 0.612938 0.610288
O O1 0.406356 0.438411 0.500662
O O2 0.477194 0.826248 0.712129
O O3 0.262127 0.907966 0.563843
O O4 0.168916 0.054014 0.292554
O O5 0.436529 0.507497 0.653596
O O6 0.500000 0.000000 0.500000
O O7 0.771850 0.904088 0.920261
O O8 0.672086 0.304197 0.041613
O O9 0.970616 0.397123 0.246575
O O10 0.046935 0.704740 0.104428
O O11 0.940003 0.072900 0.210066
O O12 0.710957 0.512533 0.858101
O O13 0.029424 0.427563 0.677942
O O14 0.000000 0.500000 0.500000
O O15 0.000000 0.500000 0.000000
O O16 0.000000 0.000000 0.500000
#
# Coordination Sequence:
#
# PCOD9062171 Si02
#       7
#     2   2   2   2   2   2   2
#     4  12  26  49  77 110 157 201 248 310 383 456
#     4  11  26  48  72 112 156 195 253 307 383 455
#     4  11  25  45  75 110 152 196 255 304 382 447
#     4  12  25  49  78 103 142 203 257 311 371 441
#     4  12  22  43  77 109 152 201 241 302 382 458
#     4  11  23  47  79 102 144 199 255 315 368 442
#     4  11  25  44  71 113 158 197 243 309 372 459
#
# _framework density 24.565702999999999
#
# number of rings (size 3 to 8) (size 9 to 14) (size 15 to 20)
#    0.000    0.571    4.286    3.429    0.000    6.286 
#    0.000    3.571    0.000    0.000    0.000    0.000 
#    0.000    0.000    0.000    0.000    0.000    0.000 
#
# Total GULP energy -78093.694382 kJ/mol
# GULP energy per Si atom -5578.121027 kJ/mol
# Density = 2.450979 g / cm^3
# Si number density = 24.565703 Si / 1000 Ang^3
#
#
#
# Elastic Constant Matrix: (Units=GPa)
#
#
# Indices 1 2 3 4 5 6 
#
# 1 183.3951 80.3070 79.5143 -25.5311 7.1492 -28.5582
# 2 80.3070 70.8112 59.0209 -21.6822 -3.6155 -14.9647
# 3 79.5143 59.0209 156.0622 -36.9282 5.1038 -6.2622
# 4 -25.5311 -21.6822 -36.9282 42.9334 -12.6500 -4.2803
# 5 7.1492 -3.6155 5.1038 -12.6500 62.2895 -7.6172
# 6 -28.5582 -14.9647 -6.2622 -4.2803 -7.6172 61.8371
#
#
#
# Elastic Compliance Matrix: (Units=1/GPa)
#
#
# Indices 1 2 3 4 5 6 
#
# 1 0.011497 -0.011667 -0.001449 -0.000608 -0.001747 0.002082
# 2 -0.011667 0.035815 -0.005623 0.008515 0.006103 0.004051
# 3 -0.001449 -0.005623 0.010492 0.005255 -0.000027 -0.000607
# 4 -0.000608 0.008515 0.005255 0.034633 0.007861 0.005678
# 5 -0.001747 0.006103 -0.000027 0.007861 0.018636 0.003507
# 6 0.002082 0.004051 -0.000607 0.005678 0.003507 0.018877
#
#
# Mechanical properties :
#
#
# Convention : Reuss Voigt Hill
#
# Bulk Modulus (GPa) = 49.19322 94.21700 71.70511
# Shear Modulus (GPa) = 28.70187 46.17376 37.43781
#
# Velocity S-wave (km/s) = 3.42185 4.34014 3.90806
# Velocity P-wave (km/s) = 5.97334 7.97196 7.04389
#
# Compressibility (1/GPa) = 0.02032801
#
# Stress axis : x y z
#
# Youngs Moduli (GPa) = 86.97564 27.92115 95.30711
#
# Poissons Ratio (x) = 0.32576 0.13809
# Poissons Ratio (y) = 1.01474 0.53587
# Poissons Ratio (z) = 0.12602 0.15699
#
# Static dielectric constant tensor:
#      x y z
#    x 2.015750 0.063650 -0.067320 
#    y 0.063650 2.556780 0.692920 
#    z -0.067320 0.692920 3.269470 
# 
# From -- ./inp_files/601923.got.cif
#   From: 2010.05.17/outbox.cif.g08.bks.cpg/sg2_301_cif.got.tgz:601923.got - 2010.06.03 11:33:40.
