data_PCOD9062613
_publ_section_title
;
Structure prediction by ZEFSAII (Michael W. Deem and Ramdas Pophale) SiO2 
 PCOD9062613
Probable space group: P -1
;
_chemical_formula_sum "Si O2"
_cell_formula_units_Z 14
_cell_length_a 9.916285
_cell_length_b 12.718909
_cell_length_c 7.513651
_cell_angle_alpha 107.080720
_cell_angle_beta 70.891058
_cell_angle_gamma 144.299089
_cell_volume 521.867520
_symmetry_space_group_name_H-M "P -1"
_symmetry_group_IT_number 2
_symmetry_cell_setting 'triclinic'
loop_
_space_group_symop_operation_xyz
x,y,z
-x,-y,-z
loop_
_atom_site_type_symbol
_atom_site_label
_atom_site_fract_x
_atom_site_fract_y
_atom_site_fract_z
Si Si1 0.983353 0.635986 0.720029
Si Si2 0.794582 0.740586 0.851099
Si Si3 0.330099 0.793223 0.937943
Si Si4 0.936659 0.254957 0.675665
Si Si5 0.501886 0.751281 0.114471
Si Si6 0.765595 0.957623 0.411913
Si Si7 0.635651 0.625245 0.334914
O O1 0.955682 0.743224 0.862569
O O2 0.740470 0.433215 0.783984
O O3 0.000408 0.659530 0.508286
O O4 0.199763 0.712814 0.766079
O O5 0.552305 0.531222 0.805425
O O6 0.713063 0.791732 0.029688
O O7 0.959735 0.880222 0.685498
O O8 0.142641 0.700259 0.132543
O O9 0.458407 0.763005 0.937980
O O10 0.500000 0.000000 0.000000
O O11 0.134103 0.307399 0.720864
O O12 0.751343 0.044321 0.606720
O O13 0.609384 0.902074 0.283995
O O14 0.679726 0.782651 0.406506
O O15 0.500000 0.500000 0.500000
#
# Coordination Sequence:
#
# PCOD9062613 Si02
#       7
#     2   2   2   2   2   2   2
#     4  11  24  49  74 105 147 187 249 310 365 429
#     4  11  24  43  74 108 148 187 241 315 363 427
#     4  12  29  47  73 105 148 202 247 295 367 443
#     4  11  26  47  73 105 150 193 246 303 362 438
#     4  12  25  45  72 110 146 194 246 298 373 437
#     4  11  24  41  73 107 145 190 246 302 372 425
#     4  12  22  42  70 111 144 187 242 306 370 427
#
# _framework density 26.826733000000001
#
# number of rings (size 3 to 8) (size 9 to 14) (size 15 to 20)
#    0.000    0.571    4.286    4.286    4.000    2.857 
#    0.000    1.429    0.000    0.000    0.000    0.000 
#    0.000    0.000    0.000    0.000    0.000    0.000 
#
# Total GULP energy -78315.174755 kJ/mol
# GULP energy per Si atom -5593.941054 kJ/mol
# Density = 2.676567 g / cm^3
# Si number density = 26.826733 Si / 1000 Ang^3
#
#
#
# Elastic Constant Matrix: (Units=GPa)
#
#
# Indices 1 2 3 4 5 6 
#
# 1 81.4477 23.7104 9.2534 2.3574 24.0268 0.2729
# 2 23.7104 142.0718 16.1105 0.0235 18.4458 -1.2643
# 3 9.2534 16.1105 91.6878 -5.3769 16.3891 -8.9739
# 4 2.3574 0.0235 -5.3769 31.4549 -3.0703 8.1053
# 5 24.0268 18.4458 16.3891 -3.0703 47.3134 4.4424
# 6 0.2729 -1.2643 -8.9739 8.1053 4.4424 37.5825
#
#
#
# Elastic Compliance Matrix: (Units=1/GPa)
#
#
# Indices 1 2 3 4 5 6 
#
# 1 0.014913 -0.001544 0.000049 -0.002114 -0.007235 0.001163
# 2 -0.001544 0.007648 -0.000818 -0.000319 -0.001970 0.000375
# 3 0.000049 -0.000818 0.012150 0.000848 -0.004159 0.003182
# 4 -0.002114 -0.000319 0.000848 0.034451 0.003861 -0.007679
# 5 -0.007235 -0.001970 -0.004159 0.003861 0.027749 -0.005119
# 6 0.001163 0.000375 0.003182 -0.007679 -0.005119 0.029633
#
#
# Mechanical properties :
#
#
# Convention : Reuss Voigt Hill
#
# Bulk Modulus (GPa) = 33.23887 45.92846 39.58366
# Shear Modulus (GPa) = 35.41094 41.01236 38.21165
#
# Velocity S-wave (km/s) = 3.63710 3.91421 3.77820
# Velocity P-wave (km/s) = 5.48226 6.13071 5.81553
#
# Compressibility (1/GPa) = 0.03008526
#
# Stress axis : x y z
#
# Youngs Moduli (GPa) = 67.05433 130.74678 82.30591
#
# Poissons Ratio (x) = 0.20194 -0.00406
# Poissons Ratio (y) = 0.10356 0.06732
# Poissons Ratio (z) = -0.00330 0.10694
#
# Static dielectric constant tensor:
#      x y z
#    x 2.170310 -0.046520 -0.026330 
#    y -0.046520 2.068070 -0.108510 
#    z -0.026330 -0.108510 2.095410 
# 
# From -- ./inp_files/188490.got.cif
#   From: 2010.05.17/outbox.cif.g08.bks.cpg/sg2_95_cif.got.tgz:188490.got - 2010.06.03 11:33:40.
