data_PCOD9062753
_publ_section_title
;
Structure prediction by ZEFSAII (Michael W. Deem and Ramdas Pophale) SiO2 
 PCOD9062753
Probable space group: P -1
;
_chemical_formula_sum "Si O2"
_cell_formula_units_Z 14
_cell_length_a 15.402260
_cell_length_b 5.357019
_cell_length_c 8.049375
_cell_angle_alpha 93.023570
_cell_angle_beta 117.747227
_cell_angle_gamma 90.306685
_cell_volume 586.629919
_symmetry_space_group_name_H-M "P -1"
_symmetry_group_IT_number 2
_symmetry_cell_setting 'triclinic'
loop_
_space_group_symop_operation_xyz
x,y,z
-x,-y,-z
loop_
_atom_site_type_symbol
_atom_site_label
_atom_site_fract_x
_atom_site_fract_y
_atom_site_fract_z
Si Si1 0.782312 0.388997 0.121508
Si Si2 0.059224 0.083156 0.394851
Si Si3 0.560198 0.265916 0.862942
Si Si4 0.120753 0.117568 0.934506
Si Si5 0.907884 0.548669 0.802299
Si Si6 0.237562 0.780324 0.527301
Si Si7 0.462012 0.755820 0.755166
O O1 0.834454 0.650486 0.124671
O O2 0.773781 0.367394 0.312575
O O3 0.051674 0.365505 0.338257
O O4 0.672422 0.360187 0.951003
O O5 0.836353 0.145946 0.090463
O O6 0.172260 0.020229 0.509156
O O7 0.000000 0.000000 0.500000
O O8 0.494498 0.477743 0.730358
O O9 0.534915 0.983508 0.772350
O O10 0.539936 0.251653 0.044089
O O11 0.003971 0.078062 0.801316
O O12 0.138440 0.210927 0.140491
O O13 0.819155 0.357277 0.678912
O O14 0.000000 0.500000 0.000000
O O15 0.352583 0.816254 0.602305
#
# Coordination Sequence:
#
# PCOD9062753 Si02
#       7
#     2   2   2   2   2   2   2
#     4  11  24  42  70 102 132 180 225 285 332 405
#     4  12  25  43  68  98 137 177 233 285 330 401
#     4   9  18  37  62  95 131 162 221 279 342 382
#     4  12  25  42  66  96 140 180 224 268 344 402
#     4  12  27  44  65  96 142 188 226 274 339 406
#     4  11  25  39  69  99 134 177 230 276 342 392
#     4   9  19  35  62  96 129 168 213 286 333 396
#
# _framework density 23.865130000000001
#
# number of rings (size 3 to 8) (size 9 to 14) (size 15 to 20)
#    0.000    1.143    2.857    3.000    4.000    3.429 
#    0.000    0.000    0.000    5.143    0.000    0.000 
#    0.000    0.000    0.000    0.000    0.000    0.000 
#
# Total GULP energy -78232.461521 kJ/mol
# GULP energy per Si atom -5588.032966 kJ/mol
# Density = 2.381081 g / cm^3
# Si number density = 23.865130 Si / 1000 Ang^3
#
#
#
# Elastic Constant Matrix: (Units=GPa)
#
#
# Indices 1 2 3 4 5 6 
#
# 1 32.7449 17.6035 23.2543 -8.2180 16.4904 11.0400
# 2 17.6035 119.4639 29.2974 -1.9288 22.5315 9.4301
# 3 23.2543 29.2974 97.9294 -7.8246 28.5953 -0.8629
# 4 -8.2180 -1.9288 -7.8246 40.5217 -7.8244 -2.1139
# 5 16.4904 22.5315 28.5953 -7.8244 45.4748 2.9439
# 6 11.0400 9.4301 -0.8629 -2.1139 2.9439 41.2777
#
#
#
# Elastic Compliance Matrix: (Units=1/GPa)
#
#
# Indices 1 2 3 4 5 6 
#
# 1 0.047009 -0.002348 -0.007310 0.005571 -0.009602 -0.011219
# 2 -0.002348 0.009782 -0.001558 -0.000985 -0.003090 -0.001469
# 3 -0.007310 -0.001558 0.014092 0.000242 -0.005592 0.003017
# 4 0.005571 -0.000985 0.000242 0.026354 0.002857 -0.000114
# 5 -0.009602 -0.003090 -0.005592 0.002857 0.030940 0.001097
# 6 -0.011219 -0.001469 0.003017 -0.000114 0.001097 0.027542
#
#
# Mechanical properties :
#
#
# Convention : Reuss Voigt Hill
#
# Bulk Modulus (GPa) = 20.63973 43.38320 32.01146
# Shear Modulus (GPa) = 25.73322 37.45369 31.59346
#
# Velocity S-wave (km/s) = 3.28728 3.96585 3.64240
# Velocity P-wave (km/s) = 4.80370 6.26008 5.57961
#
# Compressibility (1/GPa) = 0.04845025
#
# Stress axis : x y z
#
# Youngs Moduli (GPa) = 21.27245 102.23232 70.96018
#
# Poissons Ratio (x) = 0.24001 0.51875
# Poissons Ratio (y) = 0.04994 0.11058
# Poissons Ratio (z) = 0.15551 0.15931
#
# Static dielectric constant tensor:
#      x y z
#    x 1.996290 -0.018690 -0.071310 
#    y -0.018690 2.027020 -0.034590 
#    z -0.071310 -0.034590 1.920630 
# 
# From -- ./inp_files/458904.got.cif
#   From: 2010.05.17/outbox.cif.g08.bks.cpg/sg2_230_cif.got.tgz:458904.got - 2010.06.03 11:33:40.
