data_PCOD9062524
_publ_section_title
;
Structure prediction by ZEFSAII (Michael W. Deem and Ramdas Pophale) SiO2 
 PCOD9062524
Probable space group: P -1
;
_chemical_formula_sum "Si O2"
_cell_formula_units_Z 16
_cell_length_a 5.292977
_cell_length_b 18.413475
_cell_length_c 18.878738
_cell_angle_alpha 156.672092
_cell_angle_beta 70.987701
_cell_angle_gamma 97.716858
_cell_volume 618.481108
_symmetry_space_group_name_H-M "P -1"
_symmetry_group_IT_number 2
_symmetry_cell_setting 'triclinic'
loop_
_space_group_symop_operation_xyz
x,y,z
-x,-y,-z
loop_
_atom_site_type_symbol
_atom_site_label
_atom_site_fract_x
_atom_site_fract_y
_atom_site_fract_z
Si Si1 0.106906 0.386969 0.462014
Si Si2 0.652684 0.071222 0.610576
Si Si3 0.482844 0.377537 0.215102
Si Si4 0.063332 0.972768 0.053836
Si Si5 0.632086 0.579802 0.959853
Si Si6 0.929317 0.849000 0.522130
Si Si7 0.496727 0.218457 0.392506
Si Si8 0.082642 0.767897 0.079351
O O1 0.865989 0.554761 0.687027
O O2 0.000000 0.500000 0.500000
O O3 0.414735 0.323231 0.415892
O O4 0.109467 0.166869 0.251685
O O5 0.679035 0.967215 0.592001
O O6 0.500000 0.000000 0.500000
O O7 0.458636 0.312678 0.858812
O O8 0.000000 0.000000 0.500000
O O9 0.464712 0.603763 0.410266
O O10 0.654020 0.238819 0.142740
O O11 0.687131 0.248407 0.017786
O O12 0.776311 0.005957 0.158202
O O13 0.000000 0.000000 0.000000
O O14 0.314054 0.642056 0.007301
O O15 0.853920 0.677230 0.999458
O O16 0.826876 0.345293 0.713729
O O17 0.767714 0.803967 0.563363
O O18 0.061555 0.000621 0.673073
#
# Coordination Sequence:
#
# PCOD9062524 Si02
#       8
#     2   2   2   2   2   2   2   2
#     4  11  24  42  64  96 140 189 244 304 370 443
#     4  11  26  49  73 111 149 193 244 298 369 455
#     4  11  24  41  67  96 142 182 243 308 369 434
#     4  11  25  41  64  97 136 191 240 302 374 436
#     4  11  25  47  75 109 148 189 241 300 369 436
#     4  11  25  45  77 105 146 195 244 309 369 442
#     4  11  24  44  67 103 139 185 251 304 368 439
#     4  11  25  43  71 110 145 187 243 305 365 437
#
# _framework density 25.869827999999998
#
# number of rings (size 3 to 8) (size 9 to 14) (size 15 to 20)
#    0.000    1.000    1.250    4.500    3.500   11.000 
#    4.500    0.000    0.000    0.000    0.000    0.000 
#    0.000    0.000    0.000    0.000    0.000    0.000 
#
# Total GULP energy -89441.186069 kJ/mol
# GULP energy per Si atom -5590.074129 kJ/mol
# Density = 2.581095 g / cm^3
# Si number density = 25.869828 Si / 1000 Ang^3
#
#
#
# Elastic Constant Matrix: (Units=GPa)
#
#
# Indices 1 2 3 4 5 6 
#
# 1 61.7224 2.1291 25.9439 -1.2492 -14.7626 3.3448
# 2 2.1291 55.5542 19.1386 -7.9658 -1.2221 -7.6195
# 3 25.9439 19.1386 205.3081 -7.8435 -11.7441 7.6324
# 4 -1.2492 -7.9658 -7.8435 46.2027 -1.6899 0.2609
# 5 -14.7626 -1.2221 -11.7441 -1.6899 36.9511 -7.2974
# 6 3.3448 -7.6195 7.6324 0.2609 -7.2974 25.4433
#
#
#
# Elastic Compliance Matrix: (Units=1/GPa)
#
#
# Indices 1 2 3 4 5 6 
#
# 1 0.018673 0.000205 -0.001973 0.000456 0.006894 0.000171
# 2 0.000205 0.020117 -0.001946 0.003165 0.001661 0.007025
# 3 -0.001973 -0.001946 0.005421 0.000561 0.000540 -0.001800
# 4 0.000456 0.003165 0.000561 0.022353 0.001680 0.000972
# 5 0.006894 0.001661 0.000540 0.001680 0.031806 0.008534
# 6 0.000171 0.007025 -0.001800 0.000972 0.008534 0.044362
#
#
# Mechanical properties :
#
#
# Convention : Reuss Voigt Hill
#
# Bulk Modulus (GPa) = 27.18813 46.33420 36.76116
# Shear Modulus (GPa) = 30.78403 40.07763 35.43083
#
# Velocity S-wave (km/s) = 3.45332 3.94026 3.70480
# Velocity P-wave (km/s) = 5.14130 6.21694 5.70453
#
# Compressibility (1/GPa) = 0.03678076
#
# Stress axis : x y z
#
# Youngs Moduli (GPa) = 53.55362 49.70930 184.47460
#
# Poissons Ratio (x) = -0.01018 0.36401
# Poissons Ratio (y) = -0.01096 0.35907
# Poissons Ratio (z) = 0.10567 0.09676
#
# Static dielectric constant tensor:
#      x y z
#    x 2.044060 0.033720 0.016030 
#    y 0.033720 2.178520 0.008910 
#    z 0.016030 0.008910 2.011380 
# 
# From -- ./inp_files/584317.got.cif
#   From: 2010.05.17/outbox.cif.g08.bks.cpg/sg2_293_cif.got.tgz:584317.got - 2010.06.03 11:33:40.
