data_PCOD9062311
_publ_section_title
;
Structure prediction by ZEFSAII (Michael W. Deem and Ramdas Pophale) SiO2 
 PCOD9062311
Probable space group: P -1
;
_chemical_formula_sum "Si O2"
_cell_formula_units_Z 16
_cell_length_a 16.394755
_cell_length_b 6.490837
_cell_length_c 8.565531
_cell_angle_alpha 106.637717
_cell_angle_beta 53.210382
_cell_angle_gamma 119.147180
_cell_volume 637.517094
_symmetry_space_group_name_H-M "P -1"
_symmetry_group_IT_number 2
_symmetry_cell_setting 'triclinic'
loop_
_space_group_symop_operation_xyz
x,y,z
-x,-y,-z
loop_
_atom_site_type_symbol
_atom_site_label
_atom_site_fract_x
_atom_site_fract_y
_atom_site_fract_z
Si Si1 0.694682 0.867365 0.093424
Si Si2 0.598563 0.742485 0.492033
Si Si3 0.096120 0.403928 0.833809
Si Si4 0.009069 0.915432 0.649459
Si Si5 0.713641 0.559154 0.583835
Si Si6 0.211655 0.487946 0.055770
Si Si7 0.200870 0.933248 0.258892
Si Si8 0.485756 0.907871 0.172128
O O1 0.675825 0.909112 0.303062
O O2 0.593532 0.879093 0.113196
O O3 0.695681 0.611730 0.049502
O O4 0.809090 0.041240 0.914109
O O5 0.500000 0.500000 0.500000
O O6 0.669271 0.655433 0.507349
O O7 0.539169 0.894802 0.666889
O O8 0.041091 0.124515 0.786156
O O9 0.182510 0.495677 0.607569
O O10 0.173643 0.468113 0.914070
O O11 0.000000 0.500000 0.000000
O O12 0.110523 0.842119 0.480173
O O13 0.000000 0.000000 0.500000
O O14 0.901508 0.690315 0.771337
O O15 0.617515 0.338657 0.726003
O O16 0.745671 0.789018 0.705726
O O17 0.249634 0.737707 0.150227
O O18 0.500000 0.000000 0.000000
#
# Coordination Sequence:
#
# PCOD9062311 Si02
#       8
#     2   2   2   2   2   2   2   2
#     4  12  27  46  81 115 154 200 267 318 393 459
#     4  12  27  49  82 112 152 205 261 322 393 465
#     4  11  26  48  80 116 154 204 259 321 396 462
#     4  11  23  50  72 114 157 206 258 319 388 470
#     4  11  27  53  76 116 159 203 266 322 393 472
#     4  12  26  49  80 112 160 204 263 325 389 468
#     4  11  27  45  77 111 158 208 257 317 396 466
#     4  12  30  52  81 113 161 210 260 326 393 468
#
# _framework density 25.097365
#
# number of rings (size 3 to 8) (size 9 to 14) (size 15 to 20)
#    0.000    0.500    3.750    2.625    5.250    2.000 
#    6.750    0.625    0.000    0.000    0.000    0.000 
#    0.000    0.000    0.000    0.000    0.000    0.000 
#
# Total GULP energy -89364.276491 kJ/mol
# GULP energy per Si atom -5585.267281 kJ/mol
# Density = 2.504024 g / cm^3
# Si number density = 25.097365 Si / 1000 Ang^3
#
#
#
# Elastic Constant Matrix: (Units=GPa)
#
#
# Indices 1 2 3 4 5 6 
#
# 1 110.2890 41.5693 52.9819 13.4017 3.7705 -21.6868
# 2 41.5693 140.4156 84.4958 14.1599 -12.0256 6.7086
# 3 52.9819 84.4958 196.1436 23.1973 -7.4196 -11.6633
# 4 13.4017 14.1599 23.1973 66.7190 -10.4145 -9.8171
# 5 3.7705 -12.0256 -7.4196 -10.4145 42.7654 1.3519
# 6 -21.6868 6.7086 -11.6633 -9.8171 1.3519 44.4096
#
#
#
# Elastic Compliance Matrix: (Units=1/GPa)
#
#
# Indices 1 2 3 4 5 6 
#
# 1 0.012400 -0.003103 -0.001663 -0.000783 -0.002635 0.005994
# 2 -0.003103 0.010918 -0.003962 -0.000550 0.002662 -0.004408
# 3 -0.001663 -0.003962 0.007485 -0.001211 -0.000011 0.001485
# 4 -0.000783 -0.000550 -0.001211 0.016693 0.003676 0.002961
# 5 -0.002635 0.002662 -0.000011 0.003676 0.025310 -0.001649
# 6 0.005994 -0.004408 0.001485 0.002961 -0.001649 0.027205
#
#
# Mechanical properties :
#
#
# Convention : Reuss Voigt Hill
#
# Bulk Modulus (GPa) = 74.92142 89.43802 82.17972
# Shear Modulus (GPa) = 41.01199 48.63221 44.82210
#
# Velocity S-wave (km/s) = 4.04680 4.40675 4.23061
# Velocity P-wave (km/s) = 7.19393 7.84898 7.52858
#
# Compressibility (1/GPa) = 0.01334732
#
# Stress axis : x y z
#
# Youngs Moduli (GPa) = 80.64813 91.58961 133.59546
#
# Poissons Ratio (x) = 0.28420 0.22220
# Poissons Ratio (y) = 0.25025 0.52926
# Poissons Ratio (z) = 0.13414 0.36285
#
# Static dielectric constant tensor:
#      x y z
#    x 2.253200 0.028290 -0.007730 
#    y 0.028290 1.954170 0.001890 
#    z -0.007730 0.001890 2.141930 
# 
# From -- ./inp_files/322863.got.cif
#   From: 2010.05.17/outbox.cif.g08.bks.cpg/sg2_162_cif.got.tgz:322863.got - 2010.06.03 11:33:40.
