data_PCOD9062592
_publ_section_title
;
Structure prediction by ZEFSAII (Michael W. Deem and Ramdas Pophale) SiO2 
 PCOD9062592
Probable space group: P -1
;
_chemical_formula_sum "Si O2"
_cell_formula_units_Z 12
_cell_length_a 5.045053
_cell_length_b 5.726040
_cell_length_c 21.192170
_cell_angle_alpha 55.903903
_cell_angle_beta 79.539586
_cell_angle_gamma 94.753114
_cell_volume 485.555179
_symmetry_space_group_name_H-M "P -1"
_symmetry_group_IT_number 2
_symmetry_cell_setting 'triclinic'
loop_
_space_group_symop_operation_xyz
x,y,z
-x,-y,-z
loop_
_atom_site_type_symbol
_atom_site_label
_atom_site_fract_x
_atom_site_fract_y
_atom_site_fract_z
Si Si1 0.061496 0.678954 0.879392
Si Si2 0.549363 0.585386 0.412762
Si Si3 0.528467 0.757433 0.196230
Si Si4 0.115404 0.489583 0.344806
Si Si5 0.207569 0.778352 0.712935
Si Si6 0.492444 0.675949 0.069838
O O1 0.107864 0.775969 0.789658
O O2 0.218991 0.422230 0.925304
O O3 0.737609 0.557424 0.922660
O O4 0.231714 0.956882 0.866587
O O5 0.500000 0.500000 0.500000
O O6 0.310848 0.416768 0.402165
O O7 0.843423 0.543414 0.381647
O O8 0.569232 0.927210 0.353163
O O9 0.294884 0.768343 0.256445
O O10 0.667159 0.504872 0.253403
O O11 0.394738 0.666551 0.148411
O O12 0.017940 0.259781 0.327466
O O13 0.500000 0.000000 0.000000
#
# Coordination Sequence:
#
# PCOD9062592 Si02
#       6
#     2   2   2   2   2   2
#     4  11  24  41  71  96 138 179 230 278 331 402
#     4  12  29  46  68 103 141 176 224 289 347 397
#     4  11  25  43  73 103 131 185 236 274 335 406
#     4  12  24  45  69  98 134 178 232 275 339 409
#     4  11  24  43  73  97 137 175 238 277 334 406
#     4  11  26  44  67 105 142 176 222 284 342 395
#
# _framework density 24.713978000000001
#
# number of rings (size 3 to 8) (size 9 to 14) (size 15 to 20)
#    0.000    0.667    5.000    1.000    7.000    2.667 
#    0.000    0.000    0.000    0.000    0.000    0.000 
#    0.000    0.000    0.000    0.000    0.000    0.000 
#
# Total GULP energy -67231.436533 kJ/mol
# GULP energy per Si atom -5602.619711 kJ/mol
# Density = 2.465773 g / cm^3
# Si number density = 24.713978 Si / 1000 Ang^3
#
#
#
# Elastic Constant Matrix: (Units=GPa)
#
#
# Indices 1 2 3 4 5 6 
#
# 1 121.5320 10.8148 18.7258 11.1799 3.1571 4.4728
# 2 10.8148 53.8245 1.7645 1.7001 6.1448 23.9763
# 3 18.7258 1.7645 77.4197 21.2034 11.4150 8.4995
# 4 11.1799 1.7001 21.2034 38.2219 6.2237 2.4906
# 5 3.1571 6.1448 11.4150 6.2237 28.2917 1.1817
# 6 4.4728 23.9763 8.4995 2.4906 1.1817 39.2364
#
#
#
# Elastic Compliance Matrix: (Units=1/GPa)
#
#
# Indices 1 2 3 4 5 6 
#
# 1 0.008795 -0.002034 -0.001791 -0.001618 0.000509 0.000716
# 2 -0.002034 0.027002 0.002581 0.000022 -0.005989 -0.016649
# 3 -0.001791 0.002581 0.016641 -0.007693 -0.005202 -0.004333
# 4 -0.001618 0.000022 -0.007693 0.031500 -0.003648 -0.000052
# 5 0.000509 -0.005989 -0.005202 -0.003648 0.039333 0.003775
# 6 0.000716 -0.016649 -0.004333 -0.000052 0.003775 0.036407
#
#
# Mechanical properties :
#
#
# Convention : Reuss Voigt Hill
#
# Bulk Modulus (GPa) = 20.02060 35.04295 27.53177
# Shear Modulus (GPa) = 27.96174 35.91475 31.93824
#
# Velocity S-wave (km/s) = 3.36730 3.81624 3.59878
# Velocity P-wave (km/s) = 4.82045 5.79901 5.33222
#
# Compressibility (1/GPa) = 0.04994856
#
# Stress axis : x y z
#
# Youngs Moduli (GPa) = 113.70650 37.03404 60.09413
#
# Poissons Ratio (x) = 0.07534 0.10766
# Poissons Ratio (y) = 0.23131 -0.15513
# Poissons Ratio (z) = 0.20370 -0.09560
#
# Static dielectric constant tensor:
#      x y z
#    x 1.981550 0.001040 0.003420 
#    y 0.001040 1.950920 -0.004190 
#    z 0.003420 -0.004190 1.923730 
# 
# From -- ./inp_files/5279.got.cif
#   From: 2010.05.17/outbox.cif.g08.bks.cpg/sg2_3_cif.got.tgz:5279.got - 2010.06.03 11:33:40.
