data_PCOD9062310
_publ_section_title
;
Structure prediction by ZEFSAII (Michael W. Deem and Ramdas Pophale) SiO2 
 PCOD9062310
Probable space group: P -1
;
_chemical_formula_sum "Si O2"
_cell_formula_units_Z 10
_cell_length_a 13.334243
_cell_length_b 11.983778
_cell_length_c 4.970303
_cell_angle_alpha 106.468313
_cell_angle_beta 81.671749
_cell_angle_gamma 149.689978
_cell_volume 376.109927
_symmetry_space_group_name_H-M "P -1"
_symmetry_group_IT_number 2
_symmetry_cell_setting 'triclinic'
loop_
_space_group_symop_operation_xyz
x,y,z
-x,-y,-z
loop_
_atom_site_type_symbol
_atom_site_label
_atom_site_fract_x
_atom_site_fract_y
_atom_site_fract_z
Si Si1 0.467882 0.580886 0.318098
Si Si2 0.321877 0.585989 0.865524
Si Si3 0.975808 0.309278 0.140798
Si Si4 0.666915 0.199679 0.344963
Si Si5 0.814780 0.898163 0.083076
O O1 0.366633 0.538619 0.584197
O O2 0.711631 0.808110 0.357499
O O3 0.409131 0.612061 0.118140
O O4 0.365488 0.353757 0.161643
O O5 0.416001 0.798788 0.858055
O O6 0.086712 0.385803 0.870894
O O7 0.802464 0.232630 0.185200
O O8 0.165097 0.553306 0.396043
O O9 0.880702 0.093126 0.121029
O O10 0.500000 0.000000 0.500000
O O11 0.000000 0.000000 0.000000
#
# Coordination Sequence:
#
# PCOD9062310 Si02
#       5
#     2   2   2   2   2
#     4  11  27  47  76 109 148 190 237 294 366 427
#     4  12  23  52  72 110 145 188 241 300 360 429
#     4  11  25  46  74 111 142 194 244 295 361 429
#     4  11  25  49  75 105 148 192 242 303 359 427
#     4  11  23  50  72 110 146 194 237 299 355 438
#
# _framework density 26.587971
#
# number of rings (size 3 to 8) (size 9 to 14) (size 15 to 20)
#    0.000    0.800    4.000    1.800    0.000    4.800 
#   18.000    0.000    0.000    0.000    0.000    0.000 
#    0.000    0.000    0.000    0.000    0.000    0.000 
#
# Total GULP energy -55948.599287 kJ/mol
# GULP energy per Si atom -5594.859929 kJ/mol
# Density = 2.652746 g / cm^3
# Si number density = 26.587971 Si / 1000 Ang^3
#
#
#
# Elastic Constant Matrix: (Units=GPa)
#
#
# Indices 1 2 3 4 5 6 
#
# 1 196.8021 84.3494 76.4413 3.6399 -44.6564 -8.8760
# 2 84.3494 244.2485 75.6749 -7.9718 -18.7954 2.2056
# 3 76.4413 75.6749 112.3217 -35.0190 -23.7955 12.0774
# 4 3.6399 -7.9718 -35.0190 52.6778 0.7232 -6.6816
# 5 -44.6564 -18.7954 -23.7955 0.7232 59.8022 -15.2962
# 6 -8.8760 2.2056 12.0774 -6.6816 -15.2962 69.5155
#
#
#
# Elastic Compliance Matrix: (Units=1/GPa)
#
#
# Indices 1 2 3 4 5 6 
#
# 1 0.009369 -0.001045 -0.006438 -0.004776 0.004925 0.002973
# 2 -0.001045 0.005463 -0.003509 -0.001419 -0.000424 0.000073
# 3 -0.006438 -0.003509 0.020281 0.013037 0.001313 -0.002692
# 4 -0.004776 -0.001419 0.013037 0.027756 0.000846 0.000024
# 5 0.004925 -0.000424 0.001313 0.000846 0.022152 0.005370
# 6 0.002973 0.000073 -0.002692 0.000024 0.005370 0.016414
#
#
# Mechanical properties :
#
#
# Convention : Reuss Voigt Hill
#
# Bulk Modulus (GPa) = 76.16816 114.03376 95.10096
# Shear Modulus (GPa) = 39.12491 57.52621 48.32556
#
# Velocity S-wave (km/s) = 3.84021 4.65652 4.26792
# Velocity P-wave (km/s) = 6.95505 8.47899 7.75455
#
# Compressibility (1/GPa) = 0.01312884
#
# Stress axis : x y z
#
# Youngs Moduli (GPa) = 106.72990 183.05798 49.30749
#
# Poissons Ratio (x) = 0.19126 0.31743
# Poissons Ratio (y) = 0.11151 0.17304
# Poissons Ratio (z) = 0.68711 0.64244
#
# Static dielectric constant tensor:
#      x y z
#    x 2.092530 0.005760 0.049460 
#    y 0.005760 2.062800 -0.019700 
#    z 0.049460 -0.019700 2.313990 
# 
# From -- ./inp_files/91844.got.cif
#   From: 2010.05.17/outbox.cif.g08.bks.cpg/sg2_46_cif.got.tgz:91844.got - 2010.06.03 11:33:40.
