data_PCOD9062944
_publ_section_title
;
Structure prediction by ZEFSAII (Michael W. Deem and Ramdas Pophale) SiO2 
 PCOD9062944
Probable space group: P -1
;
_chemical_formula_sum "Si O2"
_cell_formula_units_Z 16
_cell_length_a 9.237355
_cell_length_b 18.028127
_cell_length_c 5.677442
_cell_angle_alpha 54.806963
_cell_angle_beta 98.560292
_cell_angle_gamma 92.704806
_cell_volume 763.178343
_symmetry_space_group_name_H-M "P -1"
_symmetry_group_IT_number 2
_symmetry_cell_setting 'triclinic'
loop_
_space_group_symop_operation_xyz
x,y,z
-x,-y,-z
loop_
_atom_site_type_symbol
_atom_site_label
_atom_site_fract_x
_atom_site_fract_y
_atom_site_fract_z
Si Si1 0.038474 0.892021 0.210044
Si Si2 0.398894 0.200190 0.334075
Si Si3 0.368702 0.929228 0.199083
Si Si4 0.641830 0.282109 0.900845
Si Si5 0.703743 0.984769 0.475842
Si Si6 0.921531 0.140749 0.219272
Si Si7 0.417630 0.364786 0.306404
Si Si8 0.613527 0.461229 0.792133
O O1 0.995683 0.850570 0.526448
O O2 0.214760 0.880840 0.266900
O O3 0.991738 0.854241 0.015167
O O4 0.000000 0.000000 0.000000
O O5 0.302439 0.123974 0.334664
O O6 0.331091 0.287920 0.291148
O O7 0.499359 0.144263 0.648856
O O8 0.521328 0.234896 0.120416
O O9 0.369751 0.981555 0.356318
O O10 0.361417 0.983884 0.853133
O O11 0.540596 0.317282 0.594278
O O12 0.701125 0.374737 0.860405
O O13 0.780080 0.211438 0.036819
O O14 0.851903 0.040591 0.403705
O O15 0.322710 0.446559 0.259233
O O16 0.515064 0.414974 0.048221
O O17 0.500000 0.500000 0.500000
#
# Coordination Sequence:
#
# PCOD9062944 Si02
#       8
#     2   2   2   2   2   2   2   2
#     4  10  19  33  48  62  85 118 151 192 231 265
#     4  11  19  26  42  61  88 123 153 182 211 253
#     4  10  20  31  42  63  88 117 157 184 221 256
#     4  10  18  27  43  61  87 118 155 187 215 258
#     4  10  20  29  42  61  91 120 150 188 210 250
#     4  10  20  32  45  69  89 117 157 182 223 263
#     4   9  17  27  41  58  82 117 158 179 216 257
#     4   8  16  29  40  57  81 114 153 184 219 252
#
# _framework density 20.964955
#
# number of rings (size 3 to 8) (size 9 to 14) (size 15 to 20)
#    0.000    2.250    2.500    2.625    3.500    0.000 
#    0.000    0.000    0.000    0.000    0.000    0.000 
#    0.000    0.000    0.000   27.000    9.000    0.000 
#
# Total GULP energy -89073.149685 kJ/mol
# GULP energy per Si atom -5567.071855 kJ/mol
# Density = 2.091724 g / cm^3
# Si number density = 20.964955 Si / 1000 Ang^3
#
#
#
# Elastic Constant Matrix: (Units=GPa)
#
#
# Indices 1 2 3 4 5 6 
#
# 1 31.8089 21.4923 13.7248 -2.6411 5.4710 -8.1183
# 2 21.4923 188.0398 43.7398 -8.5239 -1.2087 -8.9985
# 3 13.7248 43.7398 136.1399 26.0766 -2.0062 -3.9331
# 4 -2.6411 -8.5239 26.0766 46.2998 -7.2732 -4.1673
# 5 5.4710 -1.2087 -2.0062 -7.2732 18.7905 2.0983
# 6 -8.1183 -8.9985 -3.9331 -4.1673 2.0983 19.7298
#
#
#
# Elastic Compliance Matrix: (Units=1/GPa)
#
#
# Indices 1 2 3 4 5 6 
#
# 1 0.042083 -0.003086 -0.003579 0.003288 -0.013496 0.017325
# 2 -0.003086 0.006386 -0.002179 0.002672 0.001936 0.001567
# 3 -0.003579 -0.002179 0.009533 -0.006182 -0.000267 -0.001843
# 4 0.003288 0.002672 -0.006182 0.027670 0.008564 0.006272
# 5 -0.013496 0.001936 -0.000267 0.008564 0.061616 -0.009467
# 6 0.017325 0.001567 -0.001843 0.006272 -0.009467 0.060492
#
#
# Mechanical properties :
#
#
# Convention : Reuss Voigt Hill
#
# Bulk Modulus (GPa) = 24.80489 57.10026 40.95257
# Shear Modulus (GPa) = 20.92874 35.43281 28.18078
#
# Velocity S-wave (km/s) = 3.16297 4.11554 3.67029
# Velocity P-wave (km/s) = 5.01961 7.06249 6.12679
#
# Compressibility (1/GPa) = 0.04031464
#
# Stress axis : x y z
#
# Youngs Moduli (GPa) = 23.76257 156.59126 104.89715
#
# Poissons Ratio (x) = 0.48325 0.37544
# Poissons Ratio (y) = 0.07333 0.22853
# Poissons Ratio (z) = 0.08505 0.34115
#
# Static dielectric constant tensor:
#      x y z
#    x 1.764810 -0.000740 0.002460 
#    y -0.000740 1.906940 0.030310 
#    z 0.002460 0.030310 1.840830 
# 
# From -- ./inp_files/66864.got.cif
#   From: 2010.05.17/outbox.cif.g08.bks.cpg/sg2_34_cif.got.tgz:66864.got - 2010.06.03 11:33:40.
