data_PCOD9062647
_publ_section_title
;
Structure prediction by ZEFSAII (Michael W. Deem and Ramdas Pophale) SiO2 
 PCOD9062647
Probable space group: P -1
;
_chemical_formula_sum "Si O2"
_cell_formula_units_Z 16
_cell_length_a 32.760329
_cell_length_b 5.149420
_cell_length_c 9.832407
_cell_angle_alpha 100.129606
_cell_angle_beta 26.412405
_cell_angle_gamma 104.444055
_cell_volume 710.152601
_symmetry_space_group_name_H-M "P -1"
_symmetry_group_IT_number 2
_symmetry_cell_setting 'triclinic'
loop_
_space_group_symop_operation_xyz
x,y,z
-x,-y,-z
loop_
_atom_site_type_symbol
_atom_site_label
_atom_site_fract_x
_atom_site_fract_y
_atom_site_fract_z
Si Si1 0.084972 0.526087 0.353584
Si Si2 0.641392 0.904711 0.389924
Si Si3 0.716196 0.454381 0.637526
Si Si4 0.020137 0.281208 0.812828
Si Si5 0.817874 0.999518 0.713119
Si Si6 0.180805 0.937346 0.571645
Si Si7 0.710252 0.508171 0.341839
Si Si8 0.522961 0.235067 0.339589
O O1 0.000000 0.500000 0.500000
O O2 0.039527 0.383769 0.612209
O O3 0.130330 0.827113 0.300121
O O4 0.176612 0.420782 0.017110
O O5 0.658978 0.733073 0.453120
O O6 0.542166 0.837105 0.605989
O O7 0.669708 0.223463 0.363297
O O8 0.718186 0.843230 0.047337
O O9 0.792678 0.273489 0.420151
O O10 0.692777 0.459495 0.548724
O O11 0.753561 0.767776 0.590574
O O12 0.629073 0.311158 0.976486
O O13 0.113199 0.181364 0.562775
O O14 0.926432 0.050318 0.075655
O O15 0.000000 0.500000 0.000000
O O16 0.807359 0.172831 0.626690
O O17 0.500000 0.500000 0.500000
O O18 0.500000 0.000000 0.500000
#
# Coordination Sequence:
#
# PCOD9062647 Si02
#       8
#     2   2   2   2   2   2   2   2
#     4  11  25  42  65  96 144 191 243 293 351 426
#     4  11  24  45  73  99 142 189 233 296 355 432
#     4  12  27  47  71 107 143 183 238 301 359 428
#     4  12  24  42  67 100 137 191 247 291 353 425
#     4  11  24  42  65  99 138 183 241 291 353 428
#     4  12  26  42  72 100 147 187 235 301 358 412
#     4  11  25  46  68 102 143 193 239 284 365 430
#     4  12  26  47  77 111 139 180 238 297 370 432
#
# _framework density 22.530370000000001
#
# number of rings (size 3 to 8) (size 9 to 14) (size 15 to 20)
#    0.000    0.500    2.500    5.625    3.500    3.500 
#    0.000    0.000    0.000    0.000    0.000    0.000 
#    0.000    0.000    0.000    0.000    0.000    0.000 
#
# Total GULP energy -89527.465122 kJ/mol
# GULP energy per Si atom -5595.466570 kJ/mol
# Density = 2.247909 g / cm^3
# Si number density = 22.530370 Si / 1000 Ang^3
#
#
#
# Elastic Constant Matrix: (Units=GPa)
#
#
# Indices 1 2 3 4 5 6 
#
# 1 100.5699 14.8256 1.6603 -16.9145 6.0162 -8.5921
# 2 14.8256 70.6503 19.8336 -19.0130 -7.3348 -9.3484
# 3 1.6603 19.8336 81.0600 -10.7621 14.0140 6.2236
# 4 -16.9145 -19.0130 -10.7621 27.8636 -2.9313 1.1326
# 5 6.0162 -7.3348 14.0140 -2.9313 42.3344 -11.8971
# 6 -8.5921 -9.3484 6.2236 1.1326 -11.8971 37.3527
#
#
#
# Elastic Compliance Matrix: (Units=1/GPa)
#
#
# Indices 1 2 3 4 5 6 
#
# 1 0.011351 -0.000756 0.000876 0.006527 -0.001096 0.001729
# 2 -0.000756 0.021374 -0.005777 0.012492 0.009013 0.008630
# 3 0.000876 -0.005777 0.015917 0.002153 -0.008082 -0.006536
# 4 0.006527 0.012492 0.002153 0.049574 0.005199 0.004422
# 5 -0.001096 0.009013 -0.008082 0.005199 0.032149 0.013432
# 6 0.001729 0.008630 -0.006536 0.004422 0.013432 0.034562
#
#
# Mechanical properties :
#
#
# Convention : Reuss Voigt Hill
#
# Bulk Modulus (GPa) = 26.78919 36.10215 31.44567
# Shear Modulus (GPa) = 26.49920 35.90753 31.20336
#
# Velocity S-wave (km/s) = 3.43323 3.99650 3.72552
# Velocity P-wave (km/s) = 5.25663 6.11184 5.70029
#
# Compressibility (1/GPa) = 0.03732850
#
# Stress axis : x y z
#
# Youngs Moduli (GPa) = 88.09413 46.78592 62.82626
#
# Poissons Ratio (x) = 0.03539 -0.05504
# Poissons Ratio (y) = 0.06664 0.36292
# Poissons Ratio (z) = -0.07717 0.27026
#
# Static dielectric constant tensor:
#      x y z
#    x 1.913620 -0.021770 0.011090 
#    y -0.021770 1.904600 -0.026580 
#    z 0.011090 -0.026580 1.859060 
# 
# From -- ./inp_files/138578.got.cif
#   From: 2010.05.17/outbox.cif.g08.bks.cpg/sg2_70_cif.got.tgz:138578.got - 2010.06.03 11:33:40.
