data_PCOD9062990
_publ_section_title
;
Structure prediction by ZEFSAII (Michael W. Deem and Ramdas Pophale) SiO2 
 PCOD9062990
Probable space group: P -1
;
_chemical_formula_sum "Si O2"
_cell_formula_units_Z 16
_cell_length_a 13.859754
_cell_length_b 9.180153
_cell_length_c 11.642962
_cell_angle_alpha 95.451157
_cell_angle_beta 148.649568
_cell_angle_gamma 74.493448
_cell_volume 715.927491
_symmetry_space_group_name_H-M "P -1"
_symmetry_group_IT_number 2
_symmetry_cell_setting 'triclinic'
loop_
_space_group_symop_operation_xyz
x,y,z
-x,-y,-z
loop_
_atom_site_type_symbol
_atom_site_label
_atom_site_fract_x
_atom_site_fract_y
_atom_site_fract_z
Si Si1 0.501858 0.766596 0.702475
Si Si2 0.768573 0.532608 0.774261
Si Si3 0.653839 0.498706 0.400022
Si Si4 0.713415 0.002795 0.681384
Si Si5 0.884824 0.221886 0.000203
Si Si6 0.948498 0.364041 0.499841
Si Si7 0.325263 0.065988 0.920149
Si Si8 0.284873 0.745711 0.927717
O O1 0.656584 0.674639 0.754799
O O2 0.437724 0.637924 0.692860
O O3 0.319352 0.891071 0.458321
O O4 0.594783 0.857575 0.888914
O O5 0.680575 0.551532 0.559139
O O6 0.759438 0.375658 0.812914
O O7 0.000000 0.500000 0.000000
O O8 0.863170 0.424870 0.543121
O O9 0.505041 0.641681 0.186721
O O10 0.887337 0.840179 0.814949
O O11 0.500000 0.000000 0.500000
O O12 0.797492 0.087039 0.870596
O O13 0.857061 0.255062 0.109254
O O14 0.778239 0.330545 0.251723
O O15 0.000000 0.500000 0.500000
O O16 0.136820 0.204015 0.686733
O O17 0.268993 0.920748 0.895578
O O18 0.500000 0.000000 0.000000
#
# Coordination Sequence:
#
# PCOD9062990 Si02
#       8
#     2   2   2   2   2   2   2   2
#     4  12  24  45  72 103 144 188 242 296 366 437
#     4  12  25  44  73 108 147 193 241 302 367 440
#     4  12  25  47  77 105 147 190 242 303 368 441
#     4  11  24  43  68 105 149 194 241 299 370 441
#     4  11  25  44  70 109 151 192 246 302 370 445
#     4  12  28  49  76 108 142 189 247 301 367 442
#     4  12  28  48  74 107 143 192 248 304 372 438
#     4  12  26  47  74 103 149 191 240 303 368 434
#
# _framework density 22.348631000000001
#
# number of rings (size 3 to 8) (size 9 to 14) (size 15 to 20)
#    0.000    0.250    2.500    6.375    5.250    2.000 
#    0.000    0.000    0.000    0.000    0.000    0.000 
#    0.000    0.000    0.000    0.000    0.000    0.000 
#
# Total GULP energy -89694.177964 kJ/mol
# GULP energy per Si atom -5605.886123 kJ/mol
# Density = 2.229776 g / cm^3
# Si number density = 22.348631 Si / 1000 Ang^3
#
#
#
# Elastic Constant Matrix: (Units=GPa)
#
#
# Indices 1 2 3 4 5 6 
#
# 1 122.9129 40.9339 31.6308 -3.8572 6.0273 -19.3210
# 2 40.9339 121.1810 45.5913 -11.4300 -7.1383 0.3939
# 3 31.6308 45.5913 101.4788 -20.3238 -2.3968 -8.2069
# 4 -3.8572 -11.4300 -20.3238 54.4649 -1.7852 -0.1709
# 5 6.0273 -7.1383 -2.3968 -1.7852 42.0543 -1.3320
# 6 -19.3210 0.3939 -8.2069 -0.1709 -1.3320 48.1364
#
#
#
# Elastic Compliance Matrix: (Units=1/GPa)
#
#
# Indices 1 2 3 4 5 6 
#
# 1 0.010250 -0.003007 -0.001703 -0.000594 -0.001982 0.003791
# 2 -0.003007 0.010944 -0.003952 0.000670 0.002031 -0.001912
# 3 -0.001703 -0.003952 0.013097 0.003960 0.000539 0.001611
# 4 -0.000594 0.000670 0.003960 0.019981 0.001290 0.000538
# 5 -0.001982 0.002031 0.000539 0.001290 0.024492 -0.000038
# 6 0.003791 -0.001912 0.001611 0.000538 -0.000038 0.022587
#
#
# Mechanical properties :
#
#
# Convention : Reuss Voigt Hill
#
# Bulk Modulus (GPa) = 58.93910 64.65385 61.79647
# Shear Modulus (GPa) = 40.21591 44.09223 42.15407
#
# Velocity S-wave (km/s) = 4.24663 4.44658 4.34776
# Velocity P-wave (km/s) = 7.10457 7.44011 7.27428
#
# Compressibility (1/GPa) = 0.01696667
#
# Stress axis : x y z
#
# Youngs Moduli (GPa) = 97.56123 91.37788 76.35518
#
# Poissons Ratio (x) = 0.27474 0.13005
# Poissons Ratio (y) = 0.29333 0.30175
# Poissons Ratio (z) = 0.16617 0.36112
#
# Static dielectric constant tensor:
#      x y z
#    x 1.812420 0.017910 0.015710 
#    y 0.017910 1.851500 -0.007690 
#    z 0.015710 -0.007690 1.795430 
# 
# From -- ./inp_files/188218.got.cif
#   From: 2010.05.17/outbox.cif.g08.bks.cpg/sg2_95_cif.got.tgz:188218.got - 2010.06.03 11:33:40.
