data_PCOD9062766
_publ_section_title
;
Structure prediction by ZEFSAII (Michael W. Deem and Ramdas Pophale) SiO2 
 PCOD9062766
Probable space group: P -1
;
_chemical_formula_sum "Si O2"
_cell_formula_units_Z 16
_cell_length_a 12.049626
_cell_length_b 5.332858
_cell_length_c 14.452643
_cell_angle_alpha 84.027006
_cell_angle_beta 129.278903
_cell_angle_gamma 113.891238
_cell_volume 641.885230
_symmetry_space_group_name_H-M "P -1"
_symmetry_group_IT_number 2
_symmetry_cell_setting 'triclinic'
loop_
_space_group_symop_operation_xyz
x,y,z
-x,-y,-z
loop_
_atom_site_type_symbol
_atom_site_label
_atom_site_fract_x
_atom_site_fract_y
_atom_site_fract_z
Si Si1 0.835210 0.918297 0.279969
Si Si2 0.822953 0.896310 0.610090
Si Si3 0.867634 0.609980 0.831159
Si Si4 0.185580 0.628553 0.625263
Si Si5 0.342931 0.935538 0.359829
Si Si6 0.228622 0.865178 0.958335
Si Si7 0.569874 0.470830 0.360881
Si Si8 0.672585 0.575614 0.903094
O O1 0.785191 0.077228 0.325825
O O2 0.790522 0.019274 0.156414
O O3 0.027978 0.041134 0.377484
O O4 0.789306 0.590326 0.283265
O O5 0.849702 0.766187 0.723902
O O6 0.665289 0.696798 0.479989
O O7 0.794969 0.146851 0.631374
O O8 0.736514 0.294018 0.751976
O O9 0.817940 0.679687 0.901422
O O10 0.054162 0.687516 0.919943
O O11 0.310033 0.648580 0.610217
O O12 0.000000 0.500000 0.500000
O O13 0.500000 0.000000 0.500000
O O14 0.413080 0.230457 0.332885
O O15 0.308221 0.651352 0.011549
O O16 0.320339 0.148973 0.054369
O O17 0.493077 0.570603 0.233927
#
# Coordination Sequence:
#
# PCOD9062766 Si02
#       8
#     2   2   2   2   2   2   2   2
#     4  11  27  49  78 105 142 188 255 303 359 423
#     4  11  24  42  70 109 147 188 229 306 375 447
#     4  11  24  42  70 105 150 194 239 293 365 443
#     4  12  27  50  75 113 142 191 244 307 365 439
#     4  12  24  39  68 110 151 191 224 293 386 450
#     4  11  27  47  75 102 147 199 255 294 352 430
#     4  12  26  46  71 108 156 188 244 301 377 439
#     4  12  25  46  69 109 147 200 244 299 357 435
#
# _framework density 24.926573000000001
#
# number of rings (size 3 to 8) (size 9 to 14) (size 15 to 20)
#    0.000    0.500    3.750    3.750    8.750    2.000 
#    0.000    3.750    0.000    0.000    0.000    0.000 
#    0.000    0.000    0.000    0.000    0.000    0.000 
#
# Total GULP energy -89451.992195 kJ/mol
# GULP energy per Si atom -5590.749512 kJ/mol
# Density = 2.486984 g / cm^3
# Si number density = 24.926573 Si / 1000 Ang^3
#
#
#
# Elastic Constant Matrix: (Units=GPa)
#
#
# Indices 1 2 3 4 5 6 
#
# 1 104.6745 8.5510 -6.8133 0.0818 5.7652 -18.8461
# 2 8.5510 91.0192 23.7428 -16.0604 6.6664 3.2788
# 3 -6.8133 23.7428 49.5455 -37.9577 1.6890 -2.0135
# 4 0.0818 -16.0604 -37.9577 35.5522 -10.4552 -8.3129
# 5 5.7652 6.6664 1.6890 -10.4552 27.7509 0.2046
# 6 -18.8461 3.2788 -2.0135 -8.3129 0.2046 29.2195
#
#
#
# Elastic Compliance Matrix: (Units=1/GPa)
#
#
# Indices 1 2 3 4 5 6 
#
# 1 0.001668 0.005423 -0.064707 -0.081191 -0.028102 -0.026894
# 2 0.005423 0.007610 0.044476 0.061387 0.017296 0.023052
# 3 -0.064707 0.044476 -0.444488 -0.562593 -0.180406 -0.236149
# 4 -0.081191 0.061387 -0.562593 -0.675668 -0.216069 -0.288737
# 5 -0.028102 0.017296 -0.180406 -0.216069 -0.032015 -0.093745
# 6 -0.026894 0.023052 -0.236149 -0.288737 -0.093745 -0.083471
#
#
# Mechanical properties :
#
#
# Convention : Reuss Voigt Hill
#
# Bulk Modulus (GPa) = -2.15134 32.91114 15.37990
# Shear Modulus (GPa) = -3.69907 33.15511 14.72802
#
# Velocity S-wave (km/s) = -1.21951 3.65103 2.43339
# Velocity P-wave (km/s) = 1.68757 5.56823 3.75215
#
# Compressibility (1/GPa) = -0.46482596
#
# Stress axis : x y z
#
# Youngs Moduli (GPa) = 599.62375 131.40507 -2.24978
#
# Poissons Ratio (x) = -0.71262 -0.14558
# Poissons Ratio (y) = -3.25182 0.10006
# Poissons Ratio (z) = 38.79971 -5.84435
#
# Static dielectric constant tensor:
#      x y z
#    x 1.974360 -0.010960 0.040050 
#    y -0.010960 2.020990 -0.108880 
#    z 0.040050 -0.108880 1.952650 
# 
# From -- ./inp_files/511041.got.cif
#   From: 2010.05.17/outbox.cif.g08.bks.cpg/sg2_256_cif.got.tgz:511041.got - 2010.06.03 11:33:40.
