data_PCOD9062666
_publ_section_title
;
Structure prediction by ZEFSAII (Michael W. Deem and Ramdas Pophale) SiO2 
 PCOD9062666
Probable space group: P -1
;
_chemical_formula_sum "Si O2"
_cell_formula_units_Z 14
_cell_length_a 13.717635
_cell_length_b 15.109895
_cell_length_c 5.087172
_cell_angle_alpha 99.496135
_cell_angle_beta 120.205032
_cell_angle_gamma 42.018600
_cell_volume 568.866187
_symmetry_space_group_name_H-M "P -1"
_symmetry_group_IT_number 2
_symmetry_cell_setting 'triclinic'
loop_
_space_group_symop_operation_xyz
x,y,z
-x,-y,-z
loop_
_atom_site_type_symbol
_atom_site_label
_atom_site_fract_x
_atom_site_fract_y
_atom_site_fract_z
Si Si1 0.158986 0.243115 0.565672
Si Si2 0.334125 0.305477 0.583326
Si Si3 0.082207 0.608106 0.183861
Si Si4 0.373836 0.582872 0.616195
Si Si5 0.377679 0.774573 0.813011
Si Si6 0.903853 0.018618 0.123077
Si Si7 0.325580 0.965749 0.430276
O O1 0.251772 0.279756 0.641025
O O2 0.079058 0.288965 0.772229
O O3 0.293377 0.080311 0.583840
O O4 0.994713 0.337256 0.185662
O O5 0.188785 0.448802 0.288617
O O6 0.490911 0.162228 0.547629
O O7 0.418145 0.330249 0.900826
O O8 0.220221 0.604180 0.420207
O O9 0.500000 0.500000 0.500000
O O10 0.309361 0.724706 0.578668
O O11 0.500000 0.500000 0.000000
O O12 0.319236 0.895273 0.619392
O O13 0.295084 0.822485 0.016732
O O14 0.000000 0.000000 0.500000
O O15 0.846911 0.951162 0.949832
O O16 0.000000 0.000000 0.000000
#
# Coordination Sequence:
#
# PCOD9062666 Si02
#       7
#     2   2   2   2   2   2   2
#     4  12  30  48  76 113 149 192 250 316 362 432
#     4  11  26  51  77 105 149 202 251 299 369 445
#     4  12  28  50  77 111 150 192 250 306 378 426
#     4  12  26  47  73 108 147 193 247 298 363 450
#     4  11  26  44  78 106 147 197 248 298 372 444
#     4  11  24  42  67 100 149 188 235 295 370 425
#     4  11  27  47  76 111 148 199 249 297 375 444
#
# _framework density 24.610354999999998
#
# number of rings (size 3 to 8) (size 9 to 14) (size 15 to 20)
#    0.000    0.571    2.857    3.000   14.000    0.571 
#    0.000    0.000    0.000    0.000    0.000    0.000 
#    0.000    0.000    0.000    0.000    0.000    0.000 
#
# Total GULP energy -78280.318317 kJ/mol
# GULP energy per Si atom -5591.451308 kJ/mol
# Density = 2.455434 g / cm^3
# Si number density = 24.610355 Si / 1000 Ang^3
#
#
#
# Elastic Constant Matrix: (Units=GPa)
#
#
# Indices 1 2 3 4 5 6 
#
# 1 152.2534 46.4113 10.6121 11.3652 10.0443 -2.6949
# 2 46.4113 108.7129 -10.0751 3.8054 2.0075 4.6896
# 3 10.6121 -10.0751 69.4719 -2.2469 -8.3043 -2.6994
# 4 11.3652 3.8054 -2.2469 30.8426 3.2474 -7.5434
# 5 10.0443 2.0075 -8.3043 3.2474 49.4745 5.0381
# 6 -2.6949 4.6896 -2.6994 -7.5434 5.0381 46.7529
#
#
#
# Elastic Compliance Matrix: (Units=1/GPa)
#
#
# Indices 1 2 3 4 5 6 
#
# 1 0.008091 -0.003547 -0.002015 -0.002384 -0.001732 0.000508
# 2 -0.003547 0.010966 0.002166 -0.000292 0.000792 -0.001312
# 3 -0.002015 0.002166 0.015412 0.001426 0.002765 0.000489
# 4 -0.002384 -0.000292 0.001426 0.035105 -0.002167 0.005872
# 5 -0.001732 0.000792 0.002765 -0.002167 0.021411 -0.002676
# 6 0.000508 -0.001312 0.000489 0.005872 -0.002676 0.022814
#
#
# Mechanical properties :
#
#
# Convention : Reuss Voigt Hill
#
# Bulk Modulus (GPa) = 36.13079 47.14831 41.63955
# Shear Modulus (GPa) = 38.51601 44.31333 41.41467
#
# Velocity S-wave (km/s) = 3.96034 4.24795 4.10666
# Velocity P-wave (km/s) = 5.96870 6.57720 6.28033
#
# Compressibility (1/GPa) = 0.02767723
#
# Stress axis : x y z
#
# Youngs Moduli (GPa) = 123.59439 91.19149 64.88521
#
# Poissons Ratio (x) = 0.32349 0.13073
# Poissons Ratio (y) = 0.43843 -0.14057
# Poissons Ratio (z) = 0.24902 -0.19756
#
# Static dielectric constant tensor:
#      x y z
#    x 1.871280 -0.112170 0.009590 
#    y -0.112170 0.890090 -0.140610 
#    z 0.009590 -0.140610 2.051400 
# 
# From -- ./inp_files/98538.got.cif
#   From: 2010.05.17/outbox.cif.g08.bks.cpg/sg2_50_cif.got.tgz:98538.got - 2010.06.03 11:33:40.
