data_PCOD9062706
_publ_section_title
;
Structure prediction by ZEFSAII (Michael W. Deem and Ramdas Pophale) SiO2 
 PCOD9062706
Probable space group: P -1
;
_chemical_formula_sum "Si O2"
_cell_formula_units_Z 16
_cell_length_a 5.917302
_cell_length_b 28.552267
_cell_length_c 13.057963
_cell_angle_alpha 152.971182
_cell_angle_beta 48.626647
_cell_angle_gamma 129.862695
_cell_volume 743.488634
_symmetry_space_group_name_H-M "P -1"
_symmetry_group_IT_number 2
_symmetry_cell_setting 'triclinic'
loop_
_space_group_symop_operation_xyz
x,y,z
-x,-y,-z
loop_
_atom_site_type_symbol
_atom_site_label
_atom_site_fract_x
_atom_site_fract_y
_atom_site_fract_z
Si Si1 0.196738 0.997080 0.146531
Si Si2 0.466611 0.298333 0.063602
Si Si3 0.954883 0.598280 0.773467
Si Si4 0.832172 0.169995 0.554557
Si Si5 0.705890 0.813609 0.907520
Si Si6 0.444268 0.540569 0.984189
Si Si7 0.295763 0.973673 0.302340
Si Si8 0.058677 0.324850 0.603992
O O1 0.230896 0.956632 0.170282
O O2 0.088863 0.108677 0.403605
O O3 0.950911 0.913564 0.001250
O O4 0.500000 0.000000 0.000000
O O5 0.239319 0.340648 0.131113
O O6 0.257657 0.227439 0.069281
O O7 0.712837 0.362789 0.196355
O O8 0.687225 0.239760 0.814900
O O9 0.731718 0.573351 0.889004
O O10 0.000000 0.500000 0.500000
O O11 0.985669 0.241806 0.556222
O O12 0.557687 0.075609 0.427752
O O13 0.766406 0.726957 0.639002
O O14 0.400671 0.867355 0.105177
O O15 0.253329 0.437398 0.789350
O O16 0.500000 0.500000 0.000000
O O17 0.268505 0.639001 0.246939
O O18 0.000000 0.000000 0.500000
#
# Coordination Sequence:
#
# PCOD9062706 Si02
#       8
#     2   2   2   2   2   2   2   2
#     4  11  24  42  68  98 142 182 236 296 357 421
#     4  12  27  46  76 105 143 193 237 296 365 429
#     4  12  28  49  74 106 146 187 245 300 363 428
#     4  11  24  44  68 102 138 188 236 294 357 434
#     4  11  26  42  68 105 137 187 237 293 357 430
#     4  11  26  44  71 100 136 187 231 304 357 426
#     4  11  24  42  68  98 144 180 234 293 354 422
#     4  11  24  45  67  98 141 175 245 288 366 425
#
# _framework density 21.520167000000001
#
# number of rings (size 3 to 8) (size 9 to 14) (size 15 to 20)
#    0.000    0.750    1.250    4.875    8.750    8.000 
#    0.000    0.000    0.000    0.000    0.000    0.000 
#    0.000    0.000    0.000    0.000    0.000    0.000 
#
# Total GULP energy -89238.572744 kJ/mol
# GULP energy per Si atom -5577.410796 kJ/mol
# Density = 2.147119 g / cm^3
# Si number density = 21.520167 Si / 1000 Ang^3
#
#
#
# Elastic Constant Matrix: (Units=GPa)
#
#
# Indices 1 2 3 4 5 6 
#
# 1 75.3203 24.2604 25.7503 2.6499 -2.0845 -8.5638
# 2 24.2604 113.9378 14.9673 -17.9528 -9.6740 -11.0229
# 3 25.7503 14.9673 112.5575 -26.1012 -5.3896 -10.0287
# 4 2.6499 -17.9528 -26.1012 36.7819 2.9993 -4.2834
# 5 -2.0845 -9.6740 -5.3896 2.9993 26.8043 -0.1161
# 6 -8.5638 -11.0229 -10.0287 -4.2834 -0.1161 40.4927
#
#
#
# Elastic Compliance Matrix: (Units=1/GPa)
#
#
# Indices 1 2 3 4 5 6 
#
# 1 0.016380 -0.003832 -0.004650 -0.006252 -0.000342 0.000607
# 2 -0.003832 0.011071 0.001433 0.006816 0.003238 0.003289
# 3 -0.004650 0.001433 0.012519 0.010211 0.001546 0.003592
# 4 -0.006252 0.006816 0.010211 0.039074 -0.000314 0.007194
# 5 -0.000342 0.003238 0.001546 -0.000314 0.038801 0.001270
# 6 0.000607 0.003289 0.003592 0.007194 0.001270 0.027374
#
#
# Mechanical properties :
#
#
# Convention : Reuss Voigt Hill
#
# Bulk Modulus (GPa) = 38.65026 47.97463 43.31244
# Shear Modulus (GPa) = 29.77234 36.60497 33.18866
#
# Velocity S-wave (km/s) = 3.72353 4.12875 3.93136
# Velocity P-wave (km/s) = 6.04030 6.71342 6.38573
#
# Compressibility (1/GPa) = 0.02587305
#
# Stress axis : x y z
#
# Youngs Moduli (GPa) = 61.04958 90.32243 79.87639
#
# Poissons Ratio (x) = 0.34614 0.37140
# Poissons Ratio (y) = 0.23396 -0.11447
# Poissons Ratio (z) = 0.28386 -0.12944
#
# Static dielectric constant tensor:
#      x y z
#    x 1.903800 0.012820 -0.037150 
#    y 0.012820 1.852190 0.141900 
#    z -0.037150 0.141900 1.855800 
# 
# From -- ./inp_files/323555.got.cif
#   From: 2010.05.17/outbox.cif.g08.bks.cpg/sg2_162_cif.got.tgz:323555.got - 2010.06.03 11:33:40.
