data_PCOD9062923
_publ_section_title
;
Structure prediction by ZEFSAII (Michael W. Deem and Ramdas Pophale) SiO2 
 PCOD9062923
Probable space group: P -1
;
_chemical_formula_sum "Si O2"
_cell_formula_units_Z 14
_cell_length_a 8.846354
_cell_length_b 16.859732
_cell_length_c 5.269006
_cell_angle_alpha 76.161295
_cell_angle_beta 118.745429
_cell_angle_gamma 120.708782
_cell_volume 592.373446
_symmetry_space_group_name_H-M "P -1"
_symmetry_group_IT_number 2
_symmetry_cell_setting 'triclinic'
loop_
_space_group_symop_operation_xyz
x,y,z
-x,-y,-z
loop_
_atom_site_type_symbol
_atom_site_label
_atom_site_fract_x
_atom_site_fract_y
_atom_site_fract_z
Si Si1 0.788288 0.877538 0.166293
Si Si2 0.775465 0.649061 0.035792
Si Si3 0.692264 0.496704 0.744132
Si Si4 0.454685 0.685172 0.039291
Si Si5 0.964185 0.401044 0.432617
Si Si6 0.634046 0.023755 0.844262
Si Si7 0.038151 0.165311 0.170525
O O1 0.579390 0.790815 0.128794
O O2 0.923622 0.880143 0.510915
O O3 0.748764 0.962825 0.007142
O O4 0.869475 0.856757 0.987772
O O5 0.607371 0.658460 0.043400
O O6 0.964903 0.668133 0.333130
O O7 0.714181 0.543169 0.000629
O O8 0.843254 0.722945 0.805330
O O9 0.500000 0.500000 0.500000
O O10 0.640358 0.390713 0.759349
O O11 0.895073 0.561611 0.727170
O O12 0.265049 0.660255 0.741399
O O13 0.000000 0.500000 0.500000
O O14 0.500000 0.000000 0.500000
O O15 0.500000 0.000000 0.000000
O O16 0.811250 0.126499 0.948959
#
# Coordination Sequence:
#
# PCOD9062923 Si02
#       7
#     2   2   2   2   2   2   2
#     4  11  25  48  73 103 138 190 235 284 355 433
#     4  11  25  43  66  96 136 183 235 289 351 415
#     4  12  22  41  65  91 136 182 231 287 348 413
#     4  11  24  43  66  99 135 181 239 289 352 417
#     4  12  25  41  63  97 135 187 235 295 351 411
#     4  12  26  46  75 112 144 179 228 295 355 421
#     4  11  25  47  75 101 142 188 234 285 357 423
#
# _framework density 23.633742999999999
#
# number of rings (size 3 to 8) (size 9 to 14) (size 15 to 20)
#    0.000    0.571    2.857    5.143    4.000    2.286 
#    0.000    0.000    0.000    0.000    0.000    0.000 
#    0.000    0.000    0.000    0.000    0.000    0.000 
#
# Total GULP energy -78140.160956 kJ/mol
# GULP energy per Si atom -5581.440068 kJ/mol
# Density = 2.357995 g / cm^3
# Si number density = 23.633743 Si / 1000 Ang^3
#
#
#
# Elastic Constant Matrix: (Units=GPa)
#
#
# Indices 1 2 3 4 5 6 
#
# 1 91.7926 -0.2320 34.7316 5.5692 15.4585 -5.6832
# 2 -0.2320 81.2874 6.8627 2.7719 6.2662 19.5361
# 3 34.7316 6.8627 128.8171 -0.6150 23.8776 3.7021
# 4 5.5692 2.7719 -0.6150 39.5640 4.9499 8.3738
# 5 15.4585 6.2662 23.8776 4.9499 49.1044 4.7958
# 6 -5.6832 19.5361 3.7021 8.3738 4.7958 20.4808
#
#
#
# Elastic Compliance Matrix: (Units=1/GPa)
#
#
# Indices 1 2 3 4 5 6 
#
# 1 0.013208 -0.001096 -0.003192 -0.002994 -0.002866 0.007183
# 2 -0.001096 0.016280 -0.000011 0.002617 -0.000348 -0.016819
# 3 -0.003192 -0.000011 0.009341 0.001532 -0.003458 -0.002380
# 4 -0.002994 0.002617 0.001532 0.028922 -0.001581 -0.015059
# 5 -0.002866 -0.000348 -0.003458 -0.001581 0.023613 -0.004721
# 6 0.007183 -0.016819 -0.002380 -0.015059 -0.004721 0.074556
#
#
# Mechanical properties :
#
#
# Convention : Reuss Voigt Hill
#
# Bulk Modulus (GPa) = 33.08064 42.73574 37.90819
# Shear Modulus (GPa) = 27.08621 39.19883 33.14252
#
# Velocity S-wave (km/s) = 3.38906 4.07700 3.74884
# Velocity P-wave (km/s) = 5.41681 6.34700 5.90026
#
# Compressibility (1/GPa) = 0.03022916
#
# Stress axis : x y z
#
# Youngs Moduli (GPa) = 75.71071 61.42615 107.05614
#
# Poissons Ratio (x) = 0.06733 0.34176
# Poissons Ratio (y) = 0.08298 0.00122
# Poissons Ratio (z) = 0.24169 0.00070
#
# Static dielectric constant tensor:
#      x y z
#    x 1.913470 0.063610 0.122290 
#    y 0.063610 1.842620 0.054770 
#    z 0.122290 0.054770 2.427920 
# 
# From -- ./inp_files/44435.got.cif
#   From: 2010.05.17/outbox.cif.g08.bks.cpg/sg2_23_cif.got.tgz:44435.got - 2010.06.03 11:33:40.
