data_PCOD9062505
_publ_section_title
;
Structure prediction by ZEFSAII (Michael W. Deem and Ramdas Pophale) SiO2 
 PCOD9062505
Probable space group: P -1
;
_chemical_formula_sum "Si O2"
_cell_formula_units_Z 12
_cell_length_a 13.022611
_cell_length_b 17.724750
_cell_length_c 7.372219
_cell_angle_alpha 124.798728
_cell_angle_beta 35.898179
_cell_angle_gamma 147.034151
_cell_volume 510.296092
_symmetry_space_group_name_H-M "P -1"
_symmetry_group_IT_number 2
_symmetry_cell_setting 'triclinic'
loop_
_space_group_symop_operation_xyz
x,y,z
-x,-y,-z
loop_
_atom_site_type_symbol
_atom_site_label
_atom_site_fract_x
_atom_site_fract_y
_atom_site_fract_z
Si Si1 0.232440 0.573914 0.469012
Si Si2 0.646425 0.712731 0.762780
Si Si3 0.670546 0.788071 0.418252
Si Si4 0.207097 0.916991 0.878383
Si Si5 0.720710 0.010821 0.730338
Si Si6 0.119998 0.402974 0.096893
O O1 0.418026 0.635922 0.464942
O O2 0.084621 0.423661 0.385990
O O3 0.015367 0.568493 0.783728
O O4 0.461759 0.693508 0.147265
O O5 0.656326 0.760023 0.614111
O O6 0.456004 0.543157 0.788991
O O7 0.959047 0.828975 0.548071
O O8 0.643010 0.885727 0.568909
O O9 0.980965 0.882668 0.040994
O O10 0.028223 0.751557 0.950739
O O11 0.500000 0.000000 0.500000
O O12 0.274723 0.002859 0.078223
O O13 0.500000 0.000000 0.000000
#
# Coordination Sequence:
#
# PCOD9062505 Si02
#       6
#     2   2   2   2   2   2
#     4   9  21  40  66  95 129 172 210 269 323 379
#     4   9  21  42  64  91 135 167 211 274 308 388
#     4  11  24  41  66  98 126 174 219 263 330 375
#     4  11  25  40  67  96 131 170 217 272 319 394
#     4  11  25  42  64  99 128 175 218 264 328 377
#     4   9  21  42  62  97 129 171 217 260 334 373
#
# _framework density 23.51576
#
# number of rings (size 3 to 8) (size 9 to 14) (size 15 to 20)
#    1.000    1.000    0.000    3.000    7.000    4.667 
#    0.000    3.333    0.000    0.000    0.000    0.000 
#    0.000    0.000    0.000    0.000    0.000    0.000 
#
# Total GULP energy -66960.907949 kJ/mol
# GULP energy per Si atom -5580.075662 kJ/mol
# Density = 2.346224 g / cm^3
# Si number density = 23.515760 Si / 1000 Ang^3
#
#
#
# Elastic Constant Matrix: (Units=GPa)
#
#
# Indices 1 2 3 4 5 6 
#
# 1 61.2281 4.7327 1.6884 2.9925 -12.3737 19.9357
# 2 4.7327 72.7808 8.4705 3.8014 -3.8460 1.0852
# 3 1.6884 8.4705 79.5986 -8.3430 -10.0867 -7.4735
# 4 2.9925 3.8014 -8.3430 41.1568 0.8970 -2.0944
# 5 -12.3737 -3.8460 -10.0867 0.8970 34.5658 -2.1556
# 6 19.9357 1.0852 -7.4735 -2.0944 -2.1556 31.2688
#
#
#
# Elastic Compliance Matrix: (Units=1/GPa)
#
#
# Indices 1 2 3 4 5 6 
#
# 1 0.022615 -0.000615 -0.001180 -0.002708 0.006856 -0.014388
# 2 -0.000615 0.014106 -0.001595 -0.001628 0.000893 -0.000526
# 3 -0.001180 -0.001595 0.013997 0.003225 0.003689 0.004624
# 4 -0.002708 -0.001628 0.003225 0.025527 -0.000609 0.004222
# 5 0.006856 0.000893 0.003689 -0.000609 0.032494 -0.001321
# 6 -0.014388 -0.000526 0.004624 0.004222 -0.001321 0.042469
#
#
# Mechanical properties :
#
#
# Convention : Reuss Voigt Hill
#
# Bulk Modulus (GPa) = 22.75930 27.04339 24.90135
# Shear Modulus (GPa) = 28.96313 34.64602 31.80458
#
# Velocity S-wave (km/s) = 3.51329 3.84254 3.68160
# Velocity P-wave (km/s) = 5.11439 5.58676 5.35578
#
# Compressibility (1/GPa) = 0.04393808
#
# Stress axis : x y z
#
# Youngs Moduli (GPa) = 44.21851 70.89405 71.44146
#
# Poissons Ratio (x) = 0.04360 0.08432
# Poissons Ratio (y) = 0.02719 0.11393
# Poissons Ratio (z) = 0.05219 0.11306
#
# Static dielectric constant tensor:
#      x y z
#    x 1.909700 0.006710 0.036480 
#    y 0.006710 1.852420 0.003020 
#    z 0.036480 0.003020 1.950320 
# 
# From -- ./inp_files/318454.got.cif
#   From: 2010.05.17/outbox.cif.g08.bks.cpg/sg2_160_cif.got.tgz:318454.got - 2010.06.03 11:33:40.
