data_PCOD9062281
_publ_section_title
;
Structure prediction by ZEFSAII (Michael W. Deem and Ramdas Pophale) SiO2 
 PCOD9062281
Probable space group: P -1
;
_chemical_formula_sum "Si O2"
_cell_formula_units_Z 13
_cell_length_a 9.634375
_cell_length_b 11.306630
_cell_length_c 8.689188
_cell_angle_alpha 106.511818
_cell_angle_beta 81.040764
_cell_angle_gamma 42.819885
_cell_volume 511.501859
_symmetry_space_group_name_H-M "P -1"
_symmetry_group_IT_number 2
_symmetry_cell_setting 'triclinic'
loop_
_space_group_symop_operation_xyz
x,y,z
-x,-y,-z
loop_
_atom_site_type_symbol
_atom_site_label
_atom_site_fract_x
_atom_site_fract_y
_atom_site_fract_z
Si Si1 0.000000 0.000000 0.000000
Si Si2 0.619727 0.220938 0.654893
Si Si3 0.006631 0.177846 0.352714
Si Si4 0.395927 0.483637 0.225105
Si Si5 0.673671 0.118415 0.256659
Si Si6 0.761336 0.735182 0.713180
Si Si7 0.768201 0.610250 0.995208
O O1 0.038983 0.096690 0.902056
O O2 0.042097 0.873008 0.799367
O O3 0.572634 0.396849 0.772498
O O4 0.616156 0.210847 0.468625
O O5 0.875076 0.987469 0.592806
O O6 0.426144 0.271720 0.791432
O O7 0.189884 0.156107 0.272576
O O8 0.758286 0.412997 0.551958
O O9 0.644284 0.231469 0.145458
O O10 0.250940 0.507542 0.135130
O O11 0.488646 0.139288 0.270571
O O12 0.738105 0.718862 0.890683
O O13 0.000000 0.500000 0.500000
O O14 0.000000 0.500000 0.000000
#
# Coordination Sequence:
#
# PCOD9062281 Si02
#       7
#     1   2   2   2   2   2   2
#     4  12  28  44  70 108 142 186 238 284 364 408
#     4  12  26  45  69 111 144 179 239 295 357 411
#     4  12  26  47  74 103 147 185 233 303 348 422
#     4  11  24  48  73 100 143 193 232 286 359 424
#     4  11  25  47  74 104 141 193 236 291 352 426
#     4  11  23  49  74 101 141 191 240 285 355 424
#     4  11  25  43  74 107 136 185 242 291 345 425
#
# _framework density 25.415354000000001
#
# number of rings (size 3 to 8) (size 9 to 14) (size 15 to 20)
#    0.000    0.615    4.615    4.154    0.000    4.308 
#    0.000    0.000    0.000    0.000    0.000    0.000 
#    0.000    0.000    0.000    0.000    0.000    0.000 
#
# Total GULP energy -72580.333982 kJ/mol
# GULP energy per Si atom -5583.102614 kJ/mol
# Density = 2.535751 g / cm^3
# Si number density = 25.415354 Si / 1000 Ang^3
#
#
#
# Elastic Constant Matrix: (Units=GPa)
#
#
# Indices 1 2 3 4 5 6 
#
# 1 211.6489 40.7103 55.9571 -26.3992 -8.3903 -10.1250
# 2 40.7103 77.3295 17.4148 -16.4970 6.4818 12.8738
# 3 55.9571 17.4148 189.0007 -21.3714 -16.7891 -19.5632
# 4 -26.3992 -16.4970 -21.3714 31.1486 -3.4694 -9.4875
# 5 -8.3903 6.4818 -16.7891 -3.4694 61.9590 -26.8332
# 6 -10.1250 12.8738 -19.5632 -9.4875 -26.8332 32.9222
#
#
#
# Elastic Compliance Matrix: (Units=1/GPa)
#
#
# Indices 1 2 3 4 5 6 
#
# 1 0.008419 -0.006787 0.002921 0.013329 0.012479 0.020991
# 2 -0.006787 0.023671 -0.007399 -0.012168 -0.022282 -0.037408
# 3 0.002921 -0.007399 0.012518 0.019471 0.020008 0.033149
# 4 0.013329 -0.012168 0.019471 0.081429 0.049339 0.084108
# 5 0.012479 -0.022282 0.020008 0.049339 0.069684 0.095455
# 6 0.020991 -0.037408 0.033149 0.084108 0.095455 0.173194
#
#
# Mechanical properties :
#
#
# Convention : Reuss Voigt Hill
#
# Bulk Modulus (GPa) = 45.29394 78.46038 61.87716
# Shear Modulus (GPa) = 12.53743 49.46575 31.00159
#
# Velocity S-wave (km/s) = 2.22345 4.41647 3.49635
# Velocity P-wave (km/s) = 4.94488 7.54620 6.37954
#
# Compressibility (1/GPa) = 0.02207801
#
# Stress axis : x y z
#
# Youngs Moduli (GPa) = 118.77231 42.24633 79.88411
#
# Poissons Ratio (x) = 0.28675 -0.23335
# Poissons Ratio (y) = 0.80617 0.59105
# Poissons Ratio (z) = -0.34695 0.31257
#
# Static dielectric constant tensor:
#      x y z
#    x 2.091340 -0.076450 -0.156770 
#    y -0.076450 2.257300 0.178860 
#    z -0.156770 0.178860 2.073780 
# 
# From -- ./inp_files/148346.got.cif
#   From: 2010.05.17/outbox.cif.g08.bks.cpg/sg2_75_cif.got.tgz:148346.got - 2010.06.03 11:33:40.
