data_PCOD9062454
_publ_section_title
;
Structure prediction by ZEFSAII (Michael W. Deem and Ramdas Pophale) SiO2 
 PCOD9062454
Probable space group: P -1
;
_chemical_formula_sum "Si O2"
_cell_formula_units_Z 16
_cell_length_a 5.209920
_cell_length_b 22.101286
_cell_length_c 6.776174
_cell_angle_alpha 92.793304
_cell_angle_beta 113.077811
_cell_angle_gamma 100.241093
_cell_volume 700.302873
_symmetry_space_group_name_H-M "P -1"
_symmetry_group_IT_number 2
_symmetry_cell_setting 'triclinic'
loop_
_space_group_symop_operation_xyz
x,y,z
-x,-y,-z
loop_
_atom_site_type_symbol
_atom_site_label
_atom_site_fract_x
_atom_site_fract_y
_atom_site_fract_z
Si Si1 0.102741 0.446563 0.891732
Si Si2 0.320951 0.995829 0.143745
Si Si3 0.032042 0.279195 0.195883
Si Si4 0.110795 0.184554 0.522148
Si Si5 0.601690 0.706114 0.083581
Si Si6 0.607709 0.466126 0.338539
Si Si7 0.438504 0.895982 0.457591
Si Si8 0.540060 0.365683 0.608574
O O1 0.180713 0.481065 0.710873
O O2 0.862995 0.384194 0.802213
O O3 0.374080 0.440755 0.099617
O O4 0.000000 0.500000 0.000000
O O5 0.335986 0.932631 0.251391
O O6 0.461849 0.052842 0.335643
O O7 0.500000 0.000000 0.000000
O O8 0.000000 0.000000 0.000000
O O9 0.024070 0.214622 0.298646
O O10 0.264390 0.325797 0.404423
O O11 0.171634 0.281005 0.022152
O O12 0.715855 0.293329 0.093763
O O13 0.310987 0.237396 0.723938
O O14 0.295500 0.133702 0.524716
O O15 0.823634 0.155850 0.549375
O O16 0.601210 0.646517 0.214584
O O17 0.500000 0.500000 0.500000
O O18 0.658574 0.406485 0.454607
#
# Coordination Sequence:
#
# PCOD9062454 Si02
#       8
#     2   2   2   2   2   2   2   2
#     4  11  24  41  62  96 124 164 212 261 322 403
#     4  11  24  41  64 100 142 187 219 268 334 384
#     4  11  26  46  67  96 130 172 218 275 339 392
#     4  11  24  43  69  98 129 176 225 284 324 385
#     4  11  26  46  68  97 130 170 223 272 339 395
#     4  11  24  41  65  93 127 164 213 263 325 397
#     4  11  24  42  67 101 138 174 232 274 319 393
#     4  11  25  42  67  92 129 167 211 272 328 402
#
# _framework density 22.847258
#
# number of rings (size 3 to 8) (size 9 to 14) (size 15 to 20)
#    0.000    1.000    1.250    4.125    1.750   13.000 
#    0.000    0.000    0.000    0.000    0.000    0.000 
#    0.000    0.000    0.000    0.000    0.000    0.000 
#
# Total GULP energy -89087.115723 kJ/mol
# GULP energy per Si atom -5567.944733 kJ/mol
# Density = 2.279526 g / cm^3
# Si number density = 22.847258 Si / 1000 Ang^3
#
#
#
# Elastic Constant Matrix: (Units=GPa)
#
#
# Indices 1 2 3 4 5 6 
#
# 1 81.3653 10.0760 31.5410 -15.5875 -17.5574 10.9670
# 2 10.0760 44.5108 46.7444 -21.3400 8.0360 16.5167
# 3 31.5410 46.7444 126.7448 -34.4844 -23.1074 1.5599
# 4 -15.5875 -21.3400 -34.4844 43.6828 4.0656 -4.7085
# 5 -17.5574 8.0360 -23.1074 4.0656 44.7046 -3.5720
# 6 10.9670 16.5167 1.5599 -4.7085 -3.5720 36.5099
#
#
#
# Elastic Compliance Matrix: (Units=1/GPa)
#
#
# Indices 1 2 3 4 5 6 
#
# 1 0.015205 0.003213 -0.003437 0.003458 0.002892 -0.005145
# 2 0.003213 0.088984 -0.035842 0.015391 -0.037970 -0.041419
# 3 -0.003437 -0.035842 0.025824 0.001785 0.019741 0.018306
# 4 0.003458 0.015391 0.001785 0.032957 -0.003819 -0.004201
# 5 0.002892 -0.037970 0.019741 -0.003819 0.042409 0.019122
# 6 -0.005145 -0.041419 0.018306 -0.004201 0.019122 0.048220
#
#
# Mechanical properties :
#
#
# Convention : Reuss Voigt Hill
#
# Bulk Modulus (GPa) = 17.27758 47.70485 32.49122
# Shear Modulus (GPa) = 14.49171 35.93011 25.21091
#
# Velocity S-wave (km/s) = 2.52124 3.96993 3.32543
# Velocity P-wave (km/s) = 4.00676 6.47604 5.38485
#
# Compressibility (1/GPa) = 0.05787846
#
# Stress axis : x y z
#
# Youngs Moduli (GPa) = 65.76884 11.23802 38.72404
#
# Poissons Ratio (x) = -0.03610 0.13311
# Poissons Ratio (y) = -0.21130 1.38796
# Poissons Ratio (z) = 0.22607 0.40280
#
# Static dielectric constant tensor:
#      x y z
#    x 1.863670 -0.045080 -0.016610 
#    y -0.045080 1.889340 0.007550 
#    z -0.016610 0.007550 1.825910 
# 
# From -- ./inp_files/13359.got.cif
#   From: 2010.05.17/outbox.cif.g08.bks.cpg/sg2_7_cif.got.tgz:13359.got - 2010.06.03 11:33:40.
