data_PCOD9062649
_publ_section_title
;
Structure prediction by ZEFSAII (Michael W. Deem and Ramdas Pophale) SiO2 
 PCOD9062649
Probable space group: P -1
;
_chemical_formula_sum "Si O2"
_cell_formula_units_Z 14
_cell_length_a 9.778382
_cell_length_b 7.568143
_cell_length_c 11.159169
_cell_angle_alpha 119.137524
_cell_angle_beta 125.579478
_cell_angle_gamma 84.700950
_cell_volume 565.066793
_symmetry_space_group_name_H-M "P -1"
_symmetry_group_IT_number 2
_symmetry_cell_setting 'triclinic'
loop_
_space_group_symop_operation_xyz
x,y,z
-x,-y,-z
loop_
_atom_site_type_symbol
_atom_site_label
_atom_site_fract_x
_atom_site_fract_y
_atom_site_fract_z
Si Si1 0.490402 0.973418 0.841980
Si Si2 0.975976 0.781316 0.079308
Si Si3 0.983945 0.744721 0.685269
Si Si4 0.020102 0.526168 0.212550
Si Si5 0.432789 0.481925 0.597513
Si Si6 0.866989 0.129314 0.443763
Si Si7 0.610959 0.166447 0.709678
O O1 0.462354 0.723050 0.730761
O O2 0.311249 0.027029 0.735058
O O3 0.598241 0.084014 0.815088
O O4 0.500000 0.000000 0.000000
O O5 0.904528 0.632999 0.106635
O O6 0.182720 0.795440 0.196739
O O7 0.959948 0.013837 0.160658
O O8 0.909554 0.642752 0.882680
O O9 0.075875 0.613009 0.774076
O O10 0.773523 0.649955 0.550032
O O11 0.054656 0.737956 0.587388
O O12 0.154727 0.720019 0.409901
O O13 0.462985 0.635625 0.298511
O O14 0.500000 0.500000 0.500000
O O15 0.000000 0.000000 0.500000
O O16 0.500000 0.000000 0.500000
#
# Coordination Sequence:
#
# PCOD9062649 Si02
#       7
#     2   2   2   2   2   2   2
#     4  12  29  48  69 107 148 184 237 298 354 422
#     4  11  24  42  68 104 134 168 233 294 336 404
#     4  12  23  42  71  97 133 182 226 277 347 412
#     4  11  24  42  66 101 133 173 227 287 340 406
#     4  12  24  44  75 103 134 188 239 286 351 423
#     4  12  25  46  71  98 142 187 232 281 353 423
#     4  12  23  44  75  99 140 187 236 287 353 424
#
# _framework density 24.775835000000001
#
# number of rings (size 3 to 8) (size 9 to 14) (size 15 to 20)
#    0.000    0.286    5.714    3.429    2.000    1.714 
#    2.571    0.000    0.000    0.000    0.000    0.000 
#    0.000    0.000    0.000    0.000    0.000    0.000 
#
# Total GULP energy -78197.201281 kJ/mol
# GULP energy per Si atom -5585.514377 kJ/mol
# Density = 2.471944 g / cm^3
# Si number density = 24.775835 Si / 1000 Ang^3
#
#
#
# Elastic Constant Matrix: (Units=GPa)
#
#
# Indices 1 2 3 4 5 6 
#
# 1 72.0533 13.0158 31.8023 -3.4316 -5.2607 12.1140
# 2 13.0158 148.3229 33.6874 -20.7109 -21.1460 4.4838
# 3 31.8023 33.6874 168.4571 -6.5056 -35.6327 5.0056
# 4 -3.4316 -20.7109 -6.5056 44.8838 -1.3834 -14.1069
# 5 -5.2607 -21.1460 -35.6327 -1.3834 44.5229 -9.7033
# 6 12.1140 4.4838 5.0056 -14.1069 -9.7033 42.9110
#
#
#
# Elastic Compliance Matrix: (Units=1/GPa)
#
#
# Indices 1 2 3 4 5 6 
#
# 1 0.016103 -0.001051 -0.003223 -0.001375 -0.002316 -0.005036
# 2 -0.001051 0.008025 -0.000490 0.004224 0.003812 0.001766
# 3 -0.003223 -0.000490 0.007959 0.001478 0.006222 0.001926
# 4 -0.001375 0.004224 0.001478 0.027760 0.006131 0.010287
# 5 -0.002316 0.003812 0.006222 0.006131 0.031033 0.008563
# 6 -0.005036 0.001766 0.001926 0.010287 0.008563 0.029635
#
#
# Mechanical properties :
#
#
# Convention : Reuss Voigt Hill
#
# Bulk Modulus (GPa) = 44.32753 60.64939 52.48846
# Shear Modulus (GPa) = 36.34705 47.15208 41.74957
#
# Velocity S-wave (km/s) = 3.83435 4.36724 4.10944
# Velocity P-wave (km/s) = 6.12644 7.06844 6.61423
#
# Compressibility (1/GPa) = 0.02255934
#
# Stress axis : x y z
#
# Youngs Moduli (GPa) = 62.09926 124.60469 125.65144
#
# Poissons Ratio (x) = 0.13097 0.40502
# Poissons Ratio (y) = 0.06527 0.06151
# Poissons Ratio (z) = 0.20017 0.06099
#
# Static dielectric constant tensor:
#      x y z
#    x 1.921550 0.024570 0.022750 
#    y 0.024570 2.046530 -0.007710 
#    z 0.022750 -0.007710 2.028170 
# 
# From -- ./inp_files/245133.got.cif
#   From: 2010.05.17/outbox.cif.g08.bks.cpg/sg2_123_cif.got.tgz:245133.got - 2010.06.03 11:33:40.
