data_PCOD9062206
_publ_section_title
;
Structure prediction by ZEFSAII (Michael W. Deem and Ramdas Pophale) SiO2 
 PCOD9062206
Probable space group: P -1
;
_chemical_formula_sum "Si O2"
_cell_formula_units_Z 15
_cell_length_a 15.033404
_cell_length_b 11.889699
_cell_length_c 8.994525
_cell_angle_alpha 29.562658
_cell_angle_beta 56.971175
_cell_angle_gamma 50.564159
_cell_volume 612.501143
_symmetry_space_group_name_H-M "P -1"
_symmetry_group_IT_number 2
_symmetry_cell_setting 'triclinic'
loop_
_space_group_symop_operation_xyz
x,y,z
-x,-y,-z
loop_
_atom_site_type_symbol
_atom_site_label
_atom_site_fract_x
_atom_site_fract_y
_atom_site_fract_z
Si Si1 0.500000 0.000000 0.000000
Si Si2 0.774812 0.289031 0.890609
Si Si3 0.251627 0.255490 0.793105
Si Si4 0.160410 0.606166 0.000243
Si Si5 0.931571 0.925434 0.952007
Si Si6 0.547125 0.285142 0.084832
Si Si7 0.371349 0.147682 0.252918
Si Si8 0.084412 0.636945 0.724881
O O1 0.386644 0.106900 0.867244
O O2 0.589826 0.969019 0.809954
O O3 0.775452 0.554302 0.540305
O O4 0.878747 0.046376 0.017937
O O5 0.767957 0.292447 0.070891
O O6 0.662091 0.294550 0.901981
O O7 0.195729 0.439395 0.769738
O O8 0.173629 0.099733 0.014035
O O9 0.120618 0.732545 0.732813
O O10 0.042125 0.670041 0.127832
O O11 0.240136 0.328506 0.198161
O O12 0.966016 0.135872 0.602565
O O13 0.451629 0.303134 0.031170
O O14 0.592018 0.042351 0.425537
O O15 0.500000 0.500000 0.000000
O O16 0.000000 0.500000 0.000000
#
# Coordination Sequence:
#
# PCOD9062206 Si02
#       8
#     1   2   2   2   2   2   2   2
#     4  12  24  46  72 100 136 186 232 286 354 412
#     4  11  26  45  69 103 142 184 235 288 351 417
#     4  11  25  47  68 101 141 184 233 291 351 412
#     4  12  24  45  72 108 136 186 236 283 353 420
#     4  11  26  47  72 100 146 185 229 295 350 411
#     4  11  23  48  71  99 145 186 230 292 350 409
#     4  11  26  43  72 104 138 185 236 291 346 420
#     4  11  24  48  70 101 141 185 232 288 348 417
#
# _framework density 24.489747999999999
#
# number of rings (size 3 to 8) (size 9 to 14) (size 15 to 20)
#    0.000    0.800    4.000    2.400    3.733    2.667 
#    2.400    4.000    0.000    0.000    0.000    0.000 
#    0.000    0.000    0.000    0.000    0.000    0.000 
#
# Total GULP energy -83552.547075 kJ/mol
# GULP energy per Si atom -5570.169805 kJ/mol
# Density = 2.443401 g / cm^3
# Si number density = 24.489748 Si / 1000 Ang^3
#
#
#
# Elastic Constant Matrix: (Units=GPa)
#
#
# Indices 1 2 3 4 5 6 
#
# 1 86.3802 14.3424 21.7229 -5.5255 12.2703 -19.3128
# 2 14.3424 144.0325 20.9522 -11.9859 10.7323 -18.4097
# 3 21.7229 20.9522 57.1056 4.6713 0.1394 -9.7647
# 4 -5.5255 -11.9859 4.6713 26.8214 -3.8573 16.4310
# 5 12.2703 10.7323 0.1394 -3.8573 31.8464 0.8461
# 6 -19.3128 -18.4097 -9.7647 16.4310 0.8461 56.6222
#
#
#
# Elastic Compliance Matrix: (Units=1/GPa)
#
#
# Indices 1 2 3 4 5 6 
#
# 1 0.014549 0.000278 -0.004978 0.000664 -0.005706 0.004087
# 2 0.000278 0.007957 -0.003035 0.002973 -0.002451 0.001333
# 3 -0.004978 -0.003035 0.021738 -0.007960 0.001792 0.003347
# 4 0.000664 0.002973 -0.007960 0.049917 0.005215 -0.014743
# 5 -0.005706 -0.002451 0.001792 0.005215 0.035168 -0.004473
# 6 0.004087 0.001333 0.003347 -0.014743 -0.004473 0.024410
#
#
# Mechanical properties :
#
#
# Convention : Reuss Voigt Hill
#
# Bulk Modulus (GPa) = 34.75274 44.61704 39.68489
# Shear Modulus (GPa) = 27.96436 38.42474 33.19455
#
# Velocity S-wave (km/s) = 3.38284 3.96537 3.68563
# Velocity P-wave (km/s) = 5.42952 6.26289 5.86104
#
# Compressibility (1/GPa) = 0.02877471
#
# Stress axis : x y z
#
# Youngs Moduli (GPa) = 68.73241 125.67648 46.00318
#
# Poissons Ratio (x) = -0.03496 0.22901
# Poissons Ratio (y) = -0.01912 0.13960
# Poissons Ratio (z) = 0.34216 0.38138
#
# Static dielectric constant tensor:
#      x y z
#    x 2.242670 0.339210 0.067970 
#    y 0.339210 2.657120 0.151840 
#    z 0.067970 0.151840 2.072370 
# 
# From -- ./inp_files/77198.got.cif
#   From: 2010.05.17/outbox.cif.g08.bks.cpg/sg2_39_cif.got.tgz:77198.got - 2010.06.03 11:33:40.
