data_PCOD9062426
_publ_section_title
;
Structure prediction by ZEFSAII (Michael W. Deem and Ramdas Pophale) SiO2 
 PCOD9062426
Probable space group: P -1
;
_chemical_formula_sum "Si O2"
_cell_formula_units_Z 15
_cell_length_a 9.163335
_cell_length_b 21.693145
_cell_length_c 5.119357
_cell_angle_alpha 53.113229
_cell_angle_beta 76.247565
_cell_angle_gamma 47.571755
_cell_volume 576.171043
_symmetry_space_group_name_H-M "P -1"
_symmetry_group_IT_number 2
_symmetry_cell_setting 'triclinic'
loop_
_space_group_symop_operation_xyz
x,y,z
-x,-y,-z
loop_
_atom_site_type_symbol
_atom_site_label
_atom_site_fract_x
_atom_site_fract_y
_atom_site_fract_z
Si Si1 0.800066 0.292172 0.467113
Si Si2 0.458365 0.317055 0.354872
Si Si3 0.685641 0.474464 0.339221
Si Si4 0.358112 0.902987 0.234237
Si Si5 0.088699 0.385943 0.662258
Si Si6 0.952948 0.841214 0.798118
Si Si7 0.000000 0.000000 0.500000
Si Si8 0.607090 0.851492 0.737605
O O1 0.606271 0.301788 0.553982
O O2 0.732342 0.404016 0.250588
O O3 0.887090 0.246106 0.262925
O O4 0.968640 0.214634 0.811491
O O5 0.583276 0.206345 0.442416
O O6 0.251205 0.351659 0.458728
O O7 0.388111 0.414372 0.974024
O O8 0.500000 0.500000 0.500000
O O9 0.894950 0.407988 0.579871
O O10 0.492729 0.905094 0.376986
O O11 0.124788 0.990066 0.206795
O O12 0.442781 0.884750 0.950312
O O13 0.000000 0.500000 0.500000
O O14 0.227156 0.277145 0.047028
O O15 0.736702 0.878341 0.717856
O O16 0.963322 0.929071 0.561413
#
# Coordination Sequence:
#
# PCOD9062426 Si02
#       8
#     2   2   2   2   2   2   1   2
#     4  12  26  47  75 111 152 198 253 312 382 446
#     4  11  25  44  70 111 153 199 251 311 362 455
#     4  12  25  43  72 111 154 209 253 303 375 454
#     4  11  27  49  77 113 149 199 245 319 375 450
#     4  11  24  40  70 110 150 209 247 302 365 451
#     4  12  28  49  80 109 150 197 256 320 379 456
#     4  12  30  52  86 112 146 200 258 320 398 452
#     4  11  26  49  75 109 157 192 249 312 379 445
#
# _framework density 26.033936000000001
#
# number of rings (size 3 to 8) (size 9 to 14) (size 15 to 20)
#    0.000    0.533    2.667    4.000    7.467    3.200 
#    0.000    0.000    0.000    0.000    0.000    0.000 
#    0.000    0.000    0.000    0.000    0.000    0.000 
#
# Total GULP energy -83830.929235 kJ/mol
# GULP energy per Si atom -5588.728616 kJ/mol
# Density = 2.597468 g / cm^3
# Si number density = 26.033936 Si / 1000 Ang^3
#
#
#
# Elastic Constant Matrix: (Units=GPa)
#
#
# Indices 1 2 3 4 5 6 
#
# 1 106.3908 14.6298 10.3202 -10.2509 -6.1922 -4.6714
# 2 14.6298 132.4441 -2.5647 1.1175 -8.3570 8.6797
# 3 10.3202 -2.5647 46.0851 -12.4959 -1.2089 9.4841
# 4 -10.2509 1.1175 -12.4959 23.8939 5.2914 -8.1367
# 5 -6.1922 -8.3570 -1.2089 5.2914 45.3173 -1.7813
# 6 -4.6714 8.6797 9.4841 -8.1367 -1.7813 47.2654
#
#
#
# Elastic Compliance Matrix: (Units=1/GPa)
#
#
# Indices 1 2 3 4 5 6 
#
# 1 0.010298 -0.001315 -0.001697 0.004236 0.000717 0.002356
# 2 -0.001315 0.007940 0.000765 -0.001510 0.001405 -0.001948
# 3 -0.001697 0.000765 0.026038 0.011856 -0.000919 -0.003526
# 4 0.004236 -0.001510 0.011856 0.053628 -0.005356 0.007347
# 5 0.000717 0.001405 -0.000919 -0.005356 0.023022 -0.000057
# 6 0.002356 -0.001948 -0.003526 0.007347 -0.000057 0.023718
#
#
# Mechanical properties :
#
#
# Convention : Reuss Voigt Hill
#
# Bulk Modulus (GPa) = 25.13791 36.63231 30.88511
# Shear Modulus (GPa) = 30.78840 40.79763 35.79301
#
# Velocity S-wave (km/s) = 3.44266 3.96295 3.71193
# Velocity P-wave (km/s) = 5.04771 5.91958 5.50095
#
# Compressibility (1/GPa) = 0.03978056
#
# Stress axis : x y z
#
# Youngs Moduli (GPa) = 97.10557 125.95238 38.40559
#
# Poissons Ratio (x) = 0.16566 0.06517
# Poissons Ratio (y) = 0.12772 -0.02937
# Poissons Ratio (z) = 0.16478 -0.09632
#
# Static dielectric constant tensor:
#      x y z
#    x 2.841380 -1.071150 0.478020 
#    y -1.071150 3.437010 -0.626920 
#    z 0.478020 -0.626920 2.312980 
# 
# From -- ./inp_files/36101.got.cif
#   From: 2010.05.17/outbox.cif.g08.bks.cpg/sg2_19_cif.got.tgz:36101.got - 2010.06.03 11:33:40.
