data_PCOD9062997
_publ_section_title
;
Structure prediction by ZEFSAII (Michael W. Deem and Ramdas Pophale) SiO2 
 PCOD9062997
Probable space group: P -1
;
_chemical_formula_sum "Si O2"
_cell_formula_units_Z 14
_cell_length_a 20.992028
_cell_length_b 5.128322
_cell_length_c 6.634504
_cell_angle_alpha 71.991046
_cell_angle_beta 71.119310
_cell_angle_gamma 67.943746
_cell_volume 611.835249
_symmetry_space_group_name_H-M "P -1"
_symmetry_group_IT_number 2
_symmetry_cell_setting 'triclinic'
loop_
_space_group_symop_operation_xyz
x,y,z
-x,-y,-z
loop_
_atom_site_type_symbol
_atom_site_label
_atom_site_fract_x
_atom_site_fract_y
_atom_site_fract_z
Si Si1 0.187777 0.174072 0.167879
Si Si2 0.171817 0.571559 0.472174
Si Si3 0.293110 0.274683 0.727911
Si Si4 0.069781 0.241655 0.936598
Si Si5 0.493717 0.697820 0.152456
Si Si6 0.966786 0.042029 0.303753
Si Si7 0.384049 0.687353 0.595416
O O1 0.259085 0.195706 0.985313
O O2 0.132694 0.231489 0.024779
O O3 0.165983 0.410291 0.309764
O O4 0.190457 0.863337 0.328030
O O5 0.233725 0.364329 0.593155
O O6 0.100170 0.668738 0.659665
O O7 0.321908 0.545089 0.663971
O O8 0.354665 0.994663 0.659861
O O9 0.072030 0.163736 0.716817
O O10 0.000000 0.500000 0.000000
O O11 0.039790 0.987428 0.117330
O O12 0.421505 0.728329 0.339762
O O13 0.556985 0.537239 0.276595
O O14 0.500000 0.500000 0.000000
O O15 0.500000 0.000000 0.000000
O O16 0.000000 0.000000 0.500000
#
# Coordination Sequence:
#
# PCOD9062997 Si02
#       7
#     2   2   2   2   2   2   2
#     4  12  28  45  69 101 138 186 243 292 360 437
#     4  12  28  45  70 102 137 191 242 297 368 429
#     4  12  27  46  71 100 154 186 239 290 350 424
#     4  11  25  41  69  95 130 178 234 304 372 426
#     4  11  24  45  78 110 148 183 237 288 339 410
#     4  11  24  43  68  96 131 176 239 307 365 426
#     4  11  26  46  72 111 142 193 233 285 349 413
#
# _framework density 22.881976999999999
#
# number of rings (size 3 to 8) (size 9 to 14) (size 15 to 20)
#    0.000    0.571    1.429    5.143   10.000   10.286 
#    0.000    0.000    0.000    0.000    0.000    0.000 
#    0.000    0.000    0.000    0.000    0.000    0.000 
#
# Total GULP energy -78234.088471 kJ/mol
# GULP energy per Si atom -5588.149176 kJ/mol
# Density = 2.282990 g / cm^3
# Si number density = 22.881977 Si / 1000 Ang^3
#
#
#
# Elastic Constant Matrix: (Units=GPa)
#
#
# Indices 1 2 3 4 5 6 
#
# 1 59.9828 -6.4979 27.4372 7.8536 -5.6568 13.0086
# 2 -6.4979 111.6843 25.3073 10.3015 -1.2513 18.4060
# 3 27.4372 25.3073 103.8904 13.3089 -18.3454 9.9024
# 4 7.8536 10.3015 13.3089 49.4726 3.3370 11.2317
# 5 -5.6568 -1.2513 -18.3454 3.3370 50.6055 4.8364
# 6 13.0086 18.4060 9.9024 11.2317 4.8364 45.3090
#
#
#
# Elastic Compliance Matrix: (Units=1/GPa)
#
#
# Indices 1 2 3 4 5 6 
#
# 1 0.021209 0.003635 -0.005532 -0.001315 0.001130 -0.006151
# 2 0.003635 0.010675 -0.002993 -0.000980 0.000079 -0.004492
# 3 -0.005532 -0.002993 0.012814 -0.002250 0.004089 0.000125
# 4 -0.001315 -0.000980 -0.002250 0.022287 -0.002071 -0.004036
# 5 0.001130 0.000079 0.004089 -0.002071 0.021801 -0.003064
# 6 -0.006151 -0.004492 0.000125 -0.004036 -0.003064 0.026962
#
#
# Mechanical properties :
#
#
# Convention : Reuss Voigt Hill
#
# Bulk Modulus (GPa) = 28.63849 40.89454 34.76652
# Shear Modulus (GPa) = 36.45197 44.36481 40.40839
#
# Velocity S-wave (km/s) = 3.99562 4.40802 4.20688
# Velocity P-wave (km/s) = 5.81632 6.61954 6.23088
#
# Compressibility (1/GPa) = 0.03491804
#
# Stress axis : x y z
#
# Youngs Moduli (GPa) = 47.15049 93.67671 78.03905
#
# Poissons Ratio (x) = -0.34054 0.43175
# Poissons Ratio (y) = -0.17141 0.23355
# Poissons Ratio (z) = 0.26086 0.28035
#
# Static dielectric constant tensor:
#      x y z
#    x 1.940420 0.123430 0.026200 
#    y 0.123430 1.954040 0.036060 
#    z 0.026200 0.036060 1.893990 
# 
# From -- ./inp_files/121535.got.cif
#   From: 2010.05.17/outbox.cif.g08.bks.cpg/sg2_61_cif.got.tgz:121535.got - 2010.06.03 11:33:40.
