data_PCOD9062420
_publ_section_title
;
Structure prediction by ZEFSAII (Michael W. Deem and Ramdas Pophale) SiO2 
 PCOD9062420
Probable space group: P -1
;
_chemical_formula_sum "Si O2"
_cell_formula_units_Z 16
_cell_length_a 11.432931
_cell_length_b 18.432836
_cell_length_c 5.271537
_cell_angle_alpha 132.810560
_cell_angle_beta 59.773961
_cell_angle_gamma 127.162141
_cell_volume 641.232426
_symmetry_space_group_name_H-M "P -1"
_symmetry_group_IT_number 2
_symmetry_cell_setting 'triclinic'
loop_
_space_group_symop_operation_xyz
x,y,z
-x,-y,-z
loop_
_atom_site_type_symbol
_atom_site_label
_atom_site_fract_x
_atom_site_fract_y
_atom_site_fract_z
Si Si1 0.131200 0.291328 0.486733
Si Si2 0.791171 0.351458 0.445779
Si Si3 0.520757 0.289087 0.914253
Si Si4 0.566359 0.967823 0.600277
Si Si5 0.090884 0.126735 0.733981
Si Si6 0.357263 0.291070 0.601892
Si Si7 0.150395 0.831757 0.208158
Si Si8 0.098550 0.465490 0.614016
O O1 0.239967 0.333217 0.709442
O O2 0.166432 0.392631 0.507316
O O3 0.956439 0.237534 0.615529
O O4 0.147947 0.189967 0.087371
O O5 0.693701 0.347382 0.786807
O O6 0.789778 0.435693 0.437660
O O7 0.966272 0.389501 0.393652
O O8 0.743736 0.228632 0.114026
O O9 0.472485 0.159452 0.647225
O O10 0.441408 0.326595 0.861111
O O11 0.471264 0.308157 0.290553
O O12 0.500000 0.000000 0.500000
O O13 0.742618 0.043122 0.568307
O O14 0.500000 0.000000 0.000000
O O15 0.238252 0.167415 0.496190
O O16 0.970343 0.170726 0.872736
O O17 0.000000 0.000000 0.500000
O O18 0.000000 0.500000 0.000000
#
# Coordination Sequence:
#
# PCOD9062420 Si02
#       8
#     2   2   2   2   2   2   2   2
#     4  11  24  44  75 101 146 181 247 303 351 421
#     4  11  25  43  72 108 141 187 237 306 376 425
#     4  12  26  47  70 102 152 193 235 288 359 444
#     4  12  27  42  66 105 150 189 236 288 362 435
#     4  11  24  44  71 102 141 194 244 292 349 422
#     4  11  26  46  69 100 143 194 235 286 349 428
#     4  11  24  40  69 106 141 185 238 299 360 429
#     4  11  24  45  75 107 137 179 247 309 372 421
#
# _framework density 24.951951000000001
#
# number of rings (size 3 to 8) (size 9 to 14) (size 15 to 20)
#    0.000    0.750    5.000    1.500    7.000    1.000 
#    0.000    1.250    0.000    0.000    0.000    0.000 
#    0.000    0.000    0.000    0.000    0.000    0.000 
#
# Total GULP energy -89454.082562 kJ/mol
# GULP energy per Si atom -5590.880160 kJ/mol
# Density = 2.489516 g / cm^3
# Si number density = 24.951951 Si / 1000 Ang^3
#
#
#
# Elastic Constant Matrix: (Units=GPa)
#
#
# Indices 1 2 3 4 5 6 
#
# 1 113.5986 34.1922 6.4577 -6.1599 10.4299 -1.9522
# 2 34.1922 128.6880 34.5413 -19.2537 -8.5159 2.2754
# 3 6.4577 34.5413 86.9961 -23.2905 0.5852 -4.8589
# 4 -6.1599 -19.2537 -23.2905 47.7159 -0.8146 -9.1283
# 5 10.4299 -8.5159 0.5852 -0.8146 30.2026 -8.6942
# 6 -1.9522 2.2754 -4.8589 -9.1283 -8.6942 46.6595
#
#
#
# Elastic Compliance Matrix: (Units=1/GPa)
#
#
# Indices 1 2 3 4 5 6 
#
# 1 0.010117 -0.003094 0.000560 0.000228 -0.004413 -0.000145
# 2 -0.003094 0.010044 -0.003178 0.002219 0.004093 0.000247
# 3 0.000560 -0.003178 0.014611 0.006470 -0.000364 0.002898
# 4 0.000228 0.002219 0.006470 0.026289 0.002934 0.006265
# 5 -0.004413 0.004093 -0.000364 0.002934 0.037953 0.007224
# 6 -0.000145 0.000247 0.002898 0.006265 0.007224 0.024287
#
#
# Mechanical properties :
#
#
# Convention : Reuss Voigt Hill
#
# Bulk Modulus (GPa) = 42.82741 53.29612 48.06177
# Shear Modulus (GPa) = 35.08545 41.85505 38.47025
#
# Velocity S-wave (km/s) = 3.75390 4.10008 3.93080
# Velocity P-wave (km/s) = 5.99918 6.61968 6.31705
#
# Compressibility (1/GPa) = 0.02334953
#
# Stress axis : x y z
#
# Youngs Moduli (GPa) = 98.84055 99.55904 68.43943
#
# Poissons Ratio (x) = 0.30801 -0.03832
# Poissons Ratio (y) = 0.30579 0.21750
# Poissons Ratio (z) = -0.05535 0.31639
#
# Static dielectric constant tensor:
#      x y z
#    x 2.065060 -0.007190 0.035680 
#    y -0.007190 1.965310 0.006580 
#    z 0.035680 0.006580 2.066870 
# 
# From -- ./inp_files/81662.got.cif
#   From: 2010.05.17/outbox.cif.g08.bks.cpg/sg2_41_cif.got.tgz:81662.got - 2010.06.03 11:33:40.
