data_PCOD9062232
_publ_section_title
;
Structure prediction by ZEFSAII (Michael W. Deem and Ramdas Pophale) SiO2 
 PCOD9062232
Probable space group: P -1
;
_chemical_formula_sum "Si O2"
_cell_formula_units_Z 16
_cell_length_a 6.648705
_cell_length_b 17.358971
_cell_length_c 9.191997
_cell_angle_alpha 72.071126
_cell_angle_beta 52.309348
_cell_angle_gamma 105.403919
_cell_volume 637.320049
_symmetry_space_group_name_H-M "P -1"
_symmetry_group_IT_number 2
_symmetry_cell_setting 'triclinic'
loop_
_space_group_symop_operation_xyz
x,y,z
-x,-y,-z
loop_
_atom_site_type_symbol
_atom_site_label
_atom_site_fract_x
_atom_site_fract_y
_atom_site_fract_z
Si Si1 0.627503 0.274917 0.703361
Si Si2 0.870662 0.069269 0.740730
Si Si3 0.973446 0.091702 0.993416
Si Si4 0.092168 0.794640 0.605171
Si Si5 0.450210 0.575978 0.054078
Si Si6 0.464906 0.102569 0.370332
Si Si7 0.212653 0.693658 0.048294
Si Si8 0.518946 0.580411 0.344002
O O1 0.804366 0.253635 0.525140
O O2 0.765928 0.296754 0.791825
O O3 0.643151 0.367066 0.574813
O O4 0.262613 0.173854 0.920372
O O5 0.028589 0.136897 0.778465
O O6 0.895177 0.126554 0.552544
O O7 0.088543 0.031937 0.623053
O O8 0.351992 0.932882 0.781119
O O9 0.500000 0.000000 0.000000
O O10 0.000000 0.000000 0.000000
O O11 0.335812 0.852013 0.595479
O O12 0.755129 0.695304 0.865912
O O13 0.222088 0.598707 0.066771
O O14 0.377676 0.537085 0.273316
O O15 0.500000 0.500000 0.000000
O O16 0.523411 0.196619 0.199909
O O17 0.895594 0.668724 0.132223
O O18 0.500000 0.500000 0.500000
#
# Coordination Sequence:
#
# PCOD9062232 Si02
#       8
#     2   2   2   2   2   2   2   2
#     4  11  25  45  75 107 151 197 255 316 387 464
#     4  12  29  51  75 113 147 198 261 319 399 461
#     4  12  27  52  76 114 151 196 264 326 390 475
#     4  12  25  48  77 109 149 203 254 317 393 462
#     4  11  26  42  70 116 152 194 258 310 380 468
#     4  12  25  50  83 104 156 207 255 326 394 463
#     4  11  23  48  75 105 153 209 251 307 399 460
#     4  11  26  44  71 110 151 201 256 311 385 461
#
# _framework density 25.105124
#
# number of rings (size 3 to 8) (size 9 to 14) (size 15 to 20)
#    0.000    0.500    5.000    2.250    3.500    3.500 
#    0.000    0.000    0.000    0.000    0.000    0.000 
#    0.000    0.000    0.000    0.000    0.000    0.000 
#
# Total GULP energy -89419.618469 kJ/mol
# GULP energy per Si atom -5588.726154 kJ/mol
# Density = 2.504798 g / cm^3
# Si number density = 25.105124 Si / 1000 Ang^3
#
#
#
# Elastic Constant Matrix: (Units=GPa)
#
#
# Indices 1 2 3 4 5 6 
#
# 1 115.1088 29.1383 34.0632 10.2059 9.8733 -16.5923
# 2 29.1383 98.7469 9.9477 16.2238 6.8514 -15.3791
# 3 34.0632 9.9477 106.5687 -1.7488 6.4460 -7.6004
# 4 10.2059 16.2238 -1.7488 45.7489 -7.8726 -4.9363
# 5 9.8733 6.8514 6.4460 -7.8726 57.2228 1.5807
# 6 -16.5923 -15.3791 -7.6004 -4.9363 1.5807 38.6324
#
#
#
# Elastic Compliance Matrix: (Units=1/GPa)
#
#
# Indices 1 2 3 4 5 6 
#
# 1 0.010820 -0.002008 -0.002981 -0.001759 -0.001618 0.003103
# 2 -0.002008 0.012009 -0.000191 -0.003732 -0.001679 0.003473
# 3 -0.002981 -0.000191 0.010466 0.001139 -0.000509 0.000869
# 4 -0.001759 -0.003732 0.001139 0.024400 0.003953 0.000939
# 5 -0.001618 -0.001679 -0.000509 0.003953 0.018605 -0.001720
# 6 0.003103 0.003473 0.000869 0.000939 -0.001720 0.028961
#
#
# Mechanical properties :
#
#
# Convention : Reuss Voigt Hill
#
# Bulk Modulus (GPa) = 43.60121 51.85810 47.72965
# Shear Modulus (GPa) = 40.56310 44.80582 42.68446
#
# Velocity S-wave (km/s) = 4.02397 4.22919 4.12786
# Velocity P-wave (km/s) = 6.24460 6.67452 6.46314
#
# Compressibility (1/GPa) = 0.02293514
#
# Stress axis : x y z
#
# Youngs Moduli (GPa) = 92.42319 83.26936 95.55059
#
# Poissons Ratio (x) = 0.16719 0.28480
# Poissons Ratio (y) = 0.18557 0.01827
# Poissons Ratio (z) = 0.27548 0.01592
#
# Static dielectric constant tensor:
#      x y z
#    x 2.037830 0.012750 -0.112680 
#    y 0.012750 2.041650 -0.152970 
#    z -0.112680 -0.152970 2.199750 
# 
# From -- ./inp_files/56905.got.cif
#   From: 2010.05.17/outbox.cif.g08.bks.cpg/sg2_29_cif.got.tgz:56905.got - 2010.06.03 11:33:40.
