data_PCOD9062641
_publ_section_title
;
Structure prediction by ZEFSAII (Michael W. Deem and Ramdas Pophale) SiO2 
 PCOD9062641
Probable space group: P -1
;
_chemical_formula_sum "Si O2"
_cell_formula_units_Z 14
_cell_length_a 19.569465
_cell_length_b 19.085558
_cell_length_c 5.386122
_cell_angle_alpha 55.435329
_cell_angle_beta 116.033719
_cell_angle_gamma 158.693638
_cell_volume 574.273281
_symmetry_space_group_name_H-M "P -1"
_symmetry_group_IT_number 2
_symmetry_cell_setting 'triclinic'
loop_
_space_group_symop_operation_xyz
x,y,z
-x,-y,-z
loop_
_atom_site_type_symbol
_atom_site_label
_atom_site_fract_x
_atom_site_fract_y
_atom_site_fract_z
Si Si1 0.418072 0.093636 0.113014
Si Si2 0.046727 0.145396 0.852918
Si Si3 0.424427 0.875809 0.376144
Si Si4 0.665468 0.797190 0.170166
Si Si5 0.015278 0.371861 0.734933
Si Si6 0.162824 0.439442 0.330623
Si Si7 0.657061 0.630366 0.784360
O O1 0.482303 0.122184 0.426461
O O2 0.368454 0.142273 0.928829
O O3 0.618250 0.294240 0.869492
O O4 0.213499 0.838598 0.221768
O O5 0.169168 0.343861 0.506114
O O6 0.181878 0.267662 0.061676
O O7 0.000000 0.000000 0.000000
O O8 0.834031 0.968982 0.887782
O O9 0.188511 0.620740 0.504704
O O10 0.500000 0.000000 0.500000
O O11 0.500000 0.000000 0.000000
O O12 0.746463 0.810994 0.465673
O O13 0.467468 0.549127 0.256214
O O14 0.064795 0.365397 0.583866
O O15 0.047437 0.356539 0.076314
O O16 0.500000 0.500000 0.000000
#
# Coordination Sequence:
#
# PCOD9062641 Si02
#       7
#     2   2   2   2   2   2   2
#     4  11  26  47  79 106 149 200 244 310 374 456
#     4  12  25  41  66 102 147 203 252 318 360 426
#     4  11  26  51  78 115 151 184 240 309 380 460
#     4  11  25  44  65 103 138 197 253 300 374 430
#     4  11  26  49  78 112 145 196 245 301 377 452
#     4  11  27  46  70 111 153 193 259 311 359 439
#     4  11  24  42  65  95 143 191 249 306 362 423
#
# _framework density 24.378636
#
# number of rings (size 3 to 8) (size 9 to 14) (size 15 to 20)
#    0.000    0.857    2.857    3.000    8.000    5.714 
#    2.571    0.000    0.000    0.000    0.000    0.000 
#    0.000    0.000    0.000    0.000    0.000    0.000 
#
# Total GULP energy -78238.239403 kJ/mol
# GULP energy per Si atom -5588.445672 kJ/mol
# Density = 2.432315 g / cm^3
# Si number density = 24.378636 Si / 1000 Ang^3
#
#
#
# Elastic Constant Matrix: (Units=GPa)
#
#
# Indices 1 2 3 4 5 6 
#
# 1 64.6423 15.6610 20.7873 -4.4439 -0.4352 -6.8318
# 2 15.6610 152.2693 58.1255 -14.5714 0.7882 12.7281
# 3 20.7873 58.1255 126.0353 -4.9342 21.4758 -13.7450
# 4 -4.4439 -14.5714 -4.9342 43.6642 -5.0944 2.4712
# 5 -0.4352 0.7882 21.4758 -5.0944 43.3522 -1.1032
# 6 -6.8318 12.7281 -13.7450 2.4712 -1.1032 37.2674
#
#
#
# Elastic Compliance Matrix: (Units=1/GPa)
#
#
# Indices 1 2 3 4 5 6 
#
# 1 0.016790 -0.000977 -0.002251 0.001159 0.001503 0.002549
# 2 -0.000977 0.009311 -0.005028 0.003037 0.002533 -0.005340
# 3 -0.002251 -0.005028 0.012214 -0.001553 -0.006019 0.005734
# 4 0.001159 0.003037 -0.001553 0.024434 0.003523 -0.002914
# 5 0.001503 0.002533 -0.006019 0.003523 0.026374 -0.002262
# 6 0.002549 -0.005340 0.005734 -0.002914 -0.002262 0.031365
#
#
# Mechanical properties :
#
#
# Convention : Reuss Voigt Hill
#
# Bulk Modulus (GPa) = 45.86662 59.12161 52.49411
# Shear Modulus (GPa) = 34.65757 41.41497 38.03627
#
# Velocity S-wave (km/s) = 3.77455 4.12615 3.95426
# Velocity P-wave (km/s) = 6.15235 6.85596 6.51366
#
# Compressibility (1/GPa) = 0.02180235
#
# Stress axis : x y z
#
# Youngs Moduli (GPa) = 59.56055 107.39910 81.87034
#
# Poissons Ratio (x) = 0.10498 0.18429
# Poissons Ratio (y) = 0.05822 0.41164
# Poissons Ratio (z) = 0.13407 0.53999
#
# Static dielectric constant tensor:
#      x y z
#    x 2.003630 -0.022580 0.002810 
#    y -0.022580 1.948330 -0.011340 
#    z 0.002810 -0.011340 2.056440 
# 
# From -- ./inp_files/120349.got.cif
#   From: 2010.05.17/outbox.cif.g08.bks.cpg/sg2_61_cif.got.tgz:120349.got - 2010.06.03 11:33:40.
