data_PCOD9062491
_publ_section_title
;
Structure prediction by ZEFSAII (Michael W. Deem and Ramdas Pophale) SiO2 
 PCOD9062491
Probable space group: P -1
;
_chemical_formula_sum "Si O2"
_cell_formula_units_Z 14
_cell_length_a 15.711352
_cell_length_b 11.958253
_cell_length_c 5.593249
_cell_angle_alpha 50.719563
_cell_angle_beta 122.829585
_cell_angle_gamma 129.502292
_cell_volume 610.301392
_symmetry_space_group_name_H-M "P -1"
_symmetry_group_IT_number 2
_symmetry_cell_setting 'triclinic'
loop_
_space_group_symop_operation_xyz
x,y,z
-x,-y,-z
loop_
_atom_site_type_symbol
_atom_site_label
_atom_site_fract_x
_atom_site_fract_y
_atom_site_fract_z
Si Si1 0.543693 0.751573 0.664026
Si Si2 0.329290 0.663572 0.160644
Si Si3 0.140345 0.366691 0.738944
Si Si4 0.384538 0.483605 0.122914
Si Si5 0.152267 0.681993 0.173799
Si Si6 0.963367 0.807858 0.680607
Si Si7 0.366533 0.920368 0.464938
O O1 0.432009 0.753128 0.379245
O O2 0.590215 0.667467 0.658844
O O3 0.640697 0.926145 0.639003
O O4 0.494283 0.635546 0.976240
O O5 0.347798 0.516877 0.279378
O O6 0.204412 0.625460 0.107464
O O7 0.350951 0.783918 0.813406
O O8 0.108087 0.516914 0.483913
O O9 0.097992 0.258666 0.580294
O O10 0.277517 0.451512 0.834855
O O11 0.100750 0.270990 0.059381
O O12 0.265438 0.830923 0.247746
O O13 0.063651 0.751443 0.900711
O O14 0.000000 0.000000 0.500000
O O15 0.500000 0.000000 0.500000
#
# Coordination Sequence:
#
# PCOD9062491 Si02
#       7
#     2   2   2   2   2   2   2
#     4  11  24  41  65 107 149 189 237 296 369 439
#     4  12  21  43  67 101 147 190 251 293 359 454
#     4  12  25  53  78 109 150 198 257 311 378 453
#     4  11  24  42  71 102 147 190 243 295 372 442
#     4  12  27  45  77 108 144 202 251 306 378 452
#     4  12  31  52  79 112 150 191 256 325 386 446
#     4  12  23  42  66 105 148 188 245 297 367 442
#
# _framework density 22.939487
#
# number of rings (size 3 to 8) (size 9 to 14) (size 15 to 20)
#    0.000    0.286    5.714    3.000    4.000    1.143 
#    0.000    0.000    0.000    0.000    0.000    0.000 
#    0.000    0.000    0.000    0.000    0.000    0.000 
#
# Total GULP energy -78201.730692 kJ/mol
# GULP energy per Si atom -5585.837907 kJ/mol
# Density = 2.288728 g / cm^3
# Si number density = 22.939487 Si / 1000 Ang^3
#
#
#
# Elastic Constant Matrix: (Units=GPa)
#
#
# Indices 1 2 3 4 5 6 
#
# 1 109.6638 41.6561 35.8741 -15.4149 -8.3443 -19.5199
# 2 41.6561 148.4179 31.5854 10.4912 4.0809 -26.8408
# 3 35.8741 31.5854 64.8619 5.1398 2.5289 1.0047
# 4 -15.4149 10.4912 5.1398 36.3849 -7.3985 0.2489
# 5 -8.3443 4.0809 2.5289 -7.3985 38.8217 -5.2179
# 6 -19.5199 -26.8408 1.0047 0.2489 -5.2179 31.3746
#
#
#
# Elastic Compliance Matrix: (Units=1/GPa)
#
#
# Indices 1 2 3 4 5 6 
#
# 1 0.016999 -0.001707 -0.009888 0.010632 0.007937 0.010668
# 2 -0.001707 0.009484 -0.003501 -0.003173 -0.000792 0.007057
# 3 -0.009888 -0.003501 0.023613 -0.007707 -0.006226 -0.010877
# 4 0.010632 -0.003173 -0.007707 0.036143 0.010768 0.005651
# 5 0.007937 -0.000792 -0.006226 0.010768 0.031293 0.009579
# 6 0.010668 0.007057 -0.010877 0.005651 0.009579 0.046444
#
#
# Mechanical properties :
#
#
# Convention : Reuss Voigt Hill
#
# Bulk Modulus (GPa) = 50.24157 60.13052 55.18604
# Shear Modulus (GPa) = 24.89990 35.57144 30.23567
#
# Velocity S-wave (km/s) = 3.29821 3.94212 3.63445
# Velocity P-wave (km/s) = 6.03768 6.85492 6.45924
#
# Compressibility (1/GPa) = 0.01990384
#
# Stress axis : x y z
#
# Youngs Moduli (GPa) = 58.82616 105.43687 42.34945
#
# Poissons Ratio (x) = 0.18003 0.41874
# Poissons Ratio (y) = 0.10044 0.14827
# Poissons Ratio (z) = 0.58166 0.36915
#
# Static dielectric constant tensor:
#      x y z
#    x 1.922730 -0.053620 -0.023610 
#    y -0.053620 2.007190 0.044170 
#    z -0.023610 0.044170 1.888840 
# 
# From -- ./inp_files/78642.got.cif
#   From: 2010.05.17/outbox.cif.g08.bks.cpg/sg2_40_cif.got.tgz:78642.got - 2010.06.03 11:33:40.
