data_PCOD9062546
_publ_section_title
;
Structure prediction by ZEFSAII (Michael W. Deem and Ramdas Pophale) SiO2 
 PCOD9062546
Probable space group: P -1
;
_chemical_formula_sum "Si O2"
_cell_formula_units_Z 16
_cell_length_a 14.687969
_cell_length_b 10.897310
_cell_length_c 5.728621
_cell_angle_alpha 87.782139
_cell_angle_beta 65.242126
_cell_angle_gamma 56.185975
_cell_volume 668.451649
_symmetry_space_group_name_H-M "P -1"
_symmetry_group_IT_number 2
_symmetry_cell_setting 'triclinic'
loop_
_space_group_symop_operation_xyz
x,y,z
-x,-y,-z
loop_
_atom_site_type_symbol
_atom_site_label
_atom_site_fract_x
_atom_site_fract_y
_atom_site_fract_z
Si Si1 0.174934 0.606674 0.457904
Si Si2 0.141069 0.379259 0.780940
Si Si3 0.696047 0.136678 0.190808
Si Si4 0.362914 0.566166 0.566660
Si Si5 0.668475 0.926991 0.578376
Si Si6 0.500828 0.839561 0.876121
Si Si7 0.973698 0.949562 0.780228
Si Si8 0.712107 0.601384 0.028793
O O1 0.172180 0.477502 0.593909
O O2 0.304323 0.584479 0.373756
O O3 0.179395 0.563081 0.189286
O O4 0.064266 0.766859 0.669877
O O5 0.192082 0.228686 0.586342
O O6 0.224640 0.327055 0.928531
O O7 0.000000 0.500000 0.000000
O O8 0.710343 0.260804 0.275597
O O9 0.667758 0.049022 0.412753
O O10 0.573588 0.218077 0.154305
O O11 0.828475 0.016893 0.934765
O O12 0.500000 0.500000 0.500000
O O13 0.343549 0.450494 0.721045
O O14 0.610626 0.007408 0.882747
O O15 0.575576 0.879233 0.624693
O O16 0.604621 0.718518 0.956578
O O17 0.000000 0.000000 0.500000
O O18 0.000000 0.000000 0.000000
#
# Coordination Sequence:
#
# PCOD9062546 Si02
#       8
#     2   2   2   2   2   2   2   2
#     4  11  24  47  70 101 145 186 241 305 370 440
#     4  11  26  46  71 102 142 191 244 304 371 451
#     4  12  26  44  73 104 147 193 245 311 376 462
#     4  11  24  41  69 103 139 185 236 300 374 444
#     4  11  26  45  70 104 149 186 253 308 381 449
#     4  11  26  44  71 109 142 197 245 312 383 454
#     4  12  28  49  75 109 154 200 255 315 381 461
#     4  11  25  44  72 102 142 186 241 307 372 446
#
# _framework density 23.935911000000001
#
# number of rings (size 3 to 8) (size 9 to 14) (size 15 to 20)
#    0.000    0.750    2.500    3.375   10.500    5.500 
#    0.000    0.000    0.000    0.000    0.000    0.000 
#    0.000    0.000    0.000    0.000    0.000    0.000 
#
# Total GULP energy -89325.193679 kJ/mol
# GULP energy per Si atom -5582.824605 kJ/mol
# Density = 2.388143 g / cm^3
# Si number density = 23.935911 Si / 1000 Ang^3
#
#
#
# Elastic Constant Matrix: (Units=GPa)
#
#
# Indices 1 2 3 4 5 6 
#
# 1 72.5291 4.0629 27.3022 -2.2968 -13.4036 -3.7405
# 2 4.0629 108.5072 17.9201 17.5753 6.3117 -3.3732
# 3 27.3022 17.9201 107.7193 25.7777 -15.0395 -10.3988
# 4 -2.2968 17.5753 25.7777 57.0651 4.0616 -1.8429
# 5 -13.4036 6.3117 -15.0395 4.0616 35.7284 7.5690
# 6 -3.7405 -3.3732 -10.3988 -1.8429 7.5690 24.4549
#
#
#
# Elastic Compliance Matrix: (Units=1/GPa)
#
#
# Indices 1 2 3 4 5 6 
#
# 1 0.016173 -0.000587 -0.003997 0.002314 0.004325 -0.000471
# 2 -0.000587 0.010001 -0.001167 -0.002353 -0.002505 0.001391
# 3 -0.003997 -0.001167 0.012720 -0.005744 0.004092 0.002937
# 4 0.002314 -0.002353 -0.005744 0.021203 -0.003608 0.000302
# 5 0.004325 -0.002505 0.004092 -0.003608 0.034041 -0.008752
# 6 -0.000471 0.001391 0.002937 0.000302 -0.008752 0.044992
#
#
# Mechanical properties :
#
#
# Convention : Reuss Voigt Hill
#
# Bulk Modulus (GPa) = 36.50678 43.03624 39.77151
# Shear Modulus (GPa) = 31.29645 39.41439 35.35542
#
# Velocity S-wave (km/s) = 3.61987 4.06231 3.84746
# Velocity P-wave (km/s) = 5.72331 6.32629 6.03234
#
# Compressibility (1/GPa) = 0.02739217
#
# Stress axis : x y z
#
# Youngs Moduli (GPa) = 61.83011 99.99117 78.61646
#
# Poissons Ratio (x) = 0.05865 0.31423
# Poissons Ratio (y) = 0.03627 0.09178
# Poissons Ratio (z) = 0.24714 0.11673
#
# Static dielectric constant tensor:
#      x y z
#    x 2.016250 -0.009340 0.108580 
#    y -0.009340 1.952360 0.039660 
#    z 0.108580 0.039660 2.050060 
# 
# From -- ./inp_files/94889.got.cif
#   From: 2010.05.17/outbox.cif.g08.bks.cpg/sg2_48_cif.got.tgz:94889.got - 2010.06.03 11:33:40.
