data_PCOD9062529
_publ_section_title
;
Structure prediction by ZEFSAII (Michael W. Deem and Ramdas Pophale) SiO2 
 PCOD9062529
Probable space group: P -1
;
_chemical_formula_sum "Si O2"
_cell_formula_units_Z 16
_cell_length_a 5.249184
_cell_length_b 20.863863
_cell_length_c 9.412136
_cell_angle_alpha 41.922938
_cell_angle_beta 97.761127
_cell_angle_gamma 112.254626
_cell_volume 619.199130
_symmetry_space_group_name_H-M "P -1"
_symmetry_group_IT_number 2
_symmetry_cell_setting 'triclinic'
loop_
_space_group_symop_operation_xyz
x,y,z
-x,-y,-z
loop_
_atom_site_type_symbol
_atom_site_label
_atom_site_fract_x
_atom_site_fract_y
_atom_site_fract_z
Si Si1 0.461958 0.043713 0.081804
Si Si2 0.182774 0.228609 0.392735
Si Si3 0.916861 0.980671 0.357558
Si Si4 0.599189 0.479738 0.387741
Si Si5 0.269695 0.608351 0.854169
Si Si6 0.922486 0.684789 0.504601
Si Si7 0.880973 0.307717 0.028697
Si Si8 0.291482 0.728878 0.225247
O O1 0.182333 0.996425 0.243557
O O2 0.496096 0.163533 0.865512
O O3 0.730216 0.042165 0.192683
O O4 0.500000 0.000000 0.000000
O O5 0.400448 0.354065 0.208691
O O6 0.095366 0.220882 0.562365
O O7 0.285654 0.143206 0.486310
O O8 0.963651 0.229235 0.257219
O O9 0.000000 0.000000 0.500000
O O10 0.500000 0.500000 0.500000
O O11 0.338655 0.430358 0.340239
O O12 0.848965 0.588238 0.176677
O O13 0.690558 0.382309 0.566017
O O14 0.183810 0.674090 0.620989
O O15 0.000000 0.500000 0.000000
O O16 0.275234 0.647701 0.948708
O O17 0.995715 0.714231 0.297926
O O18 0.697588 0.253427 0.969686
#
# Coordination Sequence:
#
# PCOD9062529 Si02
#       8
#     2   2   2   2   2   2   2   2
#     4  12  30  52  83 118 157 206 273 333 401 468
#     4  11  26  45  77 102 148 195 249 310 378 453
#     4  12  29  52  83 115 157 207 272 335 401 464
#     4  12  26  42  70 107 151 193 243 301 380 461
#     4  11  24  41  68 100 145 186 243 299 370 450
#     4  11  24  43  69 102 146 191 244 295 381 443
#     4  11  25  42  67 107 140 191 241 300 376 452
#     4  12  27  44  75 104 152 191 248 315 379 452
#
# _framework density 25.839829999999999
#
# number of rings (size 3 to 8) (size 9 to 14) (size 15 to 20)
#    0.000    0.500    1.250    5.625   14.000    2.000 
#    0.000    0.000    0.000    0.000    0.000    0.000 
#    0.000    0.000    0.000    0.000    0.000    0.000 
#
# Total GULP energy -89329.352663 kJ/mol
# GULP energy per Si atom -5583.084541 kJ/mol
# Density = 2.578102 g / cm^3
# Si number density = 25.839830 Si / 1000 Ang^3
#
#
#
# Elastic Constant Matrix: (Units=GPa)
#
#
# Indices 1 2 3 4 5 6 
#
# 1 77.6512 30.1066 31.0026 19.1127 2.8509 -9.5444
# 2 30.1066 163.1182 44.8040 26.6570 -5.7272 -35.0194
# 3 31.0026 44.8040 75.3647 8.0306 0.1306 -15.9305
# 4 19.1127 26.6570 8.0306 57.6284 0.6578 -2.0603
# 5 2.8509 -5.7272 0.1306 0.6578 51.4707 6.9932
# 6 -9.5444 -35.0194 -15.9305 -2.0603 6.9932 44.1497
#
#
#
# Elastic Compliance Matrix: (Units=1/GPa)
#
#
# Indices 1 2 3 4 5 6 
#
# 1 0.016677 -0.000578 -0.005834 -0.004403 -0.001053 0.001003
# 2 -0.000578 0.008936 -0.003573 -0.003252 0.000334 0.005469
# 3 -0.005834 -0.003573 0.018223 0.001147 -0.000490 0.002612
# 4 -0.004403 -0.003252 0.001147 0.020081 -0.000083 -0.002167
# 5 -0.001053 0.000334 -0.000490 -0.000083 0.019976 -0.003308
# 6 0.001003 0.005469 0.002612 -0.002167 -0.003308 0.028570
#
#
# Mechanical properties :
#
#
# Convention : Reuss Voigt Hill
#
# Bulk Modulus (GPa) = 41.89756 58.66230 50.27993
# Shear Modulus (GPa) = 35.61575 44.66449 40.14012
#
# Velocity S-wave (km/s) = 3.71661 4.16205 3.94562
# Velocity P-wave (km/s) = 5.88788 6.77115 6.34490
#
# Compressibility (1/GPa) = 0.02386774
#
# Stress axis : x y z
#
# Youngs Moduli (GPa) = 59.96282 111.90903 54.87492
#
# Poissons Ratio (x) = 0.06465 0.32013
# Poissons Ratio (y) = 0.03464 0.19605
# Poissons Ratio (z) = 0.34981 0.39981
#
# Static dielectric constant tensor:
#      x y z
#    x 2.176410 0.023170 -0.125130 
#    y 0.023170 2.102350 -0.127700 
#    z -0.125130 -0.127700 2.422990 
# 
# From -- ./inp_files/117049.got.cif
#   From: 2010.05.17/outbox.cif.g08.bks.cpg/sg2_59_cif.got.tgz:117049.got - 2010.06.03 11:33:40.
