data_PCOD9062264
_publ_section_title
;
Structure prediction by ZEFSAII (Michael W. Deem and Ramdas Pophale) SiO2 
 PCOD9062264
Probable space group: P -1
;
_chemical_formula_sum "Si O2"
_cell_formula_units_Z 16
_cell_length_a 12.784024
_cell_length_b 11.392673
_cell_length_c 10.304478
_cell_angle_alpha 149.691809
_cell_angle_beta 65.674075
_cell_angle_gamma 120.732711
_cell_volume 649.526074
_symmetry_space_group_name_H-M "P -1"
_symmetry_group_IT_number 2
_symmetry_cell_setting 'triclinic'
loop_
_space_group_symop_operation_xyz
x,y,z
-x,-y,-z
loop_
_atom_site_type_symbol
_atom_site_label
_atom_site_fract_x
_atom_site_fract_y
_atom_site_fract_z
Si Si1 0.272886 0.679194 0.390819
Si Si2 0.635672 0.483191 0.057491
Si Si3 0.653147 0.826740 0.734756
Si Si4 0.838908 0.012522 0.435245
Si Si5 0.931913 0.704637 0.733013
Si Si6 0.778581 0.275235 0.970092
Si Si7 0.441109 0.603316 0.428429
Si Si8 0.892004 0.737527 0.488020
O O1 0.199732 0.852705 0.539710
O O2 0.173392 0.410333 0.216760
O O3 0.352436 0.734003 0.534348
O O4 0.361417 0.670312 0.218862
O O5 0.517652 0.546532 0.216362
O O6 0.748146 0.736378 0.224993
O O7 0.667927 0.342186 0.027108
O O8 0.536713 0.762197 0.638110
O O9 0.621472 0.658875 0.717394
O O10 0.763533 0.766700 0.549393
O O11 0.719070 0.120097 0.981426
O O12 0.820713 0.150687 0.707271
O O13 0.981233 0.042574 0.385487
O O14 0.881943 0.684565 0.594375
O O15 0.000000 0.500000 0.500000
O O16 0.000000 0.000000 0.000000
O O17 0.890551 0.504912 0.181874
#
# Coordination Sequence:
#
# PCOD9062264 Si02
#       8
#     2   2   2   2   2   2   2   2
#     4  11  25  44  73 105 139 196 242 303 373 438
#     4  11  24  47  69 103 143 190 242 305 366 444
#     4  11  25  45  70 101 141 186 241 308 364 439
#     4  11  24  45  70 104 145 180 241 303 370 447
#     4  12  27  49  74 113 156 194 251 310 377 454
#     4  11  24  44  69 109 135 188 241 295 385 431
#     4  11  23  49  67  99 144 188 251 297 363 448
#     4  12  24  44  74 104 144 186 238 306 374 442
#
# _framework density 24.633341999999999
#
# number of rings (size 3 to 8) (size 9 to 14) (size 15 to 20)
#    0.000    0.750    5.000    1.500    1.750    5.000 
#    2.250    0.000    0.000    0.000    0.000    0.000 
#    0.000    0.000    0.000    0.000    0.000    0.000 
#
# Total GULP energy -89379.417253 kJ/mol
# GULP energy per Si atom -5586.213578 kJ/mol
# Density = 2.457728 g / cm^3
# Si number density = 24.633342 Si / 1000 Ang^3
#
#
#
# Elastic Constant Matrix: (Units=GPa)
#
#
# Indices 1 2 3 4 5 6 
#
# 1 732.4133 -40.5134 1.7173 129.3540 -261.5174 -186.2249
# 2 -40.5134 114.4571 11.0041 0.2075 34.0905 19.1370
# 3 1.7173 11.0041 42.9625 -3.1933 7.5920 -6.6166
# 4 129.3540 0.2075 -3.1933 66.6574 -55.8755 -33.6872
# 5 -261.5174 34.0905 7.5920 -55.8755 130.2770 70.7081
# 6 -186.2249 19.1370 -6.6166 -33.6872 70.7081 96.3061
#
#
#
# Elastic Compliance Matrix: (Units=1/GPa)
#
#
# Indices 1 2 3 4 5 6 
#
# 1 0.006173 -0.001335 -0.001055 -0.001671 0.009675 0.004441
# 2 -0.001335 0.010474 -0.002117 -0.003232 -0.005753 -0.001715
# 3 -0.001055 -0.002117 0.025398 0.001438 -0.004602 0.004008
# 4 -0.001671 -0.003232 0.001438 0.025255 0.007974 0.000490
# 5 0.009675 -0.005753 -0.004602 0.007974 0.033540 -0.002300
# 6 0.004441 -0.001715 0.004008 0.000490 -0.002300 0.021448
#
#
# Mechanical properties :
#
#
# Convention : Reuss Voigt Hill
#
# Bulk Modulus (GPa) = 30.27450 92.69433 61.48441
# Shear Modulus (GPa) = 35.13397 119.82310 77.47853
#
# Velocity S-wave (km/s) = 3.78071 6.98199 5.61436
# Velocity P-wave (km/s) = 5.60134 10.13454 8.18792
#
# Compressibility (1/GPa) = 0.03303110
#
# Stress axis : x y z
#
# Youngs Moduli (GPa) = 161.99463 95.47495 39.37331
#
# Poissons Ratio (x) = 0.12745 0.04153
# Poissons Ratio (y) = 0.21625 0.08336
# Poissons Ratio (z) = 0.17087 0.20214
#
# Static dielectric constant tensor:
#      x y z
#    x 2.035060 0.003410 -0.123370 
#    y 0.003410 1.951220 0.029360 
#    z -0.123370 0.029360 2.095540 
# 
# From -- ./inp_files/429223.got.cif
#   From: 2010.05.17/outbox.cif.g08.bks.cpg/sg2_215_cif.got.tgz:429223.got - 2010.06.03 11:33:40.
