data_PCOD9062909
_publ_section_title
;
Structure prediction by ZEFSAII (Michael W. Deem and Ramdas Pophale) SiO2 
 PCOD9062909
Probable space group: P -1
;
_chemical_formula_sum "Si O2"
_cell_formula_units_Z 13
_cell_length_a 14.801772
_cell_length_b 14.784835
_cell_length_c 11.818073
_cell_angle_alpha 151.199345
_cell_angle_beta 31.729704
_cell_angle_gamma 151.851664
_cell_volume 552.212382
_symmetry_space_group_name_H-M "P -1"
_symmetry_group_IT_number 2
_symmetry_cell_setting 'triclinic'
loop_
_space_group_symop_operation_xyz
x,y,z
-x,-y,-z
loop_
_atom_site_type_symbol
_atom_site_label
_atom_site_fract_x
_atom_site_fract_y
_atom_site_fract_z
Si Si1 0.058627 0.597577 0.832984
Si Si2 0.129859 0.860730 0.591338
Si Si3 0.810965 0.756290 0.407394
Si Si4 0.508840 0.406266 0.008863
Si Si5 0.500000 0.000000 0.500000
Si Si6 0.405562 0.576518 0.522383
Si Si7 0.962609 0.758314 0.908338
O O1 0.264026 0.673726 0.765225
O O2 0.955554 0.338904 0.625419
O O3 0.109467 0.741869 0.822040
O O4 0.903432 0.631925 0.107220
O O5 0.365028 0.969782 0.493848
O O6 0.019110 0.756656 0.716347
O O7 0.075367 0.042650 0.816156
O O8 0.635244 0.745477 0.505315
O O9 0.701234 0.622059 0.490727
O O10 0.000000 0.000000 0.500000
O O11 0.749084 0.529372 0.909909
O O12 0.418587 0.148908 0.805790
O O13 0.500000 0.500000 0.000000
O O14 0.412700 0.474587 0.283002
#
# Coordination Sequence:
#
# PCOD9062909 Si02
#       7
#     2   2   2   2   1   2   2
#     4  12  25  46  77 106 150 196 253 318 383 441
#     4  11  25  41  68 109 154 200 249 303 373 460
#     4  11  27  54  79 109 148 197 264 321 375 452
#     4  12  24  46  68 112 154 192 249 304 374 461
#     4  12  24  38  70 102 154 206 244 298 372 448
#     4  11  27  50  78 111 151 198 254 321 375 455
#     4  11  24  43  66 105 155 198 242 306 372 452
#
# _framework density 23.541665999999999
#
# number of rings (size 3 to 8) (size 9 to 14) (size 15 to 20)
#    0.000    0.615    4.615    1.846    6.462    0.615 
#    0.000    1.538    0.000    0.000    0.000    0.000 
#    0.000    0.000    0.000    0.000    0.000    0.000 
#
# Total GULP energy -72574.811007 kJ/mol
# GULP energy per Si atom -5582.677770 kJ/mol
# Density = 2.348808 g / cm^3
# Si number density = 23.541666 Si / 1000 Ang^3
#
#
#
# Elastic Constant Matrix: (Units=GPa)
#
#
# Indices 1 2 3 4 5 6 
#
# 1 139.0504 26.9843 37.6554 -2.0367 -21.8336 23.6935
# 2 26.9843 72.5898 12.7362 -3.9734 10.7665 16.8481
# 3 37.6554 12.7362 58.5101 4.2320 3.3015 20.0197
# 4 -2.0367 -3.9734 4.2320 28.6429 2.6707 -3.9965
# 5 -21.8336 10.7665 3.3015 2.6707 54.0763 -11.9742
# 6 23.6935 16.8481 20.0197 -3.9965 -11.9742 35.9498
#
#
#
# Elastic Compliance Matrix: (Units=1/GPa)
#
#
# Indices 1 2 3 4 5 6 
#
# 1 0.010408 -0.003545 -0.006337 0.000715 0.005298 0.000175
# 2 -0.003545 0.018128 0.001908 0.001337 -0.007330 -0.009515
# 3 -0.006337 0.001908 0.026581 -0.005453 -0.007533 -0.014635
# 4 0.000715 0.001337 -0.005453 0.036802 -0.000137 0.005985
# 5 0.005298 -0.007330 -0.007533 -0.000137 0.025339 0.012563
# 6 0.000175 -0.009515 -0.014635 0.005985 0.012563 0.045160
#
#
# Mechanical properties :
#
#
# Convention : Reuss Voigt Hill
#
# Bulk Modulus (GPa) = 25.53064 47.21134 36.37099
# Shear Modulus (GPa) = 26.11998 36.58542 31.35270
#
# Velocity S-wave (km/s) = 3.33456 3.94645 3.65334
# Velocity P-wave (km/s) = 5.06894 6.39248 5.76880
#
# Compressibility (1/GPa) = 0.03916862
#
# Stress axis : x y z
#
# Youngs Moduli (GPa) = 96.07665 55.16445 37.62028
#
# Poissons Ratio (x) = 0.19553 0.23842
# Poissons Ratio (y) = 0.34055 -0.07177
# Poissons Ratio (z) = 0.60888 -0.10523
#
# Static dielectric constant tensor:
#      x y z
#    x 2.148470 0.145270 -0.010750 
#    y 0.145270 2.014370 -0.020740 
#    z -0.010750 -0.020740 1.862040 
# 
# From -- ./inp_files/455162.got.cif
#   From: 2010.05.17/outbox.cif.g08.bks.cpg/sg2_228_cif.got.tgz:455162.got - 2010.06.03 11:33:40.
