data_PCOD9062533
_publ_section_title
;
Structure prediction by ZEFSAII (Michael W. Deem and Ramdas Pophale) SiO2 
 PCOD9062533
Probable space group: P -1
;
_chemical_formula_sum "Si O2"
_cell_formula_units_Z 10
_cell_length_a 7.196882
_cell_length_b 7.186159
_cell_length_c 10.573823
_cell_angle_alpha 103.544760
_cell_angle_beta 126.270429
_cell_angle_gamma 76.961155
_cell_volume 425.979486
_symmetry_space_group_name_H-M "P -1"
_symmetry_group_IT_number 2
_symmetry_cell_setting 'triclinic'
loop_
_space_group_symop_operation_xyz
x,y,z
-x,-y,-z
loop_
_atom_site_type_symbol
_atom_site_label
_atom_site_fract_x
_atom_site_fract_y
_atom_site_fract_z
Si Si1 0.117825 0.541927 0.419756
Si Si2 0.532885 0.220209 0.510462
Si Si3 0.795042 0.157430 0.843946
Si Si4 0.696556 0.904924 0.971361
Si Si5 0.247103 0.486316 0.949357
O O1 0.292525 0.353850 0.422130
O O2 0.280402 0.718702 0.507534
O O3 0.000000 0.500000 0.500000
O O4 0.918417 0.573157 0.238065
O O5 0.651123 0.277063 0.698854
O O6 0.500000 0.000000 0.500000
O O7 0.843084 0.310127 0.994868
O O8 0.041216 0.058313 0.878062
O O9 0.661057 0.997577 0.833720
O O10 0.713144 0.677256 0.954439
O O11 0.500000 0.000000 0.000000
O O12 0.500000 0.500000 0.000000
#
# Coordination Sequence:
#
# PCOD9062533 Si02
#       5
#     2   2   2   2   2
#     4  11  27  48  69 105 145 185 236 286 356 425
#     4  11  27  47  73 100 143 190 234 287 357 418
#     4  11  25  44  71 103 135 181 233 290 348 408
#     4  11  24  41  68 104 137 173 234 284 346 407
#     4  12  24  44  75 103 141 182 230 293 351 411
#
# _framework density 23.475308999999999
#
# number of rings (size 3 to 8) (size 9 to 14) (size 15 to 20)
#    0.000    0.800    4.000    1.800    5.600    4.000 
#    0.000    0.000    0.000    0.000    0.000    0.000 
#    0.000    0.000    0.000    0.000    0.000    0.000 
#
# Total GULP energy -55876.563034 kJ/mol
# GULP energy per Si atom -5587.656303 kJ/mol
# Density = 2.342188 g / cm^3
# Si number density = 23.475309 Si / 1000 Ang^3
#
#
#
# Elastic Constant Matrix: (Units=GPa)
#
#
# Indices 1 2 3 4 5 6 
#
# 1 202.4041 59.3118 31.1373 -1.1549 19.7615 21.8821
# 2 59.3118 147.8941 12.3739 -2.2325 6.1314 29.4318
# 3 31.1373 12.3739 50.3621 -6.8630 6.0105 -0.0697
# 4 -1.1549 -2.2325 -6.8630 40.0083 5.7549 4.8414
# 5 19.7615 6.1314 6.0105 5.7549 32.4477 -8.7147
# 6 21.8821 29.4318 -0.0697 4.8414 -8.7147 53.4769
#
#
#
# Elastic Compliance Matrix: (Units=1/GPa)
#
#
# Indices 1 2 3 4 5 6 
#
# 1 0.006561 -0.001730 -0.003127 0.000393 -0.003801 -0.002391
# 2 -0.001730 0.008465 -0.000654 0.001092 -0.001784 -0.004341
# 3 -0.003127 -0.000654 0.022828 0.004072 -0.002691 0.000862
# 4 0.000393 0.001092 0.004072 0.027340 -0.007233 -0.004410
# 5 -0.003801 -0.001784 -0.002691 -0.007233 0.037762 0.009342
# 6 -0.002391 -0.004341 0.000862 -0.004410 0.009342 0.023990
#
#
# Mechanical properties :
#
#
# Convention : Reuss Voigt Hill
#
# Bulk Modulus (GPa) = 37.27239 67.36735 52.31987
# Shear Modulus (GPa) = 34.03429 45.04240 39.53834
#
# Velocity S-wave (km/s) = 3.81174 4.38506 4.10842
# Velocity P-wave (km/s) = 5.94005 7.37549 6.69634
#
# Compressibility (1/GPa) = 0.02682951
#
# Stress axis : x y z
#
# Youngs Moduli (GPa) = 152.42584 118.14020 43.80649
#
# Poissons Ratio (x) = 0.20438 0.13700
# Poissons Ratio (y) = 0.26369 0.02867
# Poissons Ratio (z) = 0.47668 0.07731
#
# Static dielectric constant tensor:
#      x y z
#    x 2.116550 -0.040510 -0.016180 
#    y -0.040510 1.923990 0.057240 
#    z -0.016180 0.057240 1.967060 
# 
# From -- ./inp_files/360933.got.cif
#   From: 2010.05.17/outbox.cif.g08.bks.cpg/sg2_181_cif.got.tgz:360933.got - 2010.06.03 11:33:40.
