data_PCOD9062849
_publ_section_title
;
Structure prediction by ZEFSAII (Michael W. Deem and Ramdas Pophale) SiO2 
 PCOD9062849
Probable space group: P -1
;
_chemical_formula_sum "Si O2"
_cell_formula_units_Z 12
_cell_length_a 6.645465
_cell_length_b 12.628719
_cell_length_c 8.955590
_cell_angle_alpha 107.329806
_cell_angle_beta 90.218510
_cell_angle_gamma 51.430001
_cell_volume 544.036034
_symmetry_space_group_name_H-M "P -1"
_symmetry_group_IT_number 2
_symmetry_cell_setting 'triclinic'
loop_
_space_group_symop_operation_xyz
x,y,z
-x,-y,-z
loop_
_atom_site_type_symbol
_atom_site_label
_atom_site_fract_x
_atom_site_fract_y
_atom_site_fract_z
Si Si1 0.672153 0.346887 0.528565
Si Si2 0.091634 0.952325 0.721207
Si Si3 0.666494 0.515808 0.120110
Si Si4 0.217637 0.294348 0.954879
Si Si5 0.199819 0.127968 0.611586
Si Si6 0.316415 0.963380 0.023677
O O1 0.500000 0.500000 0.500000
O O2 0.698753 0.218599 0.391859
O O3 0.505791 0.398263 0.701015
O O4 0.978741 0.256993 0.549496
O O5 0.084765 0.050016 0.636209
O O6 0.149087 0.999777 0.892321
O O7 0.833634 0.978697 0.793242
O O8 0.751884 0.600537 0.083997
O O9 0.500000 0.500000 0.000000
O O10 0.957175 0.359017 0.078186
O O11 0.221419 0.201610 0.784647
O O12 0.469598 0.209321 0.027184
O O13 0.500000 0.000000 0.500000
O O14 0.500000 0.000000 0.000000
#
# Coordination Sequence:
#
# PCOD9062849 Si02
#       6
#     2   2   2   2   2   2
#     4  12  28  44  72 105 147 189 236 301 363 423
#     4  11  26  45  72 105 148 188 241 299 363 427
#     4  11  25  46  69  98 146 189 236 286 364 436
#     4  11  24  42  74 101 135 192 241 290 357 435
#     4  12  24  46  75 103 145 190 243 297 360 431
#     4  11  24  43  74 106 137 183 242 304 353 424
#
# _framework density 22.057361
#
# number of rings (size 3 to 8) (size 9 to 14) (size 15 to 20)
#    0.000    0.667    3.333    3.500    4.667    0.000 
#    0.000    2.500    0.000    0.000    0.000    0.000 
#    0.000    0.000    0.000    0.000    0.000    0.000 
#
# Total GULP energy -66867.798895 kJ/mol
# GULP energy per Si atom -5572.316575 kJ/mol
# Density = 2.200716 g / cm^3
# Si number density = 22.057361 Si / 1000 Ang^3
#
#
#
# Elastic Constant Matrix: (Units=GPa)
#
#
# Indices 1 2 3 4 5 6 
#
# 1 92.0369 35.2562 60.1961 4.5538 -22.6694 9.1184
# 2 35.2562 108.4551 24.0408 -3.7230 -13.1814 -6.2376
# 3 60.1961 24.0408 75.3668 18.6831 -30.6288 -1.8681
# 4 4.5538 -3.7230 18.6831 36.9080 -6.0128 0.2252
# 5 -22.6694 -13.1814 -30.6288 -6.0128 39.4602 12.5127
# 6 9.1184 -6.2376 -1.8681 0.2252 12.5127 45.0612
#
#
#
# Elastic Compliance Matrix: (Units=1/GPa)
#
#
# Indices 1 2 3 4 5 6 
#
# 1 0.027834 -0.004075 -0.022920 0.007858 0.000346 -0.007282
# 2 -0.004075 0.010892 -0.000388 0.001883 0.000605 0.002139
# 3 -0.022920 -0.000388 0.042488 -0.016014 0.016673 0.001796
# 4 0.007858 0.001883 -0.016014 0.034183 -0.001526 -0.001740
# 5 0.000346 0.000605 0.016673 -0.001526 0.041917 -0.010927
# 6 -0.007282 0.002139 0.001796 -0.001740 -0.010927 0.027079
#
#
# Mechanical properties :
#
#
# Convention : Reuss Voigt Hill
#
# Bulk Modulus (GPa) = 37.80615 57.20500 47.50558
# Shear Modulus (GPa) = 20.16332 34.71027 27.43679
#
# Velocity S-wave (km/s) = 3.02674 3.97121 3.53070
# Velocity P-wave (km/s) = 5.42144 6.85699 6.18103
#
# Compressibility (1/GPa) = 0.02645072
#
# Stress axis : x y z
#
# Youngs Moduli (GPa) = 35.92671 91.80881 23.53582
#
# Poissons Ratio (x) = 0.37411 0.53943
# Poissons Ratio (y) = 0.14640 0.00912
# Poissons Ratio (z) = 0.82343 0.03558
#
# Static dielectric constant tensor:
#      x y z
#    x 1.901070 -0.043630 -0.056620 
#    y -0.043630 1.647090 0.096370 
#    z -0.056620 0.096370 1.811200 
# 
# From -- ./inp_files/22759.got.cif
#   From: 2010.05.17/outbox.cif.g08.bks.cpg/sg2_12_cif.got.tgz:22759.got - 2010.06.03 11:33:40.
