data_PCOD9062038
_publ_section_title
;
Structure prediction by ZEFSAII (Michael W. Deem and Ramdas Pophale) SiO2 
 PCOD9062038
Probable space group: P -1
;
_chemical_formula_sum "Si O2"
_cell_formula_units_Z 16
_cell_length_a 9.751266
_cell_length_b 11.227814
_cell_length_c 10.008844
_cell_angle_alpha 94.773613
_cell_angle_beta 133.730269
_cell_angle_gamma 84.537747
_cell_volume 788.016673
_symmetry_space_group_name_H-M "P -1"
_symmetry_group_IT_number 2
_symmetry_cell_setting 'triclinic'
loop_
_space_group_symop_operation_xyz
x,y,z
-x,-y,-z
loop_
_atom_site_type_symbol
_atom_site_label
_atom_site_fract_x
_atom_site_fract_y
_atom_site_fract_z
Si Si1 0.420591 0.135940 0.447638
Si Si2 0.902215 0.620456 0.502819
Si Si3 0.977384 0.184821 0.207746
Si Si4 0.542433 0.505616 0.372628
Si Si5 0.806741 0.038110 0.297514
Si Si6 0.521114 0.239369 0.241052
Si Si7 0.343163 0.724161 0.161380
Si Si8 0.351466 0.217519 0.844545
O O1 0.437181 0.184874 0.313666
O O2 0.551161 0.211278 0.640874
O O3 0.199833 0.148501 0.341578
O O4 0.500000 0.000000 0.500000
O O5 0.726088 0.579768 0.469885
O O6 0.817083 0.705171 0.334832
O O7 0.000000 0.500000 0.500000
O O8 0.032109 0.700285 0.689269
O O9 0.868774 0.079926 0.196709
O O10 0.869083 0.223981 0.003475
O O11 0.500000 0.500000 0.500000
O O12 0.575208 0.373347 0.323821
O O13 0.368908 0.582962 0.193998
O O14 0.694074 0.148805 0.303289
O O15 0.681642 0.922827 0.202905
O O16 0.000000 0.000000 0.500000
O O17 0.378867 0.246203 0.020342
O O18 0.461838 0.751439 0.110051
#
# Coordination Sequence:
#
# PCOD9062038 Si02
#       8
#     2   2   2   2   2   2   2   2
#     4  12  26  49  67 100 145 181 225 285 347 407
#     4  11  24  43  67 101 139 171 231 281 337 405
#     4  12  24  45  70 101 136 187 221 282 347 404
#     4  11  23  47  69  94 142 184 222 283 343 407
#     4  12  23  43  70 100 138 174 234 283 338 410
#     4  12  25  43  72 101 134 184 229 279 349 403
#     4  11  24  46  72  95 143 183 225 281 351 401
#     4  11  24  43  69 102 140 179 224 293 338 403
#
# _framework density 20.304138999999999
#
# number of rings (size 3 to 8) (size 9 to 14) (size 15 to 20)
#    0.000    0.500    6.250    2.625    3.500    1.500 
#    4.500    1.250    0.000    0.000    0.000    0.000 
#    0.000    0.000    0.000    0.000    0.000    0.000 
#
# Total GULP energy -89480.665124 kJ/mol
# GULP energy per Si atom -5592.541570 kJ/mol
# Density = 2.025793 g / cm^3
# Si number density = 20.304139 Si / 1000 Ang^3
#
#
#
# Elastic Constant Matrix: (Units=GPa)
#
#
# Indices 1 2 3 4 5 6 
#
# 1 67.7769 43.2145 37.2199 -12.7320 -12.9048 -5.4272
# 2 43.2145 159.2457 44.4449 -5.6973 -2.2552 -2.7914
# 3 37.2199 44.4449 117.9841 -16.1562 -11.9891 -3.0136
# 4 -12.7320 -5.6973 -16.1562 28.4626 -2.5476 -6.6074
# 5 -12.9048 -2.2552 -11.9891 -2.5476 33.2501 -12.1559
# 6 -5.4272 -2.7914 -3.0136 -6.6074 -12.1559 34.4993
#
#
#
# Elastic Compliance Matrix: (Units=1/GPa)
#
#
# Indices 1 2 3 4 5 6 
#
# 1 0.025247 -0.005295 -0.002686 0.012281 0.013179 0.010304
# 2 -0.005295 0.008137 -0.002146 -0.002714 -0.003222 -0.002017
# 3 -0.002686 -0.002146 0.011508 0.006051 0.004590 0.003185
# 4 0.012281 -0.002714 0.006051 0.049132 0.016975 0.017632
# 5 0.013179 -0.003222 0.004590 0.016975 0.045828 0.021612
# 6 0.010304 -0.002017 0.003185 0.017632 0.021612 0.041714
#
#
# Mechanical properties :
#
#
# Convention : Reuss Voigt Hill
#
# Bulk Modulus (GPa) = 40.58622 66.08504 53.33563
# Shear Modulus (GPa) = 23.80603 33.91754 28.86179
#
# Velocity S-wave (km/s) = 3.42785 4.09158 3.77433
# Velocity P-wave (km/s) = 5.97490 7.41212 6.73198
#
# Compressibility (1/GPa) = 0.02463890
#
# Stress axis : x y z
#
# Youngs Moduli (GPa) = 39.60926 122.89202 86.89903
#
# Poissons Ratio (x) = 0.65071 0.23339
# Poissons Ratio (y) = 0.20973 0.18645
# Poissons Ratio (z) = 0.10638 0.26367
#
# Static dielectric constant tensor:
#      x y z
#    x 1.718980 -0.004680 0.015880 
#    y -0.004680 1.721630 -0.005790 
#    z 0.015880 -0.005790 1.732150 
# 
# From -- ./inp_files/188009.got.cif
#   From: 2010.05.17/outbox.cif.g08.bks.cpg/sg2_95_cif.got.tgz:188009.got - 2010.06.03 11:33:40.
