data_PCOD9062577
_publ_section_title
;
Structure prediction by ZEFSAII (Michael W. Deem and Ramdas Pophale) SiO2 
 PCOD9062577
Probable space group: P -1
;
_chemical_formula_sum "Si O2"
_cell_formula_units_Z 16
_cell_length_a 5.685294
_cell_length_b 20.687634
_cell_length_c 9.841162
_cell_angle_alpha 41.626054
_cell_angle_beta 107.387389
_cell_angle_gamma 117.221963
_cell_volume 681.887108
_symmetry_space_group_name_H-M "P -1"
_symmetry_group_IT_number 2
_symmetry_cell_setting 'triclinic'
loop_
_space_group_symop_operation_xyz
x,y,z
-x,-y,-z
loop_
_atom_site_type_symbol
_atom_site_label
_atom_site_fract_x
_atom_site_fract_y
_atom_site_fract_z
Si Si1 0.756798 0.224477 0.644340
Si Si2 0.132752 0.107786 0.770482
Si Si3 0.751540 0.331734 0.199939
Si Si4 0.290975 0.449882 0.157005
Si Si5 0.888097 0.022684 0.586498
Si Si6 0.589404 0.170518 0.203697
Si Si7 0.923783 0.326361 0.789836
Si Si8 0.383269 0.524404 0.578240
O O1 0.457101 0.161627 0.752469
O O2 0.707677 0.301831 0.399215
O O3 0.938970 0.276227 0.725418
O O4 0.932025 0.167249 0.686128
O O5 0.094682 0.077040 0.653067
O O6 0.000000 0.000000 0.000000
O O7 0.565770 0.245647 0.202414
O O8 0.061819 0.350123 0.211843
O O9 0.771931 0.447090 0.976667
O O10 0.405687 0.420732 0.357505
O O11 0.500000 0.500000 0.000000
O O12 0.729153 0.097991 0.409472
O O13 0.685868 0.908926 0.777780
O O14 0.000000 0.000000 0.500000
O O15 0.767941 0.240343 0.006501
O O16 0.766007 0.400180 0.605592
O O17 0.188291 0.409156 0.772687
O O18 0.500000 0.500000 0.500000
#
# Coordination Sequence:
#
# PCOD9062577 Si02
#       8
#     2   2   2   2   2   2   2   2
#     4  12  27  46  76 104 144 189 243 295 360 434
#     4  12  28  49  74 105 145 187 240 302 364 427
#     4  11  24  44  68 104 138 186 238 294 358 427
#     4  11  24  41  70  98 142 183 234 295 357 427
#     4  11  26  44  71 100 138 186 235 299 355 429
#     4  11  24  45  67  99 140 179 239 289 364 420
#     4  11  26  42  68 103 139 189 237 295 359 432
#     4  11  24  43  66  99 145 181 237 296 358 427
#
# _framework density 23.464293999999999
#
# number of rings (size 3 to 8) (size 9 to 14) (size 15 to 20)
#    0.000    0.750    1.250    4.875    8.750    8.000 
#    0.000    0.000    0.000    0.000    0.000    0.000 
#    0.000    0.000    0.000    0.000    0.000    0.000 
#
# Total GULP energy -89361.612951 kJ/mol
# GULP energy per Si atom -5585.100809 kJ/mol
# Density = 2.341089 g / cm^3
# Si number density = 23.464294 Si / 1000 Ang^3
#
#
#
# Elastic Constant Matrix: (Units=GPa)
#
#
# Indices 1 2 3 4 5 6 
#
# 1 61.1467 11.3555 -2.9014 -9.3360 -7.9982 -4.0136
# 2 11.3555 88.3378 -1.1953 2.2813 8.6603 -7.3804
# 3 -2.9014 -1.1953 89.6079 -12.0736 -18.8804 3.3362
# 4 -9.3360 2.2813 -12.0736 44.5447 4.4012 -9.6255
# 5 -7.9982 8.6603 -18.8804 4.4012 36.7168 0.0935
# 6 -4.0136 -7.3804 3.3362 -9.6255 0.0935 35.5337
#
#
#
# Elastic Compliance Matrix: (Units=1/GPa)
#
#
# Indices 1 2 3 4 5 6 
#
# 1 0.018542 -0.002776 0.002205 0.004659 0.005263 0.002559
# 2 -0.002776 0.012243 -0.000909 -0.000603 -0.003893 0.002161
# 3 0.002205 -0.000909 0.013166 0.003315 0.007068 -0.000297
# 4 0.004659 -0.000603 0.003315 0.025918 -0.000263 0.007111
# 5 0.005263 -0.003893 0.007068 -0.000263 0.032969 -0.001036
# 6 0.002559 0.002161 -0.000297 0.007111 -0.001036 0.030837
#
#
# Mechanical properties :
#
#
# Convention : Reuss Voigt Hill
#
# Bulk Modulus (GPa) = 24.39606 28.17889 26.28748
# Shear Modulus (GPa) = 33.26739 38.81462 36.04100
#
# Velocity S-wave (km/s) = 3.76944 4.07160 3.92343
# Velocity P-wave (km/s) = 5.41891 5.84288 5.63488
#
# Compressibility (1/GPa) = 0.04099023
#
# Stress axis : x y z
#
# Youngs Moduli (GPa) = 53.93188 81.68242 75.95382
#
# Poissons Ratio (x) = 0.22676 -0.16745
# Poissons Ratio (y) = 0.14972 0.06901
# Poissons Ratio (z) = -0.11890 0.07421
#
# Static dielectric constant tensor:
#      x y z
#    x 2.098280 -0.001510 0.062940 
#    y -0.001510 1.890880 -0.060020 
#    z 0.062940 -0.060020 1.888460 
# 
# From -- ./inp_files/141152.got.cif
#   From: 2010.05.17/outbox.cif.g08.bks.cpg/sg2_71_cif.got.tgz:141152.got - 2010.06.03 11:33:40.
