data_PCOD9062068
_publ_section_title
;
Structure prediction by ZEFSAII (Michael W. Deem and Ramdas Pophale) SiO2 
 PCOD9062068
Probable space group: P -1
;
_chemical_formula_sum "Si O2"
_cell_formula_units_Z 16
_cell_length_a 15.150918
_cell_length_b 8.659459
_cell_length_c 11.253628
_cell_angle_alpha 100.742598
_cell_angle_beta 29.387950
_cell_angle_gamma 110.199310
_cell_volume 658.635212
_symmetry_space_group_name_H-M "P -1"
_symmetry_group_IT_number 2
_symmetry_cell_setting 'triclinic'
loop_
_space_group_symop_operation_xyz
x,y,z
-x,-y,-z
loop_
_atom_site_type_symbol
_atom_site_label
_atom_site_fract_x
_atom_site_fract_y
_atom_site_fract_z
Si Si1 0.013412 0.745962 0.568233
Si Si2 0.173989 0.621027 0.156506
Si Si3 0.629347 0.702848 0.873597
Si Si4 0.167548 0.182975 0.857099
Si Si5 0.599997 0.758912 0.652784
Si Si6 0.478236 0.819747 0.444606
Si Si7 0.845001 0.462454 0.075800
Si Si8 0.631600 0.121925 0.674613
O O1 0.146889 0.754670 0.297470
O O2 0.159754 0.858864 0.512449
O O3 0.958047 0.560146 0.662493
O O4 0.815540 0.756234 0.750587
O O5 0.386227 0.612666 0.890683
O O6 0.109072 0.635411 0.101864
O O7 0.695313 0.750269 0.666393
O O8 0.500000 0.500000 0.000000
O O9 0.486743 0.798853 0.090798
O O10 0.280534 0.236734 0.605153
O O11 0.301732 0.165428 0.804191
O O12 0.130332 0.348684 0.962327
O O13 0.000000 0.000000 0.000000
O O14 0.536958 0.920736 0.741449
O O15 0.356829 0.661839 0.648173
O O16 0.374901 0.799295 0.435739
O O17 0.500000 0.000000 0.500000
O O18 0.000000 0.500000 0.000000
#
# Coordination Sequence:
#
# PCOD9062068 Si02
#       8
#     2   2   2   2   2   2   2   2
#     4  11  25  45  75 110 148 193 253 312 377 457
#     4  11  23  47  71 104 151 192 245 313 377 458
#     4  12  26  46  79 111 146 200 255 313 383 456
#     4  12  29  49  75 114 154 199 269 319 383 475
#     4  12  26  50  75 104 156 196 250 317 387 454
#     4  12  25  50  76 109 151 204 249 323 391 459
#     4  12  27  44  77 111 150 203 256 315 397 460
#     4  12  27  48  75 109 157 197 249 318 386 450
#
# _framework density 24.292657999999999
#
# number of rings (size 3 to 8) (size 9 to 14) (size 15 to 20)
#    0.000    0.250    5.000    3.000    7.000    0.500 
#    0.000    0.000    0.000    0.000    0.000    0.000 
#    0.000    0.000    0.000    0.000    0.000    0.000 
#
# Total GULP energy -89433.257946 kJ/mol
# GULP energy per Si atom -5589.578622 kJ/mol
# Density = 2.423737 g / cm^3
# Si number density = 24.292658 Si / 1000 Ang^3
#
#
#
# Elastic Constant Matrix: (Units=GPa)
#
#
# Indices 1 2 3 4 5 6 
#
# 1 176.2072 10.5202 36.0478 -1.2378 -8.8356 8.6441
# 2 10.5202 71.7995 8.1290 -1.8930 -1.5620 4.7637
# 3 36.0478 8.1290 82.9361 -14.5559 3.1100 14.7241
# 4 -1.2378 -1.8930 -14.5559 34.8537 0.1264 -3.9901
# 5 -8.8356 -1.5620 3.1100 0.1264 52.9686 2.7847
# 6 8.6441 4.7637 14.7241 -3.9901 2.7847 31.5992
#
#
#
# Elastic Compliance Matrix: (Units=1/GPa)
#
#
# Indices 1 2 3 4 5 6 
#
# 1 0.006375 -0.000575 -0.002846 -0.001064 0.001246 -0.000575
# 2 -0.000575 0.014229 -0.000838 0.000216 0.000457 -0.001610
# 3 -0.002846 -0.000838 0.015379 0.005656 -0.001129 -0.005447
# 4 -0.001064 0.000216 0.005656 0.031216 -0.000663 0.001623
# 5 0.001246 0.000457 -0.001129 -0.000663 0.019256 -0.001664
# 6 -0.000575 -0.001610 -0.005447 0.001623 -0.001664 0.034936
#
#
# Mechanical properties :
#
#
# Convention : Reuss Voigt Hill
#
# Bulk Modulus (GPa) = 36.40909 48.92632 42.66771
# Shear Modulus (GPa) = 35.95486 42.30068 39.12777
#
# Velocity S-wave (km/s) = 3.85134 4.17741 4.01769
# Velocity P-wave (km/s) = 5.89893 6.59180 6.25496
#
# Compressibility (1/GPa) = 0.02746567
#
# Stress axis : x y z
#
# Youngs Moduli (GPa) = 156.86604 70.27774 65.02486
#
# Poissons Ratio (x) = 0.04038 0.18504
# Poissons Ratio (y) = 0.09014 0.05450
# Poissons Ratio (z) = 0.44640 0.05891
#
# Static dielectric constant tensor:
#      x y z
#    x 1.971920 0.054390 0.009800 
#    y 0.054390 1.808110 -0.010930 
#    z 0.009800 -0.010930 1.979610 
# 
# From -- ./inp_files/447616.got.cif
#   From: 2010.05.17/outbox.cif.g08.bks.cpg/sg2_224_cif.got.tgz:447616.got - 2010.06.03 11:33:40.
