data_PCOD9062117
_publ_section_title
;
Structure prediction by ZEFSAII (Michael W. Deem and Ramdas Pophale) SiO2 
 PCOD9062117
Probable space group: P -1
;
_chemical_formula_sum "Si O2"
_cell_formula_units_Z 16
_cell_length_a 13.849693
_cell_length_b 5.374146
_cell_length_c 17.275630
_cell_angle_alpha 81.193954
_cell_angle_beta 115.216294
_cell_angle_gamma 64.183640
_cell_volume 952.382055
_symmetry_space_group_name_H-M "P -1"
_symmetry_group_IT_number 2
_symmetry_cell_setting 'triclinic'
loop_
_space_group_symop_operation_xyz
x,y,z
-x,-y,-z
loop_
_atom_site_type_symbol
_atom_site_label
_atom_site_fract_x
_atom_site_fract_y
_atom_site_fract_z
Si Si1 0.748729 0.609005 0.529246
Si Si2 0.584097 0.456196 0.912976
Si Si3 0.705996 0.140891 0.566333
Si Si4 0.238832 0.406764 0.767450
Si Si5 0.297387 0.789101 0.873891
Si Si6 0.079946 0.636715 0.548251
Si Si7 0.498080 0.262122 0.609818
Si Si8 0.524589 0.076757 0.805393
O O1 0.777642 0.310298 0.597709
O O2 0.804653 0.503798 0.467913
O O3 0.592853 0.824737 0.458747
O O4 0.790770 0.808176 0.575146
O O5 0.441211 0.621271 0.894218
O O6 0.594065 0.206351 0.870961
O O7 0.587254 0.721039 0.858901
O O8 0.682180 0.308508 0.025056
O O9 0.627703 0.145337 0.613026
O O10 0.598007 0.373586 0.455018
O O11 0.227540 0.660993 0.808139
O O12 0.135574 0.536732 0.657685
O O13 0.378790 0.249014 0.780913
O O14 0.237677 0.143575 0.824628
O O15 0.000000 0.500000 0.500000
O O16 0.000000 0.000000 0.500000
O O17 0.519348 0.160810 0.710006
#
# Coordination Sequence:
#
# PCOD9062117 Si02
#       8
#     2   2   2   2   2   2   2   2
#     4  10  19  34  46  63  92 126 159 197 232 272
#     4   9  18  27  39  68  86 121 149 195 217 269
#     4   9  19  29  49  66  91 121 172 183 228 278
#     4  10  18  32  46  62  83 130 155 194 228 275
#     4   9  17  29  46  58  88 116 164 182 227 276
#     4  12  24  35  49  70  95 125 169 210 239 261
#     4   9  19  28  48  69  93 126 163 188 222 288
#     4  10  18  26  45  63  97 119 156 182 228 270
#
# _framework density 16.799980000000001
#
# number of rings (size 3 to 8) (size 9 to 14) (size 15 to 20)
#    0.750    1.500    1.250    2.625    1.750    4.000 
#    0.000    0.000    0.000    0.000    0.000    0.000 
#    0.000    0.000    0.000   78.750    0.000    0.000 
#
# Total GULP energy -89076.972248 kJ/mol
# GULP energy per Si atom -5567.310765 kJ/mol
# Density = 1.676174 g / cm^3
# Si number density = 16.799980 Si / 1000 Ang^3
#
#
#
# Elastic Constant Matrix: (Units=GPa)
#
#
# Indices 1 2 3 4 5 6 
#
# 1 41.7779 28.8192 39.1965 3.2937 -13.7100 20.1601
# 2 28.8192 101.9014 39.7925 5.5664 -3.5352 40.6919
# 3 39.1965 39.7925 101.7155 2.4207 -11.1089 27.1880
# 4 3.2937 5.5664 2.4207 17.1236 7.2028 3.1019
# 5 -13.7100 -3.5352 -11.1089 7.2028 25.9034 -1.2481
# 6 20.1601 40.6919 27.1880 3.1019 -1.2481 27.6120
#
#
#
# Elastic Compliance Matrix: (Units=1/GPa)
#
#
# Indices 1 2 3 4 5 6 
#
# 1 0.060710 0.002882 -0.011748 -0.017832 0.030826 -0.033609
# 2 0.002882 0.024143 -0.000171 -0.003317 0.003888 -0.036967
# 3 -0.011748 -0.000171 0.016394 0.001322 0.000063 -0.007459
# 4 -0.017832 -0.003317 0.001322 0.073879 -0.029531 0.006972
# 5 0.030826 0.003888 0.000063 -0.029531 0.062622 -0.022151
# 6 -0.033609 -0.036967 -0.007459 0.006972 -0.022151 0.120793
#
#
# Mechanical properties :
#
#
# Convention : Reuss Voigt Hill
#
# Bulk Modulus (GPa) = 12.02295 51.22348 31.62321
# Shear Modulus (GPa) = 12.36584 23.30026 17.83305
#
# Velocity S-wave (km/s) = 2.71599 3.72818 3.26159
# Velocity P-wave (km/s) = 4.12402 7.00634 5.74876
#
# Compressibility (1/GPa) = 0.08317429
#
# Stress axis : x y z
#
# Youngs Moduli (GPa) = 16.47181 41.41961 60.99618
#
# Poissons Ratio (x) = -0.11938 0.71657
# Poissons Ratio (y) = -0.04748 0.01043
# Poissons Ratio (z) = 0.19351 0.00709
#
# Static dielectric constant tensor:
#      x y z
#    x 1.592090 0.027710 0.010270 
#    y 0.027710 1.583150 0.005900 
#    z 0.010270 0.005900 1.544110 
# 
# From -- ./inp_files/525343.got.cif
#   From: 2010.05.17/outbox.cif.g08.bks.cpg/sg2_263_cif.got.tgz:525343.got - 2010.06.03 11:33:40.
