data_PCOD9062722
_publ_section_title
;
Structure prediction by ZEFSAII (Michael W. Deem and Ramdas Pophale) SiO2 
 PCOD9062722
Probable space group: P -1
;
_chemical_formula_sum "Si O2"
_cell_formula_units_Z 14
_cell_length_a 9.430363
_cell_length_b 14.329665
_cell_length_c 8.279703
_cell_angle_alpha 50.688834
_cell_angle_beta 131.084720
_cell_angle_gamma 107.285984
_cell_volume 638.726880
_symmetry_space_group_name_H-M "P -1"
_symmetry_group_IT_number 2
_symmetry_cell_setting 'triclinic'
loop_
_space_group_symop_operation_xyz
x,y,z
-x,-y,-z
loop_
_atom_site_type_symbol
_atom_site_label
_atom_site_fract_x
_atom_site_fract_y
_atom_site_fract_z
Si Si1 0.676208 0.432689 0.315196
Si Si2 0.968364 0.148559 0.284978
Si Si3 0.434754 0.742964 0.301043
Si Si4 0.629970 0.146842 0.369536
Si Si5 0.974462 0.242694 0.547727
Si Si6 0.633536 0.900533 0.484113
Si Si7 0.652009 0.667165 0.234164
O O1 0.601844 0.336199 0.483955
O O2 0.846527 0.363837 0.402288
O O3 0.735233 0.535222 0.363572
O O4 0.500000 0.500000 0.000000
O O5 0.978784 0.221244 0.381057
O O6 0.145387 0.166726 0.285670
O O7 0.768928 0.202621 0.991443
O O8 0.000000 0.000000 0.500000
O O9 0.529200 0.856682 0.301466
O O10 0.578759 0.663717 0.366437
O O11 0.842733 0.143127 0.603381
O O12 0.483354 0.130977 0.415918
O O13 0.631847 0.043694 0.348895
O O14 0.537679 0.273380 0.074349
O O15 0.192120 0.244895 0.757585
#
# Coordination Sequence:
#
# PCOD9062722 Si02
#       7
#     2   2   2   2   2   2   2
#     4  12  25  50  70  95 141 177 230 289 329 398
#     4  12  25  44  68 103 145 175 224 280 334 409
#     4  12  25  44  72 104 133 182 227 274 347 401
#     4  11  24  44  68 101 139 175 228 275 341 404
#     4  12  24  44  67 101 134 181 227 277 338 403
#     4  11  24  42  69 103 138 180 218 283 339 409
#     4  12  25  44  71  98 134 183 226 280 341 393
#
# _framework density 21.918602
#
# number of rings (size 3 to 8) (size 9 to 14) (size 15 to 20)
#    0.000    0.286    7.143    0.857    4.000    1.143 
#    2.571    5.000    0.000    0.000    0.000    0.000 
#    0.000    0.000    0.000    0.000    0.000    0.000 
#
# Total GULP energy -78163.780195 kJ/mol
# GULP energy per Si atom -5583.127157 kJ/mol
# Density = 2.186871 g / cm^3
# Si number density = 21.918602 Si / 1000 Ang^3
#
#
#
# Elastic Constant Matrix: (Units=GPa)
#
#
# Indices 1 2 3 4 5 6 
#
# 1 150.1694 37.5490 30.2109 6.5445 19.7840 -8.7848
# 2 37.5490 163.8192 23.4246 12.3735 15.4832 -20.4492
# 3 30.2109 23.4246 61.3302 8.2245 5.7083 -0.6554
# 4 6.5445 12.3735 8.2245 28.1735 11.0136 8.9761
# 5 19.7840 15.4832 5.7083 11.0136 28.1608 2.4513
# 6 -8.7848 -20.4492 -0.6554 8.9761 2.4513 52.5063
#
#
#
# Elastic Compliance Matrix: (Units=1/GPa)
#
#
# Indices 1 2 3 4 5 6 
#
# 1 0.008252 -0.000874 -0.003393 0.001145 -0.005168 0.001043
# 2 -0.000874 0.007389 -0.001784 -0.002651 -0.002335 0.003271
# 3 -0.003393 -0.001784 0.019128 -0.004389 0.001232 -0.000331
# 4 0.001145 -0.002651 -0.004389 0.046482 -0.015931 -0.008098
# 5 -0.005168 -0.002335 0.001232 -0.015931 0.046511 -0.001206
# 6 0.001043 0.003271 -0.000331 -0.008098 -0.001206 0.021931
#
#
# Mechanical properties :
#
#
# Convention : Reuss Voigt Hill
#
# Bulk Modulus (GPa) = 44.11481 61.96531 53.04006
# Shear Modulus (GPa) = 29.52482 40.71041 35.11762
#
# Velocity S-wave (km/s) = 3.67416 4.31437 4.00707
# Velocity P-wave (km/s) = 6.17816 7.29043 6.75722
#
# Compressibility (1/GPa) = 0.02266813
#
# Stress axis : x y z
#
# Youngs Moduli (GPa) = 121.17982 135.33640 52.27961
#
# Poissons Ratio (x) = 0.11831 0.17736
# Poissons Ratio (y) = 0.10594 0.09325
# Poissons Ratio (z) = 0.41110 0.24141
#
# Static dielectric constant tensor:
#      x y z
#    x 1.835470 0.010020 -0.007520 
#    y 0.010020 1.854490 -0.012460 
#    z -0.007520 -0.012460 1.746860 
# 
# From -- ./inp_files/199926.got.cif
#   From: 2010.05.17/outbox.cif.g08.bks.cpg/sg2_100_cif.got.tgz:199926.got - 2010.06.03 11:33:40.
