data_PCOD9062246
_publ_section_title
;
Structure prediction by ZEFSAII (Michael W. Deem and Ramdas Pophale) SiO2 
 PCOD9062246
Probable space group: P -1
;
_chemical_formula_sum "Si O2"
_cell_formula_units_Z 14
_cell_length_a 11.884662
_cell_length_b 14.896039
_cell_length_c 11.307481
_cell_angle_alpha 63.635830
_cell_angle_beta 65.971554
_cell_angle_gamma 19.571070
_cell_volume 600.393288
_symmetry_space_group_name_H-M "P -1"
_symmetry_group_IT_number 2
_symmetry_cell_setting 'triclinic'
loop_
_space_group_symop_operation_xyz
x,y,z
-x,-y,-z
loop_
_atom_site_type_symbol
_atom_site_label
_atom_site_fract_x
_atom_site_fract_y
_atom_site_fract_z
Si Si1 0.985050 0.326891 0.066227
Si Si2 0.593314 0.716610 0.225365
Si Si3 0.633482 0.286658 0.044955
Si Si4 0.409757 0.360857 0.329695
Si Si5 0.402543 0.465628 0.512831
Si Si6 0.796773 0.746355 0.226453
Si Si7 0.632981 0.979523 0.548811
O O1 0.821364 0.514374 0.133633
O O2 0.647931 0.541311 0.023710
O O3 0.261822 0.034047 0.153742
O O4 0.171628 0.242733 0.927957
O O5 0.449078 0.729743 0.348309
O O6 0.836113 0.596884 0.279627
O O7 0.636556 0.218856 0.203868
O O8 0.500000 0.500000 0.000000
O O9 0.000000 0.000000 0.000000
O O10 0.480051 0.386912 0.388186
O O11 0.045307 0.626431 0.267899
O O12 0.443860 0.226204 0.452955
O O13 0.500000 0.500000 0.500000
O O14 0.009895 0.734485 0.529547
O O15 0.458881 0.999554 0.298471
O O16 0.500000 0.000000 0.500000
#
# Coordination Sequence:
#
# PCOD9062246 Si02
#       7
#     2   2   2   2   2   2   2
#     4  11  27  46  76 113 155 197 252 317 388 457
#     4  12  25  48  75 112 155 202 247 315 389 463
#     4  11  27  49  78 107 150 205 258 313 376 463
#     4  11  26  48  77 110 146 199 264 320 381 456
#     4  12  29  48  75 110 156 207 257 319 387 457
#     4  11  23  48  76 115 146 197 260 319 386 451
#     4  12  24  45  80 110 151 198 258 322 381 460
#
# _framework density 23.318048000000001
#
# number of rings (size 3 to 8) (size 9 to 14) (size 15 to 20)
#    0.000    0.571    2.857    3.857    4.000    5.143 
#    2.571    0.000    0.000    0.000    0.000    0.000 
#    0.000    0.000    0.000    0.000    0.000    0.000 
#
# Total GULP energy -78154.294715 kJ/mol
# GULP energy per Si atom -5582.449623 kJ/mol
# Density = 2.326498 g / cm^3
# Si number density = 23.318048 Si / 1000 Ang^3
#
#
#
# Elastic Constant Matrix: (Units=GPa)
#
#
# Indices 1 2 3 4 5 6 
#
# 1 201.4336 50.2795 66.4045 7.7465 16.3247 5.3720
# 2 50.2795 141.4951 80.9269 17.7964 15.2129 -3.0688
# 3 66.4045 80.9269 120.4232 29.2748 4.2109 -0.8979
# 4 7.7465 17.7964 29.2748 35.8792 7.2815 -1.9532
# 5 16.3247 15.2129 4.2109 7.2815 39.8723 6.7885
# 6 5.3720 -3.0688 -0.8979 -1.9532 6.7885 35.1722
#
#
#
# Elastic Compliance Matrix: (Units=1/GPa)
#
#
# Indices 1 2 3 4 5 6 
#
# 1 0.006424 -0.000014 -0.004031 0.002404 -0.002560 -0.000458
# 2 -0.000014 0.012197 -0.008473 0.001858 -0.004399 0.001802
# 3 -0.004031 -0.008473 0.018798 -0.011389 0.005196 -0.001279
# 4 0.002404 0.001858 -0.011389 0.037489 -0.007865 0.003104
# 5 -0.002560 -0.004399 0.005196 -0.007865 0.029721 -0.006033
# 6 -0.000458 0.001802 -0.001279 0.003104 -0.006033 0.029963
#
#
# Mechanical properties :
#
#
# Convention : Reuss Voigt Hill
#
# Bulk Modulus (GPa) = 80.75777 95.39709 88.07743
# Shear Modulus (GPa) = 30.53306 39.90082 35.21694
#
# Velocity S-wave (km/s) = 3.62251 4.14110 3.89046
# Velocity P-wave (km/s) = 7.22531 7.99156 7.61808
#
# Compressibility (1/GPa) = 0.01238271
#
# Stress axis : x y z
#
# Youngs Moduli (GPa) = 155.66377 81.98769 53.19589
#
# Poissons Ratio (x) = 0.00117 0.21444
# Poissons Ratio (y) = 0.00221 0.45073
# Poissons Ratio (z) = 0.62750 0.69469
#
# Static dielectric constant tensor:
#      x y z
#    x 1.912550 0.019890 -0.000240 
#    y 0.019890 1.963250 -0.062370 
#    z -0.000240 -0.062370 1.924880 
# 
# From -- ./inp_files/433796.got.cif
#   From: 2010.05.17/outbox.cif.g08.bks.cpg/sg2_217_cif.got.tgz:433796.got - 2010.06.03 11:33:40.
