data_PCOD9062504
_publ_section_title
;
Structure prediction by ZEFSAII (Michael W. Deem and Ramdas Pophale) SiO2 
 PCOD9062504
Probable space group: P -1
;
_chemical_formula_sum "Si O2"
_cell_formula_units_Z 12
_cell_length_a 11.448053
_cell_length_b 14.380647
_cell_length_c 15.020937
_cell_angle_alpha 151.299988
_cell_angle_beta 151.408563
_cell_angle_gamma 29.333943
_cell_volume 509.762924
_symmetry_space_group_name_H-M "P -1"
_symmetry_group_IT_number 2
_symmetry_cell_setting 'triclinic'
loop_
_space_group_symop_operation_xyz
x,y,z
-x,-y,-z
loop_
_atom_site_type_symbol
_atom_site_label
_atom_site_fract_x
_atom_site_fract_y
_atom_site_fract_z
Si Si1 0.631705 0.180662 0.306598
Si Si2 0.624364 0.266754 0.839647
Si Si3 0.616931 0.863541 0.592091
Si Si4 0.890788 0.656974 0.778749
Si Si5 0.843689 0.785556 0.325856
Si Si6 0.281940 0.288949 0.003347
O O1 0.380950 0.261902 0.275525
O O2 0.880342 0.226266 0.541038
O O3 0.741471 0.923772 0.157011
O O4 0.513664 0.291360 0.225122
O O5 0.427202 0.260022 0.624514
O O6 0.674494 0.062449 0.764375
O O7 0.500000 0.500000 0.000000
O O8 0.915404 0.235503 0.970649
O O9 0.821517 0.716110 0.679416
O O10 0.327829 0.987092 0.552613
O O11 0.060101 0.403850 0.697475
O O12 0.665177 0.747974 0.097594
O O13 0.000000 0.500000 0.000000
#
# Coordination Sequence:
#
# PCOD9062504 Si02
#       6
#     2   2   2   2   2   2
#     4  11  26  41  65 107 140 184 231 274 343 417
#     4  11  26  52  73 101 137 179 240 295 354 410
#     4  11  27  48  74 102 137 182 232 300 347 408
#     4  12  25  45  73 101 139 188 230 285 351 413
#     4  12  25  43  67 104 144 178 233 281 343 418
#     4  11  24  41  66  96 146 191 224 278 336 411
#
# _framework density 23.540354000000001
#
# number of rings (size 3 to 8) (size 9 to 14) (size 15 to 20)
#    0.000    0.667    5.000    1.500    4.667    2.000 
#    3.000    0.000    0.000    0.000    0.000    0.000 
#    0.000    0.000    0.000    0.000    0.000    0.000 
#
# Total GULP energy -67162.464157 kJ/mol
# GULP energy per Si atom -5596.872013 kJ/mol
# Density = 2.348678 g / cm^3
# Si number density = 23.540354 Si / 1000 Ang^3
#
#
#
# Elastic Constant Matrix: (Units=GPa)
#
#
# Indices 1 2 3 4 5 6 
#
# 1 70.7568 22.7100 37.7089 -3.4891 -2.1167 5.3546
# 2 22.7100 134.8118 35.2530 1.0589 -20.3293 30.7024
# 3 37.7089 35.2530 95.0189 0.4360 -10.8428 14.4802
# 4 -3.4891 1.0589 0.4360 29.6380 -7.0583 -11.4667
# 5 -2.1167 -20.3293 -10.8428 -7.0583 48.6517 -11.9828
# 6 5.3546 30.7024 14.4802 -11.4667 -11.9828 46.0656
#
#
#
# Elastic Compliance Matrix: (Units=1/GPa)
#
#
# Indices 1 2 3 4 5 6 
#
# 1 0.018434 -0.001806 -0.007009 0.002885 -0.000650 0.001813
# 2 -0.001806 0.009832 -0.001814 -0.002380 0.001830 -0.005889
# 3 -0.007009 -0.001814 0.014534 -0.001686 0.001284 -0.002631
# 4 0.002885 -0.002380 -0.001686 0.041722 0.008339 0.014336
# 5 -0.000650 0.001830 0.001284 0.008339 0.024485 0.006897
# 6 0.001813 -0.005889 -0.002631 0.014336 0.006897 0.031612
#
#
# Mechanical properties :
#
#
# Convention : Reuss Voigt Hill
#
# Bulk Modulus (GPa) = 46.42163 54.65903 50.54033
# Shear Modulus (GPa) = 29.57562 38.53211 34.05387
#
# Velocity S-wave (km/s) = 3.54839 4.05019 3.80757
# Velocity P-wave (km/s) = 6.04574 6.71876 6.39112
#
# Compressibility (1/GPa) = 0.02154168
#
# Stress axis : x y z
#
# Youngs Moduli (GPa) = 54.24889 101.70664 68.80442
#
# Poissons Ratio (x) = 0.18368 0.48226
# Poissons Ratio (y) = 0.09797 0.12481
# Poissons Ratio (z) = 0.38024 0.18449
#
# Static dielectric constant tensor:
#      x y z
#    x 1.934950 -0.010760 -0.011860 
#    y -0.010760 1.874740 -0.002200 
#    z -0.011860 -0.002200 1.894490 
# 
# From -- ./inp_files/521977.got.cif
#   From: 2010.05.17/outbox.cif.g08.bks.cpg/sg2_261_cif.got.tgz:521977.got - 2010.06.03 11:33:40.
