data_PCOD9062302
_publ_section_title
;
Structure prediction by ZEFSAII (Michael W. Deem and Ramdas Pophale) SiO2 
 PCOD9062302
Probable space group: P -1
;
_chemical_formula_sum "Si O2"
_cell_formula_units_Z 10
_cell_length_a 7.639435
_cell_length_b 11.614139
_cell_length_c 9.111198
_cell_angle_alpha 46.773703
_cell_angle_beta 60.243238
_cell_angle_gamma 36.631975
_cell_volume 348.814645
_symmetry_space_group_name_H-M "P -1"
_symmetry_group_IT_number 2
_symmetry_cell_setting 'triclinic'
loop_
_space_group_symop_operation_xyz
x,y,z
-x,-y,-z
loop_
_atom_site_type_symbol
_atom_site_label
_atom_site_fract_x
_atom_site_fract_y
_atom_site_fract_z
Si Si1 0.523613 0.754278 0.534022
Si Si2 0.754631 0.583996 0.098391
Si Si3 0.960429 0.309781 0.541477
Si Si4 0.247408 0.105673 0.084127
Si Si5 0.223495 0.825394 0.888929
O O1 0.736818 0.518232 0.563078
O O2 0.366343 0.754428 0.730084
O O3 0.728438 0.775795 0.497933
O O4 0.310844 0.957187 0.326953
O O5 0.835294 0.416034 0.339619
O O6 0.042063 0.365548 0.043067
O O7 0.547386 0.850503 0.069754
O O8 0.480980 0.700303 0.007178
O O9 0.014718 0.098383 0.740301
O O10 0.986745 0.204730 0.996136
#
# Coordination Sequence:
#
# PCOD9062302 Si02
#       5
#     2   2   2   2   2
#     4  11  23  49  79 113 156 199 259 317 382 461
#     4  12  25  50  79 114 155 199 259 318 384 464
#     4  11  24  48  81 113 154 203 254 318 387 462
#     4  12  27  51  75 115 159 198 262 323 376 463
#     4  12  27  51  82 109 156 210 251 318 394 449
#
# _framework density 28.668520000000001
#
# number of rings (size 3 to 8) (size 9 to 14) (size 15 to 20)
#    0.000    0.400    6.000    2.400    0.000    2.400 
#    7.200    0.000    0.000    0.000    0.000    0.000 
#    0.000    0.000    0.000    0.000    0.000    0.000 
#
# Total GULP energy -56189.864809 kJ/mol
# GULP energy per Si atom -5618.986481 kJ/mol
# Density = 2.860327 g / cm^3
# Si number density = 28.668520 Si / 1000 Ang^3
#
#
#
# Elastic Constant Matrix: (Units=GPa)
#
#
# Indices 1 2 3 4 5 6 
#
# 1 206.6577 75.3393 101.4041 -11.9877 37.2139 -6.5417
# 2 75.3393 212.5417 48.9818 1.8109 6.9229 12.5451
# 3 101.4041 48.9818 173.6527 -7.6228 59.7689 -5.4031
# 4 -11.9877 1.8109 -7.6228 68.2080 -0.4270 -9.0812
# 5 37.2139 6.9229 59.7689 -0.4270 50.9367 -6.3741
# 6 -6.5417 12.5451 -5.4031 -9.0812 -6.3741 53.0062
#
#
#
# Elastic Compliance Matrix: (Units=1/GPa)
#
#
# Indices 1 2 3 4 5 6 
#
# 1 0.007490 -0.001917 -0.003365 0.001130 -0.001117 0.001095
# 2 -0.001917 0.005707 -0.001207 -0.000829 0.001831 -0.001632
# 3 -0.003365 -0.001207 0.012064 0.000694 -0.011549 -0.000170
# 4 0.001130 -0.000829 0.000694 0.015340 -0.001034 0.002910
# 5 -0.001117 0.001831 -0.011549 -0.001034 0.034013 0.002165
# 6 0.001095 -0.001632 -0.000170 0.002910 0.002165 0.020129
#
#
# Mechanical properties :
#
#
# Convention : Reuss Voigt Hill
#
# Bulk Modulus (GPa) = 81.42068 116.03362 98.72715
# Shear Modulus (GPa) = 44.71575 58.90531 51.81053
#
# Velocity S-wave (km/s) = 3.95365 4.53780 4.25576
# Velocity P-wave (km/s) = 7.02170 8.24728 7.65904
#
# Compressibility (1/GPa) = 0.01228189
#
# Stress axis : x y z
#
# Youngs Moduli (GPa) = 133.50257 175.23459 82.88807
#
# Poissons Ratio (x) = 0.33601 0.27893
# Poissons Ratio (y) = 0.25599 0.10006
# Poissons Ratio (z) = 0.44926 0.21155
#
# Static dielectric constant tensor:
#      x y z
#    x 2.204050 0.359590 -0.017040 
#    y 0.359590 3.846760 0.053080 
#    z -0.017040 0.053080 2.003730 
# 
# From -- ./inp_files/16953.got.cif
#   From: 2010.05.17/outbox.cif.g08.bks.cpg/sg2_9_cif.got.tgz:16953.got - 2010.06.03 11:33:40.
