data_PCOD9062475
_publ_section_title
;
Structure prediction by ZEFSAII (Michael W. Deem and Ramdas Pophale) SiO2 
 PCOD9062475
Probable space group: P -1
;
_chemical_formula_sum "Si O2"
_cell_formula_units_Z 12
_cell_length_a 25.385548
_cell_length_b 15.175892
_cell_length_c 5.137183
_cell_angle_alpha 63.006677
_cell_angle_beta 124.852283
_cell_angle_gamma 162.016948
_cell_volume 468.970054
_symmetry_space_group_name_H-M "P -1"
_symmetry_group_IT_number 2
_symmetry_cell_setting 'triclinic'
loop_
_space_group_symop_operation_xyz
x,y,z
-x,-y,-z
loop_
_atom_site_type_symbol
_atom_site_label
_atom_site_fract_x
_atom_site_fract_y
_atom_site_fract_z
Si Si1 0.324877 0.684566 0.643239
Si Si2 0.405609 0.154760 0.652253
Si Si3 0.341592 0.537557 0.543596
Si Si4 0.771656 0.301785 0.265548
Si Si5 0.142715 0.958168 0.189516
Si Si6 0.058708 0.960121 0.430098
O O1 0.313318 0.611723 0.431841
O O2 0.245611 0.676565 0.519742
O O3 0.177324 0.398393 0.776911
O O4 0.555414 0.013468 0.923486
O O5 0.525373 0.297949 0.543632
O O6 0.226891 0.813902 0.599144
O O7 0.321669 0.142270 0.426730
O O8 0.540665 0.334722 0.045686
O O9 0.134013 0.179316 0.403208
O O10 0.953303 0.617629 0.208572
O O11 0.165094 0.071543 0.327891
O O12 0.111436 0.967763 0.815784
#
# Coordination Sequence:
#
# PCOD9062475 Si02
#       6
#     2   2   2   2   2   2
#     4   9  21  41  64  92 123 159 204 254 308 361
#     4  11  24  41  64  92 124 163 204 251 304 362
#     4  11  24  41  64  92 124 163 204 251 304 362
#     4   9  21  42  66  92 123 159 204 256 308 361
#     4  11  24  41  64  92 124 163 204 251 304 362
#     4  11  24  41  64  92 124 163 204 251 304 362
#
# _framework density 25.587987999999999
#
# number of rings (size 3 to 8) (size 9 to 14) (size 15 to 20)
#    0.000    1.667    0.000    3.000    0.000   17.333 
#    0.000   16.667    0.000    0.000    0.000    0.000 
#    0.000    0.000    0.000    0.000    0.000    0.000 
#
# Total GULP energy -67217.902079 kJ/mol
# GULP energy per Si atom -5601.491840 kJ/mol
# Density = 2.552975 g / cm^3
# Si number density = 25.587988 Si / 1000 Ang^3
#
#
#
# Elastic Constant Matrix: (Units=GPa)
#
#
# Indices 1 2 3 4 5 6 
#
# 1 164.1110 25.7152 69.7113 2.0386 -16.8061 4.6448
# 2 25.7152 73.1303 8.4813 12.5887 -14.5496 -14.8133
# 3 69.7113 8.4813 105.8530 -16.6664 -17.2824 15.0822
# 4 2.0386 12.5887 -16.6664 31.2316 -0.1157 -11.0618
# 5 -16.8061 -14.5496 -17.2824 -0.1157 53.9235 3.0273
# 6 4.6448 -14.8133 15.0822 -11.0618 3.0273 54.0143
#
#
#
# Elastic Compliance Matrix: (Units=1/GPa)
#
#
# Indices 1 2 3 4 5 6 
#
# 1 0.009150 -0.001907 -0.006302 -0.003275 0.000324 -0.000239
# 2 -0.001907 0.016903 -0.000992 -0.005903 0.003430 0.003675
# 3 -0.006302 -0.000992 0.015857 0.008358 0.003015 -0.002615
# 4 -0.003275 -0.005903 0.008358 0.040728 -0.000110 0.004676
# 5 0.000324 0.003430 0.003015 -0.000110 0.020599 -0.001106
# 6 -0.000239 0.003675 -0.002615 0.004676 -0.001106 0.021292
#
#
# Mechanical properties :
#
#
# Convention : Reuss Voigt Hill
#
# Bulk Modulus (GPa) = 42.53577 61.21222 51.87400
# Shear Modulus (GPa) = 33.16398 43.77962 38.47180
#
# Velocity S-wave (km/s) = 3.60401 4.14084 3.88172
# Velocity P-wave (km/s) = 5.82906 6.84370 6.35666
#
# Compressibility (1/GPa) = 0.02350962
#
# Stress axis : x y z
#
# Youngs Moduli (GPa) = 109.29440 59.16202 63.06181
#
# Poissons Ratio (x) = 0.11281 0.39739
# Poissons Ratio (y) = 0.20839 0.06255
# Poissons Ratio (z) = 0.68872 0.05868
#
# Static dielectric constant tensor:
#      x y z
#    x 1.940420 -0.022430 -0.038320 
#    y -0.022430 2.070000 -0.021710 
#    z -0.038320 -0.021710 2.042370 
# 
# From -- ./inp_files/30333.got.cif
#   From: 2010.05.17/outbox.cif.g08.bks.cpg/sg2_16_cif.got.tgz:30333.got - 2010.06.03 11:33:40.
