data_PCOD9062784
_publ_section_title
;
Structure prediction by ZEFSAII (Michael W. Deem and Ramdas Pophale) SiO2 
 PCOD9062784
Probable space group: P -1
;
_chemical_formula_sum "Si O2"
_cell_formula_units_Z 16
_cell_length_a 22.478293
_cell_length_b 10.115279
_cell_length_c 13.125061
_cell_angle_alpha 136.903088
_cell_angle_beta 27.402664
_cell_angle_gamma 146.575821
_cell_volume 755.885070
_symmetry_space_group_name_H-M "P -1"
_symmetry_group_IT_number 2
_symmetry_cell_setting 'triclinic'
loop_
_space_group_symop_operation_xyz
x,y,z
-x,-y,-z
loop_
_atom_site_type_symbol
_atom_site_label
_atom_site_fract_x
_atom_site_fract_y
_atom_site_fract_z
Si Si1 0.964139 0.195115 0.648757
Si Si2 0.562202 0.987385 0.506370
Si Si3 0.062665 0.085774 0.838957
Si Si4 0.581738 0.470241 0.031890
Si Si5 0.568066 0.533768 0.529188
Si Si6 0.073263 0.633221 0.856581
Si Si7 0.385920 0.156408 0.969473
Si Si8 0.930617 0.639776 0.641035
O O1 0.079152 0.446343 0.673080
O O2 0.974824 0.239817 0.538772
O O3 0.788677 0.090070 0.898429
O O4 0.000000 0.000000 0.500000
O O5 0.456948 0.715477 0.551054
O O6 0.500000 0.000000 0.500000
O O7 0.749498 0.116896 0.277753
O O8 0.527146 0.135223 0.716072
O O9 0.252078 0.224783 0.612941
O O10 0.967064 0.851002 0.780346
O O11 0.035782 0.287474 0.969758
O O12 0.000000 0.000000 0.000000
O O13 0.522700 0.458169 0.229724
O O14 0.433246 0.268186 0.073674
O O15 0.627739 0.696469 0.017592
O O16 0.741450 0.481111 0.808752
O O17 0.500000 0.500000 0.500000
O O18 0.000000 0.500000 0.000000
O O19 0.000000 0.500000 0.500000
#
# Coordination Sequence:
#
# PCOD9062784 Si02
#       8
#     2   2   2   2   2   2   2   2
#     4  12  24  43  68 105 140 186 239 287 354 417
#     4  12  24  43  68 102 139 184 239 286 348 422
#     4  12  26  48  70 102 142 187 234 286 352 427
#     4  11  24  44  69 102 140 187 232 292 358 415
#     4  12  26  46  73 102 143 188 234 294 359 425
#     4  12  26  42  69 103 139 183 232 291 348 412
#     4  11  24  42  71 101 142 184 239 293 344 423
#     4  12  26  46  72 103 145 187 234 295 361 432
#
# _framework density 21.16724
#
# number of rings (size 3 to 8) (size 9 to 14) (size 15 to 20)
#    0.000    0.250    2.500    7.500    1.750    2.000 
#    0.000    1.875    0.000    0.000    0.000    0.000 
#    0.000    0.000    0.000    0.000    0.000    0.000 
#
# Total GULP energy -89353.963611 kJ/mol
# GULP energy per Si atom -5584.622726 kJ/mol
# Density = 2.111906 g / cm^3
# Si number density = 21.167240 Si / 1000 Ang^3
#
#
#
# Elastic Constant Matrix: (Units=GPa)
#
#
# Indices 1 2 3 4 5 6 
#
# 1 110.2507 39.8254 39.7537 -4.0954 27.8094 -23.2543
# 2 39.8254 82.8071 11.5022 0.7858 4.6992 -14.1376
# 3 39.7537 11.5022 89.1180 -9.3599 3.2979 -10.9124
# 4 -4.0954 0.7858 -9.3599 45.5164 7.6533 -3.9733
# 5 27.8094 4.6992 3.2979 7.6533 45.3180 -4.5276
# 6 -23.2543 -14.1376 -10.9124 -3.9733 -4.5276 48.1397
#
#
#
# Elastic Compliance Matrix: (Units=1/GPa)
#
#
# Indices 1 2 3 4 5 6 
#
# 1 0.016468 -0.005932 -0.005469 0.002360 -0.009060 0.004316
# 2 -0.005932 0.015017 0.000758 -0.000871 0.002362 0.001867
# 3 -0.005469 0.000758 0.013840 0.002095 0.002024 0.001081
# 4 0.002360 -0.000871 0.002095 0.023756 -0.005240 0.002827
# 5 -0.009060 0.002362 0.002024 -0.005240 0.028017 -0.001021
# 6 0.004316 0.001867 0.001081 0.002827 -0.001021 0.023788
#
#
# Mechanical properties :
#
#
# Convention : Reuss Voigt Hill
#
# Bulk Modulus (GPa) = 41.59922 51.59315 46.59619
# Shear Modulus (GPa) = 33.29203 40.53444 36.91324
#
# Velocity S-wave (km/s) = 3.97017 4.38077 4.18052
# Velocity P-wave (km/s) = 6.38057 7.07214 6.73524
#
# Compressibility (1/GPa) = 0.02403891
#
# Stress axis : x y z
#
# Youngs Moduli (GPa) = 60.72291 66.59160 72.25235
#
# Poissons Ratio (x) = 0.39502 0.39514
# Poissons Ratio (y) = 0.36021 -0.05474
# Poissons Ratio (z) = 0.33209 -0.05045
#
# Static dielectric constant tensor:
#      x y z
#    x 1.748300 0.041840 0.010950 
#    y 0.041840 1.636720 0.040740 
#    z 0.010950 0.040740 1.690230 
# 
# From -- ./inp_files/470124.got.cif
#   From: 2010.05.17/outbox.cif.g08.bks.cpg/sg2_236_cif.got.tgz:470124.got - 2010.06.03 11:33:40.
