data_PCOD9062152
_publ_section_title
;
Structure prediction by ZEFSAII (Michael W. Deem and Ramdas Pophale) SiO2 
 PCOD9062152
Probable space group: P -1
;
_chemical_formula_sum "Si O2"
_cell_formula_units_Z 11
_cell_length_a 6.422319
_cell_length_b 9.240068
_cell_length_c 12.809146
_cell_angle_alpha 144.008904
_cell_angle_beta 93.326899
_cell_angle_gamma 99.057237
_cell_volume 418.009493
_symmetry_space_group_name_H-M "P -1"
_symmetry_group_IT_number 2
_symmetry_cell_setting 'triclinic'
loop_
_space_group_symop_operation_xyz
x,y,z
-x,-y,-z
loop_
_atom_site_type_symbol
_atom_site_label
_atom_site_fract_x
_atom_site_fract_y
_atom_site_fract_z
Si Si1 0.207638 0.008890 0.584855
Si Si2 0.060503 0.244262 0.377815
Si Si3 0.253298 0.894783 0.071784
Si Si4 0.356620 0.569949 0.228171
Si Si5 0.000000 0.500000 0.000000
Si Si6 0.394815 0.657510 0.753682
O O1 0.298430 0.781764 0.421328
O O2 0.112527 0.956537 0.667229
O O3 0.406384 0.280171 0.732392
O O4 0.000000 0.000000 0.500000
O O5 0.284993 0.380175 0.531748
O O6 0.000000 0.500000 0.500000
O O7 0.110049 0.084146 0.191482
O O8 0.213014 0.724586 0.076295
O O9 0.503703 0.105421 0.185431
O O10 0.223657 0.714560 0.862739
O O11 0.158990 0.478348 0.087699
O O12 0.403704 0.357686 0.178330
#
# Coordination Sequence:
#
# PCOD9062152 Si02
#       6
#     2   2   2   2   1   2
#     4  11  23  47  76 112 150 202 256 316 385 458
#     4  12  26  45  80 113 148 201 264 315 383 461
#     4  11  28  48  74 114 154 200 261 312 386 463
#     4  11  26  46  76 109 160 201 254 315 390 456
#     4  12  28  46  74 116 154 198 258 318 370 458
#     4  11  26  51  75 107 160 204 245 326 391 450
#
# _framework density 26.315190000000001
#
# number of rings (size 3 to 8) (size 9 to 14) (size 15 to 20)
#    0.000    0.727    1.818    3.818    7.636    5.091 
#    0.000    0.000    0.000    0.000    0.000    0.000 
#    0.000    0.000    0.000    0.000    0.000    0.000 
#
# Total GULP energy -61431.786242 kJ/mol
# GULP energy per Si atom -5584.707840 kJ/mol
# Density = 2.625530 g / cm^3
# Si number density = 26.315190 Si / 1000 Ang^3
#
#
#
# Elastic Constant Matrix: (Units=GPa)
#
#
# Indices 1 2 3 4 5 6 
#
# 1 96.9979 39.4826 44.0054 -20.3412 -9.4321 -6.8387
# 2 39.4826 152.9204 30.6990 -12.0467 -16.4551 36.9078
# 3 44.0054 30.6990 100.7836 2.7441 -17.6771 -1.2481
# 4 -20.3412 -12.0467 2.7441 20.5839 -4.2649 15.0220
# 5 -9.4321 -16.4551 -17.6771 -4.2649 64.5269 -1.1088
# 6 -6.8387 36.9078 -1.2481 15.0220 -1.1088 58.6028
#
#
#
# Elastic Compliance Matrix: (Units=1/GPa)
#
#
# Indices 1 2 3 4 5 6 
#
# 1 0.019000 -0.000381 -0.008526 0.022600 0.001778 -0.003484
# 2 -0.000381 0.011654 -0.003463 0.015860 0.002819 -0.011470
# 3 -0.008526 -0.003463 0.015413 -0.016483 0.001103 0.005760
# 4 0.022600 0.015860 -0.016483 0.110536 0.009522 -0.035857
# 5 0.001778 0.002819 0.001103 0.009522 0.017345 -0.003657
# 6 -0.003484 -0.011470 0.005760 -0.035857 -0.003657 0.033126
#
#
# Mechanical properties :
#
#
# Convention : Reuss Voigt Hill
#
# Bulk Modulus (GPa) = 46.89075 64.34174 55.61625
# Shear Modulus (GPa) = 20.92714 44.51037 32.71875
#
# Velocity S-wave (km/s) = 2.82308 4.11716 3.52993
# Velocity P-wave (km/s) = 5.33703 6.86330 6.14772
#
# Compressibility (1/GPa) = 0.02132617
#
# Stress axis : x y z
#
# Youngs Moduli (GPa) = 52.63284 85.80665 64.87845
#
# Poissons Ratio (x) = 0.03272 0.55317
# Poissons Ratio (y) = 0.02007 0.22467
# Poissons Ratio (z) = 0.44876 0.29714
#
# Static dielectric constant tensor:
#      x y z
#    x 2.143030 -0.015130 -0.033810 
#    y -0.015130 2.005260 0.016830 
#    z -0.033810 0.016830 2.075040 
# 
# From -- ./inp_files/17778.got.cif
#   From: 2010.05.17/outbox.cif.g08.bks.cpg/sg2_9_cif.got.tgz:17778.got - 2010.06.03 11:33:40.
