data_PCOD9062596
_publ_section_title
;
Structure prediction by ZEFSAII (Michael W. Deem and Ramdas Pophale) SiO2 
 PCOD9062596
Probable space group: P -1
;
_chemical_formula_sum "Si O2"
_cell_formula_units_Z 14
_cell_length_a 9.752485
_cell_length_b 14.416736
_cell_length_c 17.578609
_cell_angle_alpha 159.182515
_cell_angle_beta 45.780088
_cell_angle_gamma 137.610449
_cell_volume 591.908256
_symmetry_space_group_name_H-M "P -1"
_symmetry_group_IT_number 2
_symmetry_cell_setting 'triclinic'
loop_
_space_group_symop_operation_xyz
x,y,z
-x,-y,-z
loop_
_atom_site_type_symbol
_atom_site_label
_atom_site_fract_x
_atom_site_fract_y
_atom_site_fract_z
Si Si1 0.023081 0.975234 0.214432
Si Si2 0.759738 0.876724 0.515272
Si Si3 0.375853 0.745715 0.906369
Si Si4 0.477275 0.138017 0.896864
Si Si5 0.095158 0.576937 0.605918
Si Si6 0.191958 0.368736 0.106547
Si Si7 0.692761 0.016177 0.488079
O O1 0.850863 0.932770 0.311617
O O2 0.922031 0.869511 0.090871
O O3 0.134826 0.305743 0.415700
O O4 0.169902 0.808490 0.050490
O O5 0.688168 0.567334 0.340426
O O6 0.681904 0.086348 0.753610
O O7 0.650231 0.853273 0.457789
O O8 0.000000 0.000000 0.500000
O O9 0.500000 0.000000 0.000000
O O10 0.503065 0.772710 0.955003
O O11 0.297011 0.842899 0.730746
O O12 0.406747 0.343308 0.028296
O O13 0.000000 0.500000 0.500000
O O14 0.935734 0.640087 0.773751
O O15 0.212216 0.657060 0.279578
O O16 0.500000 0.000000 0.500000
#
# Coordination Sequence:
#
# PCOD9062596 Si02
#       7
#     2   2   2   2   2   2   2
#     4  11  24  44  68 100 141 183 230 295 348 415
#     4  12  28  48  71 102 147 194 238 287 348 424
#     4  12  28  46  72 103 144 184 242 290 354 420
#     4  12  26  43  73 104 141 189 235 292 355 417
#     4  11  24  41  72 104 142 177 236 295 357 417
#     4  11  24  42  71 103 135 182 235 291 359 418
#     4  11  25  43  68 100 138 178 239 291 346 416
#
# _framework density 23.652315000000002
#
# number of rings (size 3 to 8) (size 9 to 14) (size 15 to 20)
#    0.000    0.571    1.429    5.571    6.000   11.429 
#    0.000    0.000    0.000    0.000    0.000    0.000 
#    0.000    0.000    0.000    0.000    0.000    0.000 
#
# Total GULP energy -78458.015709 kJ/mol
# GULP energy per Si atom -5604.143979 kJ/mol
# Density = 2.359848 g / cm^3
# Si number density = 23.652315 Si / 1000 Ang^3
#
#
#
# Elastic Constant Matrix: (Units=GPa)
#
#
# Indices 1 2 3 4 5 6 
#
# 1 85.9936 -5.9823 11.7058 5.2258 -3.8157 -5.9219
# 2 -5.9823 72.4679 30.2753 5.9736 -6.5947 -3.3991
# 3 11.7058 30.2753 109.0946 -0.5007 -13.4017 -2.4478
# 4 5.2258 5.9736 -0.5007 28.8202 5.3102 -2.3823
# 5 -3.8157 -6.5947 -13.4017 5.3102 42.0751 -6.6236
# 6 -5.9219 -3.3991 -2.4478 -2.3823 -6.6236 38.1660
#
#
#
# Elastic Compliance Matrix: (Units=1/GPa)
#
#
# Indices 1 2 3 4 5 6 
#
# 1 0.012409 0.002224 -0.001715 -0.002865 0.001622 0.002116
# 2 0.002224 0.016490 -0.004537 -0.004156 0.002123 0.001632
# 3 -0.001715 -0.004537 0.010943 0.001011 0.002577 0.000542
# 4 -0.002865 -0.004156 0.001011 0.037104 -0.005166 0.000670
# 5 0.001622 0.002123 0.002577 -0.005166 0.026488 0.004880
# 6 0.002116 0.001632 0.000542 0.000670 0.004880 0.027599
#
#
# Mechanical properties :
#
#
# Convention : Reuss Voigt Hill
#
# Bulk Modulus (GPa) = 31.46008 37.72817 34.59413
# Shear Modulus (GPa) = 33.40398 37.24942 35.32670
#
# Velocity S-wave (km/s) = 3.76212 3.97277 3.86888
# Velocity P-wave (km/s) = 5.67463 6.08520 5.88350
#
# Compressibility (1/GPa) = 0.03178631
#
# Stress axis : x y z
#
# Youngs Moduli (GPa) = 80.58838 60.64131 91.38536
#
# Poissons Ratio (x) = -0.13486 0.15672
# Poissons Ratio (y) = -0.17922 0.41458
# Poissons Ratio (z) = 0.13821 0.27511
#
# Static dielectric constant tensor:
#      x y z
#    x 1.966150 0.028850 0.067390 
#    y 0.028850 1.906270 0.036110 
#    z 0.067390 0.036110 1.966940 
# 
# From -- ./inp_files/101283.got.cif
#   From: 2010.05.17/outbox.cif.g08.bks.cpg/sg2_51_cif.got.tgz:101283.got - 2010.06.03 11:33:40.
