data_PCOD9062623
_publ_section_title
;
Structure prediction by ZEFSAII (Michael W. Deem and Ramdas Pophale) SiO2 
 PCOD9062623
Probable space group: P -1
;
_chemical_formula_sum "Si O2"
_cell_formula_units_Z 16
_cell_length_a 9.368034
_cell_length_b 12.256690
_cell_length_c 9.498593
_cell_angle_alpha 120.560295
_cell_angle_beta 128.745172
_cell_angle_gamma 68.837131
_cell_volume 730.983355
_symmetry_space_group_name_H-M "P -1"
_symmetry_group_IT_number 2
_symmetry_cell_setting 'triclinic'
loop_
_space_group_symop_operation_xyz
x,y,z
-x,-y,-z
loop_
_atom_site_type_symbol
_atom_site_label
_atom_site_fract_x
_atom_site_fract_y
_atom_site_fract_z
Si Si1 0.856914 0.646720 0.732835
Si Si2 0.525907 0.790305 0.787887
Si Si3 0.603443 0.061214 0.952535
Si Si4 0.133451 0.714151 0.164435
Si Si5 0.963472 0.984383 0.300920
Si Si6 0.443489 0.861935 0.321122
Si Si7 0.162628 0.636935 0.439425
Si Si8 0.153122 0.214961 0.478340
O O1 0.694110 0.706405 0.771042
O O2 0.813884 0.503533 0.575887
O O3 0.870693 0.730773 0.657384
O O4 0.047814 0.645483 0.934682
O O5 0.342725 0.715383 0.618902
O O6 0.517868 0.925363 0.788615
O O7 0.536165 0.839242 0.987865
O O8 0.663466 0.113184 0.875202
O O9 0.771203 0.034360 0.146588
O O10 0.325009 0.776757 0.292350
O O11 0.137691 0.629975 0.251306
O O12 0.998420 0.837750 0.192144
O O13 0.106148 0.068606 0.364804
O O14 0.000000 0.000000 0.500000
O O15 0.633950 0.783109 0.352143
O O16 0.500000 0.000000 0.500000
O O17 0.989928 0.711086 0.456752
#
# Coordination Sequence:
#
# PCOD9062623 Si02
#       8
#     2   2   2   2   2   2   2   2
#     4  12  27  47  69  99 140 187 235 283 333 414
#     4  11  24  41  74  99 136 177 231 277 353 401
#     4  11  24  42  69 110 142 173 224 293 353 413
#     4  12  25  43  71 104 135 178 234 285 346 411
#     4  12  23  42  73 104 141 174 222 291 358 409
#     4  12  26  41  69 104 147 174 221 286 358 413
#     4  12  26  48  70  97 139 190 234 279 339 412
#     4  12  26  44  70 101 137 183 228 281 351 404
#
# _framework density 21.888324000000001
#
# number of rings (size 3 to 8) (size 9 to 14) (size 15 to 20)
#    0.000    0.250    5.000    4.125    5.250    1.000 
#    0.000    0.625    0.000    0.000    0.000    0.000 
#    0.000    0.000    0.000    0.000    0.000    0.000 
#
# Total GULP energy -89472.634246 kJ/mol
# GULP energy per Si atom -5592.039640 kJ/mol
# Density = 2.183850 g / cm^3
# Si number density = 21.888324 Si / 1000 Ang^3
#
#
#
# Elastic Constant Matrix: (Units=GPa)
#
#
# Indices 1 2 3 4 5 6 
#
# 1 124.4024 14.6051 27.4579 -6.4864 13.4671 -4.8406
# 2 14.6051 53.9678 14.7436 3.1433 0.8755 13.6844
# 3 27.4579 14.7436 81.5506 -7.2982 12.1225 8.2003
# 4 -6.4864 3.1433 -7.2982 32.5898 5.9900 -3.1055
# 5 13.4671 0.8755 12.1225 5.9900 31.2296 -4.0804
# 6 -4.8406 13.6844 8.2003 -3.1055 -4.0804 34.6897
#
#
#
# Elastic Compliance Matrix: (Units=1/GPa)
#
#
# Indices 1 2 3 4 5 6 
#
# 1 0.009447 -0.002735 -0.002261 0.002497 -0.003236 0.002775
# 2 -0.002735 0.022529 -0.002864 -0.004450 0.001360 -0.008830
# 3 -0.002261 -0.002864 0.015101 0.004012 -0.005981 -0.003100
# 4 0.002497 -0.004450 0.004012 0.034413 -0.008690 0.003214
# 5 -0.003236 0.001360 -0.005981 -0.008690 0.037903 0.004106
# 6 0.002775 -0.008830 -0.003100 0.003214 0.004106 0.034201
#
#
# Mechanical properties :
#
#
# Convention : Reuss Voigt Hill
#
# Bulk Modulus (GPa) = 31.89234 41.50379 36.69807
# Shear Modulus (GPa) = 27.81384 33.24279 30.52831
#
# Velocity S-wave (km/s) = 3.56858 3.90134 3.73866
# Velocity P-wave (km/s) = 5.61977 6.26871 5.95309
#
# Compressibility (1/GPa) = 0.03135549
#
# Stress axis : x y z
#
# Youngs Moduli (GPa) = 105.85333 44.38819 66.21973
#
# Poissons Ratio (x) = 0.12142 0.14971
# Poissons Ratio (y) = 0.28956 0.18968
# Poissons Ratio (z) = 0.23931 0.12715
#
# Static dielectric constant tensor:
#      x y z
#    x 1.831360 -0.027900 0.017700 
#    y -0.027900 1.766000 -0.012930 
#    z 0.017700 -0.012930 1.837590 
# 
# From -- ./inp_files/190377.got.cif
#   From: 2010.05.17/outbox.cif.g08.bks.cpg/sg2_96_cif.got.tgz:190377.got - 2010.06.03 11:33:40.
