data_PCOD9062803
_publ_section_title
;
Structure prediction by ZEFSAII (Michael W. Deem and Ramdas Pophale) SiO2 
 PCOD9062803
Probable space group: P -1
;
_chemical_formula_sum "Si O2"
_cell_formula_units_Z 16
_cell_length_a 11.139000
_cell_length_b 20.538383
_cell_length_c 14.173249
_cell_angle_alpha 39.251241
_cell_angle_beta 142.757388
_cell_angle_gamma 157.137605
_cell_volume 750.819722
_symmetry_space_group_name_H-M "P -1"
_symmetry_group_IT_number 2
_symmetry_cell_setting 'triclinic'
loop_
_space_group_symop_operation_xyz
x,y,z
-x,-y,-z
loop_
_atom_site_type_symbol
_atom_site_label
_atom_site_fract_x
_atom_site_fract_y
_atom_site_fract_z
Si Si1 0.134951 0.424228 0.280080
Si Si2 0.585371 0.422226 0.105651
Si Si3 0.623581 0.706502 0.424659
Si Si4 0.590799 0.655381 0.132697
Si Si5 0.766033 0.933576 0.679645
Si Si6 0.733697 0.160169 0.668844
Si Si7 0.813461 0.371761 0.616312
Si Si8 0.632922 0.896426 0.851876
O O1 0.321647 0.555459 0.336015
O O2 0.179954 0.319558 0.425493
O O3 0.323207 0.537820 0.177375
O O4 0.754379 0.289301 0.195037
O O5 0.332729 0.227367 0.196454
O O6 0.926890 0.534735 0.242110
O O7 0.500000 0.500000 0.000000
O O8 0.566053 0.421501 0.981779
O O9 0.482360 0.684441 0.461699
O O10 0.877006 0.895410 0.331156
O O11 0.882704 0.692551 0.285977
O O12 0.755565 0.836932 0.034380
O O13 0.491641 0.879250 0.506738
O O14 0.750144 0.967629 0.738671
O O15 0.704747 0.216686 0.680817
O O16 0.635524 0.000574 0.798792
O O17 0.000000 0.500000 0.500000
#
# Coordination Sequence:
#
# PCOD9062803 Si02
#       8
#     2   2   2   2   2   2   2   2
#     4  11  24  42  72 101 136 175 230 284 338 400
#     4  11  24  47  69  99 136 180 223 273 346 407
#     4  11  25  43  69 107 133 174 233 287 331 392
#     4  11  24  42  72  98 136 179 224 281 341 404
#     4  11  24  43  71  98 135 174 232 288 330 400
#     4  12  23  41  66  99 133 178 225 272 333 402
#     4  12  25  45  71  99 137 182 227 273 339 413
#     4  11  24  43  68 100 136 176 225 285 345 394
#
# _framework density 21.310041999999999
#
# number of rings (size 3 to 8) (size 9 to 14) (size 15 to 20)
#    0.000    0.750    3.750    4.125    3.500    1.500 
#    2.250    0.625    0.000    0.000    0.000    0.000 
#    0.000    0.000    0.000    0.000    0.000    0.000 
#
# Total GULP energy -89463.815126 kJ/mol
# GULP energy per Si atom -5591.488445 kJ/mol
# Density = 2.126154 g / cm^3
# Si number density = 21.310042 Si / 1000 Ang^3
#
#
#
# Elastic Constant Matrix: (Units=GPa)
#
#
# Indices 1 2 3 4 5 6 
#
# 1 147.5393 37.8524 27.3782 -9.3779 4.5494 -14.2143
# 2 37.8524 33.4438 5.3682 -3.2151 -0.9775 -20.9131
# 3 27.3782 5.3682 43.4400 -1.8571 5.3106 -11.8285
# 4 -9.3779 -3.2151 -1.8571 30.1355 -1.2950 2.6928
# 5 4.5494 -0.9775 5.3106 -1.2950 36.0862 -6.2300
# 6 -14.2143 -20.9131 -11.8285 2.6928 -6.2300 44.5374
#
#
#
# Elastic Compliance Matrix: (Units=1/GPa)
#
#
# Indices 1 2 3 4 5 6 
#
# 1 0.011632 -0.015541 -0.006663 0.001985 -0.001825 -0.005730
# 2 -0.015541 0.064149 0.008742 0.000316 0.007341 0.028491
# 3 -0.006663 0.008742 0.028891 -0.000272 -0.001553 0.009451
# 4 0.001985 0.000316 -0.000272 0.033963 0.000804 -0.001231
# 5 -0.001825 0.007341 -0.001553 0.000804 0.029526 0.006533
# 6 -0.005730 0.028491 0.009451 -0.001231 0.006533 0.037501
#
#
# Mechanical properties :
#
#
# Convention : Reuss Voigt Hill
#
# Bulk Modulus (GPa) = 12.86227 40.62453 26.74340
# Shear Modulus (GPa) = 19.34227 32.40678 25.87452
#
# Velocity S-wave (km/s) = 3.01601 3.90388 3.48831
# Velocity P-wave (km/s) = 4.26348 6.27896 5.36669
#
# Compressibility (1/GPa) = 0.07774675
#
# Stress axis : x y z
#
# Youngs Moduli (GPa) = 85.97058 15.58873 34.61309
#
# Poissons Ratio (x) = 0.24227 0.23062
# Poissons Ratio (y) = 1.33611 -0.30258
# Poissons Ratio (z) = 0.57281 -0.13627
#
# Static dielectric constant tensor:
#      x y z
#    x 1.730210 -0.018930 0.026110 
#    y -0.018930 1.849400 0.024750 
#    z 0.026110 0.024750 1.793070 
# 
# From -- ./inp_files/403051.got.cif
#   From: 2010.05.17/outbox.cif.g08.bks.cpg/sg2_202_cif.got.tgz:403051.got - 2010.06.03 11:33:40.
