data_PCOD9062269
_publ_section_title
;
Structure prediction by ZEFSAII (Michael W. Deem and Ramdas Pophale) SiO2 
 PCOD9062269
Probable space group: P -1
;
_chemical_formula_sum "Si O2"
_cell_formula_units_Z 16
_cell_length_a 6.686672
_cell_length_b 19.148121
_cell_length_c 8.534351
_cell_angle_alpha 124.017067
_cell_angle_beta 110.844124
_cell_angle_gamma 48.984100
_cell_volume 683.278219
_symmetry_space_group_name_H-M "P -1"
_symmetry_group_IT_number 2
_symmetry_cell_setting 'triclinic'
loop_
_space_group_symop_operation_xyz
x,y,z
-x,-y,-z
loop_
_atom_site_type_symbol
_atom_site_label
_atom_site_fract_x
_atom_site_fract_y
_atom_site_fract_z
Si Si1 0.080417 0.775256 0.943246
Si Si2 0.045515 0.287810 0.846479
Si Si3 0.285972 0.396096 0.977396
Si Si4 0.218403 0.819917 0.726934
Si Si5 0.648909 0.903528 0.539309
Si Si6 0.499114 0.627664 0.327456
Si Si7 0.303467 0.982525 0.836190
Si Si8 0.327046 0.565132 0.684939
O O1 0.260119 0.773276 0.851678
O O2 0.064417 0.683732 0.735419
O O3 0.024297 0.749842 0.068322
O O4 0.946150 0.898658 0.099689
O O5 0.213049 0.332025 0.978602
O O6 0.224518 0.197163 0.658695
O O7 0.759207 0.368466 0.786843
O O8 0.396176 0.354999 0.781225
O O9 0.496501 0.408248 0.133760
O O10 0.000000 0.500000 0.000000
O O11 0.391606 0.723522 0.534989
O O12 0.905793 0.881767 0.673127
O O13 0.274156 0.905207 0.830794
O O14 0.500000 0.000000 0.500000
O O15 0.435357 0.926606 0.638226
O O16 0.699234 0.514371 0.321327
O O17 0.500000 0.000000 0.000000
O O18 0.500000 0.500000 0.500000
#
# Coordination Sequence:
#
# PCOD9062269 Si02
#       8
#     2   2   2   2   2   2   2   2
#     4  12  24  45  72 103 141 187 232 291 359 418
#     4  11  24  44  72 106 138 181 238 288 350 428
#     4  12  24  43  75 101 136 194 237 289 355 416
#     4  11  26  46  73 103 143 187 229 298 362 417
#     4  11  24  45  69 105 139 180 235 291 346 430
#     4  11  23  49  70 101 148 181 234 294 354 416
#     4  12  26  47  71 102 144 186 233 291 356 428
#     4  12  25  46  70 103 149 185 233 297 352 424
#
# _framework density 23.416522000000001
#
# number of rings (size 3 to 8) (size 9 to 14) (size 15 to 20)
#    0.000    0.500    6.250    2.250    0.000    2.500 
#    2.250    1.250    0.000    0.000    0.000    0.000 
#    0.000    0.000    0.000    0.000    0.000    0.000 
#
# Total GULP energy -89093.634843 kJ/mol
# GULP energy per Si atom -5568.352178 kJ/mol
# Density = 2.336323 g / cm^3
# Si number density = 23.416522 Si / 1000 Ang^3
#
#
#
# Elastic Constant Matrix: (Units=GPa)
#
#
# Indices 1 2 3 4 5 6 
#
# 1 76.8669 51.2197 56.6567 8.3385 -17.0763 25.4194
# 2 51.2197 112.9756 26.8457 11.8861 -6.1975 40.5767
# 3 56.6567 26.8457 121.8639 12.0052 -42.0256 13.2464
# 4 8.3385 11.8861 12.0052 30.2072 2.1202 -0.7362
# 5 -17.0763 -6.1975 -42.0256 2.1202 52.2569 2.9499
# 6 25.4194 40.5767 13.2464 -0.7362 2.9499 48.0943
#
#
#
# Elastic Compliance Matrix: (Units=1/GPa)
#
#
# Indices 1 2 3 4 5 6 
#
# 1 0.028126 -0.008475 -0.010718 -0.000274 -0.000154 -0.004757
# 2 -0.008475 0.016500 0.002766 -0.005663 0.002230 -0.010426
# 3 -0.010718 0.002766 0.017176 -0.005780 0.010995 -0.002162
# 4 -0.000274 -0.005663 -0.005780 0.038409 -0.007395 0.007556
# 5 -0.000154 0.002230 0.010995 -0.007395 0.028872 -0.006712
# 6 -0.004757 -0.010426 -0.002162 0.007556 -0.006712 0.033226
#
#
# Mechanical properties :
#
#
# Convention : Reuss Voigt Hill
#
# Bulk Modulus (GPa) = 34.54758 64.57228 49.55993
# Shear Modulus (GPa) = 24.41258 37.91064 31.16161
#
# Velocity S-wave (km/s) = 3.23234 4.02801 3.65191
# Velocity P-wave (km/s) = 5.35875 7.01915 6.24439
#
# Compressibility (1/GPa) = 0.02894559
#
# Stress axis : x y z
#
# Youngs Moduli (GPa) = 35.55441 60.60778 58.22117
#
# Poissons Ratio (x) = 0.51368 0.62403
# Poissons Ratio (y) = 0.30134 -0.16103
# Poissons Ratio (z) = 0.38108 -0.16763
#
# Static dielectric constant tensor:
#      x y z
#    x 1.908760 0.101140 0.011170 
#    y 0.101140 7.135460 0.436790 
#    z 0.011170 0.436790 1.908220 
# 
# From -- ./inp_files/139391.got.cif
#   From: 2010.05.17/outbox.cif.g08.bks.cpg/sg2_70_cif.got.tgz:139391.got - 2010.06.03 11:33:40.
