data_PCOD9062582
_publ_section_title
;
Structure prediction by ZEFSAII (Michael W. Deem and Ramdas Pophale) SiO2 
 PCOD9062582
Probable space group: P -1
;
_chemical_formula_sum "Si O2"
_cell_formula_units_Z 14
_cell_length_a 11.353306
_cell_length_b 11.564324
_cell_length_c 10.540292
_cell_angle_alpha 29.681455
_cell_angle_beta 82.219225
_cell_angle_gamma 97.939382
_cell_volume 579.411948
_symmetry_space_group_name_H-M "P -1"
_symmetry_group_IT_number 2
_symmetry_cell_setting 'triclinic'
loop_
_space_group_symop_operation_xyz
x,y,z
-x,-y,-z
loop_
_atom_site_type_symbol
_atom_site_label
_atom_site_fract_x
_atom_site_fract_y
_atom_site_fract_z
Si Si1 0.342894 0.919930 0.620795
Si Si2 0.163990 0.385565 0.546468
Si Si3 0.175308 0.019004 0.713787
Si Si4 0.150316 0.286097 0.214966
Si Si5 0.517178 0.277564 0.794333
Si Si6 0.721826 0.900606 0.796369
Si Si7 0.053435 0.524804 0.668113
O O1 0.322896 0.081846 0.356072
O O2 0.500000 0.000000 0.500000
O O3 0.312338 0.004834 0.681337
O O4 0.216757 0.610454 0.910945
O O5 0.145318 0.096853 0.782179
O O6 0.326962 0.577898 0.312209
O O7 0.058619 0.435509 0.432819
O O8 0.136806 0.439940 0.641642
O O9 0.188046 0.231168 0.404517
O O10 0.041139 0.723193 0.988656
O O11 0.217744 0.289477 0.064003
O O12 0.000000 0.000000 0.500000
O O13 0.500000 0.500000 0.500000
O O14 0.500000 0.000000 0.000000
O O15 0.403497 0.199462 0.994109
O O16 0.843612 0.193296 0.547628
#
# Coordination Sequence:
#
# PCOD9062582 Si02
#       7
#     2   2   2   2   2   2   2
#     4  11  27  44  70 105 151 194 255 316 396 465
#     4  11  26  44  74 106 151 196 258 313 391 457
#     4  11  24  41  71 102 141 192 251 313 381 456
#     4  11  24  44  70 103 141 195 250 318 381 455
#     4  12  30  51  77 114 156 206 260 319 393 470
#     4  11  26  45  75 105 146 196 256 316 386 460
#     4  11  24  47  72 109 146 195 259 318 389 463
#
# _framework density 24.162428999999999
#
# number of rings (size 3 to 8) (size 9 to 14) (size 15 to 20)
#    0.000    0.857    1.429    3.857   10.000    5.714 
#    0.000    0.000    0.000    0.000    0.000    0.000 
#    0.000    0.000    0.000    0.000    0.000    0.000 
#
# Total GULP energy -78068.725394 kJ/mol
# GULP energy per Si atom -5576.337528 kJ/mol
# Density = 2.410743 g / cm^3
# Si number density = 24.162429 Si / 1000 Ang^3
#
#
#
# Elastic Constant Matrix: (Units=GPa)
#
#
# Indices 1 2 3 4 5 6 
#
# 1 75.0066 35.1366 10.5559 -2.5356 -23.2360 -18.0574
# 2 35.1366 148.0997 15.3396 -4.4621 -2.2716 -54.8264
# 3 10.5559 15.3396 72.9592 4.4813 -3.9758 -18.0979
# 4 -2.5356 -4.4621 4.4813 40.4337 6.6455 -4.2380
# 5 -23.2360 -2.2716 -3.9758 6.6455 29.6479 2.8443
# 6 -18.0574 -54.8264 -18.0979 -4.2380 2.8443 53.5552
#
#
#
# Elastic Compliance Matrix: (Units=1/GPa)
#
#
# Indices 1 2 3 4 5 6 
#
# 1 0.020583 -0.004008 -0.000776 -0.001511 0.015904 0.001610
# 2 -0.004008 0.011916 0.000530 0.002846 -0.003895 0.011459
# 3 -0.000776 0.000530 0.015155 -0.001329 0.001261 0.005230
# 4 -0.001511 0.002846 -0.001329 0.026815 -0.007584 0.004480
# 5 0.015904 -0.003895 0.001261 -0.007584 0.047893 -0.001343
# 6 0.001610 0.011459 0.005230 0.004480 -0.001343 0.033139
#
#
# Mechanical properties :
#
#
# Convention : Reuss Voigt Hill
#
# Bulk Modulus (GPa) = 25.54676 46.45886 36.00281
# Shear Modulus (GPa) = 28.23929 40.39625 34.31777
#
# Velocity S-wave (km/s) = 3.42237 4.09328 3.77277
# Velocity P-wave (km/s) = 5.11984 6.45053 5.82332
#
# Compressibility (1/GPa) = 0.03914390
#
# Stress axis : x y z
#
# Youngs Moduli (GPa) = 48.58493 83.91816 65.98567
#
# Poissons Ratio (x) = 0.33638 0.05123
# Poissons Ratio (y) = 0.19475 -0.03497
# Poissons Ratio (z) = 0.03772 -0.04447
#
# Static dielectric constant tensor:
#      x y z
#    x 1.718560 0.077520 0.069080 
#    y 0.077520 1.929110 -0.095850 
#    z 0.069080 -0.095850 1.941550 
# 
# From -- ./inp_files/72543.got.cif
#   From: 2010.05.17/outbox.cif.g08.bks.cpg/sg2_37_cif.got.tgz:72543.got - 2010.06.03 11:33:40.
