data_PCOD9062097
_publ_section_title
;
Structure prediction by ZEFSAII (Michael W. Deem and Ramdas Pophale) SiO2 
 PCOD9062097
Probable space group: P -1
;
_chemical_formula_sum "Si O2"
_cell_formula_units_Z 16
_cell_length_a 17.584791
_cell_length_b 8.855818
_cell_length_c 10.892252
_cell_angle_alpha 52.960561
_cell_angle_beta 33.381092
_cell_angle_gamma 63.923948
_cell_volume 737.147335
_symmetry_space_group_name_H-M "P -1"
_symmetry_group_IT_number 2
_symmetry_cell_setting 'triclinic'
loop_
_space_group_symop_operation_xyz
x,y,z
-x,-y,-z
loop_
_atom_site_type_symbol
_atom_site_label
_atom_site_fract_x
_atom_site_fract_y
_atom_site_fract_z
Si Si1 0.131827 0.896733 0.901730
Si Si2 0.314738 0.342242 0.108820
Si Si3 0.681729 0.157098 0.899908
Si Si4 0.380897 0.231272 0.351453
Si Si5 0.124495 0.525074 0.920569
Si Si6 0.376757 0.592088 0.363633
Si Si7 0.141117 0.147098 0.238835
Si Si8 0.139707 0.648277 0.237335
O O1 0.122981 0.711320 0.916507
O O2 0.271721 0.046441 0.622272
O O3 0.122387 0.825733 0.089274
O O4 0.000000 0.000000 0.000000
O O5 0.338294 0.301448 0.239922
O O6 0.193798 0.195728 0.282152
O O7 0.262356 0.545072 0.065404
O O8 0.463579 0.345403 0.842410
O O9 0.665144 0.235194 0.747319
O O10 0.807804 0.294884 0.726214
O O11 0.732629 0.952454 0.938559
O O12 0.536922 0.178119 0.152696
O O13 0.376165 0.406270 0.366698
O O14 0.268534 0.548405 0.639531
O O15 0.117716 0.337752 0.106070
O O16 0.000000 0.500000 0.000000
O O17 0.000000 0.000000 0.500000
O O18 0.000000 0.500000 0.500000
#
# Coordination Sequence:
#
# PCOD9062097 Si02
#       8
#     2   2   2   2   2   2   2   2
#     4  12  29  46  71 104 136 184 231 284 349 412
#     4  11  23  47  73 100 141 186 231 281 344 404
#     4  11  25  44  73 104 137 185 233 281 343 406
#     4  11  24  46  74 105 139 181 233 283 342 413
#     4  12  29  47  68 101 145 182 224 291 351 404
#     4  11  24  47  74 103 144 179 226 289 345 408
#     4  12  28  46  69 102 142 184 234 285 343 412
#     4  12  24  45  72  98 137 182 235 285 334 411
#
# _framework density 21.705293999999999
#
# number of rings (size 3 to 8) (size 9 to 14) (size 15 to 20)
#    0.000    0.500    3.750    3.750   10.500    3.000 
#    0.000    0.000    0.000    0.000    0.000    0.000 
#    0.000    0.000    0.000    0.000    0.000    0.000 
#
# Total GULP energy -89563.681530 kJ/mol
# GULP energy per Si atom -5597.730096 kJ/mol
# Density = 2.165589 g / cm^3
# Si number density = 21.705294 Si / 1000 Ang^3
#
#
#
# Elastic Constant Matrix: (Units=GPa)
#
#
# Indices 1 2 3 4 5 6 
#
# 1 86.6456 40.3262 42.6579 4.3626 -27.5098 -13.1611
# 2 40.3262 133.0663 40.4027 0.6670 -6.0919 -17.6969
# 3 42.6579 40.4027 142.6306 -9.6574 -4.6614 -16.3900
# 4 4.3626 0.6670 -9.6574 33.7592 6.5087 -0.7834
# 5 -27.5098 -6.0919 -4.6614 6.5087 30.7387 -5.2282
# 6 -13.1611 -17.6969 -16.3900 -0.7834 -5.2282 40.8647
#
#
#
# Elastic Compliance Matrix: (Units=1/GPa)
#
#
# Indices 1 2 3 4 5 6 
#
# 1 0.025295 -0.003893 -0.005472 -0.009260 0.024219 0.007187
# 2 -0.003893 0.009279 -0.001256 0.000307 -0.001549 0.002068
# 3 -0.005472 -0.001256 0.009250 0.004265 -0.004491 0.000911
# 4 -0.009260 0.000307 0.004265 0.034943 -0.015393 -0.002438
# 5 0.024219 -0.001549 -0.004491 -0.015393 0.058610 0.012531
# 6 0.007187 0.002068 0.000911 -0.002438 0.012531 0.029603
#
#
# Mechanical properties :
#
#
# Convention : Reuss Voigt Hill
#
# Bulk Modulus (GPa) = 44.28459 67.67955 55.98207
# Shear Modulus (GPa) = 25.54272 37.00288 31.27280
#
# Velocity S-wave (km/s) = 3.43417 4.13338 3.79989
# Velocity P-wave (km/s) = 6.01429 7.35042 6.71566
#
# Compressibility (1/GPa) = 0.02258122
#
# Stress axis : x y z
#
# Youngs Moduli (GPa) = 39.53398 107.77095 108.10623
#
# Poissons Ratio (x) = 0.41957 0.59154
# Poissons Ratio (y) = 0.15391 0.13580
# Poissons Ratio (z) = 0.21632 0.13538
#
# Static dielectric constant tensor:
#      x y z
#    x 1.783040 0.023720 -0.011680 
#    y 0.023720 1.834550 0.026000 
#    z -0.011680 0.026000 1.753320 
# 
# From -- ./inp_files/279250.got.cif
#   From: 2010.05.17/outbox.cif.g08.bks.cpg/sg2_140_cif.got.tgz:279250.got - 2010.06.03 11:33:40.
