data_PCOD9062687
_publ_section_title
;
Structure prediction by ZEFSAII (Michael W. Deem and Ramdas Pophale) SiO2 
 PCOD9062687
Probable space group: P -1
;
_chemical_formula_sum "Si O2"
_cell_formula_units_Z 16
_cell_length_a 15.769782
_cell_length_b 18.504232
_cell_length_c 5.302613
_cell_angle_alpha 104.158898
_cell_angle_beta 75.891179
_cell_angle_gamma 151.855063
_cell_volume 706.379555
_symmetry_space_group_name_H-M "P -1"
_symmetry_group_IT_number 2
_symmetry_cell_setting 'triclinic'
loop_
_space_group_symop_operation_xyz
x,y,z
-x,-y,-z
loop_
_atom_site_type_symbol
_atom_site_label
_atom_site_fract_x
_atom_site_fract_y
_atom_site_fract_z
Si Si1 0.959631 0.832483 0.387085
Si Si2 0.482522 0.936538 0.210728
Si Si3 0.849348 0.943146 0.165109
Si Si4 0.832320 0.096042 0.070077
Si Si5 0.188372 0.453160 0.154919
Si Si6 0.116231 0.571271 0.224279
Si Si7 0.673947 0.514707 0.437726
Si Si8 0.373149 0.350346 0.807668
O O1 0.817686 0.687176 0.551008
O O2 0.817826 0.754836 0.213584
O O3 0.081105 0.987405 0.544561
O O4 0.098663 0.872954 0.233500
O O5 0.292470 0.753425 0.221464
O O6 0.500000 0.000000 0.500000
O O7 0.643242 0.995818 0.137998
O O8 0.500000 0.000000 0.000000
O O9 0.671794 0.761106 0.120202
O O10 0.830821 0.012052 0.121974
O O11 0.000000 0.000000 0.000000
O O12 0.990741 0.269866 0.191389
O O13 0.170909 0.525751 0.158089
O O14 0.296375 0.523297 0.396750
O O15 0.277335 0.477706 0.869347
O O16 0.000000 0.500000 0.500000
O O17 0.000000 0.500000 0.000000
O O18 0.478234 0.403921 0.523886
O O19 0.500000 0.500000 0.000000
#
# Coordination Sequence:
#
# PCOD9062687 Si02
#       8
#     2   2   2   2   2   2   2   2
#     4  11  24  47  68 102 143 201 246 302 368 438
#     4  12  29  51  82 117 152 197 252 317 385 458
#     4  12  25  44  72 102 148 196 254 299 371 442
#     4  11  25  46  74 106 150 193 249 306 376 446
#     4  11  24  45  72 105 147 193 243 305 371 444
#     4  12  26  50  80 113 150 193 245 311 391 461
#     4  11  24  42  68 102 145 192 244 300 364 427
#     4  12  25  44  69 102 149 197 255 306 363 431
#
# _framework density 22.650711999999999
#
# number of rings (size 3 to 8) (size 9 to 14) (size 15 to 20)
#    0.000    0.500    2.500    6.000    3.500    3.000 
#    0.000    0.000    0.000    0.000    0.000    0.000 
#    0.000    0.000    0.000    0.000    0.000    0.000 
#
# Total GULP energy -89429.482484 kJ/mol
# GULP energy per Si atom -5589.342655 kJ/mol
# Density = 2.259916 g / cm^3
# Si number density = 22.650712 Si / 1000 Ang^3
#
#
#
# Elastic Constant Matrix: (Units=GPa)
#
#
# Indices 1 2 3 4 5 6 
#
# 1 168.2741 76.0316 55.6906 -7.5480 1.3404 -11.7491
# 2 76.0316 181.9139 59.1008 -4.5518 -11.6668 -9.8721
# 3 55.6906 59.1008 110.6197 -7.5033 -4.7894 11.6318
# 4 -7.5480 -4.5518 -7.5033 44.3695 0.9488 -6.4949
# 5 1.3404 -11.6668 -4.7894 0.9488 41.7029 -9.6847
# 6 -11.7491 -9.8721 11.6318 -6.4949 -9.6847 51.6842
#
#
#
# Elastic Compliance Matrix: (Units=1/GPa)
#
#
# Indices 1 2 3 4 5 6 
#
# 1 0.008215 -0.002353 -0.003068 0.000959 -0.000814 0.002077
# 2 -0.002353 0.007744 -0.003062 0.000132 0.002374 0.002095
# 3 -0.003068 -0.003062 0.012688 0.000716 -0.000269 -0.004098
# 4 0.000959 0.000132 0.000716 0.023278 0.000269 0.003058
# 5 -0.000814 0.002374 -0.000269 0.000269 0.025841 0.005205
# 6 0.002077 0.002095 -0.004098 0.003058 0.005205 0.022502
#
#
# Mechanical properties :
#
#
# Convention : Reuss Voigt Hill
#
# Bulk Modulus (GPa) = 85.58805 93.60595 89.59700
# Shear Modulus (GPa) = 41.27895 45.55030 43.41463
#
# Velocity S-wave (km/s) = 4.27360 4.48927 4.38276
# Velocity P-wave (km/s) = 7.88794 8.26359 8.07795
#
# Compressibility (1/GPa) = 0.01168387
#
# Stress axis : x y z
#
# Youngs Moduli (GPa) = 121.72326 129.12683 78.81501
#
# Poissons Ratio (x) = 0.30378 0.24177
# Poissons Ratio (y) = 0.28636 0.24131
# Poissons Ratio (z) = 0.37340 0.39535
#
# Static dielectric constant tensor:
#      x y z
#    x 1.855750 -0.022980 0.053110 
#    y -0.022980 1.894330 -0.013000 
#    z 0.053110 -0.013000 1.892160 
# 
# From -- ./inp_files/99869.got.cif
#   From: 2010.05.17/outbox.cif.g08.bks.cpg/sg2_50_cif.got.tgz:99869.got - 2010.06.03 11:33:40.
