data_PCOD9062214
_publ_section_title
;
Structure prediction by ZEFSAII (Michael W. Deem and Ramdas Pophale) SiO2 
 PCOD9062214
Probable space group: P -1
;
_chemical_formula_sum "Si O2"
_cell_formula_units_Z 16
_cell_length_a 12.511327
_cell_length_b 9.294582
_cell_length_c 23.377021
_cell_angle_alpha 144.374428
_cell_angle_beta 153.923596
_cell_angle_gamma 42.428700
_cell_volume 695.700201
_symmetry_space_group_name_H-M "P -1"
_symmetry_group_IT_number 2
_symmetry_cell_setting 'triclinic'
loop_
_space_group_symop_operation_xyz
x,y,z
-x,-y,-z
loop_
_atom_site_type_symbol
_atom_site_label
_atom_site_fract_x
_atom_site_fract_y
_atom_site_fract_z
Si Si1 0.774441 0.363164 0.875893
Si Si2 0.975207 0.078833 0.079626
Si Si3 0.979621 0.406198 0.352600
Si Si4 0.227845 0.518927 0.397436
Si Si5 0.362181 0.152514 0.532593
Si Si6 0.079853 0.045583 0.467066
Si Si7 0.497940 0.559359 0.917020
Si Si8 0.582809 0.853649 0.160346
O O1 0.560833 0.320086 0.713333
O O2 0.664660 0.498663 0.923172
O O3 0.866384 0.098919 0.860326
O O4 0.000000 0.500000 0.000000
O O5 0.059974 0.357453 0.222641
O O6 0.691985 0.050267 0.946782
O O7 0.000000 0.000000 0.000000
O O8 0.183286 0.407071 0.401910
O O9 0.122225 0.295131 0.438688
O O10 0.866275 0.678452 0.399724
O O11 0.741649 0.289234 0.172326
O O12 0.500000 0.500000 0.500000
O O13 0.145253 0.805192 0.457987
O O14 0.241784 0.987565 0.470275
O O15 0.500000 0.000000 0.500000
O O16 0.788969 0.050547 0.325137
O O17 0.415729 0.322750 0.839634
O O18 0.636270 0.704685 0.079619
#
# Coordination Sequence:
#
# PCOD9062214 Si02
#       8
#     2   2   2   2   2   2   2   2
#     4  12  29  47  74 105 148 197 243 294 371 439
#     4  12  26  46  73 106 148 191 239 307 367 431
#     4  12  25  47  74 100 148 193 240 301 359 428
#     4  12  26  44  72 108 143 188 244 301 365 430
#     4  12  29  50  68 106 156 191 240 301 360 442
#     4  12  26  44  76 108 139 193 246 301 364 432
#     4  11  23  48  72 105 147 186 246 311 353 431
#     4  11  24  44  75 108 143 184 246 310 366 421
#
# _framework density 22.998411999999998
#
# number of rings (size 3 to 8) (size 9 to 14) (size 15 to 20)
#    0.000    0.250    5.000    3.750    5.250    0.000 
#    0.000    1.250    0.000    0.000    0.000    0.000 
#    0.000    0.000    0.000    0.000    0.000    0.000 
#
# Total GULP energy -89446.308400 kJ/mol
# GULP energy per Si atom -5590.394275 kJ/mol
# Density = 2.294607 g / cm^3
# Si number density = 22.998412 Si / 1000 Ang^3
#
#
#
# Elastic Constant Matrix: (Units=GPa)
#
#
# Indices 1 2 3 4 5 6 
#
# 1 152.5123 -3.9404 38.6411 -2.1625 -5.5470 -14.2725
# 2 -3.9404 75.5006 15.9196 -24.3455 -12.9066 -2.1855
# 3 38.6411 15.9196 88.6659 -16.4814 1.5151 5.8902
# 4 -2.1625 -24.3455 -16.4814 36.9939 -6.0610 -1.3911
# 5 -5.5470 -12.9066 1.5151 -6.0610 44.1880 -7.4701
# 6 -14.2725 -2.1855 5.8902 -1.3911 -7.4701 36.1886
#
#
#
# Elastic Compliance Matrix: (Units=1/GPa)
#
#
# Indices 1 2 3 4 5 6 
#
# 1 0.008210 0.002091 -0.004195 0.000594 0.002647 0.004616
# 2 0.002091 0.019980 -0.002396 0.013840 0.008888 0.004788
# 3 -0.004195 -0.002396 0.014648 0.004228 -0.001895 -0.004412
# 4 0.000594 0.013840 0.004228 0.039866 0.010117 0.004003
# 5 0.002647 0.008888 -0.001895 0.010117 0.028387 0.008138
# 6 0.004616 0.004788 -0.004412 0.004003 0.008138 0.032295
#
#
# Mechanical properties :
#
#
# Convention : Reuss Voigt Hill
#
# Bulk Modulus (GPa) = 29.55238 46.43549 37.99394
# Shear Modulus (GPa) = 30.55011 41.21134 35.88073
#
# Velocity S-wave (km/s) = 3.64862 4.23770 3.95414
# Velocity P-wave (km/s) = 5.53421 6.64671 6.11581
#
# Compressibility (1/GPa) = 0.03383822
#
# Stress axis : x y z
#
# Youngs Moduli (GPa) = 121.79589 50.05024 68.26877
#
# Poissons Ratio (x) = -0.10465 0.28639
# Poissons Ratio (y) = -0.25465 0.16356
# Poissons Ratio (z) = 0.51093 0.11991
#
# Static dielectric constant tensor:
#      x y z
#    x 1.842670 -0.011770 -0.058990 
#    y -0.011770 1.887620 -0.011910 
#    z -0.058990 -0.011910 1.942610 
# 
# From -- ./inp_files/329038.got.cif
#   From: 2010.05.17/outbox.cif.g08.bks.cpg/sg2_165_cif.got.tgz:329038.got - 2010.06.03 11:33:40.
