data_PCOD9062348
_publ_section_title
;
Structure prediction by ZEFSAII (Michael W. Deem and Ramdas Pophale) SiO2 
 PCOD9062348
Probable space group: P -1
;
_chemical_formula_sum "Si O2"
_cell_formula_units_Z 10
_cell_length_a 8.349965
_cell_length_b 9.701552
_cell_length_c 7.339584
_cell_angle_alpha 125.657448
_cell_angle_beta 89.311911
_cell_angle_gamma 96.805373
_cell_volume 478.486556
_symmetry_space_group_name_H-M "P -1"
_symmetry_group_IT_number 2
_symmetry_cell_setting 'triclinic'
loop_
_space_group_symop_operation_xyz
x,y,z
-x,-y,-z
loop_
_atom_site_type_symbol
_atom_site_label
_atom_site_fract_x
_atom_site_fract_y
_atom_site_fract_z
Si Si1 0.993645 0.172755 0.338964
Si Si2 0.196214 0.886387 0.049594
Si Si3 0.646947 0.747862 0.681529
Si Si4 0.866372 0.354325 0.811855
Si Si5 0.441820 0.513036 0.216900
O O1 0.164096 0.280389 0.358596
O O2 0.854236 0.187655 0.204870
O O3 0.945486 0.228477 0.580077
O O4 0.039494 0.979309 0.182896
O O5 0.218094 0.748922 0.095108
O O6 0.337567 0.046399 0.161922
O O7 0.568752 0.659190 0.795494
O O8 0.553270 0.658168 0.441540
O O9 0.736696 0.437085 0.760100
O O10 0.000000 0.500000 0.000000
O O11 0.500000 0.500000 0.000000
#
# Coordination Sequence:
#
# PCOD9062348 Si02
#       5
#     2   2   2   2   2
#     4   9  20  41  65  86 120 155 199 242 301 352
#     4   9  21  40  65  89 118 158 195 247 300 351
#     4   9  21  41  60  82 122 161 191 240 301 352
#     4  12  24  36  64  96 117 153 205 249 290 352
#     4  11  24  39  58  88 124 160 195 245 299 349
#
# _framework density 20.899228000000001
#
# number of rings (size 3 to 8) (size 9 to 14) (size 15 to 20)
#    1.200    0.800    0.000    3.000    0.000    8.800 
#    0.000    2.000    0.000    0.000    0.000    0.000 
#    0.000    0.000    0.000    0.000    0.000    0.000 
#
# Total GULP energy -55804.914642 kJ/mol
# GULP energy per Si atom -5580.491464 kJ/mol
# Density = 2.085166 g / cm^3
# Si number density = 20.899228 Si / 1000 Ang^3
#
#
#
# Elastic Constant Matrix: (Units=GPa)
#
#
# Indices 1 2 3 4 5 6 
#
# 1 40.5192 35.1946 29.5988 7.1170 22.6225 20.2125
# 2 35.1946 120.0255 57.2507 -10.9202 35.7954 18.9217
# 3 29.5988 57.2507 126.1730 -12.8449 34.6993 10.9512
# 4 7.1170 -10.9202 -12.8449 26.7184 4.4293 4.3837
# 5 22.6225 35.7954 34.6993 4.4293 37.3884 10.0260
# 6 20.2125 18.9217 10.9512 4.3837 10.0260 28.5485
#
#
#
# Elastic Compliance Matrix: (Units=1/GPa)
#
#
# Indices 1 2 3 4 5 6 
#
# 1 0.060081 -0.007440 -0.005780 -0.014810 -0.014607 -0.027986
# 2 -0.007440 0.015175 -0.001460 0.009400 -0.009123 -0.002470
# 3 -0.005780 -0.001460 0.013017 0.008337 -0.008663 0.001829
# 4 -0.014810 0.009400 0.008337 0.051794 -0.013316 -0.002219
# 5 -0.014607 -0.009123 -0.008663 -0.013316 0.053103 0.003107
# 6 -0.027986 -0.002470 0.001829 -0.002219 0.003107 0.055027
#
#
# Mechanical properties :
#
#
# Convention : Reuss Voigt Hill
#
# Bulk Modulus (GPa) = 16.97443 58.97845 37.97644
# Shear Modulus (GPa) = 16.82408 29.50929 23.16669
#
# Velocity S-wave (km/s) = 2.84035 3.76171 3.33302
# Velocity P-wave (km/s) = 4.34700 6.86651 5.74654
#
# Compressibility (1/GPa) = 0.05891215
#
# Stress axis : x y z
#
# Youngs Moduli (GPa) = 16.64425 65.89876 76.82517
#
# Poissons Ratio (x) = 0.49026 0.44408
# Poissons Ratio (y) = 0.12383 0.11217
# Poissons Ratio (z) = 0.09621 0.09622
#
# Static dielectric constant tensor:
#      x y z
#    x 1.791440 -0.031910 -0.041850 
#    y -0.031910 1.748860 0.009320 
#    z -0.041850 0.009320 1.723390 
# 
# From -- ./inp_files/28857.got.cif
#   From: 2010.05.17/outbox.cif.g08.bks.cpg/sg2_15_cif.got.tgz:28857.got - 2010.06.03 11:33:40.
