data_PCOD9062016
_publ_section_title
;
Structure prediction by ZEFSAII (Michael W. Deem and Ramdas Pophale) SiO2 
 PCOD9062016
Probable space group: P -1
;
_chemical_formula_sum "Si O2"
_cell_formula_units_Z 14
_cell_length_a 8.774563
_cell_length_b 11.256152
_cell_length_c 8.584452
_cell_angle_alpha 73.384471
_cell_angle_beta 128.920114
_cell_angle_gamma 94.049824
_cell_volume 625.321370
_symmetry_space_group_name_H-M "P -1"
_symmetry_group_IT_number 2
_symmetry_cell_setting 'triclinic'
loop_
_space_group_symop_operation_xyz
x,y,z
-x,-y,-z
loop_
_atom_site_type_symbol
_atom_site_label
_atom_site_fract_x
_atom_site_fract_y
_atom_site_fract_z
Si Si1 0.968228 0.418736 0.662669
Si Si2 0.321129 0.680127 0.948368
Si Si3 0.067160 0.803296 0.473318
Si Si4 0.687858 0.521713 0.714199
Si Si5 0.602987 0.868278 0.184758
Si Si6 0.397685 0.966473 0.600637
Si Si7 0.616302 0.692474 0.881224
O O1 0.863130 0.305335 0.568709
O O2 0.858329 0.500491 0.701044
O O3 0.000000 0.500000 0.500000
O O4 0.174849 0.354501 0.889197
O O5 0.273597 0.580454 0.082332
O O6 0.460806 0.766493 0.095086
O O7 0.132590 0.755252 0.708234
O O8 0.455492 0.631771 0.902871
O O9 0.183734 0.919849 0.472740
O O10 0.831193 0.832300 0.295941
O O11 0.500000 0.500000 0.500000
O O12 0.639037 0.649635 0.732759
O O13 0.615171 0.908221 0.355279
O O14 0.500000 0.000000 0.000000
O O15 0.539168 0.840168 0.797103
O O16 0.500000 0.000000 0.500000
#
# Coordination Sequence:
#
# PCOD9062016 Si02
#       7
#     2   2   2   2   2   2   2
#     4  12  25  44  70 103 139 183 232 289 351 423
#     4  11  24  44  72 102 140 184 233 290 351 417
#     4  11  24  46  72 100 141 186 232 283 360 408
#     4  12  26  42  70 103 139 183 234 287 356 417
#     4  12  23  46  71 101 138 185 237 283 349 414
#     4  11  26  43  70 101 140 183 232 290 341 416
#     4  11  23  47  65 102 143 180 230 294 347 415
#
# _framework density 22.388487000000001
#
# number of rings (size 3 to 8) (size 9 to 14) (size 15 to 20)
#    0.000    0.571    4.286    4.714    4.000    1.143 
#    0.000    1.429    0.000    0.000    0.000    0.000 
#    0.000    0.000    0.000    0.000    0.000    0.000 
#
# Total GULP energy -78188.391918 kJ/mol
# GULP energy per Si atom -5584.885137 kJ/mol
# Density = 2.233753 g / cm^3
# Si number density = 22.388487 Si / 1000 Ang^3
#
#
#
# Elastic Constant Matrix: (Units=GPa)
#
#
# Indices 1 2 3 4 5 6 
#
# 1 122.0657 37.4136 40.9022 2.2858 -16.7194 -26.9094
# 2 37.4136 89.2821 37.4161 16.7390 0.0484 -19.7971
# 3 40.9022 37.4161 100.9846 19.6353 16.8910 1.6395
# 4 2.2858 16.7390 19.6353 39.5300 -1.8718 -13.4883
# 5 -16.7194 0.0484 16.8910 -1.8718 50.5254 0.5702
# 6 -26.9094 -19.7971 1.6395 -13.4883 0.5702 44.0874
#
#
#
# Elastic Compliance Matrix: (Units=1/GPa)
#
#
# Indices 1 2 3 4 5 6 
#
# 1 0.014991 -0.001806 -0.008535 0.008301 0.007998 0.011093
# 2 -0.001806 0.015601 -0.004852 -0.002210 0.000866 0.005396
# 3 -0.008535 -0.004852 0.019131 -0.011307 -0.009505 -0.011436
# 4 0.008301 -0.002210 -0.011307 0.037109 0.007726 0.015748
# 5 0.007998 0.000866 -0.009505 0.007726 0.025815 0.007654
# 6 0.011093 0.005396 -0.011436 0.015748 0.007654 0.037020
#
#
# Mechanical properties :
#
#
# Convention : Reuss Voigt Hill
#
# Bulk Modulus (GPa) = 51.71214 60.42181 56.06698
# Shear Modulus (GPa) = 26.80996 39.93524 33.37260
#
# Velocity S-wave (km/s) = 3.46423 4.22802 3.86504
# Velocity P-wave (km/s) = 6.25691 7.13311 6.70933
#
# Compressibility (1/GPa) = 0.01933782
#
# Stress axis : x y z
#
# Youngs Moduli (GPa) = 66.70600 64.09874 52.27170
#
# Poissons Ratio (x) = 0.11579 0.44611
# Poissons Ratio (y) = 0.12050 0.25360
# Poissons Ratio (z) = 0.56930 0.31098
#
# Static dielectric constant tensor:
#      x y z
#    x 1.754990 -0.041640 0.035780 
#    y -0.041640 1.904740 0.004310 
#    z 0.035780 0.004310 1.894280 
# 
# From -- ./inp_files/178340.got.cif
#   From: 2010.05.17/outbox.cif.g08.bks.cpg/sg2_90_cif.got.tgz:178340.got - 2010.06.03 11:33:40.
