data_PCOD9062391
_publ_section_title
;
Structure prediction by ZEFSAII (Michael W. Deem and Ramdas Pophale) SiO2 
 PCOD9062391
Probable space group: P -1
;
_chemical_formula_sum "Si O2"
_cell_formula_units_Z 14
_cell_length_a 16.294868
_cell_length_b 8.110075
_cell_length_c 7.208785
_cell_angle_alpha 143.209138
_cell_angle_beta 84.019443
_cell_angle_gamma 93.151777
_cell_volume 566.790671
_symmetry_space_group_name_H-M "P -1"
_symmetry_group_IT_number 2
_symmetry_cell_setting 'triclinic'
loop_
_space_group_symop_operation_xyz
x,y,z
-x,-y,-z
loop_
_atom_site_type_symbol
_atom_site_label
_atom_site_fract_x
_atom_site_fract_y
_atom_site_fract_z
Si Si1 0.920067 0.479884 0.266098
Si Si2 0.184170 0.019610 0.114288
Si Si3 0.764032 0.975413 0.293140
Si Si4 0.413712 0.378586 0.353355
Si Si5 0.942040 0.810083 0.214655
Si Si6 0.343751 0.505022 0.096673
Si Si7 0.650488 0.171900 0.969306
O O1 0.890016 0.765778 0.622107
O O2 0.913018 0.557009 0.119251
O O3 0.010275 0.324267 0.095716
O O4 0.858165 0.265466 0.163088
O O5 0.255668 0.955324 0.190809
O O6 0.231377 0.107578 0.999597
O O7 0.858686 0.976079 0.332324
O O8 0.719685 0.269732 0.595475
O O9 0.708492 0.745687 0.190407
O O10 0.500000 0.500000 0.500000
O O11 0.402387 0.392051 0.146467
O O12 0.402429 0.076639 0.168757
O O13 0.348064 0.591900 0.661006
O O14 0.000000 0.000000 0.500000
O O15 0.381311 0.670396 0.065496
#
# Coordination Sequence:
#
# PCOD9062391 Si02
#       7
#     2   2   2   2   2   2   2
#     4  11  24  40  64  91 132 181 233 289 357 410
#     4  12  22  43  66  98 132 181 242 292 346 418
#     4  12  26  43  71  96 143 186 241 299 345 422
#     4  12  26  48  75 112 149 180 233 294 350 433
#     4  11  25  45  61  96 138 183 240 298 360 407
#     4  12  25  48  73 107 143 192 240 285 357 421
#     4  12  25  45  75 107 146 191 233 288 358 421
#
# _framework density 24.700475999999998
#
# number of rings (size 3 to 8) (size 9 to 14) (size 15 to 20)
#    0.000    0.286    4.286    4.714    4.000    2.286 
#    0.000    0.000    0.000    0.000    0.000    0.000 
#    0.000    0.000    0.000    0.000    0.000    0.000 
#
# Total GULP energy -78335.270258 kJ/mol
# GULP energy per Si atom -5595.376447 kJ/mol
# Density = 2.464426 g / cm^3
# Si number density = 24.700476 Si / 1000 Ang^3
#
#
#
# Elastic Constant Matrix: (Units=GPa)
#
#
# Indices 1 2 3 4 5 6 
#
# 1 73.5808 30.6190 1.6573 3.1828 6.0894 -15.3955
# 2 30.6190 156.9567 19.8754 18.6792 24.0823 -2.5502
# 3 1.6573 19.8754 96.5969 16.6688 0.5698 -5.2392
# 4 3.1828 18.6792 16.6688 41.4218 8.3312 10.5165
# 5 6.0894 24.0823 0.5698 8.3312 31.6106 -5.1764
# 6 -15.3955 -2.5502 -5.2392 10.5165 -5.1764 20.9270
#
#
#
# Elastic Compliance Matrix: (Units=1/GPa)
#
#
# Indices 1 2 3 4 5 6 
#
# 1 0.018688 -0.003477 0.002389 -0.006070 0.003528 0.017846
# 2 -0.003477 0.008198 -0.001604 -0.000865 -0.005804 -0.002962
# 3 0.002389 -0.001604 0.012477 -0.007757 0.004156 0.009612
# 4 -0.006070 -0.000865 -0.007757 0.037986 -0.012752 -0.028756
# 5 0.003528 -0.005804 0.004156 -0.012752 0.041889 0.019698
# 6 0.017846 -0.002962 0.009612 -0.028756 0.019698 0.082283
#
#
# Mechanical properties :
#
#
# Convention : Reuss Voigt Hill
#
# Bulk Modulus (GPa) = 29.43024 47.93754 38.68389
# Shear Modulus (GPa) = 22.91150 37.12406 30.01778
#
# Velocity S-wave (km/s) = 3.04891 3.88102 3.48986
# Velocity P-wave (km/s) = 4.93307 6.28751 5.65102
#
# Compressibility (1/GPa) = 0.03397865
#
# Stress axis : x y z
#
# Youngs Moduli (GPa) = 53.50972 121.98133 80.14868
#
# Poissons Ratio (x) = 0.42416 -0.19150
# Poissons Ratio (y) = 0.18607 0.12858
# Poissons Ratio (z) = -0.12785 0.19569
#
# Static dielectric constant tensor:
#      x y z
#    x 1.985040 -0.033110 -0.044650 
#    y -0.033110 2.021240 -0.049190 
#    z -0.044650 -0.049190 1.935280 
# 
# From -- ./inp_files/329724.got.cif
#   From: 2010.05.17/outbox.cif.g08.bks.cpg/sg2_165_cif.got.tgz:329724.got - 2010.06.03 11:33:40.
