data_PCOD9062597
_publ_section_title
;
Structure prediction by ZEFSAII (Michael W. Deem and Ramdas Pophale) SiO2 
 PCOD9062597
Probable space group: P -1
;
_chemical_formula_sum "Si O2"
_cell_formula_units_Z 16
_cell_length_a 11.670447
_cell_length_b 13.420414
_cell_length_c 9.245651
_cell_angle_alpha 73.327405
_cell_angle_beta 96.041104
_cell_angle_gamma 146.714564
_cell_volume 735.937309
_symmetry_space_group_name_H-M "P -1"
_symmetry_group_IT_number 2
_symmetry_cell_setting 'triclinic'
loop_
_space_group_symop_operation_xyz
x,y,z
-x,-y,-z
loop_
_atom_site_type_symbol
_atom_site_label
_atom_site_fract_x
_atom_site_fract_y
_atom_site_fract_z
Si Si1 0.399319 0.821168 0.749799
Si Si2 0.703598 0.045917 0.446713
Si Si3 0.688280 0.587201 0.901510
Si Si4 0.090562 0.000366 0.644103
Si Si5 0.474596 0.668459 0.284568
Si Si6 0.378869 0.015634 0.999472
Si Si7 0.903268 0.583776 0.128253
Si Si8 0.927879 0.566833 0.473315
O O1 0.369584 0.921685 0.688977
O O2 0.172440 0.591416 0.842324
O O3 0.496042 0.858361 0.593428
O O4 0.569075 0.920096 0.853209
O O5 0.818029 0.037245 0.392924
O O6 0.873453 0.228963 0.500848
O O7 0.616763 0.482992 0.781690
O O8 0.893096 0.818946 0.799725
O O9 0.500000 0.500000 0.000000
O O10 0.748035 0.538370 0.035801
O O11 0.306787 0.209677 0.663005
O O12 0.000000 0.000000 0.500000
O O13 0.287144 0.565159 0.411574
O O14 0.544837 0.827568 0.145591
O O15 0.136207 0.800146 0.023378
O O16 0.500000 0.000000 0.000000
O O17 0.902135 0.590675 0.298421
O O18 0.000000 0.500000 0.500000
#
# Coordination Sequence:
#
# PCOD9062597 Si02
#       8
#     2   2   2   2   2   2   2   2
#     4  11  24  41  72 105 153 194 231 304 371 439
#     4  11  24  45  71 112 151 191 251 297 368 447
#     4  12  30  52  75 106 144 197 256 314 364 427
#     4  12  29  50  76 107 146 195 253 310 364 434
#     4  12  27  50  76 109 149 189 252 300 369 447
#     4  12  25  40  70 109 148 190 233 295 373 449
#     4  12  25  47  71 108 148 192 243 301 371 436
#     4  12  24  44  77 114 151 198 237 293 373 457
#
# _framework density 21.740981000000001
#
# number of rings (size 3 to 8) (size 9 to 14) (size 15 to 20)
#    0.000    0.250    6.250    2.250    5.250    2.500 
#    0.000    0.000    0.000    0.000    0.000    0.000 
#    0.000    0.000    0.000    0.000    0.000    0.000 
#
# Total GULP energy -89499.546017 kJ/mol
# GULP energy per Si atom -5593.721626 kJ/mol
# Density = 2.169150 g / cm^3
# Si number density = 21.740981 Si / 1000 Ang^3
#
#
#
# Elastic Constant Matrix: (Units=GPa)
#
#
# Indices 1 2 3 4 5 6 
#
# 1 71.4023 9.2896 28.5338 3.2509 -17.5229 24.8701
# 2 9.2896 98.1203 4.1917 5.3205 -8.8696 15.5441
# 3 28.5338 4.1917 94.1525 1.1857 0.4392 22.6719
# 4 3.2509 5.3205 1.1857 47.3601 10.3557 3.0217
# 5 -17.5229 -8.8696 0.4392 10.3557 41.3250 4.4833
# 6 24.8701 15.5441 22.6719 3.0217 4.4833 28.3393
#
#
#
# Elastic Compliance Matrix: (Units=1/GPa)
#
#
# Indices 1 2 3 4 5 6 
#
# 1 0.028118 0.003441 -0.002200 -0.004182 0.016661 -0.026993
# 2 0.003441 0.012265 0.001146 -0.002200 0.005863 -0.011357
# 3 -0.002200 0.001146 0.013540 0.000263 0.000143 -0.009581
# 4 -0.004182 -0.002200 0.000263 0.023268 -0.008462 0.003524
# 5 0.016661 0.005863 0.000143 -0.008462 0.037127 -0.022923
# 6 -0.026993 -0.011357 -0.009581 0.003524 -0.022923 0.076120
#
#
# Mechanical properties :
#
#
# Convention : Reuss Voigt Hill
#
# Bulk Modulus (GPa) = 17.03636 38.63392 27.83514
# Shear Modulus (GPa) = 24.36303 38.18220 31.27262
#
# Velocity S-wave (km/s) = 3.35117 4.19529 3.79676
# Velocity P-wave (km/s) = 4.77775 6.42463 5.66140
#
# Compressibility (1/GPa) = 0.05869799
#
# Stress axis : x y z
#
# Youngs Moduli (GPa) = 35.56490 81.53076 73.85638
#
# Poissons Ratio (x) = -0.28055 0.16246
# Poissons Ratio (y) = -0.12238 -0.08466
# Poissons Ratio (z) = 0.07823 -0.09346
#
# Static dielectric constant tensor:
#      x y z
#    x 1.736410 -0.021690 -0.029320 
#    y -0.021690 1.840110 0.015950 
#    z -0.029320 0.015950 1.797770 
# 
# From -- ./inp_files/272550.got.cif
#   From: 2010.05.17/outbox.cif.g08.bks.cpg/sg2_137_cif.got.tgz:272550.got - 2010.06.03 11:33:40.
