data_PCOD9062363
_publ_section_title
;
Structure prediction by ZEFSAII (Michael W. Deem and Ramdas Pophale) SiO2 
 PCOD9062363
Probable space group: P -1
;
_chemical_formula_sum "Si O2"
_cell_formula_units_Z 16
_cell_length_a 16.964674
_cell_length_b 5.370594
_cell_length_c 9.983670
_cell_angle_alpha 99.997297
_cell_angle_beta 97.824562
_cell_angle_gamma 55.834655
_cell_volume 740.372551
_symmetry_space_group_name_H-M "P -1"
_symmetry_group_IT_number 2
_symmetry_cell_setting 'triclinic'
loop_
_space_group_symop_operation_xyz
x,y,z
-x,-y,-z
loop_
_atom_site_type_symbol
_atom_site_label
_atom_site_fract_x
_atom_site_fract_y
_atom_site_fract_z
Si Si1 0.777798 0.398798 0.228325
Si Si2 0.790134 0.333406 0.739129
Si Si3 0.525369 0.291637 0.112210
Si Si4 0.107363 0.331983 0.177158
Si Si5 0.656445 0.682533 0.990031
Si Si6 0.483983 0.706496 0.390881
Si Si7 0.669033 0.684967 0.499486
Si Si8 0.880621 0.700761 0.144071
O O1 0.694956 0.467958 0.108767
O O2 0.736991 0.577435 0.375772
O O3 0.835356 0.524652 0.179441
O O4 0.837624 0.036100 0.225317
O O5 0.861133 0.446271 0.743309
O O6 0.722285 0.430576 0.602466
O O7 0.841025 0.983672 0.759460
O O8 0.730353 0.526228 0.873442
O O9 0.508857 0.493938 0.251955
O O10 0.628726 0.995333 0.082221
O O11 0.500000 0.500000 0.000000
O O12 0.442689 0.225640 0.092878
O O13 0.993905 0.497989 0.176365
O O14 0.132491 0.268649 0.018047
O O15 0.500000 0.500000 0.500000
O O16 0.569446 0.758607 0.422159
O O17 0.375750 0.998536 0.400132
#
# Coordination Sequence:
#
# PCOD9062363 Si02
#       8
#     2   2   2   2   2   2   2   2
#     4  12  25  43  72 103 139 181 231 286 343 421
#     4  12  25  43  72 103 139 181 231 286 343 421
#     4  11  24  39  66  91 141 172 227 290 341 390
#     4  11  24  46  74 106 136 175 227 294 357 416
#     4  11  24  40  63 106 128 178 233 286 336 403
#     4  11  24  45  66  91 142 193 231 286 337 409
#     4  11  28  42  65 104 140 186 241 278 344 411
#     4  11  24  46  74 106 136 175 227 294 357 416
#
# _framework density 21.610742999999999
#
# number of rings (size 3 to 8) (size 9 to 14) (size 15 to 20)
#    0.000    0.750    2.500    3.750   10.500    6.000 
#    0.000    3.750    0.000    0.000    0.000    0.000 
#    0.000    0.000    0.000    0.000    0.000    0.000 
#
# Total GULP energy -89348.950261 kJ/mol
# GULP energy per Si atom -5584.309391 kJ/mol
# Density = 2.156156 g / cm^3
# Si number density = 21.610743 Si / 1000 Ang^3
#
#
#
# Elastic Constant Matrix: (Units=GPa)
#
#
# Indices 1 2 3 4 5 6 
#
# 1 60.1517 30.2313 3.2204 1.6569 -0.6623 12.1092
# 2 30.2313 120.1971 31.2168 -8.2644 -8.3772 -0.6207
# 3 3.2204 31.2168 123.9107 1.7738 -10.5489 -7.6525
# 4 1.6569 -8.2644 1.7738 33.2953 0.5392 3.0043
# 5 -0.6623 -8.3772 -10.5489 0.5392 28.3716 -0.8855
# 6 12.1092 -0.6207 -7.6525 3.0043 -0.8855 28.8681
#
#
#
# Elastic Compliance Matrix: (Units=1/GPa)
#
#
# Indices 1 2 3 4 5 6 
#
# 1 0.021271 -0.005664 0.000238 -0.001657 -0.001332 -0.008850
# 2 -0.005664 0.010698 -0.002295 0.002865 0.002174 0.001766
# 3 0.000238 -0.002295 0.009052 -0.001332 0.002796 0.002475
# 4 -0.001657 0.002865 -0.001332 0.031162 -0.000369 -0.002851
# 5 -0.001332 0.002174 0.002796 -0.000369 0.036983 0.002520
# 6 -0.008850 0.001766 0.002475 -0.002851 0.002520 0.039420
#
#
# Mechanical properties :
#
#
# Convention : Reuss Voigt Hill
#
# Bulk Modulus (GPa) = 39.09439 48.17738 43.63589
# Shear Modulus (GPa) = 28.97626 34.07974 31.52800
#
# Velocity S-wave (km/s) = 3.66570 3.97543 3.82370
# Velocity P-wave (km/s) = 6.00383 6.58891 6.30316
#
# Compressibility (1/GPa) = 0.02557912
#
# Stress axis : x y z
#
# Youngs Moduli (GPa) = 47.01197 93.47614 110.46993
#
# Poissons Ratio (x) = 0.52948 -0.02629
# Poissons Ratio (y) = 0.26629 0.25350
# Poissons Ratio (z) = -0.01119 0.21451
#
# Static dielectric constant tensor:
#      x y z
#    x 1.900370 0.000900 0.057950 
#    y 0.000900 1.832120 0.041160 
#    z 0.057950 0.041160 1.778680 
# 
# From -- ./inp_files/117108.got.cif
#   From: 2010.05.17/outbox.cif.g08.bks.cpg/sg2_59_cif.got.tgz:117108.got - 2010.06.03 11:33:40.
