data_PCOD9062062
_publ_section_title
;
Structure prediction by ZEFSAII (Michael W. Deem and Ramdas Pophale) SiO2 
 PCOD9062062
Probable space group: P -1
;
_chemical_formula_sum "Si O2"
_cell_formula_units_Z 16
_cell_length_a 17.048959
_cell_length_b 8.794133
_cell_length_c 11.850376
_cell_angle_alpha 103.245030
_cell_angle_beta 132.479153
_cell_angle_gamma 39.862873
_cell_volume 664.312008
_symmetry_space_group_name_H-M "P -1"
_symmetry_group_IT_number 2
_symmetry_cell_setting 'triclinic'
loop_
_space_group_symop_operation_xyz
x,y,z
-x,-y,-z
loop_
_atom_site_type_symbol
_atom_site_label
_atom_site_fract_x
_atom_site_fract_y
_atom_site_fract_z
Si Si1 0.348713 0.856023 0.298018
Si Si2 0.620741 0.554954 0.705876
Si Si3 0.830792 0.722376 0.216695
Si Si4 0.963933 0.076734 0.285004
Si Si5 0.692263 0.859108 0.350716
Si Si6 0.254876 0.554450 0.646607
Si Si7 0.658791 0.194665 0.971652
Si Si8 0.957827 0.304488 0.116844
O O1 0.539043 0.686611 0.522500
O O2 0.363597 0.649425 0.292946
O O3 0.331582 0.902193 0.156936
O O4 0.142861 0.162637 0.214439
O O5 0.451700 0.839898 0.673803
O O6 0.833686 0.367302 0.912228
O O7 0.694192 0.880278 0.221913
O O8 0.807135 0.607090 0.089532
O O9 0.070226 0.418567 0.429900
O O10 0.775522 0.948326 0.136373
O O11 0.890970 0.269564 0.355034
O O12 0.040032 0.083964 0.256072
O O13 0.770335 0.220447 0.077838
O O14 0.130821 0.755137 0.448706
O O15 0.641343 0.743673 0.310952
O O16 0.418764 0.486396 0.815276
#
# Coordination Sequence:
#
# PCOD9062062 Si02
#       8
#     2   2   2   2   2   2   2   2
#     4  11  27  46  67 104 138 186 242 281 331 416
#     4  11  25  43  72  98 132 190 231 283 336 408
#     4  11  25  44  74 106 139 184 226 294 349 415
#     4  11  25  43  70 108 141 179 230 289 348 409
#     4  11  23  47  71 103 145 177 234 286 355 411
#     4  11  25  43  70 106 144 178 225 292 353 412
#     4  12  26  44  70 102 143 186 229 284 343 416
#     4  12  24  46  75 101 138 190 229 284 348 412
#
# _framework density 24.085068
#
# number of rings (size 3 to 8) (size 9 to 14) (size 15 to 20)
#    0.000    0.750    5.000    1.500    5.250    2.500 
#    0.000    1.250    0.000    0.000    0.000    0.000 
#    0.000    0.000    0.000    0.000    0.000    0.000 
#
# Total GULP energy -89651.448006 kJ/mol
# GULP energy per Si atom -5603.215500 kJ/mol
# Density = 2.403025 g / cm^3
# Si number density = 24.085068 Si / 1000 Ang^3
#
#
#
# Elastic Constant Matrix: (Units=GPa)
#
#
# Indices 1 2 3 4 5 6 
#
# 1 57.8244 -6.7901 7.7610 1.5579 -5.6874 -13.8165
# 2 -6.7901 71.3671 -4.9073 4.8000 -2.3024 -15.8016
# 3 7.7610 -4.9073 99.1762 10.5415 -0.6290 -6.7924
# 4 1.5579 4.8000 10.5415 33.1339 -1.0692 2.6695
# 5 -5.6874 -2.3024 -0.6290 -1.0692 23.8710 9.1602
# 6 -13.8165 -15.8016 -6.7924 2.6695 9.1602 35.4720
#
#
#
# Elastic Compliance Matrix: (Units=1/GPa)
#
#
# Indices 1 2 3 4 5 6 
#
# 1 0.020315 0.004181 -0.000501 -0.002114 0.001510 0.009449
# 2 0.004181 0.017004 0.001633 -0.004045 -0.001410 0.010184
# 3 -0.000501 0.001633 0.010834 -0.003951 -0.001074 0.003181
# 4 -0.002114 -0.004045 -0.003951 0.032754 0.003011 -0.006624
# 5 0.001510 -0.001410 -0.001074 0.003011 0.047068 -0.012627
# 6 0.009449 0.010184 0.003181 -0.006624 -0.012627 0.040777
#
#
# Mechanical properties :
#
#
# Convention : Reuss Voigt Hill
#
# Bulk Modulus (GPa) = 17.01316 24.49943 20.75629
# Shear Modulus (GPa) = 28.13433 33.98233 31.05833
#
# Velocity S-wave (km/s) = 3.42149 3.76031 3.59489
# Velocity P-wave (km/s) = 4.76318 5.38956 5.08602
#
# Compressibility (1/GPa) = 0.05877804
#
# Stress axis : x y z
#
# Youngs Moduli (GPa) = 49.22432 58.81074 92.30124
#
# Poissons Ratio (x) = -0.24591 0.04629
# Poissons Ratio (y) = -0.20582 -0.15070
# Poissons Ratio (z) = 0.02468 -0.09602
#
# Static dielectric constant tensor:
#      x y z
#    x 1.879550 -0.001330 0.036570 
#    y -0.001330 1.926790 0.032190 
#    z 0.036570 0.032190 1.930420 
# 
# From -- ./inp_files/462235.got.cif
#   From: 2010.05.17/outbox.cif.g08.bks.cpg/sg2_232_cif.got.tgz:462235.got - 2010.06.03 11:33:40.
