data_PCOD9062208
_publ_section_title
;
Structure prediction by ZEFSAII (Michael W. Deem and Ramdas Pophale) SiO2 
 PCOD9062208
Probable space group: P -1
;
_chemical_formula_sum "Si O2"
_cell_formula_units_Z 16
_cell_length_a 9.114917
_cell_length_b 23.407946
_cell_length_c 11.942371
_cell_angle_alpha 26.833897
_cell_angle_beta 141.421272
_cell_angle_gamma 134.779165
_cell_volume 717.043128
_symmetry_space_group_name_H-M "P -1"
_symmetry_group_IT_number 2
_symmetry_cell_setting 'triclinic'
loop_
_space_group_symop_operation_xyz
x,y,z
-x,-y,-z
loop_
_atom_site_type_symbol
_atom_site_label
_atom_site_fract_x
_atom_site_fract_y
_atom_site_fract_z
Si Si1 0.676732 0.609274 0.869819
Si Si2 0.536361 0.886034 0.319152
Si Si3 0.547513 0.739618 0.891602
Si Si4 0.157857 0.879838 0.277854
Si Si5 0.685310 0.739191 0.231678
Si Si6 0.273940 0.473801 0.203387
Si Si7 0.617750 0.139558 0.975009
Si Si8 0.010966 0.359713 0.806242
O O1 0.590124 0.742408 0.629623
O O2 0.687825 0.603623 0.753114
O O3 0.500000 0.500000 0.000000
O O4 0.924965 0.604265 0.089941
O O5 0.279929 0.901673 0.192838
O O6 0.707215 0.994384 0.285292
O O7 0.534919 0.881181 0.192628
O O8 0.371719 0.842885 0.553348
O O9 0.607239 0.759979 0.021956
O O10 0.411051 0.605126 0.041112
O O11 0.787296 0.714800 0.010305
O O12 0.965010 0.766370 0.358838
O O13 0.000000 0.000000 0.000000
O O14 0.644185 0.603516 0.504061
O O15 0.540997 0.833120 0.060665
O O16 0.000000 0.500000 0.000000
O O17 0.792492 0.259592 0.851513
O O18 0.000000 0.500000 0.500000
#
# Coordination Sequence:
#
# PCOD9062208 Si02
#       8
#     2   2   2   2   2   2   2   2
#     4  12  24  45  75 102 145 196 251 298 375 446
#     4  11  23  48  72 101 142 195 245 301 374 441
#     4  12  27  48  72 110 149 196 248 308 382 447
#     4  12  25  49  75 104 147 200 247 305 380 450
#     4  12  26  46  73 109 149 191 249 311 374 450
#     4  12  25  44  73 109 145 195 247 307 378 444
#     4  11  25  45  73 107 144 191 245 307 368 444
#     4  12  26  44  74 109 151 194 248 311 370 448
#
# _framework density 22.313859999999998
#
# number of rings (size 3 to 8) (size 9 to 14) (size 15 to 20)
#    0.000    0.250    6.250    2.625    3.500    1.000 
#    0.000    0.000    0.000    0.000    0.000    0.000 
#    0.000    0.000    0.000    0.000    0.000    0.000 
#
# Total GULP energy -89333.446197 kJ/mol
# GULP energy per Si atom -5583.340387 kJ/mol
# Density = 2.226307 g / cm^3
# Si number density = 22.313860 Si / 1000 Ang^3
#
#
#
# Elastic Constant Matrix: (Units=GPa)
#
#
# Indices 1 2 3 4 5 6 
#
# 1 145.6044 56.1803 43.8607 8.5520 0.5694 -11.0445
# 2 56.1803 113.5263 40.9535 -2.2673 -3.3448 1.5774
# 3 43.8607 40.9535 118.9173 -7.3504 -0.1502 -9.2918
# 4 8.5520 -2.2673 -7.3504 40.5566 2.4550 -14.1240
# 5 0.5694 -3.3448 -0.1502 2.4550 30.2959 -2.1294
# 6 -11.0445 1.5774 -9.2918 -14.1240 -2.1294 51.1255
#
#
#
# Elastic Compliance Matrix: (Units=1/GPa)
#
#
# Indices 1 2 3 4 5 6 
#
# 1 0.009205 -0.003863 -0.002109 -0.002127 -0.000359 0.001122
# 2 -0.003863 0.011768 -0.002724 0.000369 0.001220 -0.001540
# 3 -0.002109 -0.002724 0.010497 0.003035 -0.000289 0.002363
# 4 -0.002127 0.000369 0.003035 0.028525 -0.001661 0.007892
# 5 -0.000359 0.001220 -0.000289 -0.001661 0.033336 0.000762
# 6 0.001122 -0.001540 0.002363 0.007892 0.000762 0.022491
#
#
# Mechanical properties :
#
#
# Convention : Reuss Voigt Hill
#
# Bulk Modulus (GPa) = 71.03332 73.33746 72.18539
# Shear Modulus (GPa) = 36.25652 40.19916 38.22784
#
# Velocity S-wave (km/s) = 4.03531 4.24905 4.14356
# Velocity P-wave (km/s) = 7.32219 7.55051 7.43723
#
# Compressibility (1/GPa) = 0.01407790
#
# Stress axis : x y z
#
# Youngs Moduli (GPa) = 108.63382 84.97937 95.26575
#
# Poissons Ratio (x) = 0.32829 0.20092
# Poissons Ratio (y) = 0.41967 0.25948
# Poissons Ratio (z) = 0.22911 0.23146
#
# Static dielectric constant tensor:
#      x y z
#    x 1.801830 0.019360 -0.070250 
#    y 0.019360 1.829000 -0.021780 
#    z -0.070250 -0.021780 2.987000 
# 
# From -- ./inp_files/405341.got.cif
#   From: 2010.05.17/outbox.cif.g08.bks.cpg/sg2_203_cif.got.tgz:405341.got - 2010.06.03 11:33:40.
