data_PCOD9062088
_publ_section_title
;
Structure prediction by ZEFSAII (Michael W. Deem and Ramdas Pophale) SiO2 
 PCOD9062088
Probable space group: P -1
;
_chemical_formula_sum "Si O2"
_cell_formula_units_Z 16
_cell_length_a 6.832806
_cell_length_b 25.433721
_cell_length_c 7.953487
_cell_angle_alpha 138.035113
_cell_angle_beta 83.291209
_cell_angle_gamma 120.290322
_cell_volume 713.806983
_symmetry_space_group_name_H-M "P -1"
_symmetry_group_IT_number 2
_symmetry_cell_setting 'triclinic'
loop_
_space_group_symop_operation_xyz
x,y,z
-x,-y,-z
loop_
_atom_site_type_symbol
_atom_site_label
_atom_site_fract_x
_atom_site_fract_y
_atom_site_fract_z
Si Si1 0.698729 0.551011 0.954194
Si Si2 0.231539 0.716940 0.408839
Si Si3 0.019910 0.056726 0.955681
Si Si4 0.852569 0.142089 0.412975
Si Si5 0.573903 0.214589 0.103985
Si Si6 0.541944 0.947146 0.516784
Si Si7 0.712964 0.411902 0.384495
Si Si8 0.630199 0.706226 0.181542
O O1 0.636723 0.471597 0.631363
O O2 0.500000 0.500000 0.000000
O O3 0.685824 0.635740 0.087699
O O4 0.977851 0.605030 0.129113
O O5 0.225012 0.788420 0.453650
O O6 0.241364 0.754475 0.683771
O O7 0.474061 0.723898 0.362831
O O8 0.808705 0.987479 0.668364
O O9 0.948514 0.124639 0.195149
O O10 0.293482 0.129256 0.010264
O O11 0.000000 0.000000 0.000000
O O12 0.605551 0.048107 0.303168
O O13 0.088141 0.190744 0.632750
O O14 0.657252 0.323294 0.299143
O O15 0.585996 0.162067 0.814619
O O16 0.500000 0.000000 0.500000
O O17 0.000000 0.500000 0.500000
O O18 0.539088 0.349944 0.095902
#
# Coordination Sequence:
#
# PCOD9062088 Si02
#       8
#     2   2   2   2   2   2   2   2
#     4  11  26  43  72 104 138 191 246 297 357 432
#     4  11  23  47  72 104 143 188 243 297 364 432
#     4  12  26  48  78 107 146 195 249 301 376 447
#     4  11  25  45  76 104 140 194 239 297 369 442
#     4  12  27  44  77 106 147 192 239 307 367 432
#     4  12  27  46  71 111 152 186 245 314 368 439
#     4  12  27  45  71 107 148 194 240 299 367 429
#     4  11  24  45  73  99 146 189 243 295 361 433
#
# _framework density 22.415023000000001
#
# number of rings (size 3 to 8) (size 9 to 14) (size 15 to 20)
#    0.000    0.500    2.500    4.875    8.750    2.000 
#    0.000    0.000    0.000    0.000    0.000    0.000 
#    0.000    0.000    0.000    0.000    0.000    0.000 
#
# Total GULP energy -89343.122201 kJ/mol
# GULP energy per Si atom -5583.945138 kJ/mol
# Density = 2.236401 g / cm^3
# Si number density = 22.415023 Si / 1000 Ang^3
#
#
#
# Elastic Constant Matrix: (Units=GPa)
#
#
# Indices 1 2 3 4 5 6 
#
# 1 84.0925 28.6765 22.6499 4.7024 0.6775 -13.2336
# 2 28.6765 93.2689 -3.9019 -0.2480 6.1167 -2.7095
# 3 22.6499 -3.9019 94.3498 -19.7345 8.5947 -7.4135
# 4 4.7024 -0.2480 -19.7345 38.5387 -2.0710 -3.5487
# 5 0.6775 6.1167 8.5947 -2.0710 55.1447 -11.4119
# 6 -13.2336 -2.7095 -7.4135 -3.5487 -11.4119 26.3494
#
#
#
# Elastic Compliance Matrix: (Units=1/GPa)
#
#
# Indices 1 2 3 4 5 6 
#
# 1 0.016097 -0.005102 -0.004493 -0.003542 0.002350 0.006836
# 2 -0.005102 0.012469 0.002141 0.001582 -0.001857 -0.001269
# 3 -0.004493 0.002141 0.013688 0.007686 -0.001579 0.002166
# 4 -0.003542 0.001582 0.007686 0.030841 0.000880 0.005081
# 5 0.002350 -0.001857 -0.001579 0.000880 0.020571 0.009573
# 6 0.006836 -0.001269 0.002166 0.005081 0.009573 0.046694
#
#
# Mechanical properties :
#
#
# Convention : Reuss Voigt Hill
#
# Bulk Modulus (GPa) = 36.56950 40.72892 38.64921
# Shear Modulus (GPa) = 30.41677 38.95901 34.68789
#
# Velocity S-wave (km/s) = 3.68772 4.17355 3.93813
# Velocity P-wave (km/s) = 5.87218 6.43696 6.16105
#
# Compressibility (1/GPa) = 0.02734519
#
# Stress axis : x y z
#
# Youngs Moduli (GPa) = 62.12481 80.19854 73.05919
#
# Poissons Ratio (x) = 0.40917 0.32825
# Poissons Ratio (y) = 0.31696 -0.15641
# Poissons Ratio (z) = 0.27912 -0.17170
#
# Static dielectric constant tensor:
#      x y z
#    x 1.843590 0.015360 0.026640 
#    y 0.015360 1.908760 0.023380 
#    z 0.026640 0.023380 1.847290 
# 
# From -- ./inp_files/143159.got.cif
#   From: 2010.05.17/outbox.cif.g08.bks.cpg/sg2_72_cif.got.tgz:143159.got - 2010.06.03 11:33:40.
