data_PCOD9062337
_publ_section_title
;
Structure prediction by ZEFSAII (Michael W. Deem and Ramdas Pophale) SiO2 
 PCOD9062337
Probable space group: P -1
;
_chemical_formula_sum "Si O2"
_cell_formula_units_Z 16
_cell_length_a 11.195985
_cell_length_b 20.173442
_cell_length_c 17.146075
_cell_angle_alpha 19.787207
_cell_angle_beta 34.615002
_cell_angle_gamma 42.838647
_cell_volume 727.495510
_symmetry_space_group_name_H-M "P -1"
_symmetry_group_IT_number 2
_symmetry_cell_setting 'triclinic'
loop_
_space_group_symop_operation_xyz
x,y,z
-x,-y,-z
loop_
_atom_site_type_symbol
_atom_site_label
_atom_site_fract_x
_atom_site_fract_y
_atom_site_fract_z
Si Si1 0.679140 0.797019 0.668048
Si Si2 0.115587 0.334291 0.455494
Si Si3 0.795849 0.330799 0.321254
Si Si4 0.733398 0.118230 0.829557
Si Si5 0.238724 0.760360 0.864104
Si Si6 0.772703 0.933616 0.853516
Si Si7 0.708623 0.502979 0.332065
Si Si8 0.555834 0.372833 0.256716
O O1 0.772167 0.729930 0.611784
O O2 0.432585 0.803922 0.774848
O O3 0.809199 0.020625 0.368463
O O4 0.657365 0.611801 0.943436
O O5 0.299204 0.337717 0.418567
O O6 0.892558 0.168085 0.762304
O O7 0.088052 0.563198 0.201876
O O8 0.872084 0.140283 0.528139
O O9 0.671388 0.431249 0.343184
O O10 0.636998 0.271718 0.399408
O O11 0.000000 0.500000 0.000000
O O12 0.759806 0.954292 0.931942
O O13 0.806028 0.326516 0.511611
O O14 0.480503 0.090806 0.010040
O O15 0.338147 0.695964 0.802070
O O16 0.840732 0.730101 0.015980
O O17 0.500000 0.500000 0.500000
#
# Coordination Sequence:
#
# PCOD9062337 Si02
#       8
#     2   2   2   2   2   2   2   2
#     4   8  15  28  47  73 109 149 181 214 267 333
#     4   9  17  30  51  80 110 144 183 229 279 330
#     4  11  24  38  56  85 118 148 188 232 282 343
#     4   9  18  35  59  84 105 138 200 238 271 332
#     4   8  15  28  46  72 108 149 180 217 269 329
#     4   9  20  38  57  77 110 149 185 240 278 320
#     4   9  20  40  63  81 105 149 194 236 278 327
#     4   9  19  33  48  75 121 148 172 229 286 328
#
# _framework density 21.993264
#
# number of rings (size 3 to 8) (size 9 to 14) (size 15 to 20)
#    0.000    3.000    0.000    2.250    7.000    2.500 
#    0.000    0.625    0.000    3.000    0.000    0.000 
#    0.000    0.000    0.000    0.000    0.000    0.000 
#
# Total GULP energy -89124.523325 kJ/mol
# GULP energy per Si atom -5570.282708 kJ/mol
# Density = 2.194321 g / cm^3
# Si number density = 21.993264 Si / 1000 Ang^3
#
#
#
# Elastic Constant Matrix: (Units=GPa)
#
#
# Indices 1 2 3 4 5 6 
#
# 1 81.5650 8.4677 13.5471 1.9755 -9.8105 0.9383
# 2 8.4677 36.6932 8.2205 -13.7499 5.6644 0.3092
# 3 13.5471 8.2205 88.6336 -18.5726 -8.8441 -0.7808
# 4 1.9755 -13.7499 -18.5726 41.0826 -10.9940 -3.9879
# 5 -9.8105 5.6644 -8.8441 -10.9940 40.3957 0.0243
# 6 0.9383 0.3092 -0.7808 -3.9879 0.0243 20.9282
#
#
#
# Elastic Compliance Matrix: (Units=1/GPa)
#
#
# Indices 1 2 3 4 5 6 
#
# 1 0.013374 -0.003895 -0.001859 -0.002135 0.002807 -0.001022
# 2 -0.003895 0.032531 -0.000550 0.010223 -0.002847 0.001625
# 3 -0.001859 -0.000550 0.013681 0.007538 0.004671 0.002033
# 4 -0.002135 0.010223 0.007538 0.034349 0.009043 0.006761
# 5 0.002807 -0.002847 0.004671 0.009043 0.029318 0.001780
# 6 -0.001022 0.001625 0.002033 0.006761 0.001780 0.049166
#
#
# Mechanical properties :
#
#
# Convention : Reuss Voigt Hill
#
# Bulk Modulus (GPa) = 21.28580 29.70693 25.49636
# Shear Modulus (GPa) = 24.91436 32.25840 28.58638
#
# Velocity S-wave (km/s) = 3.36939 3.83396 3.60916
# Velocity P-wave (km/s) = 4.98361 5.75635 5.38386
#
# Compressibility (1/GPa) = 0.04697968
#
# Stress axis : x y z
#
# Youngs Moduli (GPa) = 74.77003 30.73962 73.09381
#
# Poissons Ratio (x) = 0.11972 0.13591
# Poissons Ratio (y) = 0.29120 0.04017
# Poissons Ratio (z) = 0.13902 0.01689
#
# Static dielectric constant tensor:
#      x y z
#    x 1.906580 -0.068050 -0.071760 
#    y -0.068050 1.801460 -0.022500 
#    z -0.071760 -0.022500 1.909620 
# 
# From -- ./inp_files/436071.got.cif
#   From: 2010.05.17/outbox.cif.g08.bks.cpg/sg2_219_cif.got.tgz:436071.got - 2010.06.03 11:33:40.
