data_PCOD9062732
_publ_section_title
;
Structure prediction by ZEFSAII (Michael W. Deem and Ramdas Pophale) SiO2 
 PCOD9062732
Probable space group: P -1
;
_chemical_formula_sum "Si O2"
_cell_formula_units_Z 16
_cell_length_a 6.928417
_cell_length_b 22.728796
_cell_length_c 9.316324
_cell_angle_alpha 58.573694
_cell_angle_beta 46.159997
_cell_angle_gamma 52.629271
_cell_volume 827.803656
_symmetry_space_group_name_H-M "P -1"
_symmetry_group_IT_number 2
_symmetry_cell_setting 'triclinic'
loop_
_space_group_symop_operation_xyz
x,y,z
-x,-y,-z
loop_
_atom_site_type_symbol
_atom_site_label
_atom_site_fract_x
_atom_site_fract_y
_atom_site_fract_z
Si Si1 0.358611 0.964450 0.003392
Si Si2 0.777549 0.946887 0.333513
Si Si3 0.676176 0.541359 0.278507
Si Si4 0.222078 0.216169 0.414133
Si Si5 0.544934 0.304486 0.638169
Si Si6 0.631506 0.551314 0.953890
Si Si7 0.416178 0.709679 0.700449
Si Si8 0.279661 0.203081 0.067552
O O1 0.589340 0.884388 0.929740
O O2 0.259902 0.021862 0.848255
O O3 0.078621 0.951370 0.224253
O O4 0.500000 0.000000 0.000000
O O5 0.790708 0.863227 0.440499
O O6 0.500000 0.000000 0.500000
O O7 0.500000 0.500000 0.500000
O O8 0.620120 0.618431 0.291072
O O9 0.017688 0.488592 0.180188
O O10 0.568772 0.556253 0.150168
O O11 0.425865 0.239544 0.382166
O O12 0.330172 0.211324 0.200179
O O13 0.891731 0.277851 0.514565
O O14 0.495691 0.310512 0.485147
O O15 0.440152 0.243535 0.837559
O O16 0.512258 0.633338 0.839603
O O17 0.500000 0.500000 0.000000
O O18 0.067665 0.755999 0.828095
#
# Coordination Sequence:
#
# PCOD9062732 Si02
#       8
#     2   2   2   2   2   2   2   2
#     4  11  26  42  66  96 127 165 220 261 317 380
#     4  11  24  44  66  93 126 172 210 265 318 375
#     4  11  24  42  69  93 129 169 208 268 315 370
#     4  11  24  43  64  91 133 166 215 261 320 378
#     4  11  24  43  63  95 131 164 214 263 317 378
#     4  11  24  44  65  98 130 167 216 259 315 381
#     4  11  26  40  66  97 125 172 212 257 322 380
#     4  11  24  43  61  93 132 167 206 270 313 375
#
# _framework density 19.328254000000001
#
# number of rings (size 3 to 8) (size 9 to 14) (size 15 to 20)
#    0.000    1.000    2.500    3.000    3.500   10.500 
#    0.000    0.000    0.000    0.000    0.000    0.000 
#    0.000    0.000    0.000    0.000    0.000    0.000 
#
# Total GULP energy -89493.426417 kJ/mol
# GULP energy per Si atom -5593.339151 kJ/mol
# Density = 1.928426 g / cm^3
# Si number density = 19.328254 Si / 1000 Ang^3
#
#
#
# Elastic Constant Matrix: (Units=GPa)
#
#
# Indices 1 2 3 4 5 6 
#
# 1 130.9943 32.4027 48.8435 5.1606 0.8976 17.2667
# 2 32.4027 75.7726 17.9339 6.2580 5.9961 -3.4154
# 3 48.8435 17.9339 112.0891 -0.9531 10.6417 2.6546
# 4 5.1606 6.2580 -0.9531 38.1415 1.7803 3.2467
# 5 0.8976 5.9961 10.6417 1.7803 24.6921 -8.6093
# 6 17.2667 -3.4154 2.6546 3.2467 -8.6093 26.1633
#
#
#
# Elastic Compliance Matrix: (Units=1/GPa)
#
#
# Indices 1 2 3 4 5 6 
#
# 1 0.011151 -0.004117 -0.003995 -0.000276 -0.000298 -0.007555
# 2 -0.004117 0.015647 -0.000688 -0.002345 -0.001580 0.004601
# 3 -0.003995 -0.000688 0.011237 0.001179 -0.004717 -0.000292
# 4 -0.000276 -0.002345 0.001179 0.027245 -0.003566 -0.004798
# 5 -0.000298 -0.001580 -0.004717 -0.003566 0.049139 0.017081
# 6 -0.007555 0.004601 -0.000292 -0.004798 0.017081 0.050054
#
#
# Mechanical properties :
#
#
# Convention : Reuss Voigt Hill
#
# Bulk Modulus (GPa) = 48.93879 57.46846 53.20362
# Shear Modulus (GPa) = 26.47104 32.44444 29.45774
#
# Velocity S-wave (km/s) = 3.70476 4.10152 3.90818
# Velocity P-wave (km/s) = 6.60871 7.22685 6.92468
#
# Compressibility (1/GPa) = 0.02043369
#
# Stress axis : x y z
#
# Youngs Moduli (GPa) = 89.67951 63.91028 88.98787
#
# Poissons Ratio (x) = 0.26311 0.35555
# Poissons Ratio (y) = 0.36921 0.06125
# Poissons Ratio (z) = 0.35831 0.04399
#
# Static dielectric constant tensor:
#      x y z
#    x 1.643540 -0.007220 0.001630 
#    y -0.007220 1.652530 0.003630 
#    z 0.001630 0.003630 1.654660 
# 
# From -- ./inp_files/10730.got.cif
#   From: 2010.05.17/outbox.cif.g08.bks.cpg/sg2_6_cif.got.tgz:10730.got - 2010.06.03 11:33:40.
