data_PCOD9062831
_publ_section_title
;
Structure prediction by ZEFSAII (Michael W. Deem and Ramdas Pophale) SiO2 
 PCOD9062831
Probable space group: P -1
;
_chemical_formula_sum "Si O2"
_cell_formula_units_Z 16
_cell_length_a 24.588648
_cell_length_b 22.238884
_cell_length_c 11.815084
_cell_angle_alpha 137.335545
_cell_angle_beta 137.489935
_cell_angle_gamma 10.959334
_cell_volume 826.564839
_symmetry_space_group_name_H-M "P -1"
_symmetry_group_IT_number 2
_symmetry_cell_setting 'triclinic'
loop_
_space_group_symop_operation_xyz
x,y,z
-x,-y,-z
loop_
_atom_site_type_symbol
_atom_site_label
_atom_site_fract_x
_atom_site_fract_y
_atom_site_fract_z
Si Si1 0.971937 0.630738 0.101553
Si Si2 0.851347 0.117465 0.220821
Si Si3 0.657309 0.657610 0.901934
Si Si4 0.613928 0.543437 0.505565
Si Si5 0.028327 0.724896 0.497961
Si Si6 0.255593 0.703014 0.061163
Si Si7 0.898180 0.859376 0.940180
Si Si8 0.710113 0.539284 0.228062
O O1 0.224077 0.397467 0.083503
O O2 0.975472 0.690913 0.299765
O O3 0.663808 0.975748 0.048065
O O4 0.000000 0.500000 0.000000
O O5 0.779662 0.275218 0.412004
O O6 0.555001 0.436059 0.134392
O O7 0.130814 0.838733 0.186305
O O8 0.852934 0.012400 0.116298
O O9 0.641279 0.579740 0.705239
O O10 0.881939 0.412729 0.008745
O O11 0.770936 0.425051 0.477819
O O12 0.277094 0.899884 0.446777
O O13 0.177442 0.543326 0.594367
O O14 0.312147 0.541688 0.895921
O O15 0.000000 0.000000 0.000000
O O16 0.051510 0.698204 0.830456
O O17 0.606829 0.110385 0.826135
#
# Coordination Sequence:
#
# PCOD9062831 Si02
#       8
#     2   2   2   2   2   2   2   2
#     4  10  21  39  64  85 100 125 165 219 272 316
#     4  10  19  29  44  69 101 140 182 211 243 291
#     4  10  21  37  57  80 107 136 169 211 261 315
#     4  10  19  32  51  76 105 138 179 226 260 286
#     4  10  20  34  54  80 105 132 172 222 270 300
#     4  10  18  27  42  65  97 138 181 220 250 281
#     4  10  21  34  50  75 108 150 179 200 247 305
#     4  10  19  32  50  72 105 143 177 211 250 308
#
# _framework density 19.357223000000001
#
# number of rings (size 3 to 8) (size 9 to 14) (size 15 to 20)
#    0.000    2.000    0.000    4.500    0.000    2.500 
#    0.000    0.000    0.000   13.500    0.000    0.000 
#    0.000    0.000    0.000    0.000    0.000    0.000 
#
# Total GULP energy -89201.606513 kJ/mol
# GULP energy per Si atom -5575.100407 kJ/mol
# Density = 1.931317 g / cm^3
# Si number density = 19.357223 Si / 1000 Ang^3
#
#
#
# Elastic Constant Matrix: (Units=GPa)
#
#
# Indices 1 2 3 4 5 6 
#
# 1 15.9372 0.7209 12.0828 4.9129 7.7568 1.7599
# 2 0.7209 81.0990 12.6850 -13.1624 -1.6654 -10.8707
# 3 12.0828 12.6850 34.9929 -1.3214 1.8495 6.3193
# 4 4.9129 -13.1624 -1.3214 23.6976 5.0021 -5.6875
# 5 7.7568 -1.6654 1.8495 5.0021 19.1054 -4.7679
# 6 1.7599 -10.8707 6.3193 -5.6875 -4.7679 31.2135
#
#
#
# Elastic Compliance Matrix: (Units=1/GPa)
#
#
# Indices 1 2 3 4 5 6 
#
# 1 0.119099 -0.000607 -0.037779 -0.020588 -0.041705 -0.009400
# 2 -0.000607 0.016523 -0.007192 0.010775 0.001934 0.009504
# 3 -0.037779 -0.007192 0.045357 0.002873 0.007604 -0.007872
# 4 -0.020588 0.010775 0.002873 0.056508 -0.002208 0.014291
# 5 -0.041705 0.001934 0.007604 -0.002208 0.072311 0.012129
# 6 -0.009400 0.009504 -0.007872 0.014291 0.012129 0.041928
#
#
# Mechanical properties :
#
#
# Convention : Reuss Voigt Hill
#
# Bulk Modulus (GPa) = 11.13301 20.33406 15.73354
# Shear Modulus (GPa) = 10.57476 21.90600 16.24038
#
# Velocity S-wave (km/s) = 2.33983 3.36768 2.89966
# Velocity P-wave (km/s) = 3.61436 5.06450 4.39959
#
# Compressibility (1/GPa) = 0.08982299
#
# Stress axis : x y z
#
# Youngs Moduli (GPa) = 8.39636 60.52076 22.04712
#
# Poissons Ratio (x) = 0.03676 0.83293
# Poissons Ratio (y) = 0.00510 0.15855
# Poissons Ratio (z) = 0.31721 0.43524
#
# Static dielectric constant tensor:
#      x y z
#    x 1.651250 -0.002620 0.000880 
#    y -0.002620 1.864300 -0.054350 
#    z 0.000880 -0.054350 1.728120 
# 
# From -- ./inp_files/45817.got.cif
#   From: 2010.05.17/outbox.cif.g08.bks.cpg/sg2_23_cif.got.tgz:45817.got - 2010.06.03 11:33:40.
