data_PCOD9062153
_publ_section_title
;
Structure prediction by ZEFSAII (Michael W. Deem and Ramdas Pophale) SiO2 
 PCOD9062153
Probable space group: P -1
;
_chemical_formula_sum "Si O2"
_cell_formula_units_Z 15
_cell_length_a 5.286986
_cell_length_b 23.502062
_cell_length_c 10.943428
_cell_angle_alpha 149.980280
_cell_angle_beta 55.910494
_cell_angle_gamma 122.651768
_cell_volume 558.546867
_symmetry_space_group_name_H-M "P -1"
_symmetry_group_IT_number 2
_symmetry_cell_setting 'triclinic'
loop_
_space_group_symop_operation_xyz
x,y,z
-x,-y,-z
loop_
_atom_site_type_symbol
_atom_site_label
_atom_site_fract_x
_atom_site_fract_y
_atom_site_fract_z
Si Si1 0.500000 0.500000 0.000000
Si Si2 0.861800 0.307075 0.630696
Si Si3 0.353778 0.342638 0.373939
Si Si4 0.645200 0.131920 0.006270
Si Si5 0.335159 0.942325 0.555792
Si Si6 0.301989 0.173405 0.419239
Si Si7 0.269455 0.241685 0.952215
Si Si8 0.758595 0.535824 0.733770
O O1 0.279563 0.574207 0.114079
O O2 0.267768 0.505106 0.194763
O O3 0.556579 0.216222 0.529065
O O4 0.031852 0.294500 0.432129
O O5 0.122780 0.278164 0.604943
O O6 0.356165 0.325637 0.198556
O O7 0.449256 0.469117 0.633032
O O8 0.575184 0.256085 0.206909
O O9 0.467958 0.026908 0.784140
O O10 0.490372 0.125242 0.168509
O O11 0.005803 0.146073 0.900209
O O12 0.968357 0.917388 0.623347
O O13 0.500000 0.000000 0.500000
O O14 0.449326 0.818388 0.282541
O O15 0.180993 0.326493 0.029437
O O16 0.000000 0.500000 0.500000
#
# Coordination Sequence:
#
# PCOD9062153 Si02
#       8
#     1   2   2   2   2   2   2   2
#     4  12  26  46  74 114 162 196 270 326 394 474
#     4  11  25  47  78 110 154 208 258 328 392 472
#     4  11  23  47  76 112 152 204 265 318 396 480
#     4  11  23  48  75 108 152 204 260 319 399 476
#     4  12  27  46  73 116 152 202 262 331 400 470
#     4  11  26  49  77 108 154 207 263 319 397 480
#     4  12  24  46  77 113 155 204 261 330 400 480
#     4  12  26  46  80 115 154 212 261 325 407 473
#
# _framework density 26.855401000000001
#
# number of rings (size 3 to 8) (size 9 to 14) (size 15 to 20)
#    0.000    0.533    4.000    4.400    0.000    7.467 
#    0.000    2.667    0.000    0.000    0.000    0.000 
#    0.000    0.000    0.000    0.000    0.000    0.000 
#
# Total GULP energy -83692.016798 kJ/mol
# GULP energy per Si atom -5579.467787 kJ/mol
# Density = 2.679428 g / cm^3
# Si number density = 26.855401 Si / 1000 Ang^3
#
#
#
# Elastic Constant Matrix: (Units=GPa)
#
#
# Indices 1 2 3 4 5 6 
#
# 1 77.1193 42.5756 12.6047 -15.1127 -1.4946 14.8761
# 2 42.5756 187.7031 41.8960 -27.1526 9.6587 14.8848
# 3 12.6047 41.8960 68.6206 -30.6937 -2.9082 15.8885
# 4 -15.1127 -27.1526 -30.6937 54.7928 -3.5740 -2.7339
# 5 -1.4946 9.6587 -2.9082 -3.5740 30.8977 3.7166
# 6 14.8761 14.8848 15.8885 -2.7339 3.7166 53.5171
#
#
#
# Elastic Compliance Matrix: (Units=1/GPa)
#
#
# Indices 1 2 3 4 5 6 
#
# 1 0.016105 -0.003342 0.001866 0.003817 0.002935 -0.004110
# 2 -0.003342 0.007088 -0.003746 0.000328 -0.002725 0.000276
# 3 0.001866 -0.003746 0.023516 0.011885 0.005600 -0.006240
# 4 0.003817 0.000328 0.011885 0.026246 0.004678 -0.003665
# 5 0.002935 -0.002725 0.005600 0.004678 0.034897 -0.003905
# 6 -0.004110 0.000276 -0.006240 -0.003665 -0.003905 0.021688
#
#
# Mechanical properties :
#
#
# Convention : Reuss Voigt Hill
#
# Bulk Modulus (GPa) = 27.57629 58.62172 43.09900
# Shear Modulus (GPa) = 32.87928 43.59930 38.23929
#
# Velocity S-wave (km/s) = 3.50281 4.03362 3.77755
# Velocity P-wave (km/s) = 5.16239 6.60072 5.92536
#
# Compressibility (1/GPa) = 0.03626304
#
# Stress axis : x y z
#
# Youngs Moduli (GPa) = 62.09279 141.09112 42.52491
#
# Poissons Ratio (x) = 0.47158 -0.07935
# Poissons Ratio (y) = 0.20754 0.15930
# Poissons Ratio (z) = -0.11586 0.52854
#
# Static dielectric constant tensor:
#      x y z
#    x 2.143130 0.036700 -0.033490 
#    y 0.036700 2.090750 -0.003610 
#    z -0.033490 -0.003610 2.015350 
# 
# From -- ./inp_files/371447.got.cif
#   From: 2010.05.17/outbox.cif.g08.bks.cpg/sg2_186_cif.got.tgz:371447.got - 2010.06.03 11:33:40.
