data_PCOD9062396
_publ_section_title
;
Structure prediction by ZEFSAII (Michael W. Deem and Ramdas Pophale) SiO2 
 PCOD9062396
Probable space group: P -1
;
_chemical_formula_sum "Si O2"
_cell_formula_units_Z 16
_cell_length_a 15.692789
_cell_length_b 15.114601
_cell_length_c 5.320550
_cell_angle_alpha 75.539904
_cell_angle_beta 88.519068
_cell_angle_gamma 37.770884
_cell_volume 716.495585
_symmetry_space_group_name_H-M "P -1"
_symmetry_group_IT_number 2
_symmetry_cell_setting 'triclinic'
loop_
_space_group_symop_operation_xyz
x,y,z
-x,-y,-z
loop_
_atom_site_type_symbol
_atom_site_label
_atom_site_fract_x
_atom_site_fract_y
_atom_site_fract_z
Si Si1 0.118923 0.136912 0.287957
Si Si2 0.768848 0.646181 0.384354
Si Si3 0.910106 0.717887 0.313708
Si Si4 0.377088 0.619426 0.627555
Si Si5 0.646060 0.182595 0.247993
Si Si6 0.354198 0.329823 0.142459
Si Si7 0.170726 0.854468 0.087060
Si Si8 0.200927 0.647629 0.911017
O O1 0.116085 0.208207 0.473812
O O2 0.966620 0.213649 0.255456
O O3 0.258350 0.952520 0.454598
O O4 0.115631 0.193344 0.984263
O O5 0.806318 0.720206 0.298558
O O6 0.663843 0.719586 0.578682
O O7 0.924033 0.463079 0.562722
O O8 0.707185 0.659821 0.117757
O O9 0.500000 0.500000 0.500000
O O10 0.426734 0.656167 0.786218
O O11 0.313903 0.576631 0.736220
O O12 0.234355 0.790934 0.402466
O O13 0.516374 0.226829 0.158146
O O14 0.759605 0.118618 0.073659
O O15 0.254492 0.503774 0.101782
O O16 0.216937 0.720465 0.040058
O O17 0.000000 0.000000 0.000000
#
# Coordination Sequence:
#
# PCOD9062396 Si02
#       8
#     2   2   2   2   2   2   2   2
#     4  12  25  43  72 103 139 180 230 286 344 420
#     4  11  24  46  74 106 135 175 230 295 350 409
#     4  11  24  46  74 106 135 175 230 295 350 409
#     4  11  24  42  66  91 142 183 229 288 337 400
#     4  11  28  42  63 106 140 186 231 282 344 415
#     4  12  25  43  72 103 139 180 230 286 344 420
#     4  11  24  42  66  91 142 183 229 288 337 400
#     4  11  24  40  65 104 128 180 241 282 338 403
#
# _framework density 22.330912999999999
#
# number of rings (size 3 to 8) (size 9 to 14) (size 15 to 20)
#    0.000    0.750    2.500    3.750   10.500    6.000 
#    0.000    3.750    0.000    0.000    0.000    0.000 
#    0.000    0.000    0.000    0.000    0.000    0.000 
#
# Total GULP energy -89457.550677 kJ/mol
# GULP energy per Si atom -5591.096917 kJ/mol
# Density = 2.228009 g / cm^3
# Si number density = 22.330913 Si / 1000 Ang^3
#
#
#
# Elastic Constant Matrix: (Units=GPa)
#
#
# Indices 1 2 3 4 5 6 
#
# 1 189.9553 43.8291 61.8381 10.5678 8.4267 -14.5231
# 2 43.8291 41.7610 14.1349 -0.4121 -1.1518 -7.9701
# 3 61.8381 14.1349 100.6367 3.2351 3.5695 -4.9807
# 4 10.5678 -0.4121 3.2351 36.0121 -9.5865 3.5406
# 5 8.4267 -1.1518 3.5695 -9.5865 36.4708 1.9670
# 6 -14.5231 -7.9701 -4.9807 3.5406 1.9670 42.1459
#
#
#
# Elastic Compliance Matrix: (Units=1/GPa)
#
#
# Indices 1 2 3 4 5 6 
#
# 1 0.008756 -0.007649 -0.004031 -0.003184 -0.002788 0.001492
# 2 -0.007649 0.032684 0.000036 0.003235 0.003478 0.003115
# 3 -0.004031 0.000036 0.012425 -0.000021 -0.000295 0.000102
# 4 -0.003184 0.003235 -0.000021 0.031578 0.009333 -0.003576
# 5 -0.002788 0.003478 -0.000295 0.009333 0.030793 -0.002559
# 6 0.001492 0.003115 0.000102 -0.003576 -0.002559 0.025262
#
#
# Mechanical properties :
#
#
# Convention : Reuss Voigt Hill
#
# Bulk Modulus (GPa) = 32.70412 63.55080 48.12746
# Shear Modulus (GPa) = 28.57493 37.09583 32.83538
#
# Velocity S-wave (km/s) = 3.58105 4.08019 3.83874
# Velocity P-wave (km/s) = 5.63698 7.12164 6.42235
#
# Compressibility (1/GPa) = 0.03057719
#
# Stress axis : x y z
#
# Youngs Moduli (GPa) = 114.20091 30.59616 80.48420
#
# Poissons Ratio (x) = 0.23404 0.32444
# Poissons Ratio (y) = 0.87355 -0.00293
# Poissons Ratio (z) = 0.46036 -0.00111
#
# Static dielectric constant tensor:
#      x y z
#    x 1.935750 -0.004230 0.030350 
#    y -0.004230 1.869860 0.042120 
#    z 0.030350 0.042120 1.895200 
# 
# From -- ./inp_files/38884.got.cif
#   From: 2010.05.17/outbox.cif.g08.bks.cpg/sg2_20_cif.got.tgz:38884.got - 2010.06.03 11:33:40.
