data_PCOD9062257
_publ_section_title
;
Structure prediction by ZEFSAII (Michael W. Deem and Ramdas Pophale) SiO2 
 PCOD9062257
Probable space group: P -1
;
_chemical_formula_sum "Si O2"
_cell_formula_units_Z 13
_cell_length_a 9.217083
_cell_length_b 10.181914
_cell_length_c 9.168707
_cell_angle_alpha 136.785924
_cell_angle_beta 68.904265
_cell_angle_gamma 92.853554
_cell_volume 518.381447
_symmetry_space_group_name_H-M "P -1"
_symmetry_group_IT_number 2
_symmetry_cell_setting 'triclinic'
loop_
_space_group_symop_operation_xyz
x,y,z
-x,-y,-z
loop_
_atom_site_type_symbol
_atom_site_label
_atom_site_fract_x
_atom_site_fract_y
_atom_site_fract_z
Si Si1 0.065727 0.251309 0.620538
Si Si2 0.663833 0.874399 0.128439
Si Si3 0.184012 0.854491 0.865932
Si Si4 0.224282 0.575467 0.904453
Si Si5 0.500000 0.500000 0.000000
Si Si6 0.307898 0.938620 0.437751
Si Si7 0.858278 0.436050 0.582147
O O1 0.192751 0.380309 0.681090
O O2 0.969717 0.273806 0.523824
O O3 0.166654 0.023425 0.441919
O O4 0.929156 0.346926 0.868168
O O5 0.474685 0.938889 0.296174
O O6 0.703007 0.007651 0.095653
O O7 0.742390 0.917389 0.286251
O O8 0.734676 0.636068 0.869719
O O9 0.207831 0.747469 0.927360
O O10 0.226095 0.666080 0.586283
O O11 0.000000 0.000000 0.000000
O O12 0.386352 0.517063 0.900385
O O13 0.362634 0.707065 0.275810
O O14 0.000000 0.500000 0.500000
#
# Coordination Sequence:
#
# PCOD9062257 Si02
#       7
#     2   2   2   2   1   2   2
#     4  11  23  48  80 105 154 209 257 319 379 460
#     4  11  25  49  75 109 161 199 250 327 385 462
#     4  12  25  45  81 119 157 200 258 324 390 460
#     4  11  25  48  78 117 153 202 262 317 384 467
#     4  12  28  46  78 114 154 200 266 314 386 462
#     4  11  26  48  74 109 154 206 260 315 383 463
#     4  12  24  46  80 118 152 198 258 322 394 458
#
# _framework density 25.078057999999999
#
# number of rings (size 3 to 8) (size 9 to 14) (size 15 to 20)
#    0.000    0.615    3.077    5.538    6.462    0.615 
#    0.000    7.692    0.000    0.000    0.000    0.000 
#    0.000    0.000    0.000    0.000    0.000    0.000 
#
# Total GULP energy -72610.856348 kJ/mol
# GULP energy per Si atom -5585.450488 kJ/mol
# Density = 2.502098 g / cm^3
# Si number density = 25.078058 Si / 1000 Ang^3
#
#
#
# Elastic Constant Matrix: (Units=GPa)
#
#
# Indices 1 2 3 4 5 6 
#
# 1 135.6471 72.4494 21.6813 -0.9546 8.8521 -34.8465
# 2 72.4494 173.5908 38.8510 -2.3134 2.1229 -22.5239
# 3 21.6813 38.8510 104.4383 14.9615 13.1746 -23.7008
# 4 -0.9546 -2.3134 14.9615 46.3022 -0.6208 1.3349
# 5 8.8521 2.1229 13.1746 -0.6208 40.0265 5.3745
# 6 -34.8465 -22.5239 -23.7008 1.3349 5.3745 53.5238
#
#
#
# Elastic Compliance Matrix: (Units=1/GPa)
#
#
# Indices 1 2 3 4 5 6 
#
# 1 0.011266 -0.004088 0.001193 -0.000593 -0.003551 0.006514
# 2 -0.004088 0.007967 -0.002615 0.001197 0.001447 -0.000642
# 3 0.001193 -0.002615 0.012999 -0.004552 -0.005290 0.006077
# 4 -0.000593 0.001197 -0.004552 0.023225 0.002290 -0.002707
# 5 -0.003551 0.001447 -0.005290 0.002290 0.028403 -0.006955
# 6 0.006514 -0.000642 0.006077 -0.002707 -0.006955 0.026111
#
#
# Mechanical properties :
#
#
# Convention : Reuss Voigt Hill
#
# Bulk Modulus (GPa) = 47.14260 75.51550 61.32905
# Shear Modulus (GPa) = 39.04430 46.68346 42.86388
#
# Velocity S-wave (km/s) = 3.95005 4.31922 4.13875
# Velocity P-wave (km/s) = 6.29627 7.41969 6.88095
#
# Compressibility (1/GPa) = 0.02121224
#
# Stress axis : x y z
#
# Youngs Moduli (GPa) = 88.76423 125.51689 76.93138
#
# Poissons Ratio (x) = 0.51314 -0.09179
# Poissons Ratio (y) = 0.36288 0.20115
# Poissons Ratio (z) = -0.10591 0.32818
#
# Static dielectric constant tensor:
#      x y z
#    x 1.983250 0.088700 0.059100 
#    y 0.088700 1.730630 0.234660 
#    z 0.059100 0.234660 1.825920 
# 
# From -- ./inp_files/146888.got.cif
#   From: 2010.05.17/outbox.cif.g08.bks.cpg/sg2_74_cif.got.tgz:146888.got - 2010.06.03 11:33:40.
