data_PCOD9062133
_publ_section_title
;
Structure prediction by ZEFSAII (Michael W. Deem and Ramdas Pophale) SiO2 
 PCOD9062133
Probable space group: P -1
;
_chemical_formula_sum "Si O2"
_cell_formula_units_Z 14
_cell_length_a 18.413874
_cell_length_b 23.320352
_cell_length_c 9.499024
_cell_angle_alpha 37.983304
_cell_angle_beta 28.848072
_cell_angle_gamma 18.517264
_cell_volume 600.685436
_symmetry_space_group_name_H-M "P -1"
_symmetry_group_IT_number 2
_symmetry_cell_setting 'triclinic'
loop_
_space_group_symop_operation_xyz
x,y,z
-x,-y,-z
loop_
_atom_site_type_symbol
_atom_site_label
_atom_site_fract_x
_atom_site_fract_y
_atom_site_fract_z
Si Si1 0.134613 0.994285 0.901395
Si Si2 0.768030 0.897804 0.144030
Si Si3 0.034117 0.420889 0.236600
Si Si4 0.402814 0.610063 0.587597
Si Si5 0.500587 0.597626 0.734443
Si Si6 0.534589 0.224284 0.962034
Si Si7 0.585754 0.965006 0.761558
O O1 0.248473 0.028264 0.570461
O O2 0.391372 0.819355 0.912224
O O3 0.000000 0.000000 0.000000
O O4 0.834661 0.180152 0.141649
O O5 0.500000 0.000000 0.500000
O O6 0.719587 0.875153 0.121357
O O7 0.122269 0.702640 0.953289
O O8 0.704626 0.041761 0.967473
O O9 0.222467 0.226283 0.251857
O O10 0.697778 0.563444 0.556457
O O11 0.198048 0.385874 0.154931
O O12 0.000000 0.500000 0.000000
O O13 0.500000 0.500000 0.500000
O O14 0.624815 0.510691 0.534387
O O15 0.343510 0.745054 0.365980
O O16 0.500000 0.500000 0.000000
O O17 0.500000 0.000000 0.000000
#
# Coordination Sequence:
#
# PCOD9062133 Si02
#       7
#     2   2   2   2   2   2   2
#     4  12  28  47  75 109 146 196 248 303 369 445
#     4  11  23  47  75 101 143 198 243 301 367 443
#     4  11  25  46  73 104 142 195 237 301 372 428
#     4  12  28  45  75 110 150 193 249 307 376 437
#     4  12  26  48  74 105 154 190 242 306 376 436
#     4  11  25  48  73 105 146 196 251 298 368 448
#     4  11  26  43  72 104 146 184 249 300 362 438
#
# _framework density 23.306709000000001
#
# number of rings (size 3 to 8) (size 9 to 14) (size 15 to 20)
#    0.000    0.571    5.714    0.429   10.000    0.000 
#    0.000    1.429    0.000    0.000    0.000    0.000 
#    0.000    0.000    0.000    0.000    0.000    0.000 
#
# Total GULP energy -78164.226781 kJ/mol
# GULP energy per Si atom -5583.159056 kJ/mol
# Density = 2.325366 g / cm^3
# Si number density = 23.306709 Si / 1000 Ang^3
#
#
#
# Elastic Constant Matrix: (Units=GPa)
#
#
# Indices 1 2 3 4 5 6 
#
# 1 205.0013 34.1997 62.5726 -3.2541 -11.5158 -31.0991
# 2 34.1997 54.7043 39.9444 -20.2635 -9.4503 -20.9170
# 3 62.5726 39.9444 134.3560 -17.4863 -18.6110 -12.2220
# 4 -3.2541 -20.2635 -17.4863 46.8475 -3.6712 -4.2223
# 5 -11.5158 -9.4503 -18.6110 -3.6712 45.2518 -0.0833
# 6 -31.0991 -20.9170 -12.2220 -4.2223 -0.0833 43.3173
#
#
#
# Elastic Compliance Matrix: (Units=1/GPa)
#
#
# Indices 1 2 3 4 5 6 
#
# 1 0.006280 -0.001164 -0.002314 -0.000611 0.000360 0.003235
# 2 -0.001164 0.036494 -0.005925 0.015476 0.006175 0.016635
# 3 -0.002314 -0.005925 0.010707 0.001360 0.002685 -0.001364
# 4 -0.000611 0.015476 0.001360 0.029914 0.006082 0.010346
# 5 0.000360 0.006175 0.002685 0.006082 0.025086 0.004638
# 6 0.003235 0.016635 -0.001364 0.010346 0.004638 0.034073
#
#
# Mechanical properties :
#
#
# Convention : Reuss Voigt Hill
#
# Bulk Modulus (GPa) = 28.83901 74.16609 51.50255
# Shear Modulus (GPa) = 28.91543 44.23965 36.57754
#
# Velocity S-wave (km/s) = 3.52610 4.36150 3.96586
# Velocity P-wave (km/s) = 5.38316 7.56667 6.56631
#
# Compressibility (1/GPa) = 0.03467526
#
# Stress axis : x y z
#
# Youngs Moduli (GPa) = 159.24345 27.40183 93.39535
#
# Poissons Ratio (x) = 0.03188 0.21613
# Poissons Ratio (y) = 0.18528 0.55338
# Poissons Ratio (z) = 0.36851 0.16236
#
# Static dielectric constant tensor:
#      x y z
#    x 1.929370 -0.099830 -0.035420 
#    y -0.099830 1.879980 0.049590 
#    z -0.035420 0.049590 1.885890 
# 
# From -- ./inp_files/338660.got.cif
#   From: 2010.05.17/outbox.cif.g08.bks.cpg/sg2_170_cif.got.tgz:338660.got - 2010.06.03 11:33:40.
