data_PCOD9062516
_publ_section_title
;
Structure prediction by ZEFSAII (Michael W. Deem and Ramdas Pophale) SiO2 
 PCOD9062516
Probable space group: P -1
;
_chemical_formula_sum "Si O2"
_cell_formula_units_Z 14
_cell_length_a 9.689901
_cell_length_b 15.916188
_cell_length_c 7.847517
_cell_angle_alpha 122.482159
_cell_angle_beta 46.192502
_cell_angle_gamma 135.315647
_cell_volume 611.793248
_symmetry_space_group_name_H-M "P -1"
_symmetry_group_IT_number 2
_symmetry_cell_setting 'triclinic'
loop_
_space_group_symop_operation_xyz
x,y,z
-x,-y,-z
loop_
_atom_site_type_symbol
_atom_site_label
_atom_site_fract_x
_atom_site_fract_y
_atom_site_fract_z
Si Si1 0.946162 0.627275 0.025184
Si Si2 0.999455 0.574859 0.311612
Si Si3 0.635537 0.945396 0.405959
Si Si4 0.521330 0.753744 0.027939
Si Si5 0.103399 0.040661 0.265501
Si Si6 0.462307 0.475004 0.300625
Si Si7 0.314059 0.895606 0.920588
O O1 0.998370 0.542411 0.783296
O O2 0.135252 0.766713 0.010787
O O3 0.940880 0.582339 0.172428
O O4 0.691825 0.591358 0.154885
O O5 0.785013 0.556695 0.575971
O O6 0.252652 0.695515 0.236272
O O7 0.644900 0.852011 0.176281
O O8 0.470359 0.880931 0.638237
O O9 0.500000 0.000000 0.500000
O O10 0.898472 0.039042 0.341049
O O11 0.653330 0.831702 0.830118
O O12 0.532954 0.639126 0.877304
O O13 0.000000 0.000000 0.500000
O O14 0.162384 0.946589 0.043824
O O15 0.500000 0.500000 0.500000
O O16 0.500000 0.000000 0.000000
#
# Coordination Sequence:
#
# PCOD9062516 Si02
#       7
#     2   2   2   2   2   2   2
#     4   9  20  37  61 102 132 172 238 284 338 413
#     4   9  19  38  67  94 135 180 226 289 346 411
#     4  12  28  46  67 101 148 193 228 289 363 427
#     4  11  24  41  67 102 138 179 236 285 357 422
#     4  12  27  43  69 108 141 184 241 291 351 427
#     4   9  20  36  64  98 131 180 230 289 339 411
#     4  12  25  44  70 104 143 185 234 294 353 418
#
# _framework density 22.883548000000001
#
# number of rings (size 3 to 8) (size 9 to 14) (size 15 to 20)
#    0.000    1.429    2.857    2.143    6.000    1.143 
#    0.000    2.857    0.000    5.143    0.000    0.000 
#    0.000    0.000    0.000    0.000    0.000    0.000 
#
# Total GULP energy -78060.306164 kJ/mol
# GULP energy per Si atom -5575.736155 kJ/mol
# Density = 2.283146 g / cm^3
# Si number density = 22.883548 Si / 1000 Ang^3
#
#
#
# Elastic Constant Matrix: (Units=GPa)
#
#
# Indices 1 2 3 4 5 6 
#
# 1 75.5121 37.0005 20.3388 -12.8433 -28.2458 15.2839
# 2 37.0005 157.3810 44.8615 -26.0910 -22.0968 17.5471
# 3 20.3388 44.8615 105.5453 -12.6320 -14.1182 9.7750
# 4 -12.8433 -26.0910 -12.6320 31.8255 18.1967 -9.4426
# 5 -28.2458 -22.0968 -14.1182 18.1967 37.1656 -5.1656
# 6 15.2839 17.5471 9.7750 -9.4426 -5.1656 19.9283
#
#
#
# Elastic Compliance Matrix: (Units=1/GPa)
#
#
# Indices 1 2 3 4 5 6 
#
# 1 0.022502 -0.002338 -0.000625 -0.006829 0.016907 -0.013746
# 2 -0.002338 0.008605 -0.002459 0.004469 -0.000129 -0.002494
# 3 -0.000625 -0.002459 0.011132 0.000529 0.001739 -0.002115
# 4 -0.006829 0.004469 0.000529 0.052925 -0.025534 0.019502
# 5 0.016907 -0.000129 0.001739 -0.025534 0.051096 -0.012560
# 6 -0.013746 -0.002494 -0.002115 0.019502 -0.012560 0.069940
#
#
# Mechanical properties :
#
#
# Convention : Reuss Voigt Hill
#
# Bulk Modulus (GPa) = 31.85143 60.31555 46.08349
# Shear Modulus (GPa) = 21.05192 33.53307 27.29249
#
# Velocity S-wave (km/s) = 3.03637 3.83218 3.45725
# Velocity P-wave (km/s) = 5.12268 6.78201 6.00989
#
# Compressibility (1/GPa) = 0.03139577
#
# Stress axis : x y z
#
# Youngs Moduli (GPa) = 44.44119 116.20765 89.83256
#
# Poissons Ratio (x) = 0.27166 0.05616
# Poissons Ratio (y) = 0.10389 0.22086
# Poissons Ratio (z) = 0.02778 0.28570
#
# Static dielectric constant tensor:
#      x y z
#    x 1.942840 -0.018760 -0.017140 
#    y -0.018760 1.697160 -0.170140 
#    z -0.017140 -0.170140 1.806050 
# 
# From -- ./inp_files/276918.got.cif
#   From: 2010.05.17/outbox.cif.g08.bks.cpg/sg2_139_cif.got.tgz:276918.got - 2010.06.03 11:33:40.
