data_PCOD9062939
_publ_section_title
;
Structure prediction by ZEFSAII (Michael W. Deem and Ramdas Pophale) SiO2 
 PCOD9062939
Probable space group: P -1
;
_chemical_formula_sum "Si O2"
_cell_formula_units_Z 16
_cell_length_a 12.221976
_cell_length_b 12.341962
_cell_length_c 6.265004
_cell_angle_alpha 88.134395
_cell_angle_beta 83.965430
_cell_angle_gamma 124.521021
_cell_volume 769.404583
_symmetry_space_group_name_H-M "P -1"
_symmetry_group_IT_number 2
_symmetry_cell_setting 'triclinic'
loop_
_space_group_symop_operation_xyz
x,y,z
-x,-y,-z
loop_
_atom_site_type_symbol
_atom_site_label
_atom_site_fract_x
_atom_site_fract_y
_atom_site_fract_z
Si Si1 0.153921 0.847705 0.702645
Si Si2 0.373046 0.394507 0.894869
Si Si3 0.254017 0.471341 0.561305
Si Si4 0.601597 0.969331 0.067314
Si Si5 0.062044 0.547081 0.733727
Si Si6 0.492422 0.269333 0.636095
Si Si7 0.285919 0.096835 0.345451
Si Si8 0.136010 0.231167 0.279288
O O1 0.117511 0.700878 0.692724
O O2 0.014153 0.832841 0.767319
O O3 0.262882 0.909836 0.863528
O O4 0.223848 0.959150 0.494781
O O5 0.351448 0.460825 0.697358
O O6 0.401059 0.293128 0.800630
O O7 0.500000 0.500000 0.000000
O O8 0.240653 0.320343 0.067904
O O9 0.166064 0.506647 0.707768
O O10 0.357895 0.600017 0.391960
O O11 0.167144 0.334679 0.456544
O O12 0.517100 0.856550 0.267691
O O13 0.654057 0.917691 0.880152
O O14 0.500000 0.000000 0.000000
O O15 0.000000 0.500000 0.500000
O O16 0.000000 0.500000 0.000000
O O17 0.413710 0.222021 0.431940
O O18 0.175661 0.130425 0.341413
#
# Coordination Sequence:
#
# PCOD9062939 Si02
#       8
#     2   2   2   2   2   2   2   2
#     4  11  28  47  71 108 143 196 255 308 380 460
#     4  12  23  40  68 108 150 189 247 311 387 453
#     4  12  26  41  76 105 149 193 249 322 387 452
#     4  11  28  47  72 100 146 196 251 310 376 461
#     4  12  29  52  77 114 155 201 259 317 397 466
#     4  11  24  43  67 109 138 191 247 304 380 451
#     4  11  25  46  71 102 145 194 246 309 377 452
#     4  12  23  46  73 107 148 191 247 315 385 450
#
# _framework density 20.795300999999998
#
# number of rings (size 3 to 8) (size 9 to 14) (size 15 to 20)
#    0.000    0.500    5.000    2.250    5.250    2.500 
#    0.000    0.000    0.000    0.000    0.000    0.000 
#    0.000    0.000    0.000    0.000    0.000    0.000 
#
# Total GULP energy -89219.698683 kJ/mol
# GULP energy per Si atom -5576.231168 kJ/mol
# Density = 2.074797 g / cm^3
# Si number density = 20.795301 Si / 1000 Ang^3
#
#
#
# Elastic Constant Matrix: (Units=GPa)
#
#
# Indices 1 2 3 4 5 6 
#
# 1 138.3583 54.1037 40.9867 9.4996 11.3961 -9.2435
# 2 54.1037 114.9715 50.3723 6.0319 16.3276 -15.3991
# 3 40.9867 50.3723 70.2895 15.0901 -3.6893 7.5179
# 4 9.4996 6.0319 15.0901 27.9362 6.1845 -3.8139
# 5 11.3961 16.3276 -3.6893 6.1845 40.0278 5.1222
# 6 -9.2435 -15.3991 7.5179 -3.8139 5.1222 36.2183
#
#
#
# Elastic Compliance Matrix: (Units=1/GPa)
#
#
# Indices 1 2 3 4 5 6 
#
# 1 0.009862 -0.001105 -0.005866 0.001389 -0.003614 0.003922
# 2 -0.001105 0.021359 -0.019630 0.011680 -0.014071 0.016094
# 3 -0.005866 -0.019630 0.040235 -0.023120 0.019959 -0.023452
# 4 0.001389 0.011680 -0.023120 0.051646 -0.017579 0.018044
# 5 -0.003614 -0.014071 0.019959 -0.017579 0.038657 -0.018366
# 6 0.003922 0.016094 -0.023452 0.018044 -0.018366 0.044820
#
#
# Mechanical properties :
#
#
# Convention : Reuss Voigt Hill
#
# Bulk Modulus (GPa) = 54.78373 68.28275 61.53324
# Shear Modulus (GPa) = 18.80648 32.71357 25.76002
#
# Velocity S-wave (km/s) = 3.01052 3.97056 3.52340
# Velocity P-wave (km/s) = 6.20369 7.34353 6.79755
#
# Compressibility (1/GPa) = 0.01825359
#
# Stress axis : x y z
#
# Youngs Moduli (GPa) = 101.40133 46.81762 24.85407
#
# Poissons Ratio (x) = 0.05173 0.14580
# Poissons Ratio (y) = 0.11204 0.48789
# Poissons Ratio (z) = 0.59484 0.91904
#
# Static dielectric constant tensor:
#      x y z
#    x 1.739870 -0.018760 0.016200 
#    y -0.018760 1.747880 -0.034210 
#    z 0.016200 -0.034210 1.778360 
# 
# From -- ./inp_files/69911.got.cif
#   From: 2010.05.17/outbox.cif.g08.bks.cpg/sg2_35_cif.got.tgz:69911.got - 2010.06.03 11:33:40.
