data_PCOD9062875
_publ_section_title
;
Structure prediction by ZEFSAII (Michael W. Deem and Ramdas Pophale) SiO2 
 PCOD9062875
Probable space group: P -1
;
_chemical_formula_sum "Si O2"
_cell_formula_units_Z 16
_cell_length_a 12.645980
_cell_length_b 9.815392
_cell_length_c 11.116146
_cell_angle_alpha 111.959591
_cell_angle_beta 125.637378
_cell_angle_gamma 35.564068
_cell_volume 637.446602
_symmetry_space_group_name_H-M "P -1"
_symmetry_group_IT_number 2
_symmetry_cell_setting 'triclinic'
loop_
_space_group_symop_operation_xyz
x,y,z
-x,-y,-z
loop_
_atom_site_type_symbol
_atom_site_label
_atom_site_fract_x
_atom_site_fract_y
_atom_site_fract_z
Si Si1 0.499803 0.261502 0.890171
Si Si2 0.942397 0.969890 0.127240
Si Si3 0.381037 0.472362 0.134793
Si Si4 0.980509 0.778911 0.346155
Si Si5 0.065180 0.712974 0.654668
Si Si6 0.652924 0.973741 0.524970
Si Si7 0.554608 0.550530 0.437390
Si Si8 0.565571 0.009883 0.202225
O O1 0.579883 0.570879 0.994869
O O2 0.307164 0.438637 0.725211
O O3 0.732579 0.110141 0.961069
O O4 0.522256 0.075052 0.891264
O O5 0.945624 0.137605 0.217009
O O6 0.923987 0.915800 0.231715
O O7 0.153302 0.727354 0.118322
O O8 0.553741 0.430098 0.292323
O O9 0.429077 0.264508 0.142694
O O10 0.977117 0.837489 0.504225
O O11 0.233890 0.545512 0.426872
O O12 0.805943 0.806431 0.243045
O O13 0.907372 0.728706 0.607870
O O14 0.615929 0.172602 0.609549
O O15 0.580727 0.030832 0.359181
O O16 0.500000 0.000000 0.500000
O O17 0.500000 0.500000 0.500000
#
# Coordination Sequence:
#
# PCOD9062875 Si02
#       8
#     2   2   2   2   2   2   2   2
#     4  12  29  48  69 108 162 198 242 299 384 455
#     4  12  24  47  78 109 141 200 254 309 369 441
#     4  12  25  47  77 107 144 198 253 309 360 450
#     4  11  24  42  80 104 141 192 250 311 370 429
#     4  11  26  48  73 109 152 192 246 311 380 444
#     4  11  25  44  76 112 147 190 249 313 380 436
#     4  12  22  44  75 113 140 182 258 321 357 436
#     4  11  26  48  71 109 152 193 251 307 373 450
#
# _framework density 25.10014
#
# number of rings (size 3 to 8) (size 9 to 14) (size 15 to 20)
#    0.000    0.500    5.000    1.875    5.250    3.000 
#    0.000    0.000    0.000    0.000    0.000    0.000 
#    0.000    0.000    0.000    0.000    0.000    0.000 
#
# Total GULP energy -89501.789472 kJ/mol
# GULP energy per Si atom -5593.861842 kJ/mol
# Density = 2.504301 g / cm^3
# Si number density = 25.100140 Si / 1000 Ang^3
#
#
#
# Elastic Constant Matrix: (Units=GPa)
#
#
# Indices 1 2 3 4 5 6 
#
# 1 129.4560 41.4836 23.2557 -20.3546 12.4498 -18.3654
# 2 41.4836 106.4807 29.8254 -14.1646 12.0396 -5.5260
# 3 23.2557 29.8254 98.8720 -5.4579 0.3196 -6.9577
# 4 -20.3546 -14.1646 -5.4579 39.7438 -6.8771 9.3193
# 5 12.4498 12.0396 0.3196 -6.8771 45.4270 -2.6185
# 6 -18.3654 -5.5260 -6.9577 9.3193 -2.6185 45.8253
#
#
#
# Elastic Compliance Matrix: (Units=1/GPa)
#
#
# Indices 1 2 3 4 5 6 
#
# 1 0.009814 -0.002827 -0.001093 0.002997 -0.001321 0.002741
# 2 -0.002827 0.011761 -0.002806 0.002170 -0.002034 -0.000698
# 3 -0.001093 -0.002806 0.011281 -0.000072 0.001011 0.001009
# 4 0.002997 0.002170 -0.000072 0.028936 0.002738 -0.004276
# 5 -0.001321 -0.002034 0.001011 0.002738 0.023331 0.000155
# 6 0.002741 -0.000698 0.001009 -0.004276 0.000155 0.023868
#
#
# Mechanical properties :
#
#
# Convention : Reuss Voigt Hill
#
# Bulk Modulus (GPa) = 51.53245 58.21534 54.87389
# Shear Modulus (GPa) = 38.78643 42.21549 40.50096
#
# Velocity S-wave (km/s) = 3.93525 4.10553 4.02129
# Velocity P-wave (km/s) = 6.42056 6.76146 6.59322
#
# Compressibility (1/GPa) = 0.01940525
#
# Stress axis : x y z
#
# Youngs Moduli (GPa) = 101.89456 85.02639 88.64267
#
# Poissons Ratio (x) = 0.24037 0.09688
# Poissons Ratio (y) = 0.28805 0.24870
# Poissons Ratio (z) = 0.11137 0.23855
#
# Static dielectric constant tensor:
#      x y z
#    x 1.899420 -0.154190 -0.038230 
#    y -0.154190 1.807960 -0.077110 
#    z -0.038230 -0.077110 2.028410 
# 
# From -- ./inp_files/425991.got.cif
#   From: 2010.05.17/outbox.cif.g08.bks.cpg/sg2_213_cif.got.tgz:425991.got - 2010.06.03 11:33:40.
