data_PCOD9062204
_publ_section_title
;
Structure prediction by ZEFSAII (Michael W. Deem and Ramdas Pophale) SiO2 
 PCOD9062204
Probable space group: P -1
;
_chemical_formula_sum "Si O2"
_cell_formula_units_Z 12
_cell_length_a 6.250827
_cell_length_b 15.453806
_cell_length_c 21.043538
_cell_angle_alpha 18.961656
_cell_angle_beta 65.694317
_cell_angle_gamma 75.491011
_cell_volume 531.825655
_symmetry_space_group_name_H-M "P -1"
_symmetry_group_IT_number 2
_symmetry_cell_setting 'triclinic'
loop_
_space_group_symop_operation_xyz
x,y,z
-x,-y,-z
loop_
_atom_site_type_symbol
_atom_site_label
_atom_site_fract_x
_atom_site_fract_y
_atom_site_fract_z
Si Si1 0.228955 0.975003 0.651402
Si Si2 0.869308 0.718233 0.662512
Si Si3 0.278955 0.603616 0.471425
Si Si4 0.305321 0.598529 0.622872
Si Si5 0.276341 0.966222 0.101514
Si Si6 0.618802 0.544420 0.024766
O O1 0.329900 0.744500 0.773176
O O2 0.271442 0.203204 0.431801
O O3 0.398822 0.152971 0.566935
O O4 0.912271 0.811091 0.814408
O O5 0.618735 0.445970 0.914576
O O6 0.100016 0.663743 0.643521
O O7 0.000000 0.000000 0.500000
O O8 0.500000 0.500000 0.500000
O O9 0.272489 0.631955 0.528757
O O10 0.330763 0.884974 0.222978
O O11 0.995685 0.324545 0.682238
O O12 0.257960 0.272132 0.879279
O O13 0.500000 0.000000 0.000000
O O14 0.500000 0.500000 0.000000
#
# Coordination Sequence:
#
# PCOD9062204 Si02
#       6
#     2   2   2   2   2   2
#     4  11  25  45  71 105 145 196 258 296 371 437
#     4  12  25  48  69 106 153 198 246 309 363 442
#     4  11  26  52  78 109 153 192 249 320 380 448
#     4  12  27  48  76 114 152 199 253 306 381 448
#     4  11  26  52  80 110 150 196 246 317 382 448
#     4  11  23  48  71  98 148 199 244 313 360 425
#
# _framework density 22.563787000000001
#
# number of rings (size 3 to 8) (size 9 to 14) (size 15 to 20)
#    0.000    0.667    5.000    1.000    2.333    0.000 
#   18.000    0.000    0.000    0.000    0.000    0.000 
#    0.000    0.000    0.000    0.000    0.000    0.000 
#
# Total GULP energy -67101.051485 kJ/mol
# GULP energy per Si atom -5591.754290 kJ/mol
# Density = 2.251243 g / cm^3
# Si number density = 22.563787 Si / 1000 Ang^3
#
#
#
# Elastic Constant Matrix: (Units=GPa)
#
#
# Indices 1 2 3 4 5 6 
#
# 1 142.2518 84.8388 56.9417 17.5315 -6.0708 10.0743
# 2 84.8388 162.1025 65.8448 17.0240 1.4719 -0.8634
# 3 56.9417 65.8448 112.0689 22.5769 4.2556 8.0746
# 4 17.5315 17.0240 22.5769 31.4381 -6.8925 -3.2638
# 5 -6.0708 1.4719 4.2556 -6.8925 60.8257 2.6872
# 6 10.0743 -0.8634 8.0746 -3.2638 2.6872 47.9302
#
#
#
# Elastic Compliance Matrix: (Units=1/GPa)
#
#
# Indices 1 2 3 4 5 6 
#
# 1 0.011285 -0.004731 -0.002455 -0.001917 0.001295 -0.002247
# 2 -0.004731 0.010156 -0.003634 -0.000187 -0.000565 0.001809
# 3 -0.002455 -0.003634 0.014032 -0.007391 -0.001874 -0.002312
# 4 -0.001917 -0.000187 -0.007391 0.039732 0.004652 0.004089
# 5 0.001295 -0.000565 -0.001874 0.004652 0.017269 -0.000618
# 6 -0.002247 0.001809 -0.002312 0.004089 -0.000618 0.022071
#
#
# Mechanical properties :
#
#
# Convention : Reuss Voigt Hill
#
# Bulk Modulus (GPa) = 72.29482 92.40820 82.35151
# Shear Modulus (GPa) = 35.51248 41.95867 38.73558
#
# Velocity S-wave (km/s) = 3.97151 4.31694 4.14782
# Velocity P-wave (km/s) = 7.28974 8.11733 7.71464
#
# Compressibility (1/GPa) = 0.01383225
#
# Stress axis : x y z
#
# Youngs Moduli (GPa) = 88.61412 98.46727 71.26419
#
# Poissons Ratio (x) = 0.46587 0.17495
# Poissons Ratio (y) = 0.41926 0.25898
# Poissons Ratio (z) = 0.21755 0.35783
#
# Static dielectric constant tensor:
#      x y z
#    x 1.850000 -0.043540 0.028190 
#    y -0.043540 1.865380 0.008470 
#    z 0.028190 0.008470 1.842160 
# 
# From -- ./inp_files/487274.got.cif
#   From: 2010.05.17/outbox.cif.g08.bks.cpg/sg2_244_cif.got.tgz:487274.got - 2010.06.03 11:33:40.
