data_PCOD9062079
_publ_section_title
;
Structure prediction by ZEFSAII (Michael W. Deem and Ramdas Pophale) SiO2 
 PCOD9062079
Probable space group: P -1
;
_chemical_formula_sum "Si O2"
_cell_formula_units_Z 16
_cell_length_a 9.536845
_cell_length_b 16.966916
_cell_length_c 10.945972
_cell_angle_alpha 56.680897
_cell_angle_beta 111.809340
_cell_angle_gamma 150.527086
_cell_volume 703.248079
_symmetry_space_group_name_H-M "P -1"
_symmetry_group_IT_number 2
_symmetry_cell_setting 'triclinic'
loop_
_space_group_symop_operation_xyz
x,y,z
-x,-y,-z
loop_
_atom_site_type_symbol
_atom_site_label
_atom_site_fract_x
_atom_site_fract_y
_atom_site_fract_z
Si Si1 0.664512 0.854152 0.532766
Si Si2 0.180586 0.683545 0.958625
Si Si3 0.542756 0.008045 0.362904
Si Si4 0.884014 0.704573 0.390924
Si Si5 0.441360 0.310557 0.595291
Si Si6 0.697098 0.649107 0.109344
Si Si7 0.363222 0.571943 0.866244
Si Si8 0.222747 0.053920 0.948226
O O1 0.500677 0.706416 0.500757
O O2 0.530312 0.749112 0.708343
O O3 0.625969 0.944237 0.422375
O O4 0.000000 0.000000 0.500000
O O5 0.220530 0.793507 0.787381
O O6 0.505979 0.829063 0.979654
O O7 0.000000 0.500000 0.000000
O O8 0.984980 0.603378 0.081478
O O9 0.500000 0.000000 0.500000
O O10 0.217977 0.860689 0.333263
O O11 0.726005 0.525178 0.538204
O O12 0.827693 0.757394 0.425703
O O13 0.711738 0.646228 0.262396
O O14 0.351933 0.182052 0.769330
O O15 0.594165 0.495710 0.148727
O O16 0.491216 0.615383 0.004593
O O17 0.027679 0.861251 0.002940
O O18 0.000000 0.000000 0.000000
#
# Coordination Sequence:
#
# PCOD9062079 Si02
#       8
#     2   2   2   2   2   2   2   2
#     4  12  27  48  74 108 152 195 245 303 378 442
#     4  12  28  46  73 109 144 193 250 312 372 442
#     4  12  28  48  76 107 151 194 248 310 378 448
#     4  11  24  48  73 109 144 197 248 302 366 457
#     4  11  25  42  76 106 144 194 242 300 373 441
#     4  11  23  47  72 100 149 191 245 300 367 440
#     4  11  27  45  74 108 147 193 246 307 364 447
#     4  12  24  45  73 104 145 192 244 306 368 445
#
# _framework density 22.751574000000002
#
# number of rings (size 3 to 8) (size 9 to 14) (size 15 to 20)
#    0.000    0.500    3.750    3.000    8.750    3.000 
#    0.000    0.000    0.000    0.000    0.000    0.000 
#    0.000    0.000    0.000    0.000    0.000    0.000 
#
# Total GULP energy -89506.388827 kJ/mol
# GULP energy per Si atom -5594.149302 kJ/mol
# Density = 2.269979 g / cm^3
# Si number density = 22.751574 Si / 1000 Ang^3
#
#
#
# Elastic Constant Matrix: (Units=GPa)
#
#
# Indices 1 2 3 4 5 6 
#
# 1 99.4995 23.7875 24.2295 0.8673 15.3805 9.5920
# 2 23.7875 90.8013 34.0571 -10.0716 17.4333 12.2874
# 3 24.2295 34.0571 142.5197 -32.0003 8.2077 8.9056
# 4 0.8673 -10.0716 -32.0003 46.5390 -7.2378 -0.3900
# 5 15.3805 17.4333 8.2077 -7.2378 34.7686 -8.4574
# 6 9.5920 12.2874 8.9056 -0.3900 -8.4574 35.3110
#
#
#
# Elastic Compliance Matrix: (Units=1/GPa)
#
#
# Indices 1 2 3 4 5 6 
#
# 1 0.012054 -0.001139 -0.001795 -0.002643 -0.005824 -0.003850
# 2 -0.001139 0.014505 -0.002401 0.000279 -0.007591 -0.005948
# 3 -0.001795 -0.002401 0.009236 0.005997 0.000889 -0.000727
# 4 -0.002643 0.000279 0.005997 0.026551 0.005304 0.000672
# 5 -0.005824 -0.007591 0.000889 0.005304 0.039317 0.013475
# 6 -0.003850 -0.005948 -0.000727 0.000672 0.013475 0.034853
#
#
# Mechanical properties :
#
#
# Convention : Reuss Voigt Hill
#
# Bulk Modulus (GPa) = 39.79889 55.21875 47.50882
# Shear Modulus (GPa) = 32.14173 40.04013 36.09093
#
# Velocity S-wave (km/s) = 3.76270 4.19965 3.98717
# Velocity P-wave (km/s) = 6.03391 6.91658 6.49026
#
# Compressibility (1/GPa) = 0.02512633
#
# Stress axis : x y z
#
# Youngs Moduli (GPa) = 82.95974 68.94061 108.26952
#
# Poissons Ratio (x) = 0.07850 0.19431
# Poissons Ratio (y) = 0.09447 0.25998
# Poissons Ratio (z) = 0.14889 0.16554
#
# Static dielectric constant tensor:
#      x y z
#    x 1.921480 -0.017330 -0.009550 
#    y -0.017330 1.887490 0.028240 
#    z -0.009550 0.028240 1.859500 
# 
# From -- ./inp_files/403035.got.cif
#   From: 2010.05.17/outbox.cif.g08.bks.cpg/sg2_202_cif.got.tgz:403035.got - 2010.06.03 11:33:40.
