data_PCOD9062547
_publ_section_title
;
Structure prediction by ZEFSAII (Michael W. Deem and Ramdas Pophale) SiO2 
 PCOD9062547
Probable space group: P -1
;
_chemical_formula_sum "Si O2"
_cell_formula_units_Z 16
_cell_length_a 12.945064
_cell_length_b 11.232604
_cell_length_c 12.219480
_cell_angle_alpha 134.640597
_cell_angle_beta 116.480953
_cell_angle_gamma 100.651116
_cell_volume 705.065695
_symmetry_space_group_name_H-M "P -1"
_symmetry_group_IT_number 2
_symmetry_cell_setting 'triclinic'
loop_
_space_group_symop_operation_xyz
x,y,z
-x,-y,-z
loop_
_atom_site_type_symbol
_atom_site_label
_atom_site_fract_x
_atom_site_fract_y
_atom_site_fract_z
Si Si1 0.541901 0.900775 0.540491
Si Si2 0.352155 0.521393 0.831975
Si Si3 0.475296 0.031307 0.182125
Si Si4 0.023619 0.613072 0.967289
Si Si5 0.026449 0.058225 0.799760
Si Si6 0.138791 0.637657 0.491038
Si Si7 0.156689 0.899970 0.866540
Si Si8 0.669466 0.626265 0.024633
O O1 0.463367 0.853781 0.591819
O O2 0.454923 0.636437 0.278509
O O3 0.500000 0.000000 0.500000
O O4 0.762550 0.141642 0.808460
O O5 0.554620 0.669521 0.000064
O O6 0.185110 0.245108 0.508335
O O7 0.320470 0.441080 0.892994
O O8 0.360198 0.727569 0.943608
O O9 0.653281 0.195167 0.298905
O O10 0.350124 0.040263 0.085358
O O11 0.965322 0.738962 0.035018
O O12 0.000000 0.500000 0.000000
O O13 0.912540 0.389473 0.676507
O O14 0.136484 0.072600 0.949661
O O15 0.131895 0.145525 0.791326
O O16 0.114811 0.766549 0.643184
O O17 0.996795 0.338356 0.275391
#
# Coordination Sequence:
#
# PCOD9062547 Si02
#       8
#     2   2   2   2   2   2   2   2
#     4  12  23  46  69 103 140 176 232 287 350 420
#     4  11  24  41  69 103 143 178 230 297 344 421
#     4  12  24  45  73 104 139 186 234 290 348 415
#     4  12  27  46  74 104 140 184 234 294 355 419
#     4  12  26  45  68 101 140 187 231 287 351 409
#     4  11  24  47  73 104 138 189 235 285 349 408
#     4  11  26  45  70 103 142 186 240 287 334 424
#     4  11  24  43  66 103 139 182 231 289 356 412
#
# _framework density 22.692924000000001
#
# number of rings (size 3 to 8) (size 9 to 14) (size 15 to 20)
#    0.000    0.500    3.750    5.250    0.000    2.500 
#    0.000    1.250    0.000    0.000    0.000    0.000 
#    0.000    0.000    0.000    0.000    0.000    0.000 
#
# Total GULP energy -89647.141790 kJ/mol
# GULP energy per Si atom -5602.946362 kJ/mol
# Density = 2.264127 g / cm^3
# Si number density = 22.692924 Si / 1000 Ang^3
#
#
#
# Elastic Constant Matrix: (Units=GPa)
#
#
# Indices 1 2 3 4 5 6 
#
# 1 92.5894 36.3331 4.4757 -0.6549 19.2810 -9.4318
# 2 36.3331 75.4854 10.1047 -15.8084 -2.1343 -15.1960
# 3 4.4757 10.1047 74.8809 -16.2072 7.2009 -9.2381
# 4 -0.6549 -15.8084 -16.2072 28.2373 8.7557 -1.1366
# 5 19.2810 -2.1343 7.2009 8.7557 42.3872 3.7080
# 6 -9.4318 -15.1960 -9.2381 -1.1366 3.7080 44.7643
#
#
#
# Elastic Compliance Matrix: (Units=1/GPa)
#
#
# Indices 1 2 3 4 5 6 
#
# 1 0.015477 -0.007730 0.000748 -0.001179 -0.007433 0.001377
# 2 -0.007730 0.020437 0.000715 0.011410 0.001575 0.005616
# 3 0.000748 0.000715 0.017054 0.012307 -0.006158 0.004742
# 4 -0.001179 0.011410 0.012307 0.053122 -0.012702 0.008566
# 5 -0.007433 0.001575 -0.006158 -0.012702 0.031178 -0.005207
# 6 0.001377 0.005616 0.004742 0.008566 -0.005207 0.026163
#
#
# Mechanical properties :
#
#
# Convention : Reuss Voigt Hill
#
# Bulk Modulus (GPa) = 24.73119 38.30918 31.52019
# Shear Modulus (GPa) = 26.39306 35.88057 31.13681
#
# Velocity S-wave (km/s) = 3.41405 3.98066 3.70820
# Velocity P-wave (km/s) = 5.14421 6.16812 5.67929
#
# Compressibility (1/GPa) = 0.04043476
#
# Stress axis : x y z
#
# Youngs Moduli (GPa) = 64.61085 48.93111 58.63629
#
# Poissons Ratio (x) = 0.37821 -0.04383
# Poissons Ratio (y) = 0.49941 -0.04193
# Poissons Ratio (z) = -0.04830 -0.03499
#
# Static dielectric constant tensor:
#      x y z
#    x 1.843800 0.014420 0.014600 
#    y 0.014420 1.842600 -0.019250 
#    z 0.014600 -0.019250 1.834280 
# 
# From -- ./inp_files/429113.got.cif
#   From: 2010.05.17/outbox.cif.g08.bks.cpg/sg2_215_cif.got.tgz:429113.got - 2010.06.03 11:33:40.
