data_PCOD9062323
_publ_section_title
;
Structure prediction by ZEFSAII (Michael W. Deem and Ramdas Pophale) SiO2 
 PCOD9062323
Probable space group: P -1
;
_chemical_formula_sum "Si O2"
_cell_formula_units_Z 12
_cell_length_a 4.990918
_cell_length_b 12.339606
_cell_length_c 12.967872
_cell_angle_alpha 46.999697
_cell_angle_beta 131.557612
_cell_angle_gamma 125.143424
_cell_volume 425.844417
_symmetry_space_group_name_H-M "P -1"
_symmetry_group_IT_number 2
_symmetry_cell_setting 'triclinic'
loop_
_space_group_symop_operation_xyz
x,y,z
-x,-y,-z
loop_
_atom_site_type_symbol
_atom_site_label
_atom_site_fract_x
_atom_site_fract_y
_atom_site_fract_z
Si Si1 0.177175 0.580564 0.890362
Si Si2 0.500000 0.000000 0.000000
Si Si3 0.582819 0.912028 0.745228
Si Si4 0.522943 0.465336 0.378306
Si Si5 0.596419 0.748089 0.330058
Si Si6 0.000000 0.000000 0.000000
Si Si7 0.588606 0.187507 0.457651
O O1 0.312532 0.762474 0.816143
O O2 0.902459 0.547581 0.745123
O O3 0.500000 0.500000 0.000000
O O4 0.000000 0.500000 0.000000
O O5 0.623198 0.127530 0.844010
O O6 0.621027 0.883343 0.020691
O O7 0.621728 0.860790 0.670267
O O8 0.952343 0.958752 0.879485
O O9 0.440577 0.066664 0.589877
O O10 0.678745 0.639553 0.330241
O O11 0.601983 0.371248 0.559211
O O12 0.607560 0.361590 0.375003
O O13 0.988696 0.825545 0.427394
#
# Coordination Sequence:
#
# PCOD9062323 Si02
#       7
#     2   1   2   2   2   1   2
#     4  12  29  49  76 116 159 210 262 333 402 478
#     4  12  28  50  78 122 156 208 270 338 400 474
#     4  11  26  49  79 112 161 208 279 329 410 480
#     4  11  26  48  79 113 166 213 268 331 413 485
#     4  11  25  48  79 118 160 212 274 329 411 489
#     4  12  28  48  76 116 156 206 262 338 394 470
#     4  11  23  51  79 116 155 220 271 338 401 491
#
# _framework density 28.179303999999998
#
# number of rings (size 3 to 8) (size 9 to 14) (size 15 to 20)
#    0.000    0.667    3.333    2.500    4.667    2.000 
#    3.000    0.000    0.000    0.000    0.000    0.000 
#    0.000    0.000    0.000    0.000    0.000    0.000 
#
# Total GULP energy -66850.837859 kJ/mol
# GULP energy per Si atom -5570.903155 kJ/mol
# Density = 2.811517 g / cm^3
# Si number density = 28.179304 Si / 1000 Ang^3
#
#
#
# Elastic Constant Matrix: (Units=GPa)
#
#
# Indices 1 2 3 4 5 6 
#
# 1 120.8081 12.6145 64.1501 11.2352 -24.3410 -29.4394
# 2 12.6145 158.3153 68.7351 18.5110 -4.9845 -9.6118
# 3 64.1501 68.7351 224.9373 -4.4916 -7.0855 -1.1735
# 4 11.2352 18.5110 -4.4916 58.1888 23.6955 -6.8838
# 5 -24.3410 -4.9845 -7.0855 23.6955 45.5599 3.6952
# 6 -29.4394 -9.6118 -1.1735 -6.8838 3.6952 34.3391
#
#
#
# Elastic Compliance Matrix: (Units=1/GPa)
#
#
# Indices 1 2 3 4 5 6 
#
# 1 0.017021 0.003103 -0.005528 -0.008011 0.011734 0.012403
# 2 0.003103 0.008474 -0.003418 -0.004911 0.004326 0.003466
# 3 -0.005528 -0.003418 0.006998 0.003752 -0.003842 -0.004291
# 4 -0.008011 -0.004911 0.003752 0.028221 -0.018877 -0.000426
# 5 0.011734 0.004326 -0.003842 -0.018877 0.037644 0.003304
# 6 0.012403 0.003466 -0.004291 -0.000426 0.003304 0.040137
#
#
# Mechanical properties :
#
#
# Convention : Reuss Voigt Hill
#
# Bulk Modulus (GPa) = 48.06108 88.34000 68.20054
# Shear Modulus (GPa) = 31.82361 51.52163 41.67262
#
# Velocity S-wave (km/s) = 3.36419 4.28056 3.84974
# Velocity P-wave (km/s) = 5.67299 7.47317 6.63442
#
# Compressibility (1/GPa) = 0.02080686
#
# Stress axis : x y z
#
# Youngs Moduli (GPa) = 58.75180 118.00718 142.89368
#
# Poissons Ratio (x) = -0.36618 0.78992
# Poissons Ratio (y) = -0.18231 0.48843
# Poissons Ratio (z) = 0.32478 0.40336
#
# Static dielectric constant tensor:
#      x y z
#    x 1.391850 -0.018720 -0.479460 
#    y -0.018720 2.072980 0.074650 
#    z -0.479460 0.074650 2.092730 
# 
# From -- ./inp_files/361779.got.cif
#   From: 2010.05.17/outbox.cif.g08.bks.cpg/sg2_181_cif.got.tgz:361779.got - 2010.06.03 11:33:40.
