data_PCOD9062701
_publ_section_title
;
Structure prediction by ZEFSAII (Michael W. Deem and Ramdas Pophale) SiO2 
 PCOD9062701
Probable space group: P -1
;
_chemical_formula_sum "Si O2"
_cell_formula_units_Z 12
_cell_length_a 8.086076
_cell_length_b 12.998207
_cell_length_c 7.665760
_cell_angle_alpha 132.638812
_cell_angle_beta 97.813141
_cell_angle_gamma 62.746557
_cell_volume 507.864231
_symmetry_space_group_name_H-M "P -1"
_symmetry_group_IT_number 2
_symmetry_cell_setting 'triclinic'
loop_
_space_group_symop_operation_xyz
x,y,z
-x,-y,-z
loop_
_atom_site_type_symbol
_atom_site_label
_atom_site_fract_x
_atom_site_fract_y
_atom_site_fract_z
Si Si1 0.944635 0.168015 0.060587
Si Si2 0.963833 0.448638 0.242691
Si Si3 0.370026 0.622790 0.468421
Si Si4 0.620048 0.683198 0.986471
Si Si5 0.410043 0.233546 0.547720
Si Si6 0.304589 0.973255 0.099264
O O1 0.897168 0.317291 0.103085
O O2 0.831172 0.255130 0.324841
O O3 0.852463 0.060656 0.863593
O O4 0.172563 0.062980 0.013493
O O5 0.801941 0.608429 0.313264
O O6 0.000000 0.500000 0.500000
O O7 0.163897 0.361386 0.071435
O O8 0.500000 0.500000 0.500000
O O9 0.455463 0.719258 0.490244
O O10 0.364178 0.490482 0.190270
O O11 0.531969 0.787594 0.266561
O O12 0.489865 0.793580 0.933330
O O13 0.382449 0.088355 0.308479
#
# Coordination Sequence:
#
# PCOD9062701 Si02
#       6
#     2   2   2   2   2   2
#     4  11  24  42  68  97 130 172 228 279 306 384
#     4  12  22  44  70  97 126 176 232 268 314 389
#     4  12  22  44  70  97 126 176 232 268 314 389
#     4  12  25  43  68 100 138 172 213 274 337 391
#     4  12  25  43  68 100 138 172 213 274 337 391
#     4  11  25  43  63 102 138 172 215 267 338 390
#
# _framework density 23.628361999999999
#
# number of rings (size 3 to 8) (size 9 to 14) (size 15 to 20)
#    0.000    0.333    6.667    1.500    0.000    4.000 
#    0.000    1.667    0.000    0.000    0.000    0.000 
#    0.000    0.000    0.000    0.000    0.000    0.000 
#
# Total GULP energy -67045.230042 kJ/mol
# GULP energy per Si atom -5587.102503 kJ/mol
# Density = 2.357458 g / cm^3
# Si number density = 23.628362 Si / 1000 Ang^3
#
#
#
# Elastic Constant Matrix: (Units=GPa)
#
#
# Indices 1 2 3 4 5 6 
#
# 1 124.1811 24.8564 51.2461 20.0063 9.7923 21.4104
# 2 24.8564 79.1084 23.5839 33.9712 -5.4549 1.8302
# 3 51.2461 23.5839 85.4673 26.3725 21.3013 26.3242
# 4 20.0063 33.9712 26.3725 49.1609 10.6920 1.4767
# 5 9.7923 -5.4549 21.3013 10.6920 42.4683 20.4844
# 6 21.4104 1.8302 26.3242 1.4767 20.4844 48.5796
#
#
#
# Elastic Compliance Matrix: (Units=1/GPa)
#
#
# Indices 1 2 3 4 5 6 
#
# 1 0.011073 -0.001275 -0.005673 -0.000832 0.001473 -0.002354
# 2 -0.001275 0.020432 -0.001830 -0.014424 0.008634 -0.002419
# 3 -0.005673 -0.001830 0.020719 -0.006352 -0.004566 -0.006540
# 4 -0.000832 -0.014424 -0.006352 0.036319 -0.011531 0.008110
# 5 0.001473 0.008634 -0.004566 -0.011531 0.035924 -0.013298
# 6 -0.002354 -0.002419 -0.006540 0.008110 -0.013298 0.030618
#
#
# Mechanical properties :
#
#
# Convention : Reuss Voigt Hill
#
# Bulk Modulus (GPa) = 28.84436 54.23660 41.54048
# Shear Modulus (GPa) = 27.14500 40.64646 33.89573
#
# Velocity S-wave (km/s) = 3.39312 4.15208 3.79164
# Velocity P-wave (km/s) = 5.25214 6.78161 6.06528
#
# Compressibility (1/GPa) = 0.03466882
#
# Stress axis : x y z
#
# Youngs Moduli (GPa) = 90.31279 48.94199 48.26454
#
# Poissons Ratio (x) = 0.06238 0.27380
# Poissons Ratio (y) = 0.11511 0.08833
# Poissons Ratio (z) = 0.51234 0.08957
#
# Static dielectric constant tensor:
#      x y z
#    x 1.890820 -0.010520 0.031040 
#    y -0.010520 1.882520 -0.037530 
#    z 0.031040 -0.037530 2.026120 
# 
# From -- ./inp_files/198727.got.cif
#   From: 2010.05.17/outbox.cif.g08.bks.cpg/sg2_100_cif.got.tgz:198727.got - 2010.06.03 11:33:40.
