data_PCOD9062785
_publ_section_title
;
Structure prediction by ZEFSAII (Michael W. Deem and Ramdas Pophale) SiO2 
 PCOD9062785
Probable space group: P -1
;
_chemical_formula_sum "Si O2"
_cell_formula_units_Z 16
_cell_length_a 9.857407
_cell_length_b 18.539418
_cell_length_c 11.636327
_cell_angle_alpha 51.940320
_cell_angle_beta 99.509864
_cell_angle_gamma 143.121639
_cell_volume 723.471478
_symmetry_space_group_name_H-M "P -1"
_symmetry_group_IT_number 2
_symmetry_cell_setting 'triclinic'
loop_
_space_group_symop_operation_xyz
x,y,z
-x,-y,-z
loop_
_atom_site_type_symbol
_atom_site_label
_atom_site_fract_x
_atom_site_fract_y
_atom_site_fract_z
Si Si1 0.133098 0.484914 0.316867
Si Si2 0.899884 0.538172 0.290596
Si Si3 0.906486 0.070363 0.388131
Si Si4 0.818662 0.844115 0.449093
Si Si5 0.164587 0.025429 0.081070
Si Si6 0.854399 0.197816 0.729787
Si Si7 0.749508 0.160229 0.156818
Si Si8 0.747277 0.285252 0.240298
O O1 0.962591 0.467552 0.375795
O O2 0.129004 0.395351 0.487455
O O3 0.937943 0.351465 0.304913
O O4 0.476222 0.727964 0.098641
O O5 0.538710 0.347377 0.443852
O O6 0.102674 0.717309 0.233563
O O7 0.009872 0.635372 0.084176
O O8 0.959177 0.019137 0.357457
O O9 0.556779 0.850502 0.611048
O O10 0.905184 0.163010 0.226603
O O11 0.143945 0.207897 0.393153
O O12 0.004576 0.929578 0.277388
O O13 0.147433 0.911757 0.142103
O O14 0.000000 0.000000 0.000000
O O15 0.539382 0.033685 0.777098
O O16 0.629840 0.145862 0.263203
O O17 0.000000 0.500000 0.000000
#
# Coordination Sequence:
#
# PCOD9062785 Si02
#       8
#     2   2   2   2   2   2   2   2
#     4  12  25  46  77 106 135 194 241 296 355 421
#     4  12  25  46  73 106 144 190 244 290 353 432
#     4  11  24  42  71 101 144 188 227 303 357 422
#     4  11  25  47  67 102 152 185 235 291 364 418
#     4  12  29  49  70 105 148 193 237 295 359 426
#     4  12  26  47  75 105 145 188 243 298 351 426
#     4  12  24  42  74 109 139 182 243 299 358 417
#     4  12  21  42  71 103 138 177 241 293 352 421
#
# _framework density 22.115590999999998
#
# number of rings (size 3 to 8) (size 9 to 14) (size 15 to 20)
#    0.000    0.250    5.000    3.375    3.500    3.500 
#    0.000    0.000    0.000    0.000    0.000    0.000 
#    0.000    0.000    0.000    0.000    0.000    0.000 
#
# Total GULP energy -89591.081331 kJ/mol
# GULP energy per Si atom -5599.442583 kJ/mol
# Density = 2.206525 g / cm^3
# Si number density = 22.115591 Si / 1000 Ang^3
#
#
#
# Elastic Constant Matrix: (Units=GPa)
#
#
# Indices 1 2 3 4 5 6 
#
# 1 56.4978 30.1724 8.5373 6.8516 8.8278 14.4951
# 2 30.1724 129.5684 6.7516 6.0143 -3.1233 -2.1878
# 3 8.5373 6.7516 69.6438 -0.9518 5.8205 -2.6729
# 4 6.8516 6.0143 -0.9518 38.6966 8.3414 -4.4466
# 5 8.8278 -3.1233 5.8205 8.3414 34.5930 5.5262
# 6 14.4951 -2.1878 -2.6729 -4.4466 5.5262 35.5501
#
#
#
# Elastic Compliance Matrix: (Units=1/GPa)
#
#
# Indices 1 2 3 4 5 6 
#
# 1 0.024991 -0.005767 -0.002652 -0.004003 -0.003784 -0.010656
# 2 -0.005767 0.009194 -0.000271 -0.000577 0.002087 0.002500
# 3 -0.002652 -0.000271 0.015077 0.001809 -0.002777 0.002856
# 4 -0.004003 -0.000577 0.001809 0.029022 -0.007373 0.006509
# 5 -0.003784 0.002087 -0.002777 -0.007373 0.033041 -0.004596
# 6 -0.010656 0.002500 0.002856 0.006509 -0.004596 0.034371
#
#
# Mechanical properties :
#
#
# Convention : Reuss Voigt Hill
#
# Bulk Modulus (GPa) = 31.36478 38.51475 34.93976
# Shear Modulus (GPa) = 28.78477 35.78452 32.28464
#
# Velocity S-wave (km/s) = 3.61163 4.02688 3.82490
# Velocity P-wave (km/s) = 5.62181 6.25093 5.94470
#
# Compressibility (1/GPa) = 0.03188290
#
# Stress axis : x y z
#
# Youngs Moduli (GPa) = 40.01442 108.76346 66.32825
#
# Poissons Ratio (x) = 0.62722 0.17589
# Poissons Ratio (y) = 0.23076 0.01796
# Poissons Ratio (z) = 0.10611 0.02945
#
# Static dielectric constant tensor:
#      x y z
#    x 1.809940 0.011660 0.019950 
#    y 0.011660 1.801870 -0.001830 
#    z 0.019950 -0.001830 1.828640 
# 
# From -- ./inp_files/398930.got.cif
#   From: 2010.05.17/outbox.cif.g08.bks.cpg/sg2_200_cif.got.tgz:398930.got - 2010.06.03 11:33:40.
