data_PCOD9062284
_publ_section_title
;
Structure prediction by ZEFSAII (Michael W. Deem and Ramdas Pophale) SiO2 
 PCOD9062284
Probable space group: P -1
;
_chemical_formula_sum "Si O2"
_cell_formula_units_Z 14
_cell_length_a 21.359005
_cell_length_b 5.213162
_cell_length_c 8.923105
_cell_angle_alpha 78.940871
_cell_angle_beta 139.291682
_cell_angle_gamma 117.164466
_cell_volume 555.792928
_symmetry_space_group_name_H-M "P -1"
_symmetry_group_IT_number 2
_symmetry_cell_setting 'triclinic'
loop_
_space_group_symop_operation_xyz
x,y,z
-x,-y,-z
loop_
_atom_site_type_symbol
_atom_site_label
_atom_site_fract_x
_atom_site_fract_y
_atom_site_fract_z
Si Si1 0.738803 0.399922 0.182736
Si Si2 0.889624 0.304794 0.912006
Si Si3 0.604343 0.698274 0.772807
Si Si4 0.252978 0.676816 0.136565
Si Si5 0.664979 0.956429 0.368337
Si Si6 0.433158 0.710555 0.652155
Si Si7 0.982538 0.701796 0.575857
O O1 0.682389 0.122049 0.223580
O O2 0.863151 0.571173 0.453858
O O3 0.661906 0.551024 0.994757
O O4 0.773565 0.382619 0.077117
O O5 0.840015 0.489949 0.890197
O O6 0.786285 0.080078 0.648815
O O7 0.000000 0.500000 0.000000
O O8 0.927956 0.199745 0.140619
O O9 0.500000 0.500000 0.500000
O O10 0.551380 0.838031 0.776848
O O11 0.694476 0.962602 0.805764
O O12 0.351255 0.623869 0.371691
O O13 0.593335 0.067636 0.324324
O O14 0.602355 0.598247 0.290896
O O15 0.000000 0.500000 0.500000
O O16 0.000000 0.000000 0.500000
#
# Coordination Sequence:
#
# PCOD9062284 Si02
#       7
#     2   2   2   2   2   2   2
#     4  12  27  45  72 110 148 192 248 307 358 443
#     4  11  23  49  74 105 148 193 236 298 374 426
#     4  12  25  46  78 106 144 195 251 303 368 431
#     4  11  25  45  77 106 144 190 255 298 361 448
#     4  11  28  47  72 112 152 189 244 301 367 443
#     4  11  26  48  74 106 147 195 242 302 367 429
#     4  12  27  47  75 108 144 193 248 301 358 431
#
# _framework density 25.189235
#
# number of rings (size 3 to 8) (size 9 to 14) (size 15 to 20)
#    0.000    0.571    4.286    3.000    6.000    1.143 
#    0.000    3.571    0.000    0.000    0.000    0.000 
#    0.000    0.000    0.000    0.000    0.000    0.000 
#
# Total GULP energy -78207.364947 kJ/mol
# GULP energy per Si atom -5586.240353 kJ/mol
# Density = 2.513190 g / cm^3
# Si number density = 25.189235 Si / 1000 Ang^3
#
#
#
# Elastic Constant Matrix: (Units=GPa)
#
#
# Indices 1 2 3 4 5 6 
#
# 1 104.5861 29.3342 62.5660 -2.4796 19.4075 30.6502
# 2 29.3342 96.1907 22.3172 -33.9190 5.1692 4.9748
# 3 62.5660 22.3172 169.3856 -16.9683 14.1210 -3.0736
# 4 -2.4796 -33.9190 -16.9683 42.9508 3.4358 -1.2850
# 5 19.4075 5.1692 14.1210 3.4358 44.1754 -0.1459
# 6 30.6502 4.9748 -3.0736 -1.2850 -0.1459 42.0106
#
#
#
# Elastic Compliance Matrix: (Units=1/GPa)
#
#
# Indices 1 2 3 4 5 6 
#
# 1 0.021122 -0.005834 -0.007468 -0.006340 -0.005768 -0.015480
# 2 -0.005834 0.016460 0.001450 0.013388 -0.000859 0.002820
# 3 -0.007468 0.001450 0.009039 0.004475 -0.000106 0.006075
# 4 -0.006340 0.013388 0.004475 0.035627 -0.002968 0.004447
# 5 -0.005768 -0.000859 -0.000106 -0.002968 0.025550 0.004300
# 6 -0.015480 0.002820 0.006075 0.004447 0.004300 0.035359
#
#
# Mechanical properties :
#
#
# Convention : Reuss Voigt Hill
#
# Bulk Modulus (GPa) = 43.63717 66.51081 55.07399
# Shear Modulus (GPa) = 28.65338 42.89033 35.77186
#
# Velocity S-wave (km/s) = 3.37638 4.13088 3.77254
# Velocity P-wave (km/s) = 5.70625 7.01527 6.39435
#
# Compressibility (1/GPa) = 0.02291625
#
# Stress axis : x y z
#
# Youngs Moduli (GPa) = 47.34402 60.75440 110.63680
#
# Poissons Ratio (x) = 0.35442 0.82628
# Poissons Ratio (y) = 0.27619 -0.16042
# Poissons Ratio (z) = 0.35358 -0.08809
#
# Static dielectric constant tensor:
#      x y z
#    x 1.527630 -0.243300 -0.117120 
#    y -0.243300 1.961160 0.009680 
#    z -0.117120 0.009680 2.058320 
# 
# From -- ./inp_files/340296.got.cif
#   From: 2010.05.17/outbox.cif.g08.bks.cpg/sg2_171_cif.got.tgz:340296.got - 2010.06.03 11:33:40.
