data_PCOD9062364
_publ_section_title
;
Structure prediction by ZEFSAII (Michael W. Deem and Ramdas Pophale) SiO2 
 PCOD9062364
Probable space group: P -1
;
_chemical_formula_sum "Si O2"
_cell_formula_units_Z 16
_cell_length_a 11.858062
_cell_length_b 5.134785
_cell_length_c 11.870111
_cell_angle_alpha 63.943076
_cell_angle_beta 102.572022
_cell_angle_gamma 102.631869
_cell_volume 627.450496
_symmetry_space_group_name_H-M "P -1"
_symmetry_group_IT_number 2
_symmetry_cell_setting 'triclinic'
loop_
_space_group_symop_operation_xyz
x,y,z
-x,-y,-z
loop_
_atom_site_type_symbol
_atom_site_label
_atom_site_fract_x
_atom_site_fract_y
_atom_site_fract_z
Si Si1 0.433835 0.330979 0.911271
Si Si2 0.349042 0.038844 0.382263
Si Si3 0.191762 0.937460 0.732867
Si Si4 0.415451 0.922458 0.667168
Si Si5 0.148131 0.883948 0.208235
Si Si6 0.053001 0.473496 0.640661
Si Si7 0.361013 0.641537 0.184051
Si Si8 0.778447 0.631031 0.009365
O O1 0.412788 0.600293 0.775838
O O2 0.523995 0.173397 0.883266
O O3 0.302990 0.217418 0.948263
O O4 0.500000 0.500000 0.000000
O O5 0.367457 0.915436 0.531513
O O6 0.216815 0.980663 0.321059
O O7 0.448420 0.939943 0.339110
O O8 0.384974 0.387852 0.323336
O O9 0.323573 0.055549 0.700461
O O10 0.124817 0.775410 0.641573
O O11 0.190531 0.665263 0.871296
O O12 0.129664 0.207697 0.705762
O O13 0.253208 0.776757 0.183218
O O14 0.046076 0.634108 0.267714
O O15 0.119790 0.148592 0.071584
O O16 0.000000 0.500000 0.500000
O O17 0.305688 0.460852 0.097187
#
# Coordination Sequence:
#
# PCOD9062364 Si02
#       8
#     2   2   2   2   2   2   2   2
#     4   8  15  34  58  88 128 169 214 263 335 406
#     4   9  19  38  61  96 130 172 218 278 340 406
#     4  11  26  47  71 100 134 182 224 289 332 401
#     4   9  18  39  65  92 134 170 223 278 341 401
#     4  11  24  39  66  97 129 180 225 278 336 403
#     4  12  29  48  72  97 134 184 235 279 336 399
#     4   9  19  35  61  92 132 173 213 274 331 407
#     4   9  21  40  64  95 132 170 222 275 339 401
#
# _framework density 25.500019000000002
#
# number of rings (size 3 to 8) (size 9 to 14) (size 15 to 20)
#    0.000    2.250    0.000    1.875    7.000    1.500 
#    6.750    3.125    0.000    0.000    0.000    0.000 
#    0.000    0.000    0.000    0.000    0.000    0.000 
#
# Total GULP energy -89403.526971 kJ/mol
# GULP energy per Si atom -5587.720436 kJ/mol
# Density = 2.544198 g / cm^3
# Si number density = 25.500019 Si / 1000 Ang^3
#
#
#
# Elastic Constant Matrix: (Units=GPa)
#
#
# Indices 1 2 3 4 5 6 
#
# 1 97.9119 26.5834 27.2438 -6.2214 -14.2191 -2.8304
# 2 26.5834 76.6251 -5.2848 8.3470 -0.2247 1.0959
# 3 27.2438 -5.2848 131.2615 -11.2695 -15.5760 3.2386
# 4 -6.2214 8.3470 -11.2695 11.7666 3.7158 5.1251
# 5 -14.2191 -0.2247 -15.5760 3.7158 36.8584 -1.3682
# 6 -2.8304 1.0959 3.2386 5.1251 -1.3682 43.1105
#
#
#
# Elastic Compliance Matrix: (Units=1/GPa)
#
#
# Indices 1 2 3 4 5 6 
#
# 1 0.013282 -0.005597 -0.001893 0.007932 0.003502 0.000325
# 2 -0.005597 0.016595 0.000522 -0.014510 -0.000342 0.000886
# 3 -0.001893 0.000522 0.008958 0.007184 0.002275 -0.001592
# 4 0.007932 -0.014510 0.007184 0.114084 -0.005991 -0.013403
# 5 0.003502 -0.000342 0.002275 -0.005991 0.030110 0.001736
# 6 0.000325 0.000886 -0.001592 -0.013403 0.001736 0.024963
#
#
# Mechanical properties :
#
#
# Convention : Reuss Voigt Hill
#
# Bulk Modulus (GPa) = 40.16396 44.76483 42.46439
# Shear Modulus (GPa) = 21.71760 35.49750 28.60755
#
# Velocity S-wave (km/s) = 2.92150 3.73508 3.35306
# Velocity P-wave (km/s) = 5.21201 6.01614 5.62845
#
# Compressibility (1/GPa) = 0.02489794
#
# Stress axis : x y z
#
# Youngs Moduli (GPa) = 75.29220 60.25856 111.62682
#
# Poissons Ratio (x) = 0.33725 0.21136
# Poissons Ratio (y) = 0.42139 -0.05823
# Poissons Ratio (z) = 0.14256 -0.03143
#
# Static dielectric constant tensor:
#      x y z
#    x 2.062910 -0.011370 0.006130 
#    y -0.011370 2.110360 -0.003950 
#    z 0.006130 -0.003950 2.031930 
# 
# From -- ./inp_files/409894.got.cif
#   From: 2010.05.17/outbox.cif.g08.bks.cpg/sg2_205_cif.got.tgz:409894.got - 2010.06.03 11:33:40.
