data_PCOD9062291
_publ_section_title
;
Structure prediction by ZEFSAII (Michael W. Deem and Ramdas Pophale) SiO2 
 PCOD9062291
Probable space group: P -1
;
_chemical_formula_sum "Si O2"
_cell_formula_units_Z 15
_cell_length_a 9.801133
_cell_length_b 12.348400
_cell_length_c 8.679697
_cell_angle_alpha 66.732639
_cell_angle_beta 113.912384
_cell_angle_gamma 133.271343
_cell_volume 688.304572
_symmetry_space_group_name_H-M "P -1"
_symmetry_group_IT_number 2
_symmetry_cell_setting 'triclinic'
loop_
_space_group_symop_operation_xyz
x,y,z
-x,-y,-z
loop_
_atom_site_type_symbol
_atom_site_label
_atom_site_fract_x
_atom_site_fract_y
_atom_site_fract_z
Si Si1 0.374797 0.133425 0.488722
Si Si2 0.977537 0.424993 0.865983
Si Si3 0.383827 0.898227 0.150751
Si Si4 0.462678 0.813944 0.794631
Si Si5 0.303266 0.367094 0.398491
Si Si6 0.000000 0.500000 0.500000
Si Si7 0.101477 0.774349 0.552456
Si Si8 0.377011 0.531926 0.020926
O O1 0.501012 0.144847 0.679771
O O2 0.505738 0.211036 0.352281
O O3 0.302320 0.227149 0.442667
O O4 0.213671 0.954474 0.482062
O O5 0.817862 0.248441 0.912183
O O6 0.926515 0.474193 0.662446
O O7 0.000000 0.500000 0.000000
O O8 0.179751 0.468865 0.883420
O O9 0.381691 0.010847 0.195745
O O10 0.500000 0.000000 0.000000
O O11 0.255955 0.775998 0.726002
O O12 0.477932 0.709503 0.971851
O O13 0.500000 0.500000 0.500000
O O14 0.318304 0.447894 0.202314
O O15 0.104739 0.297587 0.430922
O O16 0.925625 0.324156 0.552271
O O17 0.500000 0.500000 0.000000
#
# Coordination Sequence:
#
# PCOD9062291 Si02
#       8
#     2   2   2   2   2   1   2   2
#     4  11  25  50  73 106 150 194 246 304 381 445
#     4  12  27  46  76 111 147 190 247 309 367 445
#     4  11  26  43  75 111 141 188 246 312 369 446
#     4  11  23  49  75 106 140 191 249 304 369 449
#     4  12  30  46  72 108 150 199 248 305 380 448
#     4  12  24  44  82 112 142 188 260 296 382 432
#     4  11  25  45  79 106 144 196 246 308 368 449
#     4  12  27  47  70 102 146 190 240 310 366 434
#
# _framework density 21.792677999999999
#
# number of rings (size 3 to 8) (size 9 to 14) (size 15 to 20)
#    0.000    0.533    2.667    5.200   14.933    0.000 
#    0.000    0.667    0.000    0.000    0.000    0.000 
#    0.000    0.000    0.000    0.000    0.000    0.000 
#
# Total GULP energy -83600.153016 kJ/mol
# GULP energy per Si atom -5573.343534 kJ/mol
# Density = 2.174308 g / cm^3
# Si number density = 21.792678 Si / 1000 Ang^3
#
#
#
# Elastic Constant Matrix: (Units=GPa)
#
#
# Indices 1 2 3 4 5 6 
#
# 1 146.9128 75.3705 17.4149 -5.4829 -1.5786 -13.3275
# 2 75.3705 165.9359 31.0391 -5.7177 7.9895 -15.6484
# 3 17.4149 31.0391 56.2793 -18.5322 -12.5115 -19.0121
# 4 -5.4829 -5.7177 -18.5322 40.1674 -8.6698 1.2916
# 5 -1.5786 7.9895 -12.5115 -8.6698 32.8380 -11.2764
# 6 -13.3275 -15.6484 -19.0121 1.2916 -11.2764 46.0507
#
#
#
# Elastic Compliance Matrix: (Units=1/GPa)
#
#
# Indices 1 2 3 4 5 6 
#
# 1 0.009235 -0.004471 0.002440 0.002558 0.004208 0.003119
# 2 -0.004471 0.009541 -0.008423 -0.004794 -0.008178 -0.003397
# 3 0.002440 -0.008423 0.047877 0.028326 0.036751 0.025815
# 4 0.002558 -0.004794 0.028326 0.043416 0.029300 0.016763
# 5 0.004208 -0.008178 0.036751 0.029300 0.064171 0.028503
# 6 0.003119 -0.003397 0.025815 0.016763 0.028503 0.038631
#
#
# Mechanical properties :
#
#
# Convention : Reuss Voigt Hill
#
# Bulk Modulus (GPa) = 21.86061 68.53079 45.19570
# Shear Modulus (GPa) = 20.07803 40.16480 30.12142
#
# Velocity S-wave (km/s) = 3.03862 4.29772 3.72180
# Velocity P-wave (km/s) = 4.72905 7.49281 6.26522
#
# Compressibility (1/GPa) = 0.04574438
#
# Stress axis : x y z
#
# Youngs Moduli (GPa) = 108.28194 104.80962 20.88677
#
# Poissons Ratio (x) = 0.46865 -0.05096
# Poissons Ratio (y) = 0.48417 0.17593
# Poissons Ratio (z) = -0.26418 0.88280
#
# Static dielectric constant tensor:
#      x y z
#    x 1.798650 -0.000640 0.010680 
#    y -0.000640 1.903420 0.008460 
#    z 0.010680 0.008460 1.896100 
# 
# From -- ./inp_files/176782.got.cif
#   From: 2010.05.17/outbox.cif.g08.bks.cpg/sg2_89_cif.got.tgz:176782.got - 2010.06.03 11:33:40.
