data_PCOD9062661
_publ_section_title
;
Structure prediction by ZEFSAII (Michael W. Deem and Ramdas Pophale) SiO2 
 PCOD9062661
Probable space group: P -1
;
_chemical_formula_sum "Si O2"
_cell_formula_units_Z 16
_cell_length_a 19.667130
_cell_length_b 18.688109
_cell_length_c 6.418562
_cell_angle_alpha 53.621358
_cell_angle_beta 47.427557
_cell_angle_gamma 23.315752
_cell_volume 684.398244
_symmetry_space_group_name_H-M "P -1"
_symmetry_group_IT_number 2
_symmetry_cell_setting 'triclinic'
loop_
_space_group_symop_operation_xyz
x,y,z
-x,-y,-z
loop_
_atom_site_type_symbol
_atom_site_label
_atom_site_fract_x
_atom_site_fract_y
_atom_site_fract_z
Si Si1 0.763366 0.470259 0.804139
Si Si2 0.442905 0.916711 0.176224
Si Si3 0.495485 0.601083 0.424447
Si Si4 0.041733 0.567028 0.244718
Si Si5 0.578491 0.249613 0.284728
Si Si6 0.134618 0.974229 0.277274
Si Si7 0.628431 0.903974 0.598441
Si Si8 0.963373 0.763335 0.729647
O O1 0.834165 0.500624 0.708401
O O2 0.579108 0.632133 0.766000
O O3 0.925327 0.302891 0.598165
O O4 0.690265 0.477369 0.143990
O O5 0.443319 0.813435 0.402175
O O6 0.454122 0.961095 0.291305
O O7 0.243718 0.097884 0.156036
O O8 0.619507 0.811076 0.871293
O O9 0.500000 0.500000 0.500000
O O10 0.470033 0.626542 0.681542
O O11 0.311061 0.801756 0.359172
O O12 0.000000 0.500000 0.500000
O O13 0.826304 0.782339 0.351218
O O14 0.075938 0.587629 0.916139
O O15 0.775195 0.087062 0.034115
O O16 0.054101 0.134236 0.264282
O O17 0.000000 0.000000 0.500000
O O18 0.500000 0.000000 0.500000
#
# Coordination Sequence:
#
# PCOD9062661 Si02
#       8
#     2   2   2   2   2   2   2   2
#     4  11  28  46  72 104 151 193 238 300 365 433
#     4  11  24  43  70 100 136 194 245 298 354 423
#     4  11  27  49  75 108 146 192 238 296 368 438
#     4  12  28  43  70 104 146 196 243 298 360 429
#     4  11  26  48  73 103 146 193 238 293 370 434
#     4  11  28  45  78 111 143 187 240 303 364 434
#     4  11  24  42  66  99 143 184 244 301 353 420
#     4  12  25  48  71 107 149 188 246 302 358 429
#
# _framework density 23.378202000000002
#
# number of rings (size 3 to 8) (size 9 to 14) (size 15 to 20)
#    0.000    0.750    3.750    1.500   10.500    2.000 
#    0.000    0.000    0.000    0.000    0.000    0.000 
#    0.000    0.000    0.000    0.000    0.000    0.000 
#
# Total GULP energy -89317.786507 kJ/mol
# GULP energy per Si atom -5582.361657 kJ/mol
# Density = 2.332499 g / cm^3
# Si number density = 23.378202 Si / 1000 Ang^3
#
#
#
# Elastic Constant Matrix: (Units=GPa)
#
#
# Indices 1 2 3 4 5 6 
#
# 1 192.2418 34.1399 52.3016 6.6992 3.2835 15.2188
# 2 34.1399 39.0130 13.6368 -3.6233 5.5686 7.2893
# 3 52.3016 13.6368 99.3729 34.2767 -5.7633 11.8827
# 4 6.6992 -3.6233 34.2767 45.3189 -3.1137 2.7281
# 5 3.2835 5.5686 -5.7633 -3.1137 43.8248 -0.2174
# 6 15.2188 7.2893 11.8827 2.7281 -0.2174 42.2859
#
#
#
# Elastic Compliance Matrix: (Units=1/GPa)
#
#
# Indices 1 2 3 4 5 6 
#
# 1 0.006964 -0.004614 -0.003350 0.001166 -0.000297 -0.000846
# 2 -0.004614 0.032869 -0.004106 0.006342 -0.003936 -0.003281
# 3 -0.003350 -0.004106 0.017060 -0.012466 0.002120 -0.002065
# 4 0.001166 0.006342 -0.012466 0.031814 -0.000273 -0.000064
# 5 -0.000297 -0.003936 0.002120 -0.000273 0.023602 0.000329
# 6 -0.000846 -0.003281 -0.002065 -0.000064 0.000329 0.025105
#
#
# Mechanical properties :
#
#
# Convention : Reuss Voigt Hill
#
# Bulk Modulus (GPa) = 30.53202 58.97603 44.75402
# Shear Modulus (GPa) = 28.99008 41.65587 35.32297
#
# Velocity S-wave (km/s) = 3.52525 4.22575 3.89129
# Velocity P-wave (km/s) = 5.44594 7.00649 6.27492
#
# Compressibility (1/GPa) = 0.03275250
#
# Stress axis : x y z
#
# Youngs Moduli (GPa) = 143.59153 30.42334 58.61742
#
# Poissons Ratio (x) = 0.14038 0.19640
# Poissons Ratio (y) = 0.66257 0.24067
# Poissons Ratio (z) = 0.48110 0.12491
#
# Static dielectric constant tensor:
#      x y z
#    x 1.855880 0.018620 0.020660 
#    y 0.018620 1.993890 -0.073810 
#    z 0.020660 -0.073810 1.821710 
# 
# From -- ./inp_files/111620.got.cif
#   From: 2010.05.17/outbox.cif.g08.bks.cpg/sg2_56_cif.got.tgz:111620.got - 2010.06.03 11:33:40.
