data_PCOD9062515
_publ_section_title
;
Structure prediction by ZEFSAII (Michael W. Deem and Ramdas Pophale) SiO2 
 PCOD9062515
Probable space group: P -1
;
_chemical_formula_sum "Si O2"
_cell_formula_units_Z 16
_cell_length_a 22.867418
_cell_length_b 22.693482
_cell_length_c 8.182884
_cell_angle_alpha 135.521458
_cell_angle_beta 44.033604
_cell_angle_gamma 167.082086
_cell_volume 657.613626
_symmetry_space_group_name_H-M "P -1"
_symmetry_group_IT_number 2
_symmetry_cell_setting 'triclinic'
loop_
_space_group_symop_operation_xyz
x,y,z
-x,-y,-z
loop_
_atom_site_type_symbol
_atom_site_label
_atom_site_fract_x
_atom_site_fract_y
_atom_site_fract_z
Si Si1 0.327294 0.066382 0.444448
Si Si2 0.216577 0.773009 0.660270
Si Si3 0.716467 0.721034 0.233701
Si Si4 0.846371 0.525174 0.478586
Si Si5 0.044908 0.299334 0.059310
Si Si6 0.389849 0.206089 0.247451
Si Si7 0.740410 0.243325 0.119316
Si Si8 0.272805 0.187358 0.971632
O O1 0.636789 0.343640 0.397981
O O2 0.289208 0.061451 0.326845
O O3 0.267261 0.085812 0.728305
O O4 0.137575 0.811588 0.382394
O O5 0.229025 0.793538 0.871068
O O6 0.000000 0.500000 0.500000
O O7 0.500000 0.000000 0.500000
O O8 0.121337 0.771236 0.774671
O O9 0.619843 0.704835 0.510426
O O10 0.524876 0.459593 0.101457
O O11 0.715744 0.756820 0.120134
O O12 0.014471 0.974427 0.162209
O O13 0.740088 0.335604 0.385841
O O14 0.846352 0.589133 0.755056
O O15 0.311687 0.540008 0.892609
O O16 0.826045 0.021988 0.907248
O O17 0.000000 0.500000 0.000000
O O18 0.500000 0.000000 0.000000
#
# Coordination Sequence:
#
# PCOD9062515 Si02
#       8
#     2   2   2   2   2   2   2   2
#     4  11  24  41  68 100 133 167 223 269 324 382
#     4  12  26  48  70  94 127 174 223 259 316 400
#     4   9  17  33  60  92 129 160 214 266 317 368
#     4  12  26  45  65  94 136 177 207 264 335 398
#     4  12  26  44  68  92 134 178 213 265 327 390
#     4  11  24  41  67 102 128 170 222 275 315 377
#     4  12  28  46  70  99 129 167 214 277 328 375
#     4   9  17  33  60  93 126 168 205 267 321 372
#
# _framework density 24.330397999999999
#
# number of rings (size 3 to 8) (size 9 to 14) (size 15 to 20)
#    0.000    1.000    1.250    5.250    7.000    4.000 
#    0.000    0.000    0.000   15.000    0.000    0.000 
#    0.000    0.000    0.000    0.000    0.000    0.000 
#
# Total GULP energy -89532.501390 kJ/mol
# GULP energy per Si atom -5595.781337 kJ/mol
# Density = 2.427502 g / cm^3
# Si number density = 24.330398 Si / 1000 Ang^3
#
#
#
# Elastic Constant Matrix: (Units=GPa)
#
#
# Indices 1 2 3 4 5 6 
#
# 1 50.4959 18.5055 11.5996 14.9276 2.8822 3.7308
# 2 18.5055 184.8697 57.5909 3.4218 -6.3678 8.9135
# 3 11.5996 57.5909 114.8418 3.1716 -6.5281 0.5315
# 4 14.9276 3.4218 3.1716 48.3921 1.1948 2.1237
# 5 2.8822 -6.3678 -6.5281 1.1948 44.1372 5.8219
# 6 3.7308 8.9135 0.5315 2.1237 5.8219 27.9553
#
#
#
# Elastic Compliance Matrix: (Units=1/GPa)
#
#
# Indices 1 2 3 4 5 6 
#
# 1 0.022954 -0.001727 -0.001346 -0.006760 -0.001546 -0.001652
# 2 -0.001727 0.006678 -0.003125 0.000334 0.000875 -0.002047
# 3 -0.001346 -0.003125 0.010472 -0.000110 0.001089 0.000758
# 4 -0.006760 0.000334 -0.000110 0.022775 -0.000021 -0.000928
# 5 -0.001546 0.000875 0.001089 -0.000021 0.023709 -0.005029
# 6 -0.001652 -0.002047 0.000758 -0.000928 -0.005029 0.037748
#
#
# Mechanical properties :
#
#
# Convention : Reuss Voigt Hill
#
# Bulk Modulus (GPa) = 36.08894 58.39995 47.24445
# Shear Modulus (GPa) = 34.25430 41.59767 37.92598
#
# Velocity S-wave (km/s) = 3.75624 4.13934 3.95243
# Velocity P-wave (km/s) = 5.80324 6.84839 6.34736
#
# Compressibility (1/GPa) = 0.02770932
#
# Stress axis : x y z
#
# Youngs Moduli (GPa) = 43.56489 149.74325 95.49363
#
# Poissons Ratio (x) = 0.25859 0.12854
# Poissons Ratio (y) = 0.07523 0.29837
# Poissons Ratio (z) = 0.05864 0.46787
#
# Static dielectric constant tensor:
#      x y z
#    x 1.989240 -0.010710 -0.051190 
#    y -0.010710 1.859650 -0.016470 
#    z -0.051190 -0.016470 1.977340 
# 
# From -- ./inp_files/358014.got.cif
#   From: 2010.05.17/outbox.cif.g08.bks.cpg/sg2_180_cif.got.tgz:358014.got - 2010.06.03 11:33:40.
