data_PCOD9062319
_publ_section_title
;
Structure prediction by ZEFSAII (Michael W. Deem and Ramdas Pophale) SiO2 
 PCOD9062319
Probable space group: P -1
;
_chemical_formula_sum "Si O2"
_cell_formula_units_Z 14
_cell_length_a 7.083732
_cell_length_b 12.108520
_cell_length_c 6.886086
_cell_angle_alpha 115.046464
_cell_angle_beta 83.473359
_cell_angle_gamma 84.280273
_cell_volume 524.419894
_symmetry_space_group_name_H-M "P -1"
_symmetry_group_IT_number 2
_symmetry_cell_setting 'triclinic'
loop_
_space_group_symop_operation_xyz
x,y,z
-x,-y,-z
loop_
_atom_site_type_symbol
_atom_site_label
_atom_site_fract_x
_atom_site_fract_y
_atom_site_fract_z
Si Si1 0.962662 0.340044 0.556405
Si Si2 0.400636 0.890699 0.508141
Si Si3 0.095148 0.124653 0.064879
Si Si4 0.338672 0.375523 0.769104
Si Si5 0.148348 0.815717 0.216216
Si Si6 0.358001 0.453400 0.257352
Si Si7 0.489761 0.817780 0.869598
O O1 0.154860 0.370406 0.654091
O O2 0.849506 0.301262 0.731467
O O3 0.181309 0.547324 0.435540
O O4 0.009241 0.228312 0.312739
O O5 0.532100 0.760418 0.338818
O O6 0.191799 0.911532 0.446863
O O7 0.500000 0.000000 0.500000
O O8 0.396151 0.874539 0.725595
O O9 0.035855 0.170037 0.887968
O O10 0.324545 0.118406 0.059261
O O11 0.000000 0.000000 0.000000
O O12 0.428706 0.327716 0.269750
O O13 0.465271 0.474253 0.747577
O O14 0.287943 0.412012 0.024687
O O15 0.325310 0.821071 0.052842
#
# Coordination Sequence:
#
# PCOD9062319 Si02
#       7
#     2   2   2   2   2   2   2
#     4  12  26  51  80 118 160 214 261 331 403 472
#     4  12  26  50  80 113 158 212 267 328 405 476
#     4  12  30  52  78 119 160 211 277 327 395 483
#     4  11  23  50  79 120 159 215 259 332 403 468
#     4  12  27  49  78 117 158 206 266 326 404 463
#     4  11  24  48  79 117 163 204 270 331 395 479
#     4  12  27  53  81 121 155 214 265 336 401 470
#
# _framework density 26.696164
#
# number of rings (size 3 to 8) (size 9 to 14) (size 15 to 20)
#    0.000    0.286    4.286    3.857    0.000    6.286 
#    2.571    0.000    0.000    0.000    0.000    0.000 
#    0.000    0.000    0.000    0.000    0.000    0.000 
#
# Total GULP energy -78543.881056 kJ/mol
# GULP energy per Si atom -5610.277218 kJ/mol
# Density = 2.663540 g / cm^3
# Si number density = 26.696164 Si / 1000 Ang^3
#
#
#
# Elastic Constant Matrix: (Units=GPa)
#
#
# Indices 1 2 3 4 5 6 
#
# 1 141.4524 51.7343 77.4673 14.7364 19.3282 28.7809
# 2 51.7343 168.7138 64.2938 6.4074 4.8374 6.1318
# 3 77.4673 64.2938 168.7238 -1.0488 20.5321 -0.9051
# 4 14.7364 6.4074 -1.0488 53.4757 -0.3291 -0.2230
# 5 19.3282 4.8374 20.5321 -0.3291 58.8506 8.8604
# 6 28.7809 6.1318 -0.9051 -0.2230 8.8604 55.1920
#
#
#
# Elastic Compliance Matrix: (Units=1/GPa)
#
#
# Indices 1 2 3 4 5 6 
#
# 1 0.011981 -0.001449 -0.004850 -0.003256 -0.001242 -0.005980
# 2 -0.001449 0.007203 -0.002165 -0.000503 0.000665 -0.000189
# 3 -0.004850 -0.002165 0.009242 0.001779 -0.001931 0.003238
# 4 -0.003256 -0.000503 0.001779 0.019702 0.000328 0.001810
# 5 -0.001242 0.000665 -0.001931 0.000328 0.018383 -0.002408
# 6 -0.005980 -0.000189 0.003238 0.001810 -0.002408 0.021705
#
#
# Mechanical properties :
#
#
# Convention : Reuss Voigt Hill
#
# Bulk Modulus (GPa) = 86.96339 96.20897 91.58618
# Shear Modulus (GPa) = 45.88093 52.52996 49.20544
#
# Velocity S-wave (km/s) = 4.15014 4.44069 4.29787
# Velocity P-wave (km/s) = 7.45727 7.89998 7.68181
#
# Compressibility (1/GPa) = 0.01149909
#
# Stress axis : x y z
#
# Youngs Moduli (GPa) = 83.46329 138.82456 108.20176
#
# Poissons Ratio (x) = 0.20116 0.52479
# Poissons Ratio (y) = 0.12094 0.23421
# Poissons Ratio (z) = 0.40481 0.30050
#
# Static dielectric constant tensor:
#      x y z
#    x 2.085540 0.008990 -0.035090 
#    y 0.008990 2.121550 0.010420 
#    z -0.035090 0.010420 2.144700 
# 
# From -- ./inp_files/49812.got.cif
#   From: 2010.05.17/outbox.cif.g08.bks.cpg/sg2_25_cif.got.tgz:49812.got - 2010.06.03 11:33:40.
