data_PCOD9062791
_publ_section_title
;
Structure prediction by ZEFSAII (Michael W. Deem and Ramdas Pophale) SiO2 
 PCOD9062791
Probable space group: P -1
;
_chemical_formula_sum "Si O2"
_cell_formula_units_Z 14
_cell_length_a 12.091090
_cell_length_b 12.995448
_cell_length_c 5.079221
_cell_angle_alpha 91.238193
_cell_angle_beta 77.374606
_cell_angle_gamma 133.650827
_cell_volume 553.980986
_symmetry_space_group_name_H-M "P -1"
_symmetry_group_IT_number 2
_symmetry_cell_setting 'triclinic'
loop_
_space_group_symop_operation_xyz
x,y,z
-x,-y,-z
loop_
_atom_site_type_symbol
_atom_site_label
_atom_site_fract_x
_atom_site_fract_y
_atom_site_fract_z
Si Si1 0.148237 0.637765 0.270842
Si Si2 0.705813 0.567466 0.195042
Si Si3 0.618006 0.392444 0.757593
Si Si4 0.333904 0.937887 0.485710
Si Si5 0.721331 0.816683 0.227995
Si Si6 0.181872 0.012005 0.315481
Si Si7 0.943775 0.234030 0.979605
O O1 0.271191 0.624094 0.174080
O O2 0.245054 0.786730 0.385219
O O3 0.081059 0.661778 0.066216
O O4 0.000000 0.500000 0.500000
O O5 0.697411 0.498467 0.468380
O O6 0.682319 0.671970 0.274465
O O7 0.883133 0.670130 0.984717
O O8 0.588951 0.449913 0.023669
O O9 0.453440 0.244092 0.717682
O O10 0.500000 0.000000 0.500000
O O11 0.336713 0.036877 0.292071
O O12 0.210013 0.893066 0.775502
O O13 0.828077 0.928003 0.413203
O O14 0.804473 0.897763 0.917895
O O15 0.058754 0.845475 0.274606
#
# Coordination Sequence:
#
# PCOD9062791 Si02
#       7
#     2   2   2   2   2   2   2
#     4  11  24  42  71 103 141 186 231 292 359 428
#     4  12  27  46  72 102 145 186 234 297 347 422
#     4  12  26  45  72 105 141 183 240 290 356 418
#     4  11  25  45  71 105 147 185 235 297 354 424
#     4  12  25  47  73 103 140 189 239 288 354 416
#     4  11  25  46  70 104 140 182 240 286 353 417
#     4  11  26  45  71 105 146 179 239 289 362 420
#
# _framework density 25.271623999999999
#
# number of rings (size 3 to 8) (size 9 to 14) (size 15 to 20)
#    0.000    0.571    2.857    4.286    6.000    3.429 
#    0.000    0.000    0.000    0.000    0.000    0.000 
#    0.000    0.000    0.000    0.000    0.000    0.000 
#
# Total GULP energy -78358.110265 kJ/mol
# GULP energy per Si atom -5597.007876 kJ/mol
# Density = 2.521410 g / cm^3
# Si number density = 25.271624 Si / 1000 Ang^3
#
#
#
# Elastic Constant Matrix: (Units=GPa)
#
#
# Indices 1 2 3 4 5 6 
#
# 1 44.9615 1.1612 -8.3081 2.8068 -5.6899 -0.1034
# 2 1.1612 85.6336 17.8409 17.2113 3.7446 -11.2794
# 3 -8.3081 17.8409 96.4734 9.3037 15.4533 -13.8680
# 4 2.8068 17.2113 9.3037 45.6060 -0.9961 3.2323
# 5 -5.6899 3.7446 15.4533 -0.9961 29.5317 -5.7177
# 6 -0.1034 -11.2794 -13.8680 3.2323 -5.7177 46.9712
#
#
#
# Elastic Compliance Matrix: (Units=1/GPa)
#
#
# Indices 1 2 3 4 5 6 
#
# 1 0.023156 -0.000380 0.001776 -0.001637 0.003728 0.001051
# 2 -0.000380 0.013421 -0.001507 -0.004962 -0.000563 0.003050
# 3 0.001776 -0.001507 0.012296 -0.002364 -0.005444 0.002772
# 4 -0.001637 -0.004962 -0.002364 0.024660 0.001728 -0.003380
# 5 0.003728 -0.000563 -0.005444 0.001728 0.038098 0.002784
# 6 0.001051 0.003050 0.002772 -0.003380 0.002784 0.023414
#
#
# Mechanical properties :
#
#
# Convention : Reuss Voigt Hill
#
# Bulk Modulus (GPa) = 20.55497 27.60628 24.08062
# Shear Modulus (GPa) = 33.00706 38.84674 35.92690
#
# Velocity S-wave (km/s) = 3.61791 3.92493 3.77454
# Velocity P-wave (km/s) = 5.06000 5.61138 5.34281
#
# Compressibility (1/GPa) = 0.04865004
#
# Stress axis : x y z
#
# Youngs Moduli (GPa) = 43.18596 74.51251 81.32884
#
# Poissons Ratio (x) = 0.02828 -0.14444
# Poissons Ratio (y) = 0.01639 0.12260
# Poissons Ratio (z) = -0.07670 0.11232
#
# Static dielectric constant tensor:
#      x y z
#    x 2.025690 -0.051710 -0.033390 
#    y -0.051710 1.975210 0.014130 
#    z -0.033390 0.014130 2.049950 
# 
# From -- ./inp_files/70510.got.cif
#   From: 2010.05.17/outbox.cif.g08.bks.cpg/sg2_36_cif.got.tgz:70510.got - 2010.06.03 11:33:40.
