data_PCOD9062105
_publ_section_title
;
Structure prediction by ZEFSAII (Michael W. Deem and Ramdas Pophale) SiO2 
 PCOD9062105
Probable space group: P -1
;
_chemical_formula_sum "Si O2"
_cell_formula_units_Z 15
_cell_length_a 8.358856
_cell_length_b 13.289050
_cell_length_c 9.100537
_cell_angle_alpha 81.240689
_cell_angle_beta 48.662705
_cell_angle_gamma 106.478391
_cell_volume 641.774759
_symmetry_space_group_name_H-M "P -1"
_symmetry_group_IT_number 2
_symmetry_cell_setting 'triclinic'
loop_
_space_group_symop_operation_xyz
x,y,z
-x,-y,-z
loop_
_atom_site_type_symbol
_atom_site_label
_atom_site_fract_x
_atom_site_fract_y
_atom_site_fract_z
Si Si1 0.866858 0.360713 0.068079
Si Si2 0.502027 0.003185 0.177416
Si Si3 0.281265 0.654886 0.164985
Si Si4 0.162612 0.219947 0.187744
Si Si5 0.976383 0.618575 0.597017
Si Si6 0.000000 0.000000 0.500000
Si Si7 0.027236 0.187973 0.962247
Si Si8 0.446830 0.773705 0.433261
O O1 0.727718 0.341810 0.004129
O O2 0.062704 0.318247 0.928050
O O3 0.672831 0.264754 0.323977
O O4 0.000000 0.500000 0.000000
O O5 0.440365 0.881674 0.328955
O O6 0.296392 0.036324 0.332878
O O7 0.500000 0.000000 0.000000
O O8 0.779004 0.100953 0.042822
O O9 0.072847 0.674171 0.364549
O O10 0.204343 0.520341 0.277285
O O11 0.558637 0.741880 0.030412
O O12 0.082301 0.136252 0.394151
O O13 0.135111 0.328126 0.234281
O O14 0.005033 0.148765 0.156074
O O15 0.243357 0.654021 0.497537
O O16 0.271908 0.195912 0.747068
#
# Coordination Sequence:
#
# PCOD9062105 Si02
#       8
#     2   2   2   2   2   1   2   2
#     4  12  26  47  70 113 154 200 251 300 365 447
#     4  12  29  50  76 111 145 193 258 308 377 447
#     4  11  25  44  76 104 148 193 251 302 363 434
#     4  12  24  45  72 108 145 192 246 302 374 435
#     4  11  23  47  73 105 143 196 247 301 361 436
#     4  12  26  44  74 100 144 188 242 306 368 444
#     4  12  27  46  77 107 152 197 244 314 374 444
#     4  12  25  50  75 107 155 193 247 305 375 441
#
# _framework density 23.372685000000001
#
# number of rings (size 3 to 8) (size 9 to 14) (size 15 to 20)
#    0.000    0.267    5.333    2.400    1.867    6.933 
#    0.000    0.000    0.000    0.000    0.000    0.000 
#    0.000    0.000    0.000    0.000    0.000    0.000 
#
# Total GULP energy -83519.988942 kJ/mol
# GULP energy per Si atom -5567.999263 kJ/mol
# Density = 2.331949 g / cm^3
# Si number density = 23.372685 Si / 1000 Ang^3
#
#
#
# Elastic Constant Matrix: (Units=GPa)
#
#
# Indices 1 2 3 4 5 6 
#
# 1 126.4423 54.8811 47.8583 5.6300 -11.3861 2.1096
# 2 54.8811 72.0759 32.1219 -5.0785 7.3808 -2.1710
# 3 47.8583 32.1219 102.7972 5.3468 13.4751 -7.9513
# 4 5.6300 -5.0785 5.3468 33.9055 5.2623 -2.5532
# 5 -11.3861 7.3808 13.4751 5.2623 41.9833 12.3053
# 6 2.1096 -2.1710 -7.9513 -2.5532 12.3053 40.3859
#
#
#
# Elastic Compliance Matrix: (Units=1/GPa)
#
#
# Indices 1 2 3 4 5 6 
#
# 1 0.016484 -0.011763 -0.005614 -0.005780 0.010908 -0.006288
# 2 -0.011763 0.025007 -0.001061 0.007771 -0.009747 0.005211
# 3 -0.005614 -0.001061 0.014045 0.000103 -0.007399 0.005262
# 4 -0.005780 0.007771 0.000103 0.033378 -0.008769 0.005522
# 5 0.010908 -0.009747 -0.007399 -0.008769 0.036099 -0.014104
# 6 -0.006288 0.005211 0.005262 0.005522 -0.014104 0.031052
#
#
# Mechanical properties :
#
#
# Convention : Reuss Voigt Hill
#
# Bulk Modulus (GPa) = 53.59376 63.44869 58.52122
# Shear Modulus (GPa) = 25.10544 34.35190 29.72867
#
# Velocity S-wave (km/s) = 3.28096 3.83789 3.57030
# Velocity P-wave (km/s) = 6.11005 6.84431 6.48758
#
# Compressibility (1/GPa) = 0.01865889
#
# Stress axis : x y z
#
# Youngs Moduli (GPa) = 60.66566 39.98950 71.20110
#
# Poissons Ratio (x) = 0.47040 0.39973
# Poissons Ratio (y) = 0.71361 0.07555
# Poissons Ratio (z) = 0.34058 0.04243
#
# Static dielectric constant tensor:
#      x y z
#    x 1.934980 0.003740 0.085230 
#    y 0.003740 1.881470 0.038840 
#    z 0.085230 0.038840 1.982630 
# 
# From -- ./inp_files/201316.got.cif
#   From: 2010.05.17/outbox.cif.g08.bks.cpg/sg2_101_cif.got.tgz:201316.got - 2010.06.03 11:33:40.
