data_PCOD9062605
_publ_section_title
;
Structure prediction by ZEFSAII (Michael W. Deem and Ramdas Pophale) SiO2 
 PCOD9062605
Probable space group: P -1
;
_chemical_formula_sum "Si O2"
_cell_formula_units_Z 14
_cell_length_a 14.665047
_cell_length_b 14.829774
_cell_length_c 25.786316
_cell_angle_alpha 20.760279
_cell_angle_beta 157.120532
_cell_angle_gamma 160.493381
_cell_volume 624.858366
_symmetry_space_group_name_H-M "P -1"
_symmetry_group_IT_number 2
_symmetry_cell_setting 'triclinic'
loop_
_space_group_symop_operation_xyz
x,y,z
-x,-y,-z
loop_
_atom_site_type_symbol
_atom_site_label
_atom_site_fract_x
_atom_site_fract_y
_atom_site_fract_z
Si Si1 0.470828 0.791500 0.927276
Si Si2 0.254608 0.207988 0.561958
Si Si3 0.114276 0.149129 0.035805
Si Si4 0.666096 0.637390 0.814709
Si Si5 0.988269 0.788435 0.460145
Si Si6 0.641814 0.095592 0.628140
Si Si7 0.268226 0.077395 0.837075
O O1 0.371218 0.015877 0.748567
O O2 0.313454 0.526276 0.942127
O O3 0.373920 0.590895 0.037063
O O4 0.818191 0.998723 0.994118
O O5 0.500000 0.500000 0.500000
O O6 0.134002 0.287183 0.505105
O O7 0.000000 0.000000 0.500000
O O8 0.296198 0.040881 0.215948
O O9 0.000000 0.000000 0.000000
O O10 0.424897 0.414754 0.765703
O O11 0.633746 0.895952 0.683369
O O12 0.982882 0.818306 0.858618
O O13 0.898096 0.462763 0.562588
O O14 0.835877 0.908367 0.281964
O O15 0.333610 0.035219 0.506111
O O16 0.500000 0.000000 0.000000
#
# Coordination Sequence:
#
# PCOD9062605 Si02
#       7
#     2   2   2   2   2   2   2
#     4  11  24  45  68 102 134 182 234 284 349 412
#     4  12  28  46  69  98 140 188 229 289 355 414
#     4  11  24  41  72  98 136 185 233 290 337 416
#     4  11  24  46  72 103 142 181 230 290 351 412
#     4  12  27  45  69 103 142 181 234 294 342 422
#     4  11  25  44  69 103 145 178 229 287 354 417
#     4  12  26  45  75 103 138 185 238 285 344 419
#
# _framework density 22.405076999999999
#
# number of rings (size 3 to 8) (size 9 to 14) (size 15 to 20)
#    0.000    0.571    0.000    8.571    6.000    5.714 
#    0.000    0.000    0.000    0.000    0.000    0.000 
#    0.000    0.000    0.000    0.000    0.000    0.000 
#
# Total GULP energy -78460.675281 kJ/mol
# GULP energy per Si atom -5604.333949 kJ/mol
# Density = 2.235408 g / cm^3
# Si number density = 22.405077 Si / 1000 Ang^3
#
#
#
# Elastic Constant Matrix: (Units=GPa)
#
#
# Indices 1 2 3 4 5 6 
#
# 1 98.1597 17.8591 17.1113 16.8854 -4.8638 1.6541
# 2 17.8591 109.7624 5.7703 18.8658 0.3312 3.4775
# 3 17.1113 5.7703 74.5530 11.0656 1.1154 -3.3791
# 4 16.8854 18.8658 11.0656 37.9370 -4.3296 -1.5833
# 5 -4.8638 0.3312 1.1154 -4.3296 13.6575 3.5638
# 6 1.6541 3.4775 -3.3791 -1.5833 3.5638 44.3399
#
#
#
# Elastic Compliance Matrix: (Units=1/GPa)
#
#
# Indices 1 2 3 4 5 6 
#
# 1 0.011570 -0.001131 -0.002123 -0.003616 0.003412 -0.000908
# 2 -0.001131 0.010150 0.000191 -0.004861 -0.002009 -0.000751
# 3 -0.002123 0.000191 0.014552 -0.003737 -0.003478 0.001319
# 4 -0.003616 -0.004861 -0.003737 0.032563 0.009289 0.000648
# 5 0.003412 -0.002009 -0.003478 0.009289 0.079351 -0.006281
# 6 -0.000908 -0.000751 0.001319 0.000648 -0.006281 0.023274
#
#
# Mechanical properties :
#
#
# Convention : Reuss Voigt Hill
#
# Bulk Modulus (GPa) = 33.17151 40.43960 36.80555
# Shear Modulus (GPa) = 26.64742 35.30249 30.97496
#
# Velocity S-wave (km/s) = 3.45243 3.97375 3.72223
# Velocity P-wave (km/s) = 5.54345 6.25641 5.91069
#
# Compressibility (1/GPa) = 0.03014635
#
# Stress axis : x y z
#
# Youngs Moduli (GPa) = 86.43174 98.52391 68.71785
#
# Poissons Ratio (x) = 0.11141 0.14591
# Poissons Ratio (y) = 0.09774 -0.01315
# Poissons Ratio (z) = 0.18353 -0.01886
#
# Static dielectric constant tensor:
#      x y z
#    x 1.854790 -0.026950 0.038630 
#    y -0.026950 1.774230 -0.000330 
#    z 0.038630 -0.000330 1.909970 
# 
# From -- ./inp_files/535707.got.cif
#   From: 2010.05.17/outbox.cif.g08.bks.cpg/sg2_268_cif.got.tgz:535707.got - 2010.06.03 11:33:40.
