data_PCOD9062149
_publ_section_title
;
Structure prediction by ZEFSAII (Michael W. Deem and Ramdas Pophale) SiO2 
 PCOD9062149
Probable space group: P -1
;
_chemical_formula_sum "Si O2"
_cell_formula_units_Z 14
_cell_length_a 5.121735
_cell_length_b 5.069525
_cell_length_c 21.907869
_cell_angle_alpha 84.685067
_cell_angle_beta 115.818625
_cell_angle_gamma 95.582447
_cell_volume 508.819007
_symmetry_space_group_name_H-M "P -1"
_symmetry_group_IT_number 2
_symmetry_cell_setting 'triclinic'
loop_
_space_group_symop_operation_xyz
x,y,z
-x,-y,-z
loop_
_atom_site_type_symbol
_atom_site_label
_atom_site_fract_x
_atom_site_fract_y
_atom_site_fract_z
Si Si1 0.366399 0.683356 0.689997
Si Si2 0.789999 0.233562 0.093241
Si Si3 0.624515 0.621575 0.415033
Si Si4 0.403565 0.429823 0.158151
Si Si5 0.825844 0.184931 0.500617
Si Si6 0.823378 0.013508 0.645144
Si Si7 0.265988 0.814225 0.040783
O O1 0.223882 0.483765 0.628961
O O2 0.637303 0.821872 0.677696
O O3 0.141773 0.903022 0.680425
O O4 0.455952 0.535492 0.762687
O O5 0.641504 0.366626 0.132925
O O6 0.583169 0.967257 0.070511
O O7 0.760273 0.361657 0.019738
O O8 0.000000 0.000000 0.000000
O O9 0.544550 0.351986 0.450549
O O10 0.323348 0.717906 0.355264
O O11 0.793908 0.903837 0.457737
O O12 0.250925 0.672354 0.107110
O O13 0.130764 0.213728 0.140581
O O14 0.781060 0.082024 0.566520
O O15 0.000000 0.500000 0.500000
#
# Coordination Sequence:
#
# PCOD9062149 Si02
#       7
#     2   2   2   2   2   2   2
#     4  12  29  49  70 104 153 198 245 298 372 459
#     4  11  25  46  77 109 145 193 243 311 369 430
#     4  11  25  45  78 106 145 192 246 309 378 429
#     4  12  27  48  71 107 154 197 244 304 377 442
#     4  11  23  47  76 111 142 188 250 316 372 433
#     4  12  25  50  71 106 144 192 248 305 364 447
#     4  11  25  45  79 115 146 187 256 307 368 439
#
# _framework density 27.514696000000001
#
# number of rings (size 3 to 8) (size 9 to 14) (size 15 to 20)
#    0.000    0.571    4.286    2.143    6.000    3.429 
#    5.143    0.000    0.000    0.000    0.000    0.000 
#    0.000    0.000    0.000    0.000    0.000    0.000 
#
# Total GULP energy -77974.891693 kJ/mol
# GULP energy per Si atom -5569.635121 kJ/mol
# Density = 2.745207 g / cm^3
# Si number density = 27.514696 Si / 1000 Ang^3
#
#
#
# Elastic Constant Matrix: (Units=GPa)
#
#
# Indices 1 2 3 4 5 6 
#
# 1 147.9349 46.9883 33.2961 -7.2687 -24.2164 -2.9089
# 2 46.9883 132.1400 54.9491 -9.0898 1.9782 -13.4280
# 3 33.2961 54.9491 229.4846 -20.2894 -0.8574 0.5555
# 4 -7.2687 -9.0898 -20.2894 32.2679 0.5531 -1.3688
# 5 -24.2164 1.9782 -0.8574 0.5531 39.0954 1.4925
# 6 -2.9089 -13.4280 0.5555 -1.3688 1.4925 48.9295
#
#
#
# Elastic Compliance Matrix: (Units=1/GPa)
#
#
# Indices 1 2 3 4 5 6 
#
# 1 0.008756 -0.002999 -0.000467 0.000720 0.005572 -0.000447
# 2 -0.002999 0.009772 -0.001825 0.001085 -0.002508 0.002631
# 3 -0.000467 -0.001825 0.005090 0.002561 -0.000102 -0.000512
# 4 0.000720 0.001085 0.002561 0.033122 -0.000069 0.001240
# 5 0.005572 -0.002508 -0.000102 -0.000069 0.029203 -0.001249
# 6 -0.000447 0.002631 -0.000512 0.001240 -0.001249 0.021212
#
#
# Mechanical properties :
#
#
# Convention : Reuss Voigt Hill
#
# Bulk Modulus (GPa) = 76.70331 86.66961 81.68646
# Shear Modulus (GPa) = 40.95626 49.01363 44.98495
#
# Velocity S-wave (km/s) = 3.86232 4.22520 4.04783
# Velocity P-wave (km/s) = 6.91576 7.44116 7.18327
#
# Compressibility (1/GPa) = 0.01303725
#
# Stress axis : x y z
#
# Youngs Moduli (GPa) = 114.20766 102.32902 196.48168
#
# Poissons Ratio (x) = 0.30686 0.09173
# Poissons Ratio (y) = 0.34248 0.35852
# Poissons Ratio (z) = 0.05332 0.18672
#
# Static dielectric constant tensor:
#      x y z
#    x 4.441230 -0.259450 1.757310 
#    y -0.259450 2.429530 -0.135910 
#    z 1.757310 -0.135910 3.554010 
# 
# From -- ./inp_files/581040.got.cif
#   From: 2010.05.17/outbox.cif.g08.bks.cpg/sg2_291_cif.got.tgz:581040.got - 2010.06.03 11:33:40.
