data_PCOD9062805
_publ_section_title
;
Structure prediction by ZEFSAII (Michael W. Deem and Ramdas Pophale) SiO2 
 PCOD9062805
Probable space group: P -1
;
_chemical_formula_sum "Si O2"
_cell_formula_units_Z 14
_cell_length_a 15.531871
_cell_length_b 6.685009
_cell_length_c 11.289172
_cell_angle_alpha 64.989313
_cell_angle_beta 47.645273
_cell_angle_gamma 44.613515
_cell_volume 604.705291
_symmetry_space_group_name_H-M "P -1"
_symmetry_group_IT_number 2
_symmetry_cell_setting 'triclinic'
loop_
_space_group_symop_operation_xyz
x,y,z
-x,-y,-z
loop_
_atom_site_type_symbol
_atom_site_label
_atom_site_fract_x
_atom_site_fract_y
_atom_site_fract_z
Si Si1 0.932697 0.572655 0.743620
Si Si2 0.258134 0.137154 0.934371
Si Si3 0.111869 0.070125 0.887036
Si Si4 0.561820 0.520140 0.815393
Si Si5 0.329025 0.522685 0.687145
Si Si6 0.356226 0.825803 0.401824
Si Si7 0.158638 0.503923 0.391769
O O1 0.891438 0.444411 0.712177
O O2 0.048624 0.330875 0.791828
O O3 0.014794 0.669705 0.571300
O O4 0.787121 0.806107 0.899751
O O5 0.141135 0.124757 0.976322
O O6 0.246366 0.396118 0.826280
O O7 0.427171 0.850661 0.823327
O O8 0.269221 0.784703 0.764488
O O9 0.000000 0.000000 0.000000
O O10 0.582976 0.306535 0.751009
O O11 0.718913 0.458387 0.704554
O O12 0.500000 0.500000 0.000000
O O13 0.298545 0.664206 0.551688
O O14 0.504760 0.276859 0.615748
O O15 0.239703 0.166751 0.420045
#
# Coordination Sequence:
#
# PCOD9062805 Si02
#       7
#     2   2   2   2   2   2   2
#     4  11  26  47  69 101 142 189 224 280 354 413
#     4  12  26  45  73 107 136 182 237 290 345 410
#     4  12  25  43  70 101 143 180 228 284 349 418
#     4  12  28  44  74 103 138 185 238 289 343 410
#     4  11  24  42  72 103 141 177 230 293 343 408
#     4  11  24  45  70 106 136 182 231 289 351 398
#     4  11  26  49  70  99 145 185 232 287 341 421
#
# _framework density 23.151774
#
# number of rings (size 3 to 8) (size 9 to 14) (size 15 to 20)
#    0.000    0.571    5.714    1.286    6.000    1.714 
#    0.000    2.143    0.000    0.000    0.000    0.000 
#    0.000    0.000    0.000    0.000    0.000    0.000 
#
# Total GULP energy -78334.601781 kJ/mol
# GULP energy per Si atom -5595.328699 kJ/mol
# Density = 2.309908 g / cm^3
# Si number density = 23.151774 Si / 1000 Ang^3
#
#
#
# Elastic Constant Matrix: (Units=GPa)
#
#
# Indices 1 2 3 4 5 6 
#
# 1 72.8106 -19.0220 14.5606 -16.9330 -9.2097 3.8913
# 2 -19.0220 51.7069 -8.6392 -1.2906 0.8949 -4.5208
# 3 14.5606 -8.6392 105.5700 -6.7738 3.6803 18.3724
# 4 -16.9330 -1.2906 -6.7738 28.4778 -3.9361 -2.6083
# 5 -9.2097 0.8949 3.6803 -3.9361 42.5539 0.7291
# 6 3.8913 -4.5208 18.3724 -2.6083 0.7291 24.9931
#
#
#
# Elastic Compliance Matrix: (Units=1/GPa)
#
#
# Indices 1 2 3 4 5 6 
#
# 1 0.019415 0.007140 -0.001589 0.012276 0.005315 0.000563
# 2 0.007140 0.022463 0.000650 0.005906 0.001511 0.003046
# 3 -0.001589 0.000650 0.011186 0.000883 -0.001111 -0.007733
# 4 0.012276 0.005906 0.000883 0.044055 0.006481 0.002916
# 5 0.005315 0.001511 -0.001111 0.006481 0.025310 0.000200
# 6 0.000563 0.003046 -0.007733 0.002916 0.000200 0.046458
#
#
# Mechanical properties :
#
#
# Convention : Reuss Voigt Hill
#
# Bulk Modulus (GPa) = 15.27532 22.65404 18.96468
# Shear Modulus (GPa) = 28.04169 35.41750 31.72960
#
# Velocity S-wave (km/s) = 3.48402 3.91550 3.70605
# Velocity P-wave (km/s) = 4.77460 5.49980 5.14998
#
# Compressibility (1/GPa) = 0.06546509
#
# Stress axis : x y z
#
# Youngs Moduli (GPa) = 51.50778 44.51825 89.39788
#
# Poissons Ratio (x) = -0.31788 0.14205
# Poissons Ratio (y) = -0.36779 -0.05807
# Poissons Ratio (z) = 0.08185 -0.02892
#
# Static dielectric constant tensor:
#      x y z
#    x 1.828940 -0.043090 -0.008540 
#    y -0.043090 1.912300 0.020620 
#    z -0.008540 0.020620 1.913210 
# 
# From -- ./inp_files/69302.got.cif
#   From: 2010.05.17/outbox.cif.g08.bks.cpg/sg2_35_cif.got.tgz:69302.got - 2010.06.03 11:33:40.
