data_PCOD9062900
_publ_section_title
;
Structure prediction by ZEFSAII (Michael W. Deem and Ramdas Pophale) SiO2 
 PCOD9062900
Probable space group: P -1
;
_chemical_formula_sum "Si O2"
_cell_formula_units_Z 16
_cell_length_a 19.378956
_cell_length_b 9.525621
_cell_length_c 6.867867
_cell_angle_alpha 45.903487
_cell_angle_beta 116.632501
_cell_angle_gamma 124.701581
_cell_volume 745.613480
_symmetry_space_group_name_H-M "P -1"
_symmetry_group_IT_number 2
_symmetry_cell_setting 'triclinic'
loop_
_space_group_symop_operation_xyz
x,y,z
-x,-y,-z
loop_
_atom_site_type_symbol
_atom_site_label
_atom_site_fract_x
_atom_site_fract_y
_atom_site_fract_z
Si Si1 0.911083 0.373654 0.399883
Si Si2 0.670292 0.876821 0.051016
Si Si3 0.841886 0.256265 0.832708
Si Si4 0.624128 0.475388 0.659744
Si Si5 0.817223 0.565688 0.797747
Si Si6 0.078967 0.946187 0.602859
Si Si7 0.568932 0.154091 0.586735
Si Si8 0.591892 0.527710 0.007988
O O1 0.846687 0.270213 0.595055
O O2 0.000000 0.500000 0.500000
O O3 0.923404 0.197705 0.448040
O O4 0.870643 0.506390 0.089524
O O5 0.643456 0.690886 0.354693
O O6 0.654733 0.758700 0.936410
O O7 0.763170 0.053696 0.007674
O O8 0.613362 0.008861 0.861906
O O9 0.837061 0.463442 0.725209
O O10 0.916375 0.202809 0.068795
O O11 0.715963 0.462341 0.803565
O O12 0.557273 0.278152 0.642408
O O13 0.590758 0.490938 0.814771
O O14 0.847606 0.818838 0.565335
O O15 0.000000 0.000000 0.500000
O O16 0.500000 0.000000 0.500000
O O17 0.619435 0.356164 0.317024
O O18 0.500000 0.500000 0.000000
#
# Coordination Sequence:
#
# PCOD9062900 Si02
#       8
#     2   2   2   2   2   2   2   2
#     4  11  26  43  67 103 137 183 225 282 342 403
#     4  11  24  44  67  99 134 173 231 281 343 404
#     4  11  24  43  69  97 138 175 227 286 333 405
#     4  11  26  44  72  99 140 180 227 290 346 402
#     4  11  24  43  66 102 133 177 233 278 343 401
#     4  11  24  44  68  97 137 180 228 275 340 406
#     4  11  24  47  69 102 132 178 224 277 348 409
#     4  11  26  46  66 103 137 176 228 282 342 417
#
# _framework density 21.458839999999999
#
# number of rings (size 3 to 8) (size 9 to 14) (size 15 to 20)
#    0.000    1.000    3.750    1.500    3.500    8.500 
#    0.000    0.000    0.000    0.000    0.000    0.000 
#    0.000    0.000    0.000    0.000    0.000    0.000 
#
# Total GULP energy -89343.466783 kJ/mol
# GULP energy per Si atom -5583.966674 kJ/mol
# Density = 2.141000 g / cm^3
# Si number density = 21.458840 Si / 1000 Ang^3
#
#
#
# Elastic Constant Matrix: (Units=GPa)
#
#
# Indices 1 2 3 4 5 6 
#
# 1 68.8033 7.9119 42.8503 4.7352 6.3453 -18.5855
# 2 7.9119 124.0216 48.3746 -7.1743 -6.3932 -24.6665
# 3 42.8503 48.3746 116.0234 5.6052 0.8167 -33.2855
# 4 4.7352 -7.1743 5.6052 34.7641 -9.5210 -3.1017
# 5 6.3453 -6.3932 0.8167 -9.5210 37.4480 9.8248
# 6 -18.5855 -24.6665 -33.2855 -3.1017 9.8248 33.1857
#
#
#
# Elastic Compliance Matrix: (Units=1/GPa)
#
#
# Indices 1 2 3 4 5 6 
#
# 1 0.021214 0.002387 -0.006050 -0.002256 -0.006032 0.009162
# 2 0.002387 0.010777 -0.004003 0.003283 0.000952 0.005357
# 3 -0.006050 -0.004003 0.015512 -0.002504 -0.003235 0.009918
# 4 -0.002256 0.003283 -0.002504 0.032683 0.009601 -0.001123
# 5 -0.006032 0.000952 -0.003235 0.009601 0.034388 -0.015199
# 6 0.009162 0.005357 0.009918 -0.001123 -0.015199 0.053589
#
#
# Mechanical properties :
#
#
# Convention : Reuss Voigt Hill
#
# Bulk Modulus (GPa) = 31.08521 56.34689 43.71605
# Shear Modulus (GPa) = 25.74415 35.06034 30.40225
#
# Velocity S-wave (km/s) = 3.46742 4.04647 3.76808
# Velocity P-wave (km/s) = 5.52704 6.93880 6.27276
#
# Compressibility (1/GPa) = 0.03216964
#
# Stress axis : x y z
#
# Youngs Moduli (GPa) = 47.13806 92.79236 64.46689
#
# Poissons Ratio (x) = -0.22153 0.39006
# Poissons Ratio (y) = -0.11254 0.25809
# Poissons Ratio (z) = 0.28521 0.37149
#
# Static dielectric constant tensor:
#      x y z
#    x 1.765440 0.014710 0.000770 
#    y 0.014710 1.786930 0.006320 
#    z 0.000770 0.006320 1.755880 
# 
# From -- ./inp_files/116561.got.cif
#   From: 2010.05.17/outbox.cif.g08.bks.cpg/sg2_59_cif.got.tgz:116561.got - 2010.06.03 11:33:40.
