data_PCOD9062574
_publ_section_title
;
Structure prediction by ZEFSAII (Michael W. Deem and Ramdas Pophale) SiO2 
 PCOD9062574
Probable space group: P -1
;
_chemical_formula_sum "Si O2"
_cell_formula_units_Z 14
_cell_length_a 15.136283
_cell_length_b 15.364682
_cell_length_c 26.246671
_cell_angle_alpha 159.767506
_cell_angle_beta 158.328018
_cell_angle_gamma 19.143440
_cell_volume 640.808307
_symmetry_space_group_name_H-M "P -1"
_symmetry_group_IT_number 2
_symmetry_cell_setting 'triclinic'
loop_
_space_group_symop_operation_xyz
x,y,z
-x,-y,-z
loop_
_atom_site_type_symbol
_atom_site_label
_atom_site_fract_x
_atom_site_fract_y
_atom_site_fract_z
Si Si1 0.746027 0.807470 0.829108
Si Si2 0.073804 0.195413 0.522187
Si Si3 0.404943 0.511503 0.349198
Si Si4 0.782181 0.761900 0.988597
Si Si5 0.898689 0.119762 0.168993
Si Si6 0.453616 0.153541 0.614526
Si Si7 0.669749 0.655617 0.169723
O O1 0.601144 0.656547 0.696234
O O2 0.064861 0.539571 0.834122
O O3 0.553113 0.010675 0.789954
O O4 0.782753 0.018031 0.004185
O O5 0.229821 0.124612 0.512450
O O6 0.199972 0.340242 0.704361
O O7 0.727465 0.412855 0.455106
O O8 0.179213 0.874811 0.428889
O O9 0.301685 0.387372 0.181332
O O10 0.000000 0.500000 0.000000
O O11 0.500000 0.000000 0.000000
O O12 0.901241 0.935349 0.118301
O O13 0.690129 0.482953 0.266009
O O14 0.230407 0.013336 0.280952
O O15 0.500000 0.000000 0.500000
O O16 0.500000 0.500000 0.000000
#
# Coordination Sequence:
#
# PCOD9062574 Si02
#       7
#     2   2   2   2   2   2   2
#     4  11  24  45  71  99 138 175 227 280 342 401
#     4  12  26  44  68 101 141 175 231 284 334 411
#     4  11  26  44  67 101 140 177 223 283 343 403
#     4  11  24  41  70  95 129 178 229 281 325 404
#     4  11  24  45  67  97 131 178 230 279 340 404
#     4  12  27  44  68  96 139 184 225 282 349 404
#     4  12  25  43  73 102 134 182 229 277 335 408
#
# _framework density 21.847405999999999
#
# number of rings (size 3 to 8) (size 9 to 14) (size 15 to 20)
#    0.000    0.571    0.000    7.714    6.000    8.000 
#    0.000    0.000    0.000    0.000    0.000    0.000 
#    0.000    0.000    0.000    0.000    0.000    0.000 
#
# Total GULP energy -78453.801090 kJ/mol
# GULP energy per Si atom -5603.842935 kJ/mol
# Density = 2.179768 g / cm^3
# Si number density = 21.847406 Si / 1000 Ang^3
#
#
#
# Elastic Constant Matrix: (Units=GPa)
#
#
# Indices 1 2 3 4 5 6 
#
# 1 60.8928 -17.0607 9.2695 -11.5473 13.9513 0.5284
# 2 -17.0607 93.8800 0.6256 -4.3910 2.3664 -3.2770
# 3 9.2695 0.6256 61.8384 2.6307 -1.7045 -2.8633
# 4 -11.5473 -4.3910 2.6307 34.4055 -6.9838 1.1665
# 5 13.9513 2.3664 -1.7045 -6.9838 31.9164 -0.0393
# 6 0.5284 -3.2770 -2.8633 1.1665 -0.0393 39.9537
#
#
#
# Elastic Compliance Matrix: (Units=1/GPa)
#
#
# Indices 1 2 3 4 5 6 
#
# 1 0.021377 0.004406 -0.003769 0.006314 -0.008491 -0.000384
# 2 0.004406 0.011662 -0.000915 0.002548 -0.002281 0.000756
# 3 -0.003769 -0.000915 0.016960 -0.002291 0.002122 0.001259
# 4 0.006314 0.002548 -0.002291 0.032540 0.004048 -0.000985
# 5 -0.008491 -0.002281 0.002122 0.004048 0.036211 -0.000005
# 6 -0.000384 0.000756 0.001259 -0.000985 -0.000005 0.025215
#
#
# Mechanical properties :
#
#
# Convention : Reuss Voigt Hill
#
# Bulk Modulus (GPa) = 20.22586 22.47555 21.35071
# Shear Modulus (GPa) = 31.05567 36.17359 33.61463
#
# Velocity S-wave (km/s) = 3.77434 4.07349 3.92677
# Velocity P-wave (km/s) = 5.31715 5.69511 5.50937
#
# Compressibility (1/GPa) = 0.04944165
#
# Stress axis : x y z
#
# Youngs Moduli (GPa) = 46.78004 85.75059 58.96334
#
# Poissons Ratio (x) = -0.37780 0.22225
# Poissons Ratio (y) = -0.20610 0.05393
# Poissons Ratio (z) = 0.17633 0.07843
#
# Static dielectric constant tensor:
#      x y z
#    x 1.821090 0.011490 -0.042960 
#    y 0.011490 1.736560 0.016110 
#    z -0.042960 0.016110 1.864320 
# 
# From -- ./inp_files/26825.got.cif
#   From: 2010.05.17/outbox.cif.g08.bks.cpg/sg2_14_cif.got.tgz:26825.got - 2010.06.03 11:33:40.
