data_PCOD9062154
_publ_section_title
;
Structure prediction by ZEFSAII (Michael W. Deem and Ramdas Pophale) SiO2 
 PCOD9062154
Probable space group: P -1
;
_chemical_formula_sum "Si O2"
_cell_formula_units_Z 14
_cell_length_a 25.705957
_cell_length_b 18.532148
_cell_length_c 9.533173
_cell_angle_alpha 27.540105
_cell_angle_beta 151.910200
_cell_angle_gamma 162.519445
_cell_volume 608.618223
_symmetry_space_group_name_H-M "P -1"
_symmetry_group_IT_number 2
_symmetry_cell_setting 'triclinic'
loop_
_space_group_symop_operation_xyz
x,y,z
-x,-y,-z
loop_
_atom_site_type_symbol
_atom_site_label
_atom_site_fract_x
_atom_site_fract_y
_atom_site_fract_z
Si Si1 0.169780 0.718011 0.924165
Si Si2 0.592386 0.237511 0.085947
Si Si3 0.139775 0.085525 0.789862
Si Si4 0.584354 0.484782 0.845761
Si Si5 0.886434 0.002425 0.809074
Si Si6 0.656122 0.370797 0.677571
Si Si7 0.639636 0.952356 0.704227
O O1 0.115447 0.818922 0.544670
O O2 0.210533 0.611269 0.105975
O O3 0.000000 0.500000 0.000000
O O4 0.371864 0.975749 0.026551
O O5 0.681748 0.176060 0.453073
O O6 0.674035 0.457168 0.005032
O O7 0.628904 0.311074 0.881257
O O8 0.285899 0.385876 0.627595
O O9 0.067149 0.973394 0.962881
O O10 0.202573 0.989916 0.048171
O O11 0.000000 0.000000 0.500000
O O12 0.500000 0.500000 0.500000
O O13 0.688219 0.717503 0.793279
O O14 0.468863 0.250337 0.079770
O O15 0.000000 0.000000 0.000000
O O16 0.475074 0.157469 0.523104
#
# Coordination Sequence:
#
# PCOD9062154 Si02
#       7
#     2   2   2   2   2   2   2
#     4  11  24  45  73 108 149 186 236 300 365 420
#     4  11  24  45  77 108 140 187 247 292 355 430
#     4  12  27  46  72 106 143 186 239 300 361 424
#     4  12  25  44  73 105 141 188 241 291 344 432
#     4  12  27  47  70 104 149 188 233 295 366 418
#     4  11  23  47  77 103 139 189 244 297 354 426
#     4  11  24  45  72 101 140 183 241 295 353 420
#
# _framework density 23.002925999999999
#
# number of rings (size 3 to 8) (size 9 to 14) (size 15 to 20)
#    0.000    0.571    2.857    6.000    6.000    1.143 
#    2.571    1.429    0.000    0.000    0.000    0.000 
#    0.000    0.000    0.000    0.000    0.000    0.000 
#
# Total GULP energy -78229.346357 kJ/mol
# GULP energy per Si atom -5587.810454 kJ/mol
# Density = 2.295057 g / cm^3
# Si number density = 23.002926 Si / 1000 Ang^3
#
#
#
# Elastic Constant Matrix: (Units=GPa)
#
#
# Indices 1 2 3 4 5 6 
#
# 1 123.1597 31.7678 76.6109 5.5592 -18.7286 17.8794
# 2 31.7678 33.7928 11.5902 -8.8169 1.3751 9.8291
# 3 76.6109 11.5902 189.2538 -5.5669 12.0913 15.3804
# 4 5.5592 -8.8169 -5.5669 36.2331 3.2192 -0.3584
# 5 -18.7286 1.3751 12.0913 3.2192 51.9533 -4.0409
# 6 17.8794 9.8291 15.3804 -0.3584 -4.0409 32.4368
#
#
#
# Elastic Compliance Matrix: (Units=1/GPa)
#
#
# Indices 1 2 3 4 5 6 
#
# 1 0.019812 -0.018781 -0.007762 -0.009696 0.010014 -0.000409
# 2 -0.018781 0.053044 0.006426 0.017703 -0.011545 -0.010011
# 3 -0.007762 0.006426 0.008713 0.004555 -0.005467 -0.002431
# 4 -0.009696 0.017703 0.004555 0.034724 -0.007387 -0.002716
# 5 0.010014 -0.011545 -0.005467 -0.007387 0.025176 0.003626
# 6 -0.000409 -0.010011 -0.002431 -0.002716 0.003626 0.035663
#
#
# Mechanical properties :
#
#
# Convention : Reuss Voigt Hill
#
# Bulk Modulus (GPa) = 24.19178 65.12712 44.65945
# Shear Modulus (GPa) = 21.63161 39.20713 30.41937
#
# Velocity S-wave (km/s) = 3.06990 4.13297 3.64045
# Velocity P-wave (km/s) = 4.80680 7.15187 6.09322
#
# Compressibility (1/GPa) = 0.04133636
#
# Stress axis : x y z
#
# Youngs Moduli (GPa) = 50.47500 18.85217 114.76906
#
# Poissons Ratio (x) = 0.35406 0.89079
# Poissons Ratio (y) = 0.94797 -0.73752
# Poissons Ratio (z) = 0.39176 -0.12115
#
# Static dielectric constant tensor:
#      x y z
#    x 1.856580 -0.097070 0.150110 
#    y -0.097070 2.276590 -0.197690 
#    z 0.150110 -0.197690 2.021970 
# 
# From -- ./inp_files/157853.got.cif
#   From: 2010.05.17/outbox.cif.g08.bks.cpg/sg2_79_cif.got.tgz:157853.got - 2010.06.03 11:33:40.
