data_PCOD9062377
_publ_section_title
;
Structure prediction by ZEFSAII (Michael W. Deem and Ramdas Pophale) SiO2 
 PCOD9062377
Probable space group: P -1
;
_chemical_formula_sum "Si O2"
_cell_formula_units_Z 14
_cell_length_a 9.328525
_cell_length_b 18.487855
_cell_length_c 5.050969
_cell_angle_alpha 105.587550
_cell_angle_beta 53.637877
_cell_angle_gamma 117.533245
_cell_volume 622.027714
_symmetry_space_group_name_H-M "P -1"
_symmetry_group_IT_number 2
_symmetry_cell_setting 'triclinic'
loop_
_space_group_symop_operation_xyz
x,y,z
-x,-y,-z
loop_
_atom_site_type_symbol
_atom_site_label
_atom_site_fract_x
_atom_site_fract_y
_atom_site_fract_z
Si Si1 0.080903 0.345645 0.077319
Si Si2 0.177453 0.952325 0.306157
Si Si3 0.189328 0.681709 0.153614
Si Si4 0.071868 0.179239 0.923416
Si Si5 0.331692 0.855310 0.365922
Si Si6 0.140994 0.514725 0.109707
Si Si7 0.737778 0.933890 0.184800
O O1 0.212921 0.440686 0.970448
O O2 0.990101 0.338243 0.462861
O O3 0.901459 0.322589 0.042557
O O4 0.165753 0.276492 0.878077
O O5 0.996050 0.873178 0.323115
O O6 0.332810 0.915690 0.187587
O O7 0.162650 0.000058 0.631988
O O8 0.224691 0.017381 0.083895
O O9 0.331845 0.772401 0.160907
O O10 0.269878 0.610880 0.043145
O O11 0.194669 0.139884 0.915217
O O12 0.870337 0.163694 0.280786
O O13 0.506207 0.896370 0.414151
O O14 0.000000 0.500000 0.500000
O O15 0.000000 0.500000 0.000000
#
# Coordination Sequence:
#
# PCOD9062377 Si02
#       7
#     2   2   2   2   2   2   2
#     4   9  17  30  52  77 106 139 175 219 268 321
#     4  12  24  42  58  81 112 149 188 234 276 326
#     4   9  17  30  52  77 106 139 175 219 268 321
#     4  11  24  40  60  82 113 147 187 230 277 327
#     4  11  24  40  60  82 113 147 187 230 277 327
#     4   8  14  26  46  77 104 131 173 215 260 321
#     4  12  28  38  58  83 112 147 190 232 278 324
#
# _framework density 22.507034999999998
#
# number of rings (size 3 to 8) (size 9 to 14) (size 15 to 20)
#    0.000    1.714    2.857    1.714    4.000    0.000 
#    0.000    0.000    0.000    0.857    0.000    0.000 
#    0.000   24.571    0.000    0.000    0.000    3.714 
#
# Total GULP energy -78149.933041 kJ/mol
# GULP energy per Si atom -5582.138074 kJ/mol
# Density = 2.245581 g / cm^3
# Si number density = 22.507035 Si / 1000 Ang^3
#
#
#
# Elastic Constant Matrix: (Units=GPa)
#
#
# Indices 1 2 3 4 5 6 
#
# 1 89.3217 45.5490 30.8117 0.9269 7.3130 -24.3427
# 2 45.5490 200.5784 19.0786 30.6945 -6.4750 -58.4057
# 3 30.8117 19.0786 75.6700 5.2882 33.9453 -8.6729
# 4 0.9269 30.6945 5.2882 24.8622 -3.0788 1.2101
# 5 7.3130 -6.4750 33.9453 -3.0788 26.5013 0.3089
# 6 -24.3427 -58.4057 -8.6729 1.2101 0.3089 33.4511
#
#
#
# Elastic Compliance Matrix: (Units=1/GPa)
#
#
# Indices 1 2 3 4 5 6 
#
# 1 0.016177 -0.000512 -0.008592 0.002257 0.006579 0.008509
# 2 -0.000512 0.018177 0.000976 -0.024193 0.000142 0.032492
# 3 -0.008592 0.000976 0.043072 -0.017191 -0.054648 0.007746
# 4 0.002257 -0.024193 -0.017191 0.079132 0.025240 -0.048152
# 5 0.006579 0.000142 -0.054648 0.025240 0.109013 -0.011052
# 6 0.008509 0.032492 0.007746 -0.048152 -0.011052 0.096669
#
#
# Mechanical properties :
#
#
# Convention : Reuss Voigt Hill
#
# Bulk Modulus (GPa) = 16.34755 61.82762 39.08758
# Shear Modulus (GPa) = 12.53493 34.97163 23.75328
#
# Velocity S-wave (km/s) = 2.36251 3.94611 3.25217
# Velocity P-wave (km/s) = 3.83679 6.94927 5.61308
#
# Compressibility (1/GPa) = 0.06117124
#
# Stress axis : x y z
#
# Youngs Moduli (GPa) = 61.81605 55.01474 23.21699
#
# Poissons Ratio (x) = 0.02815 0.19948
# Poissons Ratio (y) = 0.03163 -0.02267
# Poissons Ratio (z) = 0.53112 -0.05371
#
# Static dielectric constant tensor:
#      x y z
#    x 1.781760 -0.030630 -0.014250 
#    y -0.030630 1.933050 0.023260 
#    z -0.014250 0.023260 1.881860 
# 
# From -- ./inp_files/44932.got.cif
#   From: 2010.05.17/outbox.cif.g08.bks.cpg/sg2_23_cif.got.tgz:44932.got - 2010.06.03 11:33:40.
