data_PCOD9062510
_publ_section_title
;
Structure prediction by ZEFSAII (Michael W. Deem and Ramdas Pophale) SiO2 
 PCOD9062510
Probable space group: P -1
;
_chemical_formula_sum "Si O2"
_cell_formula_units_Z 15
_cell_length_a 11.762366
_cell_length_b 9.775433
_cell_length_c 8.864646
_cell_angle_alpha 85.204981
_cell_angle_beta 37.591069
_cell_angle_gamma 82.294096
_cell_volume 615.732814
_symmetry_space_group_name_H-M "P -1"
_symmetry_group_IT_number 2
_symmetry_cell_setting 'triclinic'
loop_
_space_group_symop_operation_xyz
x,y,z
-x,-y,-z
loop_
_atom_site_type_symbol
_atom_site_label
_atom_site_fract_x
_atom_site_fract_y
_atom_site_fract_z
Si Si1 0.000000 0.000000 0.000000
Si Si2 0.623777 0.970277 0.222540
Si Si3 0.594643 0.657873 0.229707
Si Si4 0.469817 0.229808 0.157881
Si Si5 0.892342 0.896827 0.426401
Si Si6 0.181104 0.807659 0.382775
Si Si7 0.034597 0.441340 0.301583
Si Si8 0.695663 0.547919 0.461736
O O1 0.162594 0.025540 0.950983
O O2 0.087599 0.104987 0.774216
O O3 0.587595 0.822049 0.209748
O O4 0.500000 0.000000 0.500000
O O5 0.558333 0.091707 0.163666
O O6 0.679299 0.617891 0.309993
O O7 0.395492 0.596497 0.440891
O O8 0.747436 0.581135 0.963690
O O9 0.263216 0.194824 0.337840
O O10 0.438311 0.356838 0.293298
O O11 0.609712 0.255688 0.874035
O O12 0.077801 0.848825 0.329520
O O13 0.822262 0.054766 0.529135
O O14 0.054135 0.702811 0.601037
O O15 0.000000 0.500000 0.500000
O O16 0.904725 0.533546 0.310626
#
# Coordination Sequence:
#
# PCOD9062510 Si02
#       8
#     1   2   2   2   2   2   2   2
#     4  12  22  42  68 100 138 182 222 288 346 410
#     4  12  24  43  73 110 139 175 235 292 358 406
#     4  11  26  48  74 105 139 186 240 296 348 419
#     4  12  24  45  71 103 141 183 228 293 348 419
#     4  11  24  41  67 100 140 179 230 287 353 406
#     4  11  26  43  64 103 140 183 231 284 348 422
#     4  12  27  47  71 101 144 194 238 285 350 428
#     4  11  26  48  73 103 141 188 238 291 352 417
#
# _framework density 24.361214
#
# number of rings (size 3 to 8) (size 9 to 14) (size 15 to 20)
#    0.000    0.533    4.000    3.200    3.733    4.267 
#    2.400    0.000    0.000    0.000    0.000    0.000 
#    0.000    0.000    0.000    0.000    0.000    0.000 
#
# Total GULP energy -83837.764494 kJ/mol
# GULP energy per Si atom -5589.184300 kJ/mol
# Density = 2.430577 g / cm^3
# Si number density = 24.361214 Si / 1000 Ang^3
#
#
#
# Elastic Constant Matrix: (Units=GPa)
#
#
# Indices 1 2 3 4 5 6 
#
# 1 100.5543 9.6942 -6.0559 6.3763 -9.0848 -3.9914
# 2 9.6942 71.1794 -16.2705 2.6097 -10.7199 9.4957
# 3 -6.0559 -16.2705 86.0986 6.1772 -12.4186 2.4311
# 4 6.3763 2.6097 6.1772 32.9671 2.2761 -0.0493
# 5 -9.0848 -10.7199 -12.4186 2.2761 38.4963 -12.1488
# 6 -3.9914 9.4957 2.4311 -0.0493 -12.1488 36.2185
#
#
#
# Elastic Compliance Matrix: (Units=1/GPa)
#
#
# Indices 1 2 3 4 5 6 
#
# 1 0.010687 -0.000882 0.001212 -0.002470 0.003614 0.002536
# 2 -0.000882 0.016274 0.003944 -0.002190 0.004768 -0.003032
# 3 0.001212 0.003944 0.013561 -0.003504 0.006031 0.000208
# 4 -0.002470 -0.002190 -0.003504 0.031951 -0.004506 -0.000931
# 5 0.003614 0.004768 0.006031 -0.004506 0.033519 0.009980
# 6 0.002536 -0.003032 0.000208 -0.000931 0.009980 0.032017
#
#
# Mechanical properties :
#
#
# Convention : Reuss Voigt Hill
#
# Bulk Modulus (GPa) = 20.37991 25.84090 23.11040
# Shear Modulus (GPa) = 34.28973 39.56735 36.92854
#
# Velocity S-wave (km/s) = 3.75581 4.03450 3.89765
# Velocity P-wave (km/s) = 5.21460 5.68624 5.45552
#
# Compressibility (1/GPa) = 0.04906794
#
# Stress axis : x y z
#
# Youngs Moduli (GPa) = 93.57437 61.44940 73.74327
#
# Poissons Ratio (x) = 0.05420 -0.08936
# Poissons Ratio (y) = 0.08254 -0.29083
# Poissons Ratio (z) = -0.11339 -0.24234
#
# Static dielectric constant tensor:
#      x y z
#    x 1.949820 -0.025490 -0.026040 
#    y -0.025490 1.915250 0.013330 
#    z -0.026040 0.013330 1.923980 
# 
# From -- ./inp_files/187584.got.cif
#   From: 2010.05.17/outbox.cif.g08.bks.cpg/sg2_94_cif.got.tgz:187584.got - 2010.06.03 11:33:40.
