data_PCOD9062188
_publ_section_title
;
Structure prediction by ZEFSAII (Michael W. Deem and Ramdas Pophale) SiO2 
 PCOD9062188
Probable space group: P -1
;
_chemical_formula_sum "Si O2"
_cell_formula_units_Z 15
_cell_length_a 14.099427
_cell_length_b 12.368982
_cell_length_c 11.318741
_cell_angle_alpha 88.928181
_cell_angle_beta 114.946570
_cell_angle_gamma 34.287364
_cell_volume 700.892452
_symmetry_space_group_name_H-M "P -1"
_symmetry_group_IT_number 2
_symmetry_cell_setting 'triclinic'
loop_
_space_group_symop_operation_xyz
x,y,z
-x,-y,-z
loop_
_atom_site_type_symbol
_atom_site_label
_atom_site_fract_x
_atom_site_fract_y
_atom_site_fract_z
Si Si1 0.174293 0.797049 0.483733
Si Si2 0.671614 0.005581 0.077881
Si Si3 0.745990 0.519587 0.527658
Si Si4 0.366314 0.464880 0.273783
Si Si5 0.700752 0.229268 0.048200
Si Si6 0.000000 0.000000 0.000000
Si Si7 0.691614 0.905873 0.822766
Si Si8 0.698690 0.668376 0.914862
O O1 0.261475 0.588756 0.541759
O O2 0.404456 0.664780 0.585219
O O3 0.000000 0.000000 0.500000
O O4 0.986636 0.977719 0.265546
O O5 0.947847 0.731237 0.301795
O O6 0.626653 0.176124 0.029399
O O7 0.426673 0.196503 0.024360
O O8 0.711262 0.916675 0.971857
O O9 0.672989 0.561026 0.623884
O O10 0.537830 0.802467 0.360136
O O11 0.096385 0.785206 0.093130
O O12 0.424902 0.323022 0.205217
O O13 0.500000 0.500000 0.000000
O O14 0.730207 0.240803 0.930758
O O15 0.631432 0.835244 0.794089
O O16 0.979459 0.648921 0.916862
#
# Coordination Sequence:
#
# PCOD9062188 Si02
#       8
#     2   2   2   2   2   1   2   2
#     4  11  24  41  62 101 139 177 227 279 342 425
#     4  11  23  48  68 102 141 178 235 295 343 418
#     4  11  25  45  70 103 141 182 234 287 349 422
#     4  12  24  42  68  97 141 180 224 285 345 415
#     4  11  24  39  65  99 134 181 225 270 343 413
#     4  12  22  40  66  90 136 186 210 276 342 398
#     4  11  26  48  74 101 137 187 236 295 355 406
#     4  11  25  49  72 102 138 184 239 290 353 416
#
# _framework density 21.401285999999999
#
# number of rings (size 3 to 8) (size 9 to 14) (size 15 to 20)
#    0.000    0.800    4.000    4.000    5.600    2.133 
#    2.400    0.000    0.000    0.000    0.000    0.000 
#    0.000    0.000    0.000    0.000    0.000    0.000 
#
# Total GULP energy -83653.584764 kJ/mol
# GULP energy per Si atom -5576.905651 kJ/mol
# Density = 2.135258 g / cm^3
# Si number density = 21.401286 Si / 1000 Ang^3
#
#
#
# Elastic Constant Matrix: (Units=GPa)
#
#
# Indices 1 2 3 4 5 6 
#
# 1 87.2160 30.1192 41.6368 -17.6306 -8.4963 -5.9924
# 2 30.1192 104.8024 31.2510 -24.0753 -0.1300 -13.2551
# 3 41.6368 31.2510 84.3272 -18.5040 -18.7455 11.3343
# 4 -17.6306 -24.0753 -18.5040 29.1185 10.3760 -2.9240
# 5 -8.4963 -0.1300 -18.7455 10.3760 24.4537 -5.3530
# 6 -5.9924 -13.2551 11.3343 -2.9240 -5.3530 52.4996
#
#
#
# Elastic Compliance Matrix: (Units=1/GPa)
#
#
# Indices 1 2 3 4 5 6 
#
# 1 0.016495 -0.000836 -0.007440 0.005463 -0.001545 0.003425
# 2 -0.000836 0.014403 -0.004695 0.011636 -0.007785 0.004409
# 3 -0.007440 -0.004695 0.020648 -0.000110 0.012113 -0.005263
# 4 0.005463 0.011636 -0.000110 0.054942 -0.020438 0.004561
# 5 -0.001545 -0.007785 0.012113 -0.020438 0.058283 0.000048
# 6 0.003425 0.004409 -0.005263 0.004561 0.000048 0.021947
#
#
# Mechanical properties :
#
#
# Convention : Reuss Voigt Hill
#
# Bulk Modulus (GPa) = 39.05489 53.59549 46.32519
# Shear Modulus (GPa) = 22.60463 32.77027 27.68745
#
# Velocity S-wave (km/s) = 3.25349 3.91734 3.60075
# Velocity P-wave (km/s) = 5.69228 6.74968 6.24341
#
# Compressibility (1/GPa) = 0.02560499
#
# Stress axis : x y z
#
# Youngs Moduli (GPa) = 60.62306 69.43080 48.43161
#
# Poissons Ratio (x) = 0.05804 0.36032
# Poissons Ratio (y) = 0.05068 0.22737
# Poissons Ratio (z) = 0.45102 0.32596
#
# Static dielectric constant tensor:
#      x y z
#    x 1.766710 -0.011260 0.023210 
#    y -0.011260 1.845710 0.044910 
#    z 0.023210 0.044910 1.761170 
# 
# From -- ./inp_files/428005.got.cif
#   From: 2010.05.17/outbox.cif.g08.bks.cpg/sg2_215_cif.got.tgz:428005.got - 2010.06.03 11:33:40.
