data_PCOD9062778
_publ_section_title
;
Structure prediction by ZEFSAII (Michael W. Deem and Ramdas Pophale) SiO2 
 PCOD9062778
Probable space group: P -1
;
_chemical_formula_sum "Si O2"
_cell_formula_units_Z 15
_cell_length_a 9.633806
_cell_length_b 15.529443
_cell_length_c 9.423985
_cell_angle_alpha 141.412479
_cell_angle_beta 120.587619
_cell_angle_gamma 68.355665
_cell_volume 755.907804
_symmetry_space_group_name_H-M "P -1"
_symmetry_group_IT_number 2
_symmetry_cell_setting 'triclinic'
loop_
_space_group_symop_operation_xyz
x,y,z
-x,-y,-z
loop_
_atom_site_type_symbol
_atom_site_label
_atom_site_fract_x
_atom_site_fract_y
_atom_site_fract_z
Si Si1 0.179224 0.067149 0.697988
Si Si2 0.810393 0.478796 0.387707
Si Si3 0.388275 0.823035 0.605895
Si Si4 0.279585 0.779490 0.812184
Si Si5 0.560795 0.861839 0.283399
Si Si6 0.241466 0.202379 0.196007
Si Si7 0.589503 0.361448 0.882384
Si Si8 0.000000 0.000000 0.000000
O O1 0.258170 0.122767 0.663702
O O2 0.297457 0.949711 0.656959
O O3 0.186064 0.175698 0.970068
O O4 0.000000 0.000000 0.500000
O O5 0.767592 0.377485 0.366355
O O6 0.745419 0.632590 0.558195
O O7 0.000000 0.500000 0.500000
O O8 0.739071 0.394179 0.106450
O O9 0.316442 0.787541 0.675849
O O10 0.580105 0.852497 0.759617
O O11 0.362748 0.699736 0.321244
O O12 0.141433 0.884553 0.912309
O O13 0.441371 0.822980 0.040843
O O14 0.532525 0.747585 0.241997
O O15 0.500000 0.000000 0.500000
O O16 0.118093 0.115257 0.120844
O O17 0.500000 0.500000 0.000000
#
# Coordination Sequence:
#
# PCOD9062778 Si02
#       8
#     2   2   2   2   2   2   2   1
#     4  12  27  42  67 108 140 173 230 299 345 398
#     4  11  25  46  70 102 140 183 227 286 348 414
#     4  12  24  47  71 102 141 180 235 288 343 417
#     4  11  25  44  71 102 139 186 234 281 349 418
#     4  11  24  42  70  97 138 182 227 275 345 408
#     4  12  25  44  74  96 141 184 232 282 352 414
#     4  11  25  44  72 102 136 182 231 283 340 419
#     4  12  24  38  70 102 128 180 236 278 338 408
#
# _framework density 19.843689000000001
#
# number of rings (size 3 to 8) (size 9 to 14) (size 15 to 20)
#    0.000    0.533    6.667    1.200    3.733    1.600 
#    2.400    0.667    0.000    0.000    0.000    0.000 
#    0.000    0.000    0.000    0.000    0.000    0.000 
#
# Total GULP energy -83627.172239 kJ/mol
# GULP energy per Si atom -5575.144816 kJ/mol
# Density = 1.979852 g / cm^3
# Si number density = 19.843689 Si / 1000 Ang^3
#
#
#
# Elastic Constant Matrix: (Units=GPa)
#
#
# Indices 1 2 3 4 5 6 
#
# 1 142.1486 34.0719 27.1751 5.0232 20.6999 8.5655
# 2 34.0719 92.3645 14.0075 29.0730 0.0065 9.8489
# 3 27.1751 14.0075 82.0230 8.7545 -1.4235 12.1349
# 4 5.0232 29.0730 8.7545 39.5579 1.1068 4.7699
# 5 20.6999 0.0065 -1.4235 1.1068 29.1444 4.0255
# 6 8.5655 9.8489 12.1349 4.7699 4.0255 27.4521
#
#
#
# Elastic Compliance Matrix: (Units=1/GPa)
#
#
# Indices 1 2 3 4 5 6 
#
# 1 0.009414 -0.003827 -0.002891 0.002414 -0.006962 0.000315
# 2 -0.003827 0.016029 0.000258 -0.011057 0.003600 -0.003277
# 3 -0.002891 0.000258 0.014253 -0.002403 0.003614 -0.005604
# 4 0.002414 -0.011057 -0.002403 0.033855 -0.002953 -0.001174
# 5 -0.006962 0.003600 0.003614 -0.002953 0.040391 -0.006127
# 6 0.000315 -0.003277 -0.005604 -0.001174 -0.006127 0.041084
#
#
# Mechanical properties :
#
#
# Convention : Reuss Voigt Hill
#
# Bulk Modulus (GPa) = 37.34495 51.89391 44.61943
# Shear Modulus (GPa) = 28.26900 35.31633 31.79266
#
# Velocity S-wave (km/s) = 3.77846 4.22326 4.00704
# Velocity P-wave (km/s) = 6.15598 7.07031 6.62893
#
# Compressibility (1/GPa) = 0.02677738
#
# Stress axis : x y z
#
# Youngs Moduli (GPa) = 106.21986 62.38703 70.15825
#
# Poissons Ratio (x) = 0.23878 0.20279
# Poissons Ratio (y) = 0.40655 -0.01811
# Poissons Ratio (z) = 0.30703 -0.01611
#
# Static dielectric constant tensor:
#      x y z
#    x 1.683830 0.012820 -0.002240 
#    y 0.012820 1.723830 -0.009830 
#    z -0.002240 -0.009830 1.735960 
# 
# From -- ./inp_files/177446.got.cif
#   From: 2010.05.17/outbox.cif.g08.bks.cpg/sg2_89_cif.got.tgz:177446.got - 2010.06.03 11:33:40.
