data_PCOD9062472
_publ_section_title
;
Structure prediction by ZEFSAII (Michael W. Deem and Ramdas Pophale) SiO2 
 PCOD9062472
Probable space group: P -1
;
_chemical_formula_sum "Si O2"
_cell_formula_units_Z 16
_cell_length_a 12.684399
_cell_length_b 15.670869
_cell_length_c 15.100480
_cell_angle_alpha 137.621519
_cell_angle_beta 150.680163
_cell_angle_gamma 63.202134
_cell_volume 803.171181
_symmetry_space_group_name_H-M "P -1"
_symmetry_group_IT_number 2
_symmetry_cell_setting 'triclinic'
loop_
_space_group_symop_operation_xyz
x,y,z
-x,-y,-z
loop_
_atom_site_type_symbol
_atom_site_label
_atom_site_fract_x
_atom_site_fract_y
_atom_site_fract_z
Si Si1 0.048783 0.477519 0.698844
Si Si2 0.666450 0.084361 0.597948
Si Si3 0.572024 0.775062 0.241367
Si Si4 0.508744 0.591016 0.710179
Si Si5 0.740249 0.732667 0.807008
Si Si6 0.909884 0.709540 0.566634
Si Si7 0.229698 0.033537 0.127439
Si Si8 0.612918 0.587591 0.975969
O O1 0.003799 0.370207 0.498913
O O2 0.774028 0.442037 0.500924
O O3 0.271496 0.654336 0.964944
O O4 0.189663 0.440620 0.850082
O O5 0.503375 0.126505 0.452480
O O6 0.500000 0.000000 0.500000
O O7 0.668729 0.951175 0.446586
O O8 0.964610 0.224452 0.944995
O O9 0.754836 0.760518 0.433301
O O10 0.596473 0.707694 0.116029
O O11 0.649126 0.712713 0.826188
O O12 0.452836 0.430777 0.509852
O O13 0.672821 0.638090 0.957204
O O14 0.754550 0.868291 0.868717
O O15 0.683306 0.575571 0.362063
O O16 0.144785 0.863502 0.905138
O O17 0.000000 0.000000 0.000000
#
# Coordination Sequence:
#
# PCOD9062472 Si02
#       8
#     2   2   2   2   2   2   2   2
#     4   9  20  36  62  93 120 155 197 248 298 341
#     4  12  23  38  63  89 122 154 192 248 308 348
#     4   9  18  36  61  94 126 147 196 257 292 348
#     4  11  24  41  64  80 122 163 205 236 291 368
#     4  11  26  44  56  91 120 157 201 248 289 361
#     4   9  18  36  61  94 126 147 196 257 292 348
#     4  12  23  38  63  89 122 154 192 248 308 348
#     4   9  20  36  62  93 120 155 197 248 298 341
#
# _framework density 19.921033999999999
#
# number of rings (size 3 to 8) (size 9 to 14) (size 15 to 20)
#    0.000    1.750    2.500    3.000    3.500    5.000 
#    0.000    3.750    0.000    0.000    0.000    0.000 
#    0.000    0.000    0.000    0.000    0.000    0.000 
#
# Total GULP energy -89443.258873 kJ/mol
# GULP energy per Si atom -5590.203680 kJ/mol
# Density = 1.987569 g / cm^3
# Si number density = 19.921034 Si / 1000 Ang^3
#
#
#
# Elastic Constant Matrix: (Units=GPa)
#
#
# Indices 1 2 3 4 5 6 
#
# 1 88.2074 29.3844 3.9450 -2.1394 -3.4057 28.3203
# 2 29.3844 66.1260 6.7187 -0.2310 -4.1278 17.8656
# 3 3.9450 6.7187 42.0394 -4.6316 -8.7105 11.6744
# 4 -2.1394 -0.2310 -4.6316 29.5698 -0.6701 -2.4245
# 5 -3.4057 -4.1278 -8.7105 -0.6701 22.4109 -4.7169
# 6 28.3203 17.8656 11.6744 -2.4245 -4.7169 29.4942
#
#
#
# Elastic Compliance Matrix: (Units=1/GPa)
#
#
# Indices 1 2 3 4 5 6 
#
# 1 0.017572 -0.003876 0.003415 0.000476 -0.000037 -0.015844
# 2 -0.003876 0.018980 -0.000443 -0.000789 0.001136 -0.007483
# 3 0.003415 -0.000443 0.029480 0.004018 0.009309 -0.012861
# 4 0.000476 -0.000789 0.004018 0.034684 0.002893 0.001744
# 5 -0.000037 0.001136 0.009309 0.002893 0.049327 0.003789
# 6 -0.015844 -0.007483 -0.012861 0.001744 0.003789 0.059491
#
#
# Mechanical properties :
#
#
# Convention : Reuss Voigt Hill
#
# Bulk Modulus (GPa) = 15.57027 30.71880 23.14454
# Shear Modulus (GPa) = 21.48226 26.71663 24.09945
#
# Velocity S-wave (km/s) = 3.28742 3.66611 3.48192
# Velocity P-wave (km/s) = 4.71619 5.77705 5.27336
#
# Compressibility (1/GPa) = 0.06422497
#
# Stress axis : x y z
#
# Youngs Moduli (GPa) = 56.90785 52.68760 33.92088
#
# Poissons Ratio (x) = 0.20420 -0.11584
# Poissons Ratio (y) = 0.22055 0.01503
# Poissons Ratio (z) = -0.19434 0.02335
#
# Static dielectric constant tensor:
#      x y z
#    x 1.687350 -0.004380 -0.025670 
#    y -0.004380 1.709500 -0.017430 
#    z -0.025670 -0.017430 1.703740 
# 
# From -- ./inp_files/304925.got.cif
#   From: 2010.05.17/outbox.cif.g08.bks.cpg/sg2_153_cif.got.tgz:304925.got - 2010.06.03 11:33:40.
