data_PCOD9062869
_publ_section_title
;
Structure prediction by ZEFSAII (Michael W. Deem and Ramdas Pophale) SiO2 
 PCOD9062869
Probable space group: P -1
;
_chemical_formula_sum "Si O2"
_cell_formula_units_Z 14
_cell_length_a 8.013790
_cell_length_b 13.982170
_cell_length_c 8.911351
_cell_angle_alpha 59.577775
_cell_angle_beta 45.149298
_cell_angle_gamma 85.660195
_cell_volume 541.891679
_symmetry_space_group_name_H-M "P -1"
_symmetry_group_IT_number 2
_symmetry_cell_setting 'triclinic'
loop_
_space_group_symop_operation_xyz
x,y,z
-x,-y,-z
loop_
_atom_site_type_symbol
_atom_site_label
_atom_site_fract_x
_atom_site_fract_y
_atom_site_fract_z
Si Si1 0.494280 0.557326 0.797089
Si Si2 0.500000 0.500000 0.500000
Si Si3 0.500000 0.000000 0.000000
Si Si4 0.537223 0.745717 0.156060
Si Si5 0.892928 0.248573 0.759433
Si Si6 0.328099 0.752229 0.778626
Si Si7 0.905908 0.121993 0.380650
Si Si8 0.940724 0.944347 0.246674
O O1 0.439727 0.485834 0.731034
O O2 0.285995 0.612438 0.904301
O O3 0.800675 0.659741 0.503635
O O4 0.500000 0.500000 0.000000
O O5 0.536438 0.646989 0.356528
O O6 0.538398 0.870584 0.123318
O O7 0.292658 0.970034 0.300412
O O8 0.265545 0.692223 0.276057
O O9 0.785460 0.791185 0.845767
O O10 0.854772 0.117137 0.809657
O O11 0.789293 0.223563 0.013444
O O12 0.202083 0.788610 0.692010
O O13 0.641332 0.836250 0.519379
O O14 0.924940 0.039417 0.297948
O O15 0.000000 0.000000 0.000000
#
# Coordination Sequence:
#
# PCOD9062869 Si02
#       8
#     2   1   1   2   2   2   2   2
#     4  11  27  51  81 113 153 210 273 333 404 481
#     4  12  28  52  80 116 164 208 270 336 400 484
#     4  12  28  48  72 114 162 202 264 328 396 474
#     4  12  28  48  77 114 163 213 262 336 407 481
#     4  11  25  49  76 113 159 205 265 333 403 485
#     4  11  24  45  76 109 146 207 264 328 402 474
#     4  12  26  45  74 114 156 209 265 331 406 484
#     4  11  24  42  76 109 151 201 265 325 399 475
#
# _framework density 25.835422999999999
#
# number of rings (size 3 to 8) (size 9 to 14) (size 15 to 20)
#    0.000    0.571    1.429    5.143    6.000    8.000 
#    0.000    5.714    0.000    0.000    0.000    0.000 
#    0.000    0.000    0.000    0.000    0.000    0.000 
#
# Total GULP energy -78020.476091 kJ/mol
# GULP energy per Si atom -5572.891149 kJ/mol
# Density = 2.577662 g / cm^3
# Si number density = 25.835423 Si / 1000 Ang^3
#
#
#
# Elastic Constant Matrix: (Units=GPa)
#
#
# Indices 1 2 3 4 5 6 
#
# 1 103.9459 53.4230 41.3293 9.2624 23.8974 -35.5415
# 2 53.4230 147.3700 57.6226 14.5937 27.2137 -17.0385
# 3 41.3293 57.6226 173.7493 25.3388 26.8015 -14.8412
# 4 9.2624 14.5937 25.3388 42.2456 5.2810 14.1385
# 5 23.8974 27.2137 26.8015 5.2810 54.9356 6.1803
# 6 -35.5415 -17.0385 -14.8412 14.1385 6.1803 50.7720
#
#
#
# Elastic Compliance Matrix: (Units=1/GPa)
#
#
# Indices 1 2 3 4 5 6 
#
# 1 0.018640 -0.002908 0.000046 -0.007175 -0.007691 0.015020
# 2 -0.002908 0.009275 -0.001620 -0.001746 -0.002528 0.001397
# 3 0.000046 -0.001620 0.007740 -0.004889 -0.002914 0.003468
# 4 -0.007175 -0.001746 -0.004889 0.033868 0.005038 -0.017083
# 5 -0.007691 -0.002528 -0.002914 0.005038 0.025036 -0.011534
# 6 0.015020 0.001397 0.003468 -0.017083 -0.011534 0.037854
#
#
# Mechanical properties :
#
#
# Convention : Reuss Voigt Hill
#
# Bulk Modulus (GPa) = 37.46533 81.09055 59.27794
# Shear Modulus (GPa) = 33.27287 47.77000 40.52144
#
# Velocity S-wave (km/s) = 3.59259 4.30468 3.96466
# Velocity P-wave (km/s) = 5.63400 7.49416 6.62965
#
# Compressibility (1/GPa) = 0.02669134
#
# Stress axis : x y z
#
# Youngs Moduli (GPa) = 53.64907 107.82098 129.19154
#
# Poissons Ratio (x) = 0.31353 -0.00598
# Poissons Ratio (y) = 0.15600 0.20931
# Poissons Ratio (z) = -0.00248 0.17469
#
# Static dielectric constant tensor:
#      x y z
#    x 2.139580 -0.020160 -0.039190 
#    y -0.020160 2.025200 0.028420 
#    z -0.039190 0.028420 1.905620 
# 
# From -- ./inp_files/205807.got.cif
#   From: 2010.05.17/outbox.cif.g08.bks.cpg/sg2_103_cif.got.tgz:205807.got - 2010.06.03 11:33:40.
