data_PCOD9062183
_publ_section_title
;
Structure prediction by ZEFSAII (Michael W. Deem and Ramdas Pophale) SiO2 
 PCOD9062183
Probable space group: P -1
;
_chemical_formula_sum "Si O2"
_cell_formula_units_Z 16
_cell_length_a 21.402682
_cell_length_b 13.949007
_cell_length_c 16.490811
_cell_angle_alpha 149.498050
_cell_angle_beta 157.845641
_cell_angle_gamma 22.378747
_cell_volume 706.388319
_symmetry_space_group_name_H-M "P -1"
_symmetry_group_IT_number 2
_symmetry_cell_setting 'triclinic'
loop_
_space_group_symop_operation_xyz
x,y,z
-x,-y,-z
loop_
_atom_site_type_symbol
_atom_site_label
_atom_site_fract_x
_atom_site_fract_y
_atom_site_fract_z
Si Si1 0.164738 0.632171 0.588586
Si Si2 0.781763 0.360032 0.156100
Si Si3 0.961642 0.900346 0.299197
Si Si4 0.413696 0.547383 0.523228
Si Si5 0.273039 0.970374 0.393353
Si Si6 0.508466 0.900248 0.148176
Si Si7 0.688599 0.945356 0.238677
Si Si8 0.413025 0.853240 0.302874
O O1 0.229555 0.554506 0.703341
O O2 0.357410 0.430282 0.612775
O O3 0.939146 0.695782 0.342351
O O4 0.108982 0.893710 0.703606
O O5 0.627105 0.610010 0.096389
O O6 0.703811 0.199681 0.940572
O O7 0.033642 0.183888 0.300086
O O8 0.181209 0.628230 0.331840
O O9 0.000000 0.000000 0.500000
O O10 0.741567 0.938333 0.065908
O O11 0.500000 0.500000 0.500000
O O12 0.611512 0.305428 0.634615
O O13 0.343210 0.814244 0.648233
O O14 0.255732 0.972564 0.278003
O O15 0.444359 0.009647 0.649994
O O16 0.635839 0.929324 0.255478
O O17 0.500000 0.000000 0.000000
O O18 0.500000 0.000000 0.500000
#
# Coordination Sequence:
#
# PCOD9062183 Si02
#       8
#     2   2   2   2   2   2   2   2
#     4  11  23  48  68 100 139 190 232 292 343 426
#     4  12  26  48  74  99 145 192 233 285 360 428
#     4  11  24  44  75  98 138 192 240 288 344 418
#     4  11  23  48  66 102 145 179 234 291 358 401
#     4  12  26  46  70 108 146 183 226 303 359 419
#     4  12  24  45  75 104 138 191 241 281 351 435
#     4  11  25  43  75 101 136 190 245 281 342 429
#     4  12  28  43  68 108 140 179 236 293 358 413
#
# _framework density 22.650431000000001
#
# number of rings (size 3 to 8) (size 9 to 14) (size 15 to 20)
#    0.000    0.500    3.750    4.875    5.250    1.500 
#    2.250    0.000    0.000    0.000    0.000    0.000 
#    0.000    0.000    0.000    0.000    0.000    0.000 
#
# Total GULP energy -89269.061617 kJ/mol
# GULP energy per Si atom -5579.316351 kJ/mol
# Density = 2.259888 g / cm^3
# Si number density = 22.650431 Si / 1000 Ang^3
#
#
#
# Elastic Constant Matrix: (Units=GPa)
#
#
# Indices 1 2 3 4 5 6 
#
# 1 70.5263 13.5956 7.2957 -12.5437 5.4140 -5.4241
# 2 13.5956 72.8620 19.2805 -6.6422 6.1786 3.8041
# 3 7.2957 19.2805 128.9786 -11.4079 9.1235 -12.7867
# 4 -12.5437 -6.6422 -11.4079 32.5155 -4.4493 12.9553
# 5 5.4140 6.1786 9.1235 -4.4493 34.1509 -6.5615
# 6 -5.4241 3.8041 -12.7867 12.9553 -6.5615 43.6577
#
#
#
# Elastic Compliance Matrix: (Units=1/GPa)
#
#
# Indices 1 2 3 4 5 6 
#
# 1 0.015697 -0.002379 0.000066 0.005245 -0.001311 0.000424
# 2 -0.002379 0.015308 -0.002110 0.002495 -0.002140 -0.003309
# 3 0.000066 -0.002110 0.008498 0.001596 -0.001305 0.002011
# 4 0.005245 0.002495 0.001596 0.038091 0.001292 -0.010208
# 5 -0.001311 -0.002140 -0.001305 0.001292 0.031151 0.003940
# 6 0.000424 -0.003309 0.002011 -0.010208 0.003940 0.027457
#
#
# Mechanical properties :
#
#
# Convention : Reuss Voigt Hill
#
# Bulk Modulus (GPa) = 32.61850 39.19003 35.90427
# Shear Modulus (GPa) = 32.20268 37.54450 34.87359
#
# Velocity S-wave (km/s) = 3.77467 4.07573 3.92809
# Velocity P-wave (km/s) = 5.78183 6.28399 6.03813
#
# Compressibility (1/GPa) = 0.03065745
#
# Stress axis : x y z
#
# Youngs Moduli (GPa) = 63.70674 65.32319 117.67872
#
# Poissons Ratio (x) = 0.15543 -0.00781
# Poissons Ratio (y) = 0.15158 0.24829
# Poissons Ratio (z) = -0.00423 0.13782
#
# Static dielectric constant tensor:
#      x y z
#    x 1.842820 -0.024460 -0.034620 
#    y -0.024460 1.829990 -0.019760 
#    z -0.034620 -0.019760 2.043640 
# 
# From -- ./inp_files/274875.got.cif
#   From: 2010.05.17/outbox.cif.g08.bks.cpg/sg2_138_cif.got.tgz:274875.got - 2010.06.03 11:33:40.
