data_PCOD9062545
_publ_section_title
;
Structure prediction by ZEFSAII (Michael W. Deem and Ramdas Pophale) SiO2 
 PCOD9062545
Probable space group: P -1
;
_chemical_formula_sum "Si O2"
_cell_formula_units_Z 10
_cell_length_a 12.996616
_cell_length_b 9.343336
_cell_length_c 8.695707
_cell_angle_alpha 114.966733
_cell_angle_beta 130.319208
_cell_angle_gamma 31.955198
_cell_volume 404.485168
_symmetry_space_group_name_H-M "P -1"
_symmetry_group_IT_number 2
_symmetry_cell_setting 'triclinic'
loop_
_space_group_symop_operation_xyz
x,y,z
-x,-y,-z
loop_
_atom_site_type_symbol
_atom_site_label
_atom_site_fract_x
_atom_site_fract_y
_atom_site_fract_z
Si Si1 0.743430 0.259310 0.522637
Si Si2 0.442800 0.236731 0.482271
Si Si3 0.693131 0.832639 0.972704
Si Si4 0.280745 0.825345 0.869830
Si Si5 0.118300 0.335726 0.381260
O O1 0.500000 0.500000 0.500000
O O2 0.707819 0.460798 0.495719
O O3 0.720008 0.163629 0.313794
O O4 0.016925 0.005173 0.739688
O O5 0.349247 0.223252 0.527407
O O6 0.735970 0.971074 0.628404
O O7 0.358416 0.247264 0.242721
O O8 0.942822 0.541116 0.164996
O O9 0.701203 0.005298 0.995655
O O10 0.500000 0.000000 0.000000
O O11 0.500000 0.500000 0.000000
O O12 0.000000 0.500000 0.500000
#
# Coordination Sequence:
#
# PCOD9062545 Si02
#       5
#     2   2   2   2   2
#     4  11  26  47  70  99 143 186 231 283 352 418
#     4  11  25  42  72 100 136 178 231 285 342 406
#     4  12  24  44  71 105 137 178 232 288 342 410
#     4  11  28  46  70 100 147 185 229 288 351 413
#     4  11  24  41  69 102 136 173 227 286 346 399
#
# _framework density 24.722784000000001
#
# number of rings (size 3 to 8) (size 9 to 14) (size 15 to 20)
#    0.000    0.800    4.000    1.800    5.600    2.400 
#    0.000    0.000    0.000    0.000    0.000    0.000 
#    0.000    0.000    0.000    0.000    0.000    0.000 
#
# Total GULP energy -55813.200803 kJ/mol
# GULP energy per Si atom -5581.320080 kJ/mol
# Density = 2.466651 g / cm^3
# Si number density = 24.722784 Si / 1000 Ang^3
#
#
#
# Elastic Constant Matrix: (Units=GPa)
#
#
# Indices 1 2 3 4 5 6 
#
# 1 86.3583 14.2636 14.5124 -3.0926 8.5043 -41.1490
# 2 14.2636 124.2933 39.4457 -38.1632 13.3160 -16.0900
# 3 14.5124 39.4457 124.0143 -26.8360 11.7317 0.1643
# 4 -3.0926 -38.1632 -26.8360 67.9801 -6.2455 -0.3976
# 5 8.5043 13.3160 11.7317 -6.2455 26.5668 0.0370
# 6 -41.1490 -16.0900 0.1643 -0.3976 0.0370 55.1902
#
#
#
# Elastic Compliance Matrix: (Units=1/GPa)
#
#
# Indices 1 2 3 4 5 6 
#
# 1 0.019347 0.001008 -0.002013 0.000207 -0.005782 0.014730
# 2 0.001008 0.011117 -0.002203 0.005098 -0.003729 0.004038
# 3 -0.002013 -0.002203 0.009689 0.002301 -0.001986 -0.002154
# 4 0.000207 0.005098 0.002301 0.018567 0.000725 0.001767
# 5 -0.005782 -0.003729 -0.001986 0.000725 0.042416 -0.005415
# 6 0.014730 0.004038 -0.002154 0.001767 -0.005415 0.030302
#
#
# Mechanical properties :
#
#
# Convention : Reuss Voigt Hill
#
# Bulk Modulus (GPa) = 29.64145 52.34550 40.99347
# Shear Modulus (GPa) = 33.53523 47.71034 40.62279
#
# Velocity S-wave (km/s) = 3.68700 4.39773 4.05795
# Velocity P-wave (km/s) = 5.49007 6.85607 6.21074
#
# Compressibility (1/GPa) = 0.03373654
#
# Stress axis : x y z
#
# Youngs Moduli (GPa) = 51.68818 89.95616 103.21415
#
# Poissons Ratio (x) = -0.09069 0.20772
# Poissons Ratio (y) = -0.05211 0.22741
# Poissons Ratio (z) = 0.10402 0.19820
#
# Static dielectric constant tensor:
#      x y z
#    x 2.593050 1.294920 0.011830 
#    y 1.294920 5.039900 -0.150550 
#    z 0.011830 -0.150550 1.961910 
# 
# From -- ./inp_files/143937.got.cif
#   From: 2010.05.17/outbox.cif.g08.bks.cpg/sg2_72_cif.got.tgz:143937.got - 2010.06.03 11:33:40.
