data_PCOD9062324
_publ_section_title
;
Structure prediction by ZEFSAII (Michael W. Deem and Ramdas Pophale) SiO2 
 PCOD9062324
Probable space group: P -1
;
_chemical_formula_sum "Si O2"
_cell_formula_units_Z 10
_cell_length_a 16.442490
_cell_length_b 4.908524
_cell_length_c 7.446638
_cell_angle_alpha 109.833343
_cell_angle_beta 38.065400
_cell_angle_gamma 111.876996
_cell_volume 342.761856
_symmetry_space_group_name_H-M "P -1"
_symmetry_group_IT_number 2
_symmetry_cell_setting 'triclinic'
loop_
_space_group_symop_operation_xyz
x,y,z
-x,-y,-z
loop_
_atom_site_type_symbol
_atom_site_label
_atom_site_fract_x
_atom_site_fract_y
_atom_site_fract_z
Si Si1 0.286359 0.495777 0.038048
Si Si2 0.278625 0.891747 0.789478
Si Si3 0.559522 0.783511 0.718880
Si Si4 0.150434 0.355735 0.718261
Si Si5 0.946491 0.250047 0.385276
O O1 0.199493 0.653558 0.359380
O O2 0.297041 0.680426 0.875099
O O3 0.436804 0.511528 0.851125
O O4 0.220602 0.161845 0.035233
O O5 0.183989 0.710773 0.763603
O O6 0.406545 0.053802 0.493607
O O7 0.698331 0.704983 0.527967
O O8 0.500000 0.000000 0.000000
O O9 0.088410 0.108605 0.623683
O O10 0.049041 0.300337 0.052803
O O11 0.000000 0.500000 0.500000
#
# Coordination Sequence:
#
# PCOD9062324 Si02
#       5
#     2   2   2   2   2
#     4  12  27  48  82 112 157 202 255 314 390 454
#     4  12  26  49  77 119 152 201 258 318 379 465
#     4  12  26  48  75 115 155 202 257 319 382 455
#     4  11  26  48  78 114 154 200 264 314 379 464
#     4  11  23  52  77 113 153 207 252 321 386 457
#
# _framework density 29.174776999999999
#
# number of rings (size 3 to 8) (size 9 to 14) (size 15 to 20)
#    0.000    0.400    6.000    1.200    2.800    3.200 
#    3.600    5.000    0.000    0.000    0.000    0.000 
#    0.000    0.000    0.000    0.000    0.000    0.000 
#
# Total GULP energy -55992.140887 kJ/mol
# GULP energy per Si atom -5599.214089 kJ/mol
# Density = 2.910837 g / cm^3
# Si number density = 29.174777 Si / 1000 Ang^3
#
#
#
# Elastic Constant Matrix: (Units=GPa)
#
#
# Indices 1 2 3 4 5 6 
#
# 1 113.4066 48.5682 49.2768 11.6470 -15.4497 33.7288
# 2 48.5682 216.5364 46.9501 45.2826 3.3768 55.2678
# 3 49.2768 46.9501 219.7287 38.4069 -0.8467 24.3408
# 4 11.6470 45.2826 38.4069 60.4766 12.8905 2.0373
# 5 -15.4497 3.3768 -0.8467 12.8905 62.6930 9.2945
# 6 33.7288 55.2678 24.3408 2.0373 9.2945 58.3337
#
#
#
# Elastic Compliance Matrix: (Units=1/GPa)
#
#
# Indices 1 2 3 4 5 6 
#
# 1 0.012524 -0.000409 -0.001636 -0.001789 0.004465 -0.006820
# 2 -0.000409 0.007748 0.000313 -0.006062 0.001817 -0.007312
# 3 -0.001636 0.000313 0.005671 -0.003602 0.000648 -0.001694
# 4 -0.001789 -0.006062 -0.003602 0.024811 -0.006517 0.008452
# 5 0.004465 0.001817 0.000648 -0.006517 0.019405 -0.007438
# 6 -0.006820 -0.007312 -0.001694 0.008452 -0.007438 0.029611
#
#
# Mechanical properties :
#
#
# Convention : Reuss Voigt Hill
#
# Bulk Modulus (GPa) = 44.48684 93.25134 68.86909
# Shear Modulus (GPa) = 45.15609 63.29243 54.22426
#
# Velocity S-wave (km/s) = 3.93845 4.66276 4.31583
# Velocity P-wave (km/s) = 5.99694 7.81158 6.96363
#
# Compressibility (1/GPa) = 0.02247856
#
# Stress axis : x y z
#
# Youngs Moduli (GPa) = 79.84396 129.06803 176.34128
#
# Poissons Ratio (x) = 0.05282 0.28848
# Poissons Ratio (y) = 0.03268 -0.05518
# Poissons Ratio (z) = 0.13062 -0.04039
#
# Static dielectric constant tensor:
#      x y z
#    x 2.479830 -0.061710 0.003230 
#    y -0.061710 2.284740 -0.048060 
#    z 0.003230 -0.048060 2.203390 
# 
# From -- ./inp_files/339138.got.cif
#   From: 2010.05.17/outbox.cif.g08.bks.cpg/sg2_170_cif.got.tgz:339138.got - 2010.06.03 11:33:40.
