data_PCOD9062795
_publ_section_title
;
Structure prediction by ZEFSAII (Michael W. Deem and Ramdas Pophale) SiO2 
 PCOD9062795
Probable space group: P -1
;
_chemical_formula_sum "Si O2"
_cell_formula_units_Z 16
_cell_length_a 14.766644
_cell_length_b 15.632115
_cell_length_c 12.955798
_cell_angle_alpha 143.657584
_cell_angle_beta 55.377214
_cell_angle_gamma 151.204080
_cell_volume 747.777200
_symmetry_space_group_name_H-M "P -1"
_symmetry_group_IT_number 2
_symmetry_cell_setting 'triclinic'
loop_
_space_group_symop_operation_xyz
x,y,z
-x,-y,-z
loop_
_atom_site_type_symbol
_atom_site_label
_atom_site_fract_x
_atom_site_fract_y
_atom_site_fract_z
Si Si1 0.167613 0.097934 0.054548
Si Si2 0.651542 0.570555 0.543376
Si Si3 0.684502 0.973380 0.617954
Si Si4 0.897185 0.735527 0.353828
Si Si5 0.682124 0.314367 0.725962
Si Si6 0.421797 0.813151 0.098302
Si Si7 0.521859 0.405364 0.803634
Si Si8 0.906563 0.314670 0.280908
O O1 0.193645 0.164808 0.222753
O O2 0.390003 0.396492 0.151868
O O3 0.134525 0.894344 0.860662
O O4 0.000000 0.000000 0.000000
O O5 0.500000 0.500000 0.500000
O O6 0.810775 0.664386 0.455950
O O7 0.496606 0.297884 0.450974
O O8 0.673469 0.132874 0.792597
O O9 0.913984 0.167374 0.685787
O O10 0.647379 0.880523 0.431727
O O11 0.692466 0.437205 0.138611
O O12 0.000000 0.000000 0.500000
O O13 0.618504 0.281154 0.850101
O O14 0.673734 0.450524 0.795570
O O15 0.910367 0.493195 0.737578
O O16 0.500000 0.000000 0.500000
O O17 0.675393 0.113504 0.202894
O O18 0.500000 0.500000 0.000000
O O19 0.000000 0.500000 0.500000
#
# Coordination Sequence:
#
# PCOD9062795 Si02
#       8
#     2   2   2   2   2   2   2   2
#     4  11  25  43  71 108 145 187 243 302 363 432
#     4  11  25  48  73 106 148 188 249 303 367 435
#     4  11  26  49  72 103 148 190 247 301 355 444
#     4  12  28  47  78 104 138 198 248 300 362 433
#     4  12  24  46  71 109 150 187 232 301 366 433
#     4  12  28  48  72 108 147 191 249 295 368 439
#     4  11  24  42  71 107 147 185 240 296 361 435
#     4  12  25  43  73 104 150 192 232 299 372 435
#
# _framework density 21.396747000000001
#
# number of rings (size 3 to 8) (size 9 to 14) (size 15 to 20)
#    0.000    0.500    5.000    1.875    8.750    2.500 
#    0.000    0.000    0.000    0.000    0.000    0.000 
#    0.000    0.000    0.000    0.000    0.000    0.000 
#
# Total GULP energy -89305.964034 kJ/mol
# GULP energy per Si atom -5581.622752 kJ/mol
# Density = 2.134805 g / cm^3
# Si number density = 21.396747 Si / 1000 Ang^3
#
#
#
# Elastic Constant Matrix: (Units=GPa)
#
#
# Indices 1 2 3 4 5 6 
#
# 1 89.5528 16.1742 36.5244 3.0860 -9.1268 12.7844
# 2 16.1742 112.0765 36.2529 -5.1347 0.5384 14.4682
# 3 36.5244 36.2529 169.0556 -13.9788 -2.8485 -2.8656
# 4 3.0860 -5.1347 -13.9788 35.7424 -3.3400 4.8161
# 5 -9.1268 0.5384 -2.8485 -3.3400 35.7834 0.9848
# 6 12.7844 14.4682 -2.8656 4.8161 0.9848 41.0057
#
#
#
# Elastic Compliance Matrix: (Units=1/GPa)
#
#
# Indices 1 2 3 4 5 6 
#
# 1 0.013418 -0.000548 -0.002924 -0.001534 0.003167 -0.004090
# 2 -0.000548 0.010194 -0.002036 0.001192 -0.000242 -0.003702
# 3 -0.002924 -0.002036 0.007226 0.002543 0.000047 0.001835
# 4 -0.001534 0.001192 0.002543 0.029978 0.002684 -0.003350
# 5 0.003167 -0.000242 0.000047 0.002684 0.029064 -0.001912
# 6 -0.004090 -0.003702 0.001835 -0.003350 -0.001912 0.027536
#
#
# Mechanical properties :
#
#
# Convention : Reuss Voigt Hill
#
# Bulk Modulus (GPa) = 50.45105 60.95423 55.70264
# Shear Modulus (GPa) = 37.02634 41.28852 39.15743
#
# Velocity S-wave (km/s) = 4.16440 4.39756 4.28257
# Velocity P-wave (km/s) = 6.83762 7.37117 7.10940
#
# Compressibility (1/GPa) = 0.01982119
#
# Stress axis : x y z
#
# Youngs Moduli (GPa) = 74.52816 98.09880 138.39396
#
# Poissons Ratio (x) = 0.05376 0.40469
# Poissons Ratio (y) = 0.04084 0.28176
# Poissons Ratio (z) = 0.21793 0.19972
#
# Static dielectric constant tensor:
#      x y z
#    x 1.364200 0.010090 -0.179690 
#    y 0.010090 1.815540 0.008310 
#    z -0.179690 0.008310 1.783900 
# 
# From -- ./inp_files/455931.got.cif
#   From: 2010.05.17/outbox.cif.g08.bks.cpg/sg2_228_cif.got.tgz:455931.got - 2010.06.03 11:33:40.
