data_PCOD9062845
_publ_section_title
;
Structure prediction by ZEFSAII (Michael W. Deem and Ramdas Pophale) SiO2 
 PCOD9062845
Probable space group: P -1
;
_chemical_formula_sum "Si O2"
_cell_formula_units_Z 16
_cell_length_a 9.113918
_cell_length_b 16.377284
_cell_length_c 19.489611
_cell_angle_alpha 20.005236
_cell_angle_beta 41.697587
_cell_angle_gamma 41.355010
_cell_volume 646.467704
_symmetry_space_group_name_H-M "P -1"
_symmetry_group_IT_number 2
_symmetry_cell_setting 'triclinic'
loop_
_space_group_symop_operation_xyz
x,y,z
-x,-y,-z
loop_
_atom_site_type_symbol
_atom_site_label
_atom_site_fract_x
_atom_site_fract_y
_atom_site_fract_z
Si Si1 0.888716 0.869997 0.563751
Si Si2 0.275863 0.743679 0.427198
Si Si3 0.108415 0.212933 0.584154
Si Si4 0.633135 0.807058 0.158940
Si Si5 0.120979 0.594103 0.818136
Si Si6 0.557911 0.265512 0.213574
Si Si7 0.075499 0.958939 0.927607
Si Si8 0.452022 0.544407 0.163213
O O1 0.675853 0.829365 0.627206
O O2 0.101461 0.888120 0.428154
O O3 0.961735 0.637377 0.772899
O O4 0.826096 0.132248 0.414510
O O5 0.490282 0.844921 0.249532
O O6 0.361337 0.472596 0.640922
O O7 0.122791 0.726517 0.426446
O O8 0.258085 0.411473 0.361845
O O9 0.248733 0.948922 0.715595
O O10 0.072646 0.184198 0.700272
O O11 0.889615 0.828791 0.061277
O O12 0.500000 0.000000 0.000000
O O13 0.370655 0.424123 0.865132
O O14 0.000000 0.500000 0.000000
O O15 0.592932 0.369347 0.194137
O O16 0.500000 0.500000 0.000000
O O17 0.324256 0.789275 0.977634
O O18 0.000000 0.000000 0.000000
#
# Coordination Sequence:
#
# PCOD9062845 Si02
#       8
#     2   2   2   2   2   2   2   2
#     4  11  24  44  66 103 139 174 225 280 342 422
#     4  11  24  42  73  98 129 177 229 289 345 389
#     4  12  23  43  72 102 136 178 224 292 342 405
#     4  11  24  46  68  97 133 172 234 287 333 397
#     4  11  26  43  64  98 145 183 217 269 349 420
#     4  12  22  40  75 105 137 176 228 287 349 407
#     4  12  28  45  67 101 138 185 235 276 342 415
#     4  12  24  46  69 101 139 178 230 284 346 411
#
# _framework density 24.749883000000001
#
# number of rings (size 3 to 8) (size 9 to 14) (size 15 to 20)
#    0.000    0.500    6.250    1.875    0.000    4.500 
#    0.000    0.000    0.000    0.000    0.000    0.000 
#    0.000    0.000    0.000    0.000    0.000    0.000 
#
# Total GULP energy -89559.669870 kJ/mol
# GULP energy per Si atom -5597.479367 kJ/mol
# Density = 2.469355 g / cm^3
# Si number density = 24.749883 Si / 1000 Ang^3
#
#
#
# Elastic Constant Matrix: (Units=GPa)
#
#
# Indices 1 2 3 4 5 6 
#
# 1 104.1679 9.1381 13.9306 -7.8606 29.0743 -25.8422
# 2 9.1381 62.5226 -5.3830 -5.5832 2.3226 -13.2494
# 3 13.9306 -5.3830 86.9878 0.5295 23.9718 -4.5438
# 4 -7.8606 -5.5832 0.5295 44.8477 -4.8968 8.6396
# 5 29.0743 2.3226 23.9718 -4.8968 46.4718 3.9530
# 6 -25.8422 -13.2494 -4.5438 8.6396 3.9530 47.0543
#
#
#
# Elastic Compliance Matrix: (Units=1/GPa)
#
#
# Indices 1 2 3 4 5 6 
#
# 1 0.014614 0.000253 0.001051 -0.000328 -0.010510 0.009142
# 2 0.000253 0.017413 0.001966 0.000913 -0.002395 0.005265
# 3 0.001051 0.001966 0.013945 -0.001310 -0.008378 0.003422
# 4 -0.000328 0.000913 -0.001310 0.023684 0.003732 -0.004712
# 5 -0.010510 -0.002395 -0.008378 0.003732 0.033846 -0.010784
# 6 0.009142 0.005265 0.003422 -0.004712 -0.010784 0.029857
#
#
# Mechanical properties :
#
#
# Convention : Reuss Voigt Hill
#
# Bulk Modulus (GPa) = 19.04317 32.11663 25.57990
# Shear Modulus (GPa) = 34.64496 43.40759 39.02627
#
# Velocity S-wave (km/s) = 3.74545 4.19244 3.97524
# Velocity P-wave (km/s) = 5.13960 6.03656 5.60605
#
# Compressibility (1/GPa) = 0.05251227
#
# Stress axis : x y z
#
# Youngs Moduli (GPa) = 68.42918 57.42883 71.71160
#
# Poissons Ratio (x) = -0.01453 -0.07538
# Poissons Ratio (y) = -0.01731 -0.14101
# Poissons Ratio (z) = -0.07193 -0.11293
#
# Static dielectric constant tensor:
#      x y z
#    x 1.993320 0.024240 0.029300 
#    y 0.024240 1.991850 -0.009130 
#    z 0.029300 -0.009130 1.954320 
# 
# From -- ./inp_files/338114.got.cif
#   From: 2010.05.17/outbox.cif.g08.bks.cpg/sg2_170_cif.got.tgz:338114.got - 2010.06.03 11:33:40.
