data_PCOD9062495
_publ_section_title
;
Structure prediction by ZEFSAII (Michael W. Deem and Ramdas Pophale) SiO2 
 PCOD9062495
Probable space group: P -1
;
_chemical_formula_sum "Si O2"
_cell_formula_units_Z 16
_cell_length_a 5.120488
_cell_length_b 15.975539
_cell_length_c 9.640614
_cell_angle_alpha 57.905873
_cell_angle_beta 105.166906
_cell_angle_gamma 96.225373
_cell_volume 644.383658
_symmetry_space_group_name_H-M "P -1"
_symmetry_group_IT_number 2
_symmetry_cell_setting 'triclinic'
loop_
_space_group_symop_operation_xyz
x,y,z
-x,-y,-z
loop_
_atom_site_type_symbol
_atom_site_label
_atom_site_fract_x
_atom_site_fract_y
_atom_site_fract_z
Si Si1 0.548112 0.872423 0.265161
Si Si2 0.958983 0.394370 0.523485
Si Si3 0.897106 0.694986 0.989720
Si Si4 0.687719 0.253380 0.207394
Si Si5 0.945849 0.809425 0.159843
Si Si6 0.697363 0.025864 0.380115
Si Si7 0.515484 0.685670 0.585057
Si Si8 0.115889 0.485576 0.182043
O O1 0.231311 0.851715 0.213112
O O2 0.662723 0.778046 0.456573
O O3 0.708406 0.875025 0.140164
O O4 0.613571 0.965486 0.286529
O O5 0.117658 0.301925 0.695204
O O6 0.657780 0.356540 0.528827
O O7 0.000000 0.500000 0.500000
O O8 0.007947 0.412939 0.350382
O O9 0.951297 0.786858 0.017009
O O10 0.066478 0.594902 0.143377
O O11 0.573528 0.684445 0.945808
O O12 0.023292 0.715869 0.837408
O O13 0.660883 0.142392 0.251347
O O14 0.651024 0.261360 0.359562
O O15 0.500000 0.000000 0.500000
O O16 0.000000 0.000000 0.500000
O O17 0.613480 0.579093 0.753658
O O18 0.000000 0.500000 0.000000
#
# Coordination Sequence:
#
# PCOD9062495 Si02
#       8
#     2   2   2   2   2   2   2   2
#     4  11  24  44  72 106 136 178 239 306 355 417
#     4  11  24  41  65  98 138 191 246 288 338 428
#     4  12  27  45  70 100 149 195 231 291 353 443
#     4  12  27  47  70 107 145 182 240 293 374 420
#     4  11  24  46  70 101 143 192 239 290 357 421
#     4  12  25  45  78 109 140 179 238 302 367 432
#     4  11  25  40  71 102 144 182 238 299 355 421
#     4  12  24  41  67 102 143 189 240 289 362 412
#
# _framework density 24.829927999999999
#
# number of rings (size 3 to 8) (size 9 to 14) (size 15 to 20)
#    0.000    0.500    5.000    3.000    3.500    2.500 
#    0.000    3.750    0.000    0.000    0.000    0.000 
#    0.000    0.000    0.000    0.000    0.000    0.000 
#
# Total GULP energy -89293.736441 kJ/mol
# GULP energy per Si atom -5580.858528 kJ/mol
# Density = 2.477341 g / cm^3
# Si number density = 24.829928 Si / 1000 Ang^3
#
#
#
# Elastic Constant Matrix: (Units=GPa)
#
#
# Indices 1 2 3 4 5 6 
#
# 1 86.9094 21.8114 6.2122 14.7848 -7.7294 -16.7701
# 2 21.8114 172.6955 -6.1921 20.9080 4.1307 -6.4145
# 3 6.2122 -6.1921 46.1631 13.6936 -8.2468 -11.7649
# 4 14.7848 20.9080 13.6936 45.3638 -3.4892 -3.0409
# 5 -7.7294 4.1307 -8.2468 -3.4892 29.0545 6.7161
# 6 -16.7701 -6.4145 -11.7649 -3.0409 6.7161 34.4799
#
#
#
# Elastic Compliance Matrix: (Units=1/GPa)
#
#
# Indices 1 2 3 4 5 6 
#
# 1 0.013700 -0.001072 0.001060 -0.003712 0.002251 0.006060
# 2 -0.001072 0.006481 0.002100 -0.003281 -0.001321 0.001369
# 3 0.001060 0.002100 0.027396 -0.008644 0.004741 0.008568
# 4 -0.003712 -0.003281 -0.008644 0.027243 0.001028 -0.003163
# 5 0.002251 -0.001321 0.004741 0.001028 0.037784 -0.004802
# 6 0.006060 0.001369 0.008568 -0.003163 -0.004802 0.035784
#
#
# Mechanical properties :
#
#
# Convention : Reuss Voigt Hill
#
# Bulk Modulus (GPa) = 19.32211 38.82567 29.07389
# Shear Modulus (GPa) = 30.96680 40.70873 35.83776
#
# Velocity S-wave (km/s) = 3.53534 4.05347 3.80324
# Velocity P-wave (km/s) = 4.94606 6.13010 5.56963
#
# Compressibility (1/GPa) = 0.05175418
#
# Stress axis : x y z
#
# Youngs Moduli (GPa) = 72.99024 154.29954 36.50156
#
# Poissons Ratio (x) = 0.16537 -0.03870
# Poissons Ratio (y) = 0.07822 -0.07665
# Poissons Ratio (z) = -0.07739 -0.32400
#
# Static dielectric constant tensor:
#      x y z
#    x 2.247060 -0.054430 0.119380 
#    y -0.054430 1.959450 -0.025470 
#    z 0.119380 -0.025470 2.050810 
# 
# From -- ./inp_files/135024.got.cif
#   From: 2010.05.17/outbox.cif.g08.bks.cpg/sg2_68_cif.got.tgz:135024.got - 2010.06.03 11:33:40.
