data_PCOD9062443
_publ_section_title
;
Structure prediction by ZEFSAII (Michael W. Deem and Ramdas Pophale) SiO2 
 PCOD9062443
Probable space group: P -1
;
_chemical_formula_sum "Si O2"
_cell_formula_units_Z 14
_cell_length_a 8.884335
_cell_length_b 11.380385
_cell_length_c 9.570546
_cell_angle_alpha 58.995938
_cell_angle_beta 87.146542
_cell_angle_gamma 56.159309
_cell_volume 649.576331
_symmetry_space_group_name_H-M "P -1"
_symmetry_group_IT_number 2
_symmetry_cell_setting 'triclinic'
loop_
_space_group_symop_operation_xyz
x,y,z
-x,-y,-z
loop_
_atom_site_type_symbol
_atom_site_label
_atom_site_fract_x
_atom_site_fract_y
_atom_site_fract_z
Si Si1 0.458955 0.241965 0.507078
Si Si2 0.080720 0.031923 0.843512
Si Si3 0.468249 0.970197 0.859259
Si Si4 0.906698 0.970858 0.646146
Si Si5 0.127759 0.566460 0.477547
Si Si6 0.725581 0.648430 0.851740
Si Si7 0.917699 0.403723 0.215239
O O1 0.325764 0.430433 0.469873
O O2 0.412484 0.266744 0.328268
O O3 0.408834 0.129451 0.662162
O O4 0.685775 0.131992 0.583466
O O5 0.973356 0.237199 0.690643
O O6 0.302426 0.950023 0.886365
O O7 0.035274 0.945409 0.782853
O O8 0.000000 0.000000 0.000000
O O9 0.651017 0.800992 0.876208
O O10 0.500000 0.000000 0.000000
O O11 0.935431 0.799743 0.703219
O O12 0.000000 0.000000 0.500000
O O13 0.157712 0.562594 0.645267
O O14 0.000000 0.500000 0.500000
O O15 0.937780 0.548977 0.835324
O O16 0.756309 0.501526 0.042854
#
# Coordination Sequence:
#
# PCOD9062443 Si02
#       7
#     2   2   2   2   2   2   2
#     4  12  25  44  78 104 143 192 247 298 358 437
#     4  12  28  45  71 105 152 189 235 306 372 424
#     4  12  24  45  74 107 142 189 250 298 358 439
#     4  12  26  49  70 102 149 194 235 293 374 433
#     4  12  24  46  75 107 144 189 249 303 358 429
#     4  11  24  40  75 107 137 182 252 297 350 424
#     4  11  24  44  72 105 144 187 234 303 363 428
#
# _framework density 21.552508
#
# number of rings (size 3 to 8) (size 9 to 14) (size 15 to 20)
#    0.000    0.286    5.714    3.000    2.000    0.571 
#    2.571    1.429    0.000    0.000    0.000    0.000 
#    0.000    0.000    0.000    0.000    0.000    0.000 
#
# Total GULP energy -78156.900171 kJ/mol
# GULP energy per Si atom -5582.635726 kJ/mol
# Density = 2.150345 g / cm^3
# Si number density = 21.552508 Si / 1000 Ang^3
#
#
#
# Elastic Constant Matrix: (Units=GPa)
#
#
# Indices 1 2 3 4 5 6 
#
# 1 73.6196 -2.2404 24.2725 27.0030 5.0907 -12.7930
# 2 -2.2404 115.4161 24.4681 23.9336 3.7603 -11.5228
# 3 24.2725 24.4681 133.8772 35.0544 -5.2607 -1.8578
# 4 27.0030 23.9336 35.0544 48.7437 4.9081 1.1908
# 5 5.0907 3.7603 -5.2607 4.9081 38.0882 4.6532
# 6 -12.7930 -11.5228 -1.8578 1.1908 4.6532 20.4537
#
#
#
# Elastic Compliance Matrix: (Units=1/GPa)
#
#
# Indices 1 2 3 4 5 6 
#
# 1 0.023443 0.005963 -0.001306 -0.015018 -0.004383 0.019775
# 2 0.005963 0.011973 -0.000975 -0.008517 -0.002413 0.011431
# 3 -0.001306 -0.000975 0.009504 -0.005860 0.002426 -0.000714
# 4 -0.015018 -0.008517 -0.005860 0.037718 -0.000776 -0.016742
# 5 -0.004383 -0.002413 0.002426 -0.000776 0.028782 -0.010383
# 6 0.019775 0.011431 -0.000714 -0.016742 -0.010383 0.070971
#
#
# Mechanical properties :
#
#
# Convention : Reuss Voigt Hill
#
# Bulk Modulus (GPa) = 19.12638 46.21259 32.66949
# Shear Modulus (GPa) = 25.98002 39.88465 32.93233
#
# Velocity S-wave (km/s) = 3.47570 4.30650 3.91321
# Velocity P-wave (km/s) = 5.00009 6.79826 5.96730
#
# Compressibility (1/GPa) = 0.05228380
#
# Stress axis : x y z
#
# Youngs Moduli (GPa) = 42.65663 83.52251 105.21638
#
# Poissons Ratio (x) = -0.49805 0.13739
# Poissons Ratio (y) = -0.25437 0.10263
# Poissons Ratio (z) = 0.05570 0.08147
#
# Static dielectric constant tensor:
#      x y z
#    x 1.782090 -0.039170 0.022110 
#    y -0.039170 1.729780 -0.024360 
#    z 0.022110 -0.024360 1.808540 
# 
# From -- ./inp_files/152231.got.cif
#   From: 2010.05.17/outbox.cif.g08.bks.cpg/sg2_77_cif.got.tgz:152231.got - 2010.06.03 11:33:40.
