data_PCOD9062662
_publ_section_title
;
Structure prediction by ZEFSAII (Michael W. Deem and Ramdas Pophale) SiO2 
 PCOD9062662
Probable space group: P -1
;
_chemical_formula_sum "Si O2"
_cell_formula_units_Z 16
_cell_length_a 5.196636
_cell_length_b 11.656205
_cell_length_c 17.038658
_cell_angle_alpha 129.813572
_cell_angle_beta 120.185078
_cell_angle_gamma 63.671584
_cell_volume 673.694076
_symmetry_space_group_name_H-M "P -1"
_symmetry_group_IT_number 2
_symmetry_cell_setting 'triclinic'
loop_
_space_group_symop_operation_xyz
x,y,z
-x,-y,-z
loop_
_atom_site_type_symbol
_atom_site_label
_atom_site_fract_x
_atom_site_fract_y
_atom_site_fract_z
Si Si1 0.256604 0.496886 0.603210
Si Si2 0.595230 0.232619 0.457309
Si Si3 0.064116 0.547884 0.820850
Si Si4 0.381736 0.079812 0.826021
Si Si5 0.263155 0.390791 0.039491
Si Si6 0.173131 0.265112 0.625569
Si Si7 0.435556 0.246679 0.255609
Si Si8 0.696905 0.044046 0.689924
O O1 0.539654 0.400679 0.557993
O O2 0.218650 0.391798 0.624429
O O3 0.325211 0.661007 0.705852
O O4 0.000000 0.500000 0.500000
O O5 0.521724 0.248962 0.361748
O O6 0.934722 0.170813 0.510914
O O7 0.373193 0.124916 0.407954
O O8 0.419198 0.551131 0.881978
O O9 0.047992 0.370479 0.727279
O O10 0.881683 0.612728 0.898593
O O11 0.888468 0.657772 0.775182
O O12 0.580189 0.084267 0.779461
O O13 0.045618 0.054452 0.739704
O O14 0.525891 0.931113 0.833355
O O15 0.340258 0.230901 0.936670
O O16 0.000000 0.500000 0.000000
O O17 0.482170 0.158098 0.650232
#
# Coordination Sequence:
#
# PCOD9062662 Si02
#       8
#     2   2   2   2   2   2   2   2
#     4  12  22  39  66  92 144 191 234 275 341 408
#     4  11  24  42  66  99 143 191 226 285 344 411
#     4  12  26  43  74 105 136 180 236 289 340 429
#     4  11  26  49  73  99 144 183 226 302 354 413
#     4  12  26  49  75 103 135 180 232 294 363 412
#     4  12  25  42  67 104 142 187 233 291 339 415
#     4  11  24  46  67 107 142 187 237 279 352 417
#     4  11  26  44  71 105 140 184 239 283 351 417
#
# _framework density 23.749652999999999
#
# number of rings (size 3 to 8) (size 9 to 14) (size 15 to 20)
#    0.000    0.500    2.500    5.625    3.500    4.500 
#    0.000    0.000    0.000    0.000    0.000    0.000 
#    0.000    0.000    0.000    0.000    0.000    0.000 
#
# Total GULP energy -89586.349286 kJ/mol
# GULP energy per Si atom -5599.146830 kJ/mol
# Density = 2.369560 g / cm^3
# Si number density = 23.749653 Si / 1000 Ang^3
#
#
#
# Elastic Constant Matrix: (Units=GPa)
#
#
# Indices 1 2 3 4 5 6 
#
# 1 89.7388 7.9671 25.8759 -11.7041 3.0174 -9.1272
# 2 7.9671 105.8426 29.7681 -10.4593 0.1709 -6.5457
# 3 25.8759 29.7681 95.1616 2.9132 11.9870 -10.3082
# 4 -11.7041 -10.4593 2.9132 38.6367 -15.1529 6.2538
# 5 3.0174 0.1709 11.9870 -15.1529 46.5111 -4.2225
# 6 -9.1272 -6.5457 -10.3082 6.2538 -4.2225 37.1709
#
#
#
# Elastic Compliance Matrix: (Units=1/GPa)
#
#
# Indices 1 2 3 4 5 6 
#
# 1 0.012964 0.000723 -0.003971 0.004919 0.001928 0.001601
# 2 0.000723 0.010981 -0.004010 0.004353 0.002414 0.000541
# 3 -0.003971 -0.004010 0.013918 -0.005690 -0.004935 0.002575
# 4 0.004919 0.004353 -0.005690 0.034316 0.011946 -0.004020
# 5 0.001928 0.002414 -0.004935 0.011946 0.026579 0.000539
# 6 0.001601 0.000541 0.002575 -0.004020 0.000539 0.028843
#
#
# Mechanical properties :
#
#
# Convention : Reuss Voigt Hill
#
# Bulk Modulus (GPa) = 42.83506 46.44057 44.63782
# Shear Modulus (GPa) = 33.35575 39.60586 36.48081
#
# Velocity S-wave (km/s) = 3.75170 4.08810 3.92351
# Velocity P-wave (km/s) = 6.06978 6.47149 6.27385
#
# Compressibility (1/GPa) = 0.02334536
#
# Stress axis : x y z
#
# Youngs Moduli (GPa) = 77.13700 91.06446 71.85176
#
# Poissons Ratio (x) = -0.06585 0.28535
# Poissons Ratio (y) = -0.05578 0.28816
# Poissons Ratio (z) = 0.30634 0.36521
#
# Static dielectric constant tensor:
#      x y z
#    x 1.953490 -0.010410 -0.034880 
#    y -0.010410 1.926690 -0.006000 
#    z -0.034880 -0.006000 1.934070 
# 
# From -- ./inp_files/549583.got.cif
#   From: 2010.05.17/outbox.cif.g08.bks.cpg/sg2_275_cif.got.tgz:549583.got - 2010.06.03 11:33:40.
