data_PCOD9062031
_publ_section_title
;
Structure prediction by ZEFSAII (Michael W. Deem and Ramdas Pophale) SiO2 
 PCOD9062031
Probable space group: P -1
;
_chemical_formula_sum "Si O2"
_cell_formula_units_Z 16
_cell_length_a 12.877580
_cell_length_b 11.557572
_cell_length_c 9.572448
_cell_angle_alpha 87.860397
_cell_angle_beta 45.517277
_cell_angle_gamma 58.640641
_cell_volume 732.081742
_symmetry_space_group_name_H-M "P -1"
_symmetry_group_IT_number 2
_symmetry_cell_setting 'triclinic'
loop_
_space_group_symop_operation_xyz
x,y,z
-x,-y,-z
loop_
_atom_site_type_symbol
_atom_site_label
_atom_site_fract_x
_atom_site_fract_y
_atom_site_fract_z
Si Si1 0.099504 0.967117 0.259083
Si Si2 0.178896 0.433299 0.230624
Si Si3 0.506893 0.106795 0.089941
Si Si4 0.609256 0.366984 0.288235
Si Si5 0.850306 0.663830 0.045401
Si Si6 0.505661 0.161082 0.403494
Si Si7 0.972211 0.857819 0.946817
Si Si8 0.680821 0.398284 0.941447
O O1 0.209514 0.784771 0.137350
O O2 0.265314 0.975229 0.118757
O O3 0.000000 0.000000 0.500000
O O4 0.982268 0.081209 0.229683
O O5 0.376512 0.278086 0.130968
O O6 0.174784 0.573878 0.218791
O O7 0.000000 0.500000 0.500000
O O8 0.176694 0.376966 0.081236
O O9 0.449848 0.129688 0.308579
O O10 0.500000 0.000000 0.000000
O O11 0.500000 0.500000 0.500000
O O12 0.504959 0.299792 0.370568
O O13 0.579400 0.467424 0.182051
O O14 0.845335 0.226480 0.113621
O O15 0.644850 0.785557 0.328938
O O16 0.952499 0.733622 0.928956
O O17 0.000000 0.500000 0.000000
O O18 0.744817 0.007243 0.211619
O O19 0.500000 0.500000 0.000000
#
# Coordination Sequence:
#
# PCOD9062031 Si02
#       8
#     2   2   2   2   2   2   2   2
#     4  11  26  46  72 104 142 191 239 298 361 426
#     4  12  26  43  70 104 139 188 239 293 354 430
#     4  11  24  47  69 103 140 183 238 294 361 421
#     4  12  25  44  75 105 145 188 237 297 363 429
#     4  12  26  47  69 106 145 193 239 293 369 429
#     4  11  23  47  69 103 143 185 237 298 353 435
#     4  11  25  46  71 105 142 189 245 296 361 430
#     4  12  25  47  70 104 145 187 242 295 360 428
#
# _framework density 21.855481000000001
#
# number of rings (size 3 to 8) (size 9 to 14) (size 15 to 20)
#    0.000    0.500    3.750    5.250    5.250    1.000 
#    0.000    0.000    0.000    0.000    0.000    0.000 
#    0.000    0.000    0.000    0.000    0.000    0.000 
#
# Total GULP energy -89370.245406 kJ/mol
# GULP energy per Si atom -5585.640338 kJ/mol
# Density = 2.180574 g / cm^3
# Si number density = 21.855481 Si / 1000 Ang^3
#
#
#
# Elastic Constant Matrix: (Units=GPa)
#
#
# Indices 1 2 3 4 5 6 
#
# 1 133.1719 40.4174 47.3376 -16.3738 25.1891 -2.6199
# 2 40.4174 109.7754 21.1576 -21.2690 5.5999 0.9744
# 3 47.3376 21.1576 123.8746 -26.9094 38.2417 -8.6482
# 4 -16.3738 -21.2690 -26.9094 40.0766 -0.6921 -2.8493
# 5 25.1891 5.5999 38.2417 -0.6921 20.8132 -10.8475
# 6 -2.6199 0.9744 -8.6482 -2.8493 -10.8475 60.8179
#
#
#
# Elastic Compliance Matrix: (Units=1/GPa)
#
#
# Indices 1 2 3 4 5 6 
#
# 1 0.011630 -0.002908 0.003163 0.004815 -0.020184 -0.002377
# 2 -0.002908 0.011054 0.000077 0.004743 0.000579 0.000034
# 3 0.003163 0.000077 0.028985 0.019387 -0.059279 -0.005408
# 4 0.004815 0.004743 0.019387 0.041516 -0.042804 -0.002801
# 5 -0.020184 0.000579 -0.059279 -0.042804 0.191742 0.022886
# 6 -0.002377 0.000034 -0.005408 -0.002801 0.022886 0.019521
#
#
# Mechanical properties :
#
#
# Convention : Reuss Voigt Hill
#
# Bulk Modulus (GPa) = 19.10795 64.96079 42.03437
# Shear Modulus (GPa) = 15.56527 41.53549 28.55038
#
# Velocity S-wave (km/s) = 2.67159 4.36416 3.61823
# Velocity P-wave (km/s) = 4.27532 7.42845 6.06054
#
# Compressibility (1/GPa) = 0.05233424
#
# Stress axis : x y z
#
# Youngs Moduli (GPa) = 85.98279 90.46147 34.50073
#
# Poissons Ratio (x) = 0.26307 -0.10914
# Poissons Ratio (y) = 0.25005 -0.00266
# Poissons Ratio (z) = -0.27200 -0.00697
#
# Static dielectric constant tensor:
#      x y z
#    x 1.794580 -0.015950 0.144340 
#    y -0.015950 1.822260 0.025230 
#    z 0.144340 0.025230 1.824990 
# 
# From -- ./inp_files/262448.got.cif
#   From: 2010.05.17/outbox.cif.g08.bks.cpg/sg2_132_cif.got.tgz:262448.got - 2010.06.03 11:33:40.
