data_PCOD9062385
_publ_section_title
;
Structure prediction by ZEFSAII (Michael W. Deem and Ramdas Pophale) SiO2 
 PCOD9062385
Probable space group: P -1
;
_chemical_formula_sum "Si O2"
_cell_formula_units_Z 16
_cell_length_a 14.244758
_cell_length_b 10.819745
_cell_length_c 5.347152
_cell_angle_alpha 114.440373
_cell_angle_beta 93.487617
_cell_angle_gamma 84.870817
_cell_volume 747.016983
_symmetry_space_group_name_H-M "P -1"
_symmetry_group_IT_number 2
_symmetry_cell_setting 'triclinic'
loop_
_space_group_symop_operation_xyz
x,y,z
-x,-y,-z
loop_
_atom_site_type_symbol
_atom_site_label
_atom_site_fract_x
_atom_site_fract_y
_atom_site_fract_z
Si Si1 0.329435 0.991682 0.988143
Si Si2 0.120290 0.343019 0.964680
Si Si3 0.476977 0.102217 0.795475
Si Si4 0.799495 0.257668 0.351345
Si Si5 0.659941 0.501625 0.477062
Si Si6 0.229260 0.255755 0.427172
Si Si7 0.101074 0.664489 0.089307
Si Si8 0.502340 0.618333 0.911784
O O1 0.260028 0.876293 0.803137
O O2 0.372206 0.084640 0.859206
O O3 0.431652 0.918034 0.024278
O O4 0.281752 0.106020 0.263736
O O5 0.163610 0.259735 0.663844
O O6 0.010714 0.317245 0.959261
O O7 0.174725 0.300260 0.195351
O O8 0.122150 0.503483 0.024577
O O9 0.500000 0.000000 0.500000
O O10 0.484144 0.250552 0.818246
O O11 0.736513 0.396684 0.526740
O O12 0.870064 0.248120 0.591206
O O13 0.845766 0.291941 0.118587
O O14 0.705160 0.616724 0.416760
O O15 0.588845 0.590494 0.716913
O O16 0.596095 0.391997 0.249070
O O17 0.500000 0.500000 0.000000
#
# Coordination Sequence:
#
# PCOD9062385 Si02
#       8
#     2   2   2   2   2   2   2   2
#     4  11  28  44  63  98 142 186 231 270 342 407
#     4  11  24  45  73 106 136 172 222 290 350 401
#     4  11  26  44  63  91 143 187 223 279 339 402
#     4  12  25  44  73 102 137 182 228 278 335 416
#     4  11  24  40  63 100 132 178 229 282 328 383
#     4  12  25  44  73 102 137 182 228 278 335 416
#     4  11  24  45  73 106 136 172 222 290 350 401
#     4  11  26  40  65  97 139 175 234 288 333 388
#
# _framework density 21.418523
#
# number of rings (size 3 to 8) (size 9 to 14) (size 15 to 20)
#    0.000    0.750    5.000    0.750   10.500    2.000 
#    0.000    3.750    0.000    0.000    0.000    0.000 
#    0.000    0.000    0.000    0.000    0.000    0.000 
#
# Total GULP energy -89224.684716 kJ/mol
# GULP energy per Si atom -5576.542795 kJ/mol
# Density = 2.136977 g / cm^3
# Si number density = 21.418523 Si / 1000 Ang^3
#
#
#
# Elastic Constant Matrix: (Units=GPa)
#
#
# Indices 1 2 3 4 5 6 
#
# 1 117.3250 34.1294 41.7532 4.7860 6.8207 16.3462
# 2 34.1294 82.8950 33.1745 26.7687 2.8357 15.9469
# 3 41.7532 33.1745 110.1737 13.9353 -8.4338 16.9225
# 4 4.7860 26.7687 13.9353 51.0314 -7.0176 10.5177
# 5 6.8207 2.8357 -8.4338 -7.0176 56.6714 5.1585
# 6 16.3462 15.9469 16.9225 10.5177 5.1585 25.5993
#
#
#
# Elastic Compliance Matrix: (Units=1/GPa)
#
#
# Indices 1 2 3 4 5 6 
#
# 1 0.011023 -0.003293 -0.002963 0.002128 -0.001003 -0.003700
# 2 -0.003293 0.017742 -0.002663 -0.007711 -0.001504 -0.003718
# 3 -0.002963 -0.002663 0.011975 -0.000236 0.002681 -0.004808
# 4 0.002128 -0.007711 -0.000236 0.025647 0.003975 -0.007737
# 5 -0.001003 -0.001504 0.002681 0.003975 0.019252 -0.005707
# 6 -0.003700 -0.003718 -0.004808 -0.007737 -0.005707 0.051250
#
#
# Mechanical properties :
#
#
# Convention : Reuss Voigt Hill
#
# Bulk Modulus (GPa) = 43.66707 58.72309 51.19508
# Shear Modulus (GPa) = 30.79551 40.08286 35.43919
#
# Velocity S-wave (km/s) = 3.79594 4.33067 4.07210
# Velocity P-wave (km/s) = 6.29635 7.24450 6.78700
#
# Compressibility (1/GPa) = 0.02290055
#
# Stress axis : x y z
#
# Youngs Moduli (GPa) = 90.71974 56.36391 83.50745
#
# Poissons Ratio (x) = 0.18563 0.24745
# Poissons Ratio (y) = 0.29878 0.22237
# Poissons Ratio (z) = 0.26883 0.15009
#
# Static dielectric constant tensor:
#      x y z
#    x 1.806630 -0.048700 0.209810 
#    y -0.048700 1.794080 -0.135670 
#    z 0.209810 -0.135670 1.334430 
# 
# From -- ./inp_files/70897.got.cif
#   From: 2010.05.17/outbox.cif.g08.bks.cpg/sg2_36_cif.got.tgz:70897.got - 2010.06.03 11:33:40.
