data_PCOD9062471
_publ_section_title
;
Structure prediction by ZEFSAII (Michael W. Deem and Ramdas Pophale) SiO2 
 PCOD9062471
Probable space group: P -1
;
_chemical_formula_sum "Si O2"
_cell_formula_units_Z 15
_cell_length_a 8.928721
_cell_length_b 8.580111
_cell_length_c 11.490959
_cell_angle_alpha 77.582181
_cell_angle_beta 92.025957
_cell_angle_gamma 129.072088
_cell_volume 661.594829
_symmetry_space_group_name_H-M "P -1"
_symmetry_group_IT_number 2
_symmetry_cell_setting 'triclinic'
loop_
_space_group_symop_operation_xyz
x,y,z
-x,-y,-z
loop_
_atom_site_type_symbol
_atom_site_label
_atom_site_fract_x
_atom_site_fract_y
_atom_site_fract_z
Si Si1 0.500000 0.500000 0.500000
Si Si2 0.516669 0.147506 0.575491
Si Si3 0.783495 0.617690 0.907235
Si Si4 0.471390 0.382024 0.268509
Si Si5 0.372473 0.810086 0.941775
Si Si6 0.132372 0.258156 0.845416
Si Si7 0.829851 0.054293 0.226839
Si Si8 0.719302 0.033547 0.747787
O O1 0.573054 0.361423 0.499928
O O2 0.452664 0.483535 0.362995
O O3 0.663891 0.166489 0.670218
O O4 0.500000 0.000000 0.500000
O O5 0.306491 0.034167 0.649941
O O6 0.590768 0.564560 0.858614
O O7 0.940701 0.762625 0.788446
O O8 0.744915 0.407080 0.963507
O O9 0.858706 0.737788 0.014338
O O10 0.701864 0.507306 0.232997
O O11 0.316912 0.131772 0.320311
O O12 0.235513 0.839335 0.867491
O O13 0.539204 0.861526 0.852473
O O14 0.500000 0.000000 0.000000
O O15 0.921476 0.159204 0.801926
O O16 0.191080 0.126903 0.813255
#
# Coordination Sequence:
#
# PCOD9062471 Si02
#       8
#     1   2   2   2   2   2   2   2
#     4  12  26  52  78 102 146 200 266 316 378 438
#     4  11  25  51  79 104 151 203 264 325 373 443
#     4  12  25  43  74 113 157 199 246 308 387 462
#     4  12  25  46  74 108 148 203 254 314 373 447
#     4  11  24  41  64 104 159 196 239 305 372 457
#     4  12  24  46  75 116 156 194 250 308 389 471
#     4  11  24  42  71 111 148 195 250 308 381 459
#     4  11  25  46  73 110 151 200 248 313 385 452
#
# _framework density 22.672488000000001
#
# number of rings (size 3 to 8) (size 9 to 14) (size 15 to 20)
#    0.000    0.533    5.333    2.800    3.733    0.000 
#    2.400    2.667    0.000    0.000    0.000    0.000 
#    0.000    0.000    0.000    0.000    0.000    0.000 
#
# Total GULP energy -83516.166282 kJ/mol
# GULP energy per Si atom -5567.744419 kJ/mol
# Density = 2.262088 g / cm^3
# Si number density = 22.672488 Si / 1000 Ang^3
#
#
#
# Elastic Constant Matrix: (Units=GPa)
#
#
# Indices 1 2 3 4 5 6 
#
# 1 108.5005 48.2513 38.5931 1.4422 -1.0746 7.3444
# 2 48.2513 110.5619 28.9858 5.0102 2.6279 3.4373
# 3 38.5931 28.9858 82.2660 9.5419 2.3541 -1.7186
# 4 1.4422 5.0102 9.5419 31.8981 -5.7418 1.1235
# 5 -1.0746 2.6279 2.3541 -5.7418 30.7426 2.1225
# 6 7.3444 3.4373 -1.7186 1.1235 2.1225 40.4239
#
#
#
# Elastic Compliance Matrix: (Units=1/GPa)
#
#
# Indices 1 2 3 4 5 6 
#
# 1 0.013106 -0.004495 -0.004893 0.001975 0.001748 -0.002354
# 2 -0.004495 0.011567 -0.001784 -0.001299 -0.001242 -0.000141
# 3 -0.004893 -0.001784 0.015726 -0.004673 -0.002231 0.001956
# 4 0.001975 -0.001299 -0.004673 0.034193 0.007046 -0.001767
# 5 0.001748 -0.001242 -0.002231 0.007046 0.034342 -0.002306
# 6 -0.002354 -0.000141 0.001956 -0.001767 -0.002306 0.025431
#
#
# Mechanical properties :
#
#
# Convention : Reuss Voigt Hill
#
# Bulk Modulus (GPa) = 55.38203 59.22098 57.30151
# Shear Modulus (GPa) = 30.72639 32.97946 31.85293
#
# Velocity S-wave (km/s) = 3.68534 3.81806 3.75229
# Velocity P-wave (km/s) = 6.52602 6.75379 6.64088
#
# Compressibility (1/GPa) = 0.01805640
#
# Stress axis : x y z
#
# Youngs Moduli (GPa) = 76.29926 86.45485 63.58767
#
# Poissons Ratio (x) = 0.38861 0.31113
# Poissons Ratio (y) = 0.34296 0.11341
# Poissons Ratio (z) = 0.37333 0.15420
#
# Static dielectric constant tensor:
#      x y z
#    x 1.676270 0.083640 0.222490 
#    y 0.083640 1.844360 -0.232670 
#    z 0.222490 -0.232670 1.644000 
# 
# From -- ./inp_files/378751.got.cif
#   From: 2010.05.17/outbox.cif.g08.bks.cpg/sg2_190_cif.got.tgz:378751.got - 2010.06.03 11:33:40.
