data_PCOD9062021
_publ_section_title
;
Structure prediction by ZEFSAII (Michael W. Deem and Ramdas Pophale) SiO2 
 PCOD9062021
Probable space group: P -1
;
_chemical_formula_sum "Si O2"
_cell_formula_units_Z 14
_cell_length_a 7.809759
_cell_length_b 6.467592
_cell_length_c 16.252328
_cell_angle_alpha 90.141215
_cell_angle_beta 131.131948
_cell_angle_gamma 77.597042
_cell_volume 593.026330
_symmetry_space_group_name_H-M "P -1"
_symmetry_group_IT_number 2
_symmetry_cell_setting 'triclinic'
loop_
_space_group_symop_operation_xyz
x,y,z
-x,-y,-z
loop_
_atom_site_type_symbol
_atom_site_label
_atom_site_fract_x
_atom_site_fract_y
_atom_site_fract_z
Si Si1 0.776650 0.137341 0.756569
Si Si2 0.388413 0.149287 0.886306
Si Si3 0.931969 0.522905 0.803599
Si Si4 0.050155 0.722014 0.539524
Si Si5 0.659742 0.020683 0.307626
Si Si6 0.117585 0.822975 0.968770
Si Si7 0.763502 0.891743 0.612433
O O1 0.559292 0.055369 0.722962
O O2 0.764318 0.377309 0.776322
O O3 0.802562 0.103000 0.667746
O O4 0.027892 0.978729 0.863149
O O5 0.164347 0.349711 0.838851
O O6 0.356939 0.008327 0.796035
O O7 0.604225 0.249596 0.930688
O O8 0.500000 0.000000 0.000000
O O9 0.008633 0.630997 0.909338
O O10 0.816786 0.703920 0.698909
O O11 0.906662 0.866803 0.420157
O O12 0.916625 0.793548 0.583193
O O13 0.000000 0.500000 0.500000
O O14 0.307317 0.758047 0.641450
O O15 0.000000 0.000000 0.000000
O O16 0.500000 0.000000 0.500000
#
# Coordination Sequence:
#
# PCOD9062021 Si02
#       7
#     2   2   2   2   2   2   2
#     4  11  23  47  68 108 145 192 245 304 363 446
#     4  12  24  48  76 107 151 195 249 312 365 442
#     4  11  26  44  74 108 145 197 249 297 384 441
#     4  11  25  47  73 106 142 194 250 304 379 441
#     4  11  25  46  72 103 150 189 243 313 365 436
#     4  11  24  46  70 105 149 192 246 303 365 442
#     4  11  24  47  74 103 147 189 246 313 367 441
#
# _framework density 23.607724000000001
#
# number of rings (size 3 to 8) (size 9 to 14) (size 15 to 20)
#    0.000    0.857    4.286    2.143    2.000    4.571 
#    2.571    0.000    0.000    0.000    0.000    0.000 
#    0.000    0.000    0.000    0.000    0.000    0.000 
#
# Total GULP energy -78023.172515 kJ/mol
# GULP energy per Si atom -5573.083751 kJ/mol
# Density = 2.355399 g / cm^3
# Si number density = 23.607724 Si / 1000 Ang^3
#
#
#
# Elastic Constant Matrix: (Units=GPa)
#
#
# Indices 1 2 3 4 5 6 
#
# 1 117.6581 48.9764 53.9510 22.0982 11.7175 -4.3641
# 2 48.9764 137.2136 62.6379 37.5590 17.1321 -1.2453
# 3 53.9510 62.6379 170.6019 35.0160 -0.5306 -0.2036
# 4 22.0982 37.5590 35.0160 61.4180 -3.3430 4.6174
# 5 11.7175 17.1321 -0.5306 -3.3430 48.7236 5.4622
# 6 -4.3641 -1.2453 -0.2036 4.6174 5.4622 32.3309
#
#
#
# Elastic Compliance Matrix: (Units=1/GPa)
#
#
# Indices 1 2 3 4 5 6 
#
# 1 0.011086 -0.002119 -0.002405 -0.001598 -0.002283 0.002013
# 2 -0.002119 0.010964 -0.002356 -0.004922 -0.003875 0.001479
# 3 -0.002405 -0.002356 0.007925 -0.002115 0.001381 -0.000297
# 4 -0.001598 -0.004922 -0.002115 0.021607 0.004044 -0.004188
# 5 -0.002283 -0.003875 0.001381 0.004044 0.023284 -0.004960
# 6 0.002013 0.001479 -0.000297 -0.004188 -0.004960 0.032693
#
#
# Mechanical properties :
#
#
# Convention : Reuss Voigt Hill
#
# Bulk Modulus (GPa) = 61.66412 84.06713 72.86563
# Shear Modulus (GPa) = 39.45645 45.82172 42.63908
#
# Velocity S-wave (km/s) = 4.09263 4.41042 4.25449
# Velocity P-wave (km/s) = 6.96490 7.85003 7.42068
#
# Compressibility (1/GPa) = 0.01621688
#
# Stress axis : x y z
#
# Youngs Moduli (GPa) = 90.20541 91.20919 126.18318
#
# Poissons Ratio (x) = 0.19323 0.30343
# Poissons Ratio (y) = 0.19111 0.29724
# Poissons Ratio (z) = 0.21692 0.21485
#
# Static dielectric constant tensor:
#      x y z
#    x 1.971160 0.125260 0.143100 
#    y 0.125260 2.050130 0.039980 
#    z 0.143100 0.039980 1.566620 
# 
# From -- ./inp_files/131442.got.cif
#   From: 2010.05.17/outbox.cif.g08.bks.cpg/sg2_66_cif.got.tgz:131442.got - 2010.06.03 11:33:40.
