data_PCOD9062318
_publ_section_title
;
Structure prediction by ZEFSAII (Michael W. Deem and Ramdas Pophale) SiO2 
 PCOD9062318
Probable space group: P -1
;
_chemical_formula_sum "Si O2"
_cell_formula_units_Z 10
_cell_length_a 7.255271
_cell_length_b 12.342932
_cell_length_c 5.023819
_cell_angle_alpha 82.579554
_cell_angle_beta 69.729533
_cell_angle_gamma 111.230713
_cell_volume 376.337819
_symmetry_space_group_name_H-M "P -1"
_symmetry_group_IT_number 2
_symmetry_cell_setting 'triclinic'
loop_
_space_group_symop_operation_xyz
x,y,z
-x,-y,-z
loop_
_atom_site_type_symbol
_atom_site_label
_atom_site_fract_x
_atom_site_fract_y
_atom_site_fract_z
Si Si1 0.528776 0.150199 0.158594
Si Si2 0.153985 0.946771 0.066770
Si Si3 0.230020 0.404154 0.917449
Si Si4 0.831607 0.402413 0.823642
Si Si5 0.732747 0.727744 0.548414
O O1 0.427264 0.207465 0.407021
O O2 0.324015 0.046258 0.146737
O O3 0.693776 0.094256 0.177953
O O4 0.665930 0.267465 0.862195
O O5 0.977739 0.826110 0.330922
O O6 0.000000 0.000000 0.000000
O O7 0.697339 0.467146 0.011694
O O8 0.323117 0.378984 0.605130
O O9 0.983118 0.379109 0.972197
O O10 0.248027 0.314168 0.151917
O O11 0.000000 0.500000 0.500000
#
# Coordination Sequence:
#
# PCOD9062318 Si02
#       5
#     2   2   2   2   2
#     4  11  26  46  81 118 149 217 261 312 410 461
#     4  11  25  53  78 115 161 202 264 334 383 468
#     4  11  24  47  78 108 164 202 246 335 382 448
#     4  11  23  50  78 114 159 205 261 321 385 473
#     4  12  25  50  76 117 157 202 262 323 388 470
#
# _framework density 26.571871000000002
#
# number of rings (size 3 to 8) (size 9 to 14) (size 15 to 20)
#    0.000    0.800    4.000    1.800    0.000    2.400 
#   25.200    0.000    0.000    0.000    0.000    0.000 
#    0.000    0.000    0.000    0.000    0.000    0.000 
#
# Total GULP energy -56009.372072 kJ/mol
# GULP energy per Si atom -5600.937207 kJ/mol
# Density = 2.651139 g / cm^3
# Si number density = 26.571871 Si / 1000 Ang^3
#
#
#
# Elastic Constant Matrix: (Units=GPa)
#
#
# Indices 1 2 3 4 5 6 
#
# 1 209.8129 59.4191 59.3228 8.8724 -20.3967 -35.8254
# 2 59.4191 157.4285 28.3313 -1.7435 -22.9057 -3.4736
# 3 59.3228 28.3313 94.8410 13.7819 -12.7556 8.6126
# 4 8.8724 -1.7435 13.7819 42.6204 -4.5098 -33.9388
# 5 -20.3967 -22.9057 -12.7556 -4.5098 47.6476 12.8496
# 6 -35.8254 -3.4736 8.6126 -33.9388 12.8496 62.3204
#
#
#
# Elastic Compliance Matrix: (Units=1/GPa)
#
#
# Indices 1 2 3 4 5 6 
#
# 1 0.008879 -0.001807 -0.007642 0.009626 -0.001324 0.011575
# 2 -0.001807 0.007589 -0.000762 0.000627 0.002939 -0.000775
# 3 -0.007642 -0.000762 0.020931 -0.020045 0.005282 -0.019334
# 4 0.009626 0.000627 -0.020045 0.061806 -0.006798 0.043399
# 5 -0.001324 0.002939 0.005282 -0.006798 0.025371 -0.010260
# 6 0.011575 -0.000775 -0.019334 0.043399 -0.010260 0.051079
#
#
# Mechanical properties :
#
#
# Convention : Reuss Voigt Hill
#
# Bulk Modulus (GPa) = 58.90576 84.02541 71.46559
# Shear Modulus (GPa) = 24.78490 51.51830 38.15160
#
# Velocity S-wave (km/s) = 3.05741 4.40799 3.79329
# Velocity P-wave (km/s) = 5.88899 7.58932 6.79257
#
# Compressibility (1/GPa) = 0.01697627
#
# Stress axis : x y z
#
# Youngs Moduli (GPa) = 112.62299 131.77593 47.77640
#
# Poissons Ratio (x) = 0.23807 0.36512
# Poissons Ratio (y) = 0.20347 0.03643
# Poissons Ratio (z) = 0.86068 0.10047
#
# Static dielectric constant tensor:
#      x y z
#    x 2.030260 -0.000280 -0.044510 
#    y -0.000280 2.146250 -0.052140 
#    z -0.044510 -0.052140 2.107470 
# 
# From -- ./inp_files/2501.got.cif
#   From: 2010.05.17/outbox.cif.g08.bks.cpg/sg2_2_cif.got.tgz:2501.got - 2010.06.03 11:33:40.
