data_PCOD9062233
_publ_section_title
;
Structure prediction by ZEFSAII (Michael W. Deem and Ramdas Pophale) SiO2 
 PCOD9062233
Probable space group: P -1
;
_chemical_formula_sum "Si O2"
_cell_formula_units_Z 12
_cell_length_a 16.736595
_cell_length_b 6.585179
_cell_length_c 4.916683
_cell_angle_alpha 79.547648
_cell_angle_beta 77.391864
_cell_angle_gamma 108.005434
_cell_volume 484.498261
_symmetry_space_group_name_H-M "P -1"
_symmetry_group_IT_number 2
_symmetry_cell_setting 'triclinic'
loop_
_space_group_symop_operation_xyz
x,y,z
-x,-y,-z
loop_
_atom_site_type_symbol
_atom_site_label
_atom_site_fract_x
_atom_site_fract_y
_atom_site_fract_z
Si Si1 0.366426 0.907749 0.745097
Si Si2 0.687756 0.519074 0.865695
Si Si3 0.007463 0.353257 0.284569
Si Si4 0.077289 0.038458 0.160762
Si Si5 0.473420 0.690525 0.330036
Si Si6 0.254180 0.176445 0.730728
O O1 0.414164 0.789143 0.538762
O O2 0.439519 0.091729 0.828239
O O3 0.312365 0.040557 0.613359
O O4 0.299303 0.707406 0.014122
O O5 0.587126 0.425491 0.851073
O O6 0.747213 0.656857 0.545207
O O7 0.700452 0.675852 0.077622
O O8 0.000000 0.500000 0.500000
O O9 0.092608 0.288687 0.183183
O O10 0.943129 0.115787 0.519076
O O11 0.000000 0.500000 0.000000
O O12 0.159410 0.023514 0.943458
O O13 0.000000 0.000000 0.000000
O O14 0.500000 0.500000 0.500000
#
# Coordination Sequence:
#
# PCOD9062233 Si02
#       6
#     2   2   2   2   2   2
#     4  11  25  46  74 108 145 195 242 292 367 427
#     4  12  26  49  68 111 145 192 239 303 359 434
#     4  11  24  46  75 109 139 186 244 301 370 443
#     4  11  27  50  77 110 147 195 251 310 369 445
#     4  11  23  48  75 106 147 193 245 297 357 438
#     4  12  30  46  74 106 153 187 244 305 364 430
#
# _framework density 24.767892
#
# number of rings (size 3 to 8) (size 9 to 14) (size 15 to 20)
#    0.000    0.667    5.000    0.500    7.000    5.333 
#    0.000    1.667    0.000    0.000    0.000    0.000 
#    0.000    0.000    0.000    0.000    0.000    0.000 
#
# Total GULP energy -67049.155221 kJ/mol
# GULP energy per Si atom -5587.429602 kJ/mol
# Density = 2.471152 g / cm^3
# Si number density = 24.767892 Si / 1000 Ang^3
#
#
#
# Elastic Constant Matrix: (Units=GPa)
#
#
# Indices 1 2 3 4 5 6 
#
# 1 84.1516 46.0044 27.7746 -0.2988 2.3172 -2.6529
# 2 46.0044 122.6902 57.5115 -4.1288 19.1950 -18.1102
# 3 27.7746 57.5115 173.5773 -15.6635 15.2038 -4.5069
# 4 -0.2988 -4.1288 -15.6635 55.5849 1.3594 0.8776
# 5 2.3172 19.1950 15.2038 1.3594 37.2453 4.2693
# 6 -2.6529 -18.1102 -4.5069 0.8776 4.2693 32.2491
#
#
#
# Elastic Compliance Matrix: (Units=1/GPa)
#
#
# Indices 1 2 3 4 5 6 
#
# 1 0.015415 -0.006311 -0.000762 -0.000629 0.002943 -0.002755
# 2 -0.006311 0.014045 -0.002840 0.000246 -0.006594 0.007838
# 3 -0.000762 -0.002840 0.007097 0.001827 -0.001392 -0.000531
# 4 -0.000629 0.000246 0.001827 0.018557 -0.001515 0.000038
# 5 0.002943 -0.006594 -0.001392 -0.001515 0.031581 -0.007795
# 6 -0.002755 0.007838 -0.000531 0.000038 -0.007795 0.036140
#
#
# Mechanical properties :
#
#
# Convention : Reuss Voigt Hill
#
# Bulk Modulus (GPa) = 59.77072 71.44445 65.60759
# Shear Modulus (GPa) = 33.72933 41.62442 37.67688
#
# Velocity S-wave (km/s) = 3.69428 4.10394 3.90449
# Velocity P-wave (km/s) = 6.51012 7.16691 6.84640
#
# Compressibility (1/GPa) = 0.01673060
#
# Stress axis : x y z
#
# Youngs Moduli (GPa) = 64.87240 71.19741 140.90257
#
# Poissons Ratio (x) = 0.44936 0.10730
# Poissons Ratio (y) = 0.40944 0.40023
# Poissons Ratio (z) = 0.04940 0.20224
#
# Static dielectric constant tensor:
#      x y z
#    x 2.107600 -0.087300 0.055790 
#    y -0.087300 2.187150 -0.131990 
#    z 0.055790 -0.131990 2.103610 
# 
# From -- ./inp_files/102411.got.cif
#   From: 2010.05.17/outbox.cif.g08.bks.cpg/sg2_52_cif.got.tgz:102411.got - 2010.06.03 11:33:40.
