data_PCOD9062918
_publ_section_title
;
Structure prediction by ZEFSAII (Michael W. Deem and Ramdas Pophale) SiO2 
 PCOD9062918
Probable space group: P -1
;
_chemical_formula_sum "Si O2"
_cell_formula_units_Z 16
_cell_length_a 9.277333
_cell_length_b 12.379209
_cell_length_c 15.516322
_cell_angle_alpha 62.261995
_cell_angle_beta 103.022207
_cell_angle_gamma 149.371721
_cell_volume 740.427488
_symmetry_space_group_name_H-M "P -1"
_symmetry_group_IT_number 2
_symmetry_cell_setting 'triclinic'
loop_
_space_group_symop_operation_xyz
x,y,z
-x,-y,-z
loop_
_atom_site_type_symbol
_atom_site_label
_atom_site_fract_x
_atom_site_fract_y
_atom_site_fract_z
Si Si1 0.501352 0.871907 0.154412
Si Si2 0.014334 0.927896 0.444353
Si Si3 0.633652 0.486606 0.274550
Si Si4 0.815478 0.267223 0.680250
Si Si5 0.836028 0.229061 0.500187
Si Si6 0.463221 0.363005 0.111771
Si Si7 0.235579 0.189596 0.724815
Si Si8 0.985792 0.405670 0.947741
O O1 0.463641 0.913970 0.225302
O O2 0.582328 0.793259 0.220078
O O3 0.196748 0.663115 0.131042
O O4 0.776893 0.136445 0.042549
O O5 0.983046 0.760168 0.511560
O O6 0.804764 0.831207 0.375967
O O7 0.365241 0.195581 0.360495
O O8 0.000000 0.000000 0.500000
O O9 0.584542 0.501977 0.167565
O O10 0.613576 0.577346 0.308497
O O11 0.951837 0.649278 0.267561
O O12 0.781757 0.184510 0.612419
O O13 0.967604 0.509411 0.593480
O O14 0.500000 0.000000 0.500000
O O15 0.679415 0.404352 0.101983
O O16 0.500000 0.500000 0.000000
O O17 0.109885 0.069015 0.186383
O O18 0.000000 0.500000 0.000000
#
# Coordination Sequence:
#
# PCOD9062918 Si02
#       8
#     2   2   2   2   2   2   2   2
#     4  11  26  44  65 103 131 171 224 273 330 396
#     4  11  26  43  65 100 138 171 224 278 330 395
#     4  11  24  44  68  97 130 180 222 268 336 396
#     4  11  24  43  68  96 131 175 225 271 328 397
#     4  11  24  43  66  95 131 178 221 271 330 393
#     4  11  24  46  67  97 134 173 220 270 329 403
#     4  11  26  43  69  97 136 177 222 270 335 398
#     4  11  26  44  68  97 136 171 218 276 334 390
#
# _framework density 21.609137
#
# number of rings (size 3 to 8) (size 9 to 14) (size 15 to 20)
#    0.000    1.000    5.000    0.000    7.000    2.000 
#    0.000    0.000    0.000    0.000    0.000    0.000 
#    0.000    0.000    0.000    0.000    0.000    0.000 
#
# Total GULP energy -89480.339485 kJ/mol
# GULP energy per Si atom -5592.521218 kJ/mol
# Density = 2.155995 g / cm^3
# Si number density = 21.609137 Si / 1000 Ang^3
#
#
#
# Elastic Constant Matrix: (Units=GPa)
#
#
# Indices 1 2 3 4 5 6 
#
# 1 125.5771 28.4657 20.8967 15.8668 9.2538 0.0538
# 2 28.4657 73.2165 25.4835 23.1140 6.4025 -2.4533
# 3 20.8967 25.4835 72.9574 21.7781 1.0536 3.1511
# 4 15.8668 23.1140 21.7781 30.9422 -3.2250 -5.6378
# 5 9.2538 6.4025 1.0536 -3.2250 40.5558 3.2544
# 6 0.0538 -2.4533 3.1511 -5.6378 3.2544 38.9394
#
#
#
# Elastic Compliance Matrix: (Units=1/GPa)
#
#
# Indices 1 2 3 4 5 6 
#
# 1 0.009097 -0.002226 -0.001037 -0.002517 -0.001875 -0.000277
# 2 -0.002226 0.019497 -0.002541 -0.011997 -0.003457 -0.000011
# 3 -0.001037 -0.002541 0.018358 -0.011125 -0.000466 -0.003216
# 4 -0.002517 -0.011997 -0.011125 0.052374 0.006344 0.007201
# 5 -0.001875 -0.003457 -0.000466 0.006344 0.026264 -0.001454
# 6 -0.000277 -0.000011 -0.003216 0.007201 -0.001454 0.027105
#
#
# Mechanical properties :
#
#
# Convention : Reuss Voigt Hill
#
# Bulk Modulus (GPa) = 28.29450 46.82698 37.56074
# Shear Modulus (GPa) = 28.39514 35.21449 31.80482
#
# Velocity S-wave (km/s) = 3.62889 4.04122 3.84060
# Velocity P-wave (km/s) = 5.53901 6.59487 6.08987
#
# Compressibility (1/GPa) = 0.03534255
#
# Stress axis : x y z
#
# Youngs Moduli (GPa) = 109.92756 51.28892 54.47230
#
# Poissons Ratio (x) = 0.11418 0.05651
# Poissons Ratio (y) = 0.24472 0.13842
# Poissons Ratio (z) = 0.11405 0.13033
#
# Static dielectric constant tensor:
#      x y z
#    x 1.761350 -0.006800 -0.023950 
#    y -0.006800 1.792580 -0.011520 
#    z -0.023950 -0.011520 1.813120 
# 
# From -- ./inp_files/37334.got.cif
#   From: 2010.05.17/outbox.cif.g08.bks.cpg/sg2_19_cif.got.tgz:37334.got - 2010.06.03 11:33:40.
