data_PCOD9062959
_publ_section_title
;
Structure prediction by ZEFSAII (Michael W. Deem and Ramdas Pophale) SiO2 
 PCOD9062959
Probable space group: P -1
;
_chemical_formula_sum "Si O2"
_cell_formula_units_Z 15
_cell_length_a 6.138880
_cell_length_b 27.177008
_cell_length_c 9.010557
_cell_angle_alpha 34.795367
_cell_angle_beta 52.028353
_cell_angle_gamma 44.914542
_cell_volume 603.557762
_symmetry_space_group_name_H-M "P -1"
_symmetry_group_IT_number 2
_symmetry_cell_setting 'triclinic'
loop_
_space_group_symop_operation_xyz
x,y,z
-x,-y,-z
loop_
_atom_site_type_symbol
_atom_site_label
_atom_site_fract_x
_atom_site_fract_y
_atom_site_fract_z
Si Si1 0.560772 0.375283 0.906642
Si Si2 0.000000 0.000000 0.500000
Si Si3 0.851469 0.727655 0.573716
Si Si4 0.396551 0.177930 0.269391
Si Si5 0.820218 0.970404 0.329196
Si Si6 0.474082 0.865317 0.161396
Si Si7 0.488585 0.573098 0.543504
Si Si8 0.728203 0.697083 0.246124
O O1 0.508305 0.467407 0.800699
O O2 0.454372 0.411575 0.692194
O O3 0.928760 0.314267 0.884590
O O4 0.392388 0.316863 0.193117
O O5 0.711170 0.107080 0.394634
O O6 0.101159 0.983627 0.675730
O O7 0.866936 0.759607 0.656078
O O8 0.714801 0.826301 0.290681
O O9 0.155475 0.649992 0.556994
O O10 0.277215 0.112699 0.389517
O O11 0.452316 0.247578 0.962001
O O12 0.128770 0.915276 0.241961
O O13 0.536988 0.048917 0.151952
O O14 0.557427 0.768197 0.274994
O O15 0.725185 0.594299 0.494463
#
# Coordination Sequence:
#
# PCOD9062959 Si02
#       8
#     2   1   2   2   2   2   2   2
#     4  11  25  46  73 105 144 181 233 298 362 422
#     4  12  24  42  68  94 140 180 238 284 352 400
#     4  12  24  48  74 104 142 192 236 293 354 429
#     4  12  26  42  70 101 138 188 241 283 353 419
#     4  11  25  45  63 102 143 187 236 293 346 417
#     4  11  24  43  67  99 143 186 235 290 348 413
#     4  11  25  46  72 107 141 182 234 299 359 421
#     4  12  24  45  72 103 142 186 237 292 351 431
#
# _framework density 24.852633999999998
#
# number of rings (size 3 to 8) (size 9 to 14) (size 15 to 20)
#    0.000    0.533    5.333    2.800    0.000    1.600 
#    0.000    1.333    0.000    0.000    0.000    0.000 
#    0.000    0.000    0.000    0.000    0.000    0.000 
#
# Total GULP energy -83673.505310 kJ/mol
# GULP energy per Si atom -5578.233687 kJ/mol
# Density = 2.479607 g / cm^3
# Si number density = 24.852634 Si / 1000 Ang^3
#
#
#
# Elastic Constant Matrix: (Units=GPa)
#
#
# Indices 1 2 3 4 5 6 
#
# 1 34.1372 11.8860 23.2859 0.9208 -4.8330 0.5234
# 2 11.8860 149.4824 25.6614 13.9053 -2.9033 -1.4941
# 3 23.2859 25.6614 67.9594 -5.2176 -12.7849 5.8387
# 4 0.9208 13.9053 -5.2176 30.9923 1.8309 -2.2511
# 5 -4.8330 -2.9033 -12.7849 1.8309 35.9295 -6.4107
# 6 0.5234 -1.4941 5.8387 -2.2511 -6.4107 46.9156
#
#
#
# Elastic Compliance Matrix: (Units=1/GPa)
#
#
# Indices 1 2 3 4 5 6 
#
# 1 0.038689 -0.000481 -0.013262 -0.003130 0.000813 0.001165
# 2 -0.000481 0.007619 -0.003098 -0.003880 -0.000281 0.000409
# 3 -0.013262 -0.003098 0.021944 0.005045 0.005209 -0.001728
# 4 -0.003130 -0.003880 0.005045 0.035047 -0.000567 0.000888
# 5 0.000813 -0.000281 0.005209 -0.000567 0.030419 0.003463
# 6 0.001165 0.000409 -0.001728 0.000888 0.003463 0.022046
#
#
# Mechanical properties :
#
#
# Convention : Reuss Voigt Hill
#
# Bulk Modulus (GPa) = 28.92656 41.47173 35.19914
# Shear Modulus (GPa) = 24.87913 35.48387 30.18150
#
# Velocity S-wave (km/s) = 3.16740 3.78268 3.48863
# Velocity P-wave (km/s) = 5.00410 5.98344 5.51555
#
# Compressibility (1/GPa) = 0.03457031
#
# Stress axis : x y z
#
# Youngs Moduli (GPa) = 25.84689 131.24460 45.56951
#
# Poissons Ratio (x) = 0.06313 0.60436
# Poissons Ratio (y) = 0.01243 0.14118
# Poissons Ratio (z) = 0.34279 0.40660
#
# Static dielectric constant tensor:
#      x y z
#    x 2.044370 0.013090 -0.017880 
#    y 0.013090 1.964570 0.014870 
#    z -0.017880 0.014870 1.978330 
# 
# From -- ./inp_files/142481.got.cif
#   From: 2010.05.17/outbox.cif.g08.bks.cpg/sg2_72_cif.got.tgz:142481.got - 2010.06.03 11:33:40.
