data_PCOD9062306
_publ_section_title
;
Structure prediction by ZEFSAII (Michael W. Deem and Ramdas Pophale) SiO2 
 PCOD9062306
Probable space group: P -1
;
_chemical_formula_sum "Si O2"
_cell_formula_units_Z 16
_cell_length_a 9.527667
_cell_length_b 11.212222
_cell_length_c 9.314235
_cell_angle_alpha 79.497922
_cell_angle_beta 126.894044
_cell_angle_gamma 85.458127
_cell_volume 759.582101
_symmetry_space_group_name_H-M "P -1"
_symmetry_group_IT_number 2
_symmetry_cell_setting 'triclinic'
loop_
_space_group_symop_operation_xyz
x,y,z
-x,-y,-z
loop_
_atom_site_type_symbol
_atom_site_label
_atom_site_fract_x
_atom_site_fract_y
_atom_site_fract_z
Si Si1 0.853652 0.720415 0.656172
Si Si2 0.303127 0.050547 0.298697
Si Si3 0.041698 0.122281 0.569910
Si Si4 0.278007 0.594253 0.982254
Si Si5 0.485396 0.633424 0.390659
Si Si6 0.280742 0.809423 0.466447
Si Si7 0.470347 0.312182 0.107223
Si Si8 0.344771 0.083028 0.984127
O O1 0.788608 0.811639 0.731825
O O2 0.873031 0.808166 0.514713
O O3 0.687287 0.658792 0.522450
O O4 0.058654 0.639461 0.833365
O O5 0.325427 0.039501 0.144295
O O6 0.500000 0.000000 0.500000
O O7 0.208004 0.950868 0.335973
O O8 0.875057 0.217264 0.522880
O O9 0.171538 0.077545 0.790659
O O10 0.000000 0.000000 0.500000
O O11 0.385666 0.632750 0.176696
O O12 0.339003 0.443361 0.042969
O O13 0.368760 0.651500 0.892415
O O14 0.500000 0.500000 0.500000
O O15 0.349389 0.731791 0.385006
O O16 0.448580 0.773529 0.687861
O O17 0.373270 0.223368 0.976883
O O18 0.500000 0.000000 0.000000
#
# Coordination Sequence:
#
# PCOD9062306 Si02
#       8
#     2   2   2   2   2   2   2   2
#     4  12  26  48  78 109 150 197 253 310 368 449
#     4  12  24  44  73 109 145 192 243 310 379 440
#     4  12  26  46  70 111 149 190 246 307 376 451
#     4  11  27  46  77 102 149 198 253 300 371 444
#     4  12  27  47  71 108 147 197 245 307 369 436
#     4  12  24  46  72 101 154 182 241 311 372 436
#     4  11  23  50  70 107 143 195 246 306 366 443
#     4  12  27  43  75 107 150 198 243 306 385 443
#
# _framework density 21.064215999999998
#
# number of rings (size 3 to 8) (size 9 to 14) (size 15 to 20)
#    0.000    0.250    6.250    2.250    3.500    2.000 
#    0.000    2.500    0.000    0.000    0.000    0.000 
#    0.000    0.000    0.000    0.000    0.000    0.000 
#
# Total GULP energy -89318.452109 kJ/mol
# GULP energy per Si atom -5582.403257 kJ/mol
# Density = 2.101627 g / cm^3
# Si number density = 21.064216 Si / 1000 Ang^3
#
#
#
# Elastic Constant Matrix: (Units=GPa)
#
#
# Indices 1 2 3 4 5 6 
#
# 1 143.9511 59.5968 71.0001 4.4397 1.0737 -10.6633
# 2 59.5968 115.0069 65.3985 21.2107 11.6774 5.7278
# 3 71.0001 65.3985 175.4203 10.1074 -6.3234 -15.4625
# 4 4.4397 21.2107 10.1074 30.1416 -0.7264 -5.3091
# 5 1.0737 11.6774 -6.3234 -0.7264 37.4328 -8.1060
# 6 -10.6633 5.7278 -15.4625 -5.3091 -8.1060 40.3002
#
#
#
# Elastic Compliance Matrix: (Units=1/GPa)
#
#
# Indices 1 2 3 4 5 6 
#
# 1 0.010212 -0.005102 -0.002062 0.003426 0.001762 0.003442
# 2 -0.005102 0.017590 -0.004905 -0.011761 -0.008338 -0.008959
# 3 -0.002062 -0.004905 0.008818 0.001705 0.004105 0.004585
# 4 0.003426 -0.011761 0.001705 0.042338 0.006888 0.010195
# 5 0.001762 -0.008338 0.004105 0.006888 0.032398 0.010650
# 6 0.003442 -0.008959 0.004585 0.010195 0.010650 0.032242
#
#
# Mechanical properties :
#
#
# Convention : Reuss Voigt Hill
#
# Bulk Modulus (GPa) = 80.11507 91.81880 85.96693
# Shear Modulus (GPa) = 29.08714 37.46712 33.27713
#
# Velocity S-wave (km/s) = 3.72005 4.22205 3.97897
# Velocity P-wave (km/s) = 7.52117 8.21293 7.87465
#
# Compressibility (1/GPa) = 0.01248205
#
# Stress axis : x y z
#
# Youngs Moduli (GPa) = 97.92409 56.85019 113.40711
#
# Poissons Ratio (x) = 0.29003 0.23382
# Poissons Ratio (y) = 0.49957 0.55632
# Poissons Ratio (z) = 0.20190 0.27888
#
# Static dielectric constant tensor:
#      x y z
#    x 0.867350 0.256700 -0.456620 
#    y 0.256700 1.747740 0.116410 
#    z -0.456620 0.116410 1.504360 
# 
# From -- ./inp_files/187060.got.cif
#   From: 2010.05.17/outbox.cif.g08.bks.cpg/sg2_94_cif.got.tgz:187060.got - 2010.06.03 11:33:40.
