data_PCOD9062467
_publ_section_title
;
Structure prediction by ZEFSAII (Michael W. Deem and Ramdas Pophale) SiO2 
 PCOD9062467
Probable space group: P -1
;
_chemical_formula_sum "Si O2"
_cell_formula_units_Z 16
_cell_length_a 12.667011
_cell_length_b 6.509413
_cell_length_c 11.235128
_cell_angle_alpha 58.182260
_cell_angle_beta 105.232913
_cell_angle_gamma 95.929399
_cell_volume 758.822980
_symmetry_space_group_name_H-M "P -1"
_symmetry_group_IT_number 2
_symmetry_cell_setting 'triclinic'
loop_
_space_group_symop_operation_xyz
x,y,z
-x,-y,-z
loop_
_atom_site_type_symbol
_atom_site_label
_atom_site_fract_x
_atom_site_fract_y
_atom_site_fract_z
Si Si1 0.484523 0.214933 0.590740
Si Si2 0.081985 0.164545 0.304554
Si Si3 0.210676 0.366607 0.829479
Si Si4 0.267658 0.582492 0.030100
Si Si5 0.070065 0.904166 0.938616
Si Si6 0.602456 0.945394 0.131722
Si Si7 0.034128 0.666119 0.566422
Si Si8 0.338703 0.154312 0.334656
O O1 0.500000 0.500000 0.500000
O O2 0.434889 0.130055 0.726045
O O3 0.400827 0.159149 0.476874
O O4 0.599292 0.063588 0.651229
O O5 0.209269 0.133328 0.321713
O O6 0.009873 0.193200 0.156111
O O7 0.049232 0.355559 0.340303
O O8 0.040873 0.924169 0.428271
O O9 0.325347 0.275173 0.836705
O O10 0.152944 0.593681 0.677408
O O11 0.132306 0.145154 0.847819
O O12 0.223161 0.428412 0.953354
O O13 0.345284 0.405566 0.186664
O O14 0.166954 0.697466 0.043818
O O15 0.328845 0.810773 0.924988
O O16 0.000000 0.000000 0.000000
O O17 0.500000 0.000000 0.000000
O O18 0.000000 0.500000 0.500000
#
# Coordination Sequence:
#
# PCOD9062467 Si02
#       8
#     2   2   2   2   2   2   2   2
#     4  11  27  48  69  99 136 170 229 282 345 404
#     4  11  25  41  67 101 137 176 231 275 339 407
#     4  11  24  41  69  98 134 182 227 278 341 402
#     4  11  25  46  69  99 141 175 232 283 338 409
#     4  11  24  41  64 101 139 182 226 274 336 408
#     4  11  26  45  72 100 131 181 231 285 341 405
#     4  11  24  41  67  99 139 180 224 279 338 407
#     4  11  27  44  70 101 132 181 220 283 346 400
#
# _framework density 21.085286
#
# number of rings (size 3 to 8) (size 9 to 14) (size 15 to 20)
#    0.000    1.000    2.500    2.250    7.000    7.000 
#    0.000    0.000    0.000    0.000    0.000    0.000 
#    0.000    0.000    0.000    0.000    0.000    0.000 
#
# Total GULP energy -89433.958968 kJ/mol
# GULP energy per Si atom -5589.622436 kJ/mol
# Density = 2.103730 g / cm^3
# Si number density = 21.085286 Si / 1000 Ang^3
#
#
#
# Elastic Constant Matrix: (Units=GPa)
#
#
# Indices 1 2 3 4 5 6 
#
# 1 139.9897 47.3930 47.6590 2.4353 -3.7097 -32.2705
# 2 47.3930 81.5546 28.5835 4.9413 -12.0860 -25.3671
# 3 47.6590 28.5835 124.3631 2.0051 -5.0756 -24.9819
# 4 2.4353 4.9413 2.0051 36.1681 -3.0090 1.1181
# 5 -3.7097 -12.0860 -5.0756 -3.0090 38.0752 -1.3994
# 6 -32.2705 -25.3671 -24.9819 1.1181 -1.3994 43.2055
#
#
#
# Elastic Compliance Matrix: (Units=1/GPa)
#
#
# Indices 1 2 3 4 5 6 
#
# 1 0.010131 -0.003932 -0.002193 -0.000182 -0.000421 0.003981
# 2 -0.003932 0.018069 -0.000917 -0.001936 0.005348 0.007365
# 3 -0.002193 -0.000917 0.009849 -0.000307 0.000914 0.003556
# 4 -0.000182 -0.001936 -0.000307 0.028131 0.001472 -0.002130
# 5 -0.000421 0.005348 0.000914 0.001472 0.028314 0.004233
# 6 0.003981 0.007365 0.003556 -0.002130 0.004233 0.032691
#
#
# Mechanical properties :
#
#
# Convention : Reuss Voigt Hill
#
# Bulk Modulus (GPa) = 41.72925 65.90872 53.81899
# Shear Modulus (GPa) = 33.49941 38.30789 35.90365
#
# Velocity S-wave (km/s) = 3.99025 4.26703 4.13095
# Velocity P-wave (km/s) = 6.40805 7.45672 6.95219
#
# Compressibility (1/GPa) = 0.02396401
#
# Stress axis : x y z
#
# Youngs Moduli (GPa) = 98.70807 55.34473 101.53511
#
# Poissons Ratio (x) = 0.21759 0.22269
# Poissons Ratio (y) = 0.38808 0.09313
# Poissons Ratio (z) = 0.21649 0.05076
#
# Static dielectric constant tensor:
#      x y z
#    x 1.776990 -0.031840 -0.012650 
#    y -0.031840 1.808160 -0.025560 
#    z -0.012650 -0.025560 1.743400 
# 
# From -- ./inp_files/410116.got.cif
#   From: 2010.05.17/outbox.cif.g08.bks.cpg/sg2_206_cif.got.tgz:410116.got - 2010.06.03 11:33:40.
