data_PCOD9062894
_publ_section_title
;
Structure prediction by ZEFSAII (Michael W. Deem and Ramdas Pophale) SiO2 
 PCOD9062894
Probable space group: P -1
;
_chemical_formula_sum "Si O2"
_cell_formula_units_Z 16
_cell_length_a 5.359105
_cell_length_b 18.854818
_cell_length_c 9.190287
_cell_angle_alpha 100.413786
_cell_angle_beta 53.324818
_cell_angle_gamma 102.724027
_cell_volume 725.066236
_symmetry_space_group_name_H-M "P -1"
_symmetry_group_IT_number 2
_symmetry_cell_setting 'triclinic'
loop_
_space_group_symop_operation_xyz
x,y,z
-x,-y,-z
loop_
_atom_site_type_symbol
_atom_site_label
_atom_site_fract_x
_atom_site_fract_y
_atom_site_fract_z
Si Si1 0.201543 0.022847 0.689496
Si Si2 0.500701 0.148653 0.813553
Si Si3 0.536638 0.307754 0.827716
Si Si4 0.836967 0.862695 0.499877
Si Si5 0.617516 0.923226 0.888957
Si Si6 0.719458 0.697874 0.398852
Si Si7 0.719408 0.565833 0.871197
Si Si8 0.547219 0.432871 0.354639
O O1 0.274355 0.077437 0.817024
O O2 0.083959 0.072911 0.622464
O O3 0.500000 0.000000 0.500000
O O4 0.988743 0.950011 0.786563
O O5 0.375086 0.224401 0.868471
O O6 0.802915 0.151218 0.602630
O O7 0.547953 0.136024 0.963773
O O8 0.460353 0.328529 0.696954
O O9 0.906212 0.308012 0.735471
O O10 0.389526 0.360167 0.006314
O O11 0.628443 0.891848 0.709963
O O12 0.684759 0.783103 0.467405
O O13 0.500000 0.000000 0.000000
O O14 0.577148 0.644213 0.555393
O O15 0.645803 0.560406 0.723417
O O16 0.077978 0.563449 0.791313
O O17 0.500000 0.500000 0.000000
O O18 0.500000 0.500000 0.500000
#
# Coordination Sequence:
#
# PCOD9062894 Si02
#       8
#     2   2   2   2   2   2   2   2
#     4  12  22  43  65  91 127 177 227 289 354 411
#     4  11  24  43  65  96 132 180 229 290 354 419
#     4  11  24  46  70 100 141 183 230 285 353 408
#     4  11  24  44  64  93 138 176 227 291 359 410
#     4  12  24  41  67  93 129 175 235 294 349 423
#     4  11  24  46  71  98 140 187 227 284 350 416
#     4  12  25  45  74 109 146 183 229 286 336 406
#     4  12  25  45  74 109 144 186 234 275 339 416
#
# _framework density 22.066949999999999
#
# number of rings (size 3 to 8) (size 9 to 14) (size 15 to 20)
#    0.000    0.500    3.750    5.250    1.750    0.000 
#    4.500    0.000    0.000    0.000    0.000    0.000 
#    0.000    0.000    0.000    0.000    0.000    0.000 
#
# Total GULP energy -89338.354233 kJ/mol
# GULP energy per Si atom -5583.647140 kJ/mol
# Density = 2.201672 g / cm^3
# Si number density = 22.066950 Si / 1000 Ang^3
#
#
#
# Elastic Constant Matrix: (Units=GPa)
#
#
# Indices 1 2 3 4 5 6 
#
# 1 46.7123 -8.1093 0.3435 11.1849 1.5145 -2.7409
# 2 -8.1093 77.6226 14.6153 10.3185 -1.7032 1.3235
# 3 0.3435 14.6153 97.4235 15.9101 3.8456 -2.4659
# 4 11.1849 10.3185 15.9101 48.0250 -3.0865 4.6369
# 5 1.5145 -1.7032 3.8456 -3.0865 48.7609 -1.2815
# 6 -2.7409 1.3235 -2.4659 4.6369 -1.2815 29.6716
#
#
#
# Elastic Compliance Matrix: (Units=1/GPa)
#
#
# Indices 1 2 3 4 5 6 
#
# 1 0.023807 0.003192 0.000671 -0.006822 -0.001030 0.003134
# 2 0.003192 0.013947 -0.001592 -0.003197 0.000313 0.000054
# 3 0.000671 -0.001592 0.011200 -0.003753 -0.001155 0.001600
# 4 -0.006822 -0.003197 -0.003753 0.024906 0.001852 -0.004612
# 5 -0.001030 0.000313 -0.001155 0.001852 0.020770 0.000403
# 6 0.003134 0.000054 0.001600 -0.004612 0.000403 0.034860
#
#
# Mechanical properties :
#
#
# Convention : Reuss Voigt Hill
#
# Bulk Modulus (GPa) = 18.69316 26.16194 22.42755
# Shear Modulus (GPa) = 35.01845 39.61878 37.31861
#
# Velocity S-wave (km/s) = 3.98794 4.24180 4.11683
# Velocity P-wave (km/s) = 5.44925 5.98932 5.72566
#
# Compressibility (1/GPa) = 0.05349550
#
# Stress axis : x y z
#
# Youngs Moduli (GPa) = 42.00366 71.69959 89.28525
#
# Poissons Ratio (x) = -0.22883 -0.05994
# Poissons Ratio (y) = -0.13406 0.14218
# Poissons Ratio (z) = -0.02820 0.11417
#
# Static dielectric constant tensor:
#      x y z
#    x 1.941110 -0.036150 0.016610 
#    y -0.036150 1.793760 -0.013330 
#    z 0.016610 -0.013330 1.833690 
# 
# From -- ./inp_files/51229.got.cif
#   From: 2010.05.17/outbox.cif.g08.bks.cpg/sg2_26_cif.got.tgz:51229.got - 2010.06.03 11:33:40.
