data_PCOD9062549
_publ_section_title
;
Structure prediction by ZEFSAII (Michael W. Deem and Ramdas Pophale) SiO2 
 PCOD9062549
Probable space group: P -1
;
_chemical_formula_sum "Si O2"
_cell_formula_units_Z 16
_cell_length_a 11.667001
_cell_length_b 9.181925
_cell_length_c 13.371417
_cell_angle_alpha 81.616807
_cell_angle_beta 150.292703
_cell_angle_gamma 91.503433
_cell_volume 687.397200
_symmetry_space_group_name_H-M "P -1"
_symmetry_group_IT_number 2
_symmetry_cell_setting 'triclinic'
loop_
_space_group_symop_operation_xyz
x,y,z
-x,-y,-z
loop_
_atom_site_type_symbol
_atom_site_label
_atom_site_fract_x
_atom_site_fract_y
_atom_site_fract_z
Si Si1 0.594354 0.216664 0.868874
Si Si2 0.275764 0.899406 0.496375
Si Si3 0.210119 0.296811 0.111395
Si Si4 0.264990 0.584861 0.867149
Si Si5 0.111666 0.128787 0.517710
Si Si6 0.040721 0.654903 0.289891
Si Si7 0.947572 0.937466 0.859958
Si Si8 0.462372 0.538281 0.351170
O O1 0.358730 0.169496 0.737518
O O2 0.560149 0.295280 0.725285
O O3 0.666950 0.336033 0.988478
O O4 0.822047 0.085800 0.034030
O O5 0.539010 0.805768 0.724750
O O6 0.077205 0.797861 0.367056
O O7 0.203177 0.049032 0.490260
O O8 0.258713 0.948853 0.363253
O O9 0.126669 0.218558 0.153482
O O10 0.259924 0.457871 0.163611
O O11 0.027119 0.303718 0.881109
O O12 0.135315 0.448204 0.801311
O O13 0.088830 0.720157 0.662031
O O14 0.500000 0.500000 0.000000
O O15 0.000000 0.000000 0.500000
O O16 0.295709 0.549959 0.503306
O O17 0.000000 0.000000 0.000000
O O18 0.500000 0.500000 0.500000
#
# Coordination Sequence:
#
# PCOD9062549 Si02
#       8
#     2   2   2   2   2   2   2   2
#     4  12  27  48  73 110 147 187 247 301 363 444
#     4  11  26  45  71 106 150 194 246 298 359 440
#     4  11  24  41  69 104 148 196 235 289 360 435
#     4  12  29  50  79 104 143 194 249 318 376 428
#     4  12  30  51  76 106 144 193 252 317 373 430
#     4  11  24  47  68 107 144 188 250 297 364 442
#     4  12  24  43  71 107 151 195 235 292 361 445
#     4  11  25  40  70 105 149 192 230 292 364 445
#
# _framework density 23.276209000000001
#
# number of rings (size 3 to 8) (size 9 to 14) (size 15 to 20)
#    0.000    0.500    5.000    1.875    8.750    2.000 
#    0.000    0.000    0.000    0.000    0.000    0.000 
#    0.000    0.000    0.000    0.000    0.000    0.000 
#
# Total GULP energy -89448.173082 kJ/mol
# GULP energy per Si atom -5590.510818 kJ/mol
# Density = 2.322323 g / cm^3
# Si number density = 23.276209 Si / 1000 Ang^3
#
#
#
# Elastic Constant Matrix: (Units=GPa)
#
#
# Indices 1 2 3 4 5 6 
#
# 1 52.5916 16.2472 14.3739 1.3687 24.9570 12.4212
# 2 16.2472 92.0244 28.8036 10.2731 21.7638 17.3352
# 3 14.3739 28.8036 101.5328 0.3768 18.9215 7.4682
# 4 1.3687 10.2731 0.3768 43.1408 7.3729 4.6894
# 5 24.9570 21.7638 18.9215 7.3729 38.7976 0.8302
# 6 12.4212 17.3352 7.4682 4.6894 0.8302 55.6945
#
#
#
# Elastic Compliance Matrix: (Units=1/GPa)
#
#
# Indices 1 2 3 4 5 6 
#
# 1 0.029823 0.000380 -0.000166 0.003071 -0.019756 -0.006711
# 2 0.000380 0.014055 -0.002546 -0.001812 -0.006460 -0.003869
# 3 -0.000166 -0.002546 0.011443 0.001325 -0.004282 -0.000753
# 4 0.003071 -0.001812 0.001325 0.024824 -0.006273 -0.002295
# 5 -0.019756 -0.006460 -0.004282 -0.006273 0.045241 0.006845
# 6 -0.006711 -0.003869 -0.000753 -0.002295 0.006845 0.020848
#
#
# Mechanical properties :
#
#
# Convention : Reuss Voigt Hill
#
# Bulk Modulus (GPa) = 19.74002 40.55536 30.14769
# Shear Modulus (GPa) = 29.80029 39.97486 34.88758
#
# Velocity S-wave (km/s) = 3.58200 4.14866 3.87570
# Velocity P-wave (km/s) = 5.06031 6.35688 5.74529
#
# Compressibility (1/GPa) = 0.05065850
#
# Stress axis : x y z
#
# Youngs Moduli (GPa) = 33.53162 71.14654 87.38861
#
# Poissons Ratio (x) = -0.02707 0.01450
# Poissons Ratio (y) = -0.01276 0.22249
# Poissons Ratio (z) = 0.00556 0.18113
#
# Static dielectric constant tensor:
#      x y z
#    x 1.947200 0.130450 0.021730 
#    y 0.130450 2.111790 0.057830 
#    z 0.021730 0.057830 1.887460 
# 
# From -- ./inp_files/85104.got.cif
#   From: 2010.05.17/outbox.cif.g08.bks.cpg/sg2_43_cif.got.tgz:85104.got - 2010.06.03 11:33:40.
