data_PCOD9062212
_publ_section_title
;
Structure prediction by ZEFSAII (Michael W. Deem and Ramdas Pophale) SiO2 
 PCOD9062212
Probable space group: P -1
;
_chemical_formula_sum "Si O2"
_cell_formula_units_Z 14
_cell_length_a 13.697734
_cell_length_b 11.821858
_cell_length_c 9.119549
_cell_angle_alpha 60.062769
_cell_angle_beta 30.942696
_cell_angle_gamma 53.657390
_cell_volume 611.469397
_symmetry_space_group_name_H-M "P -1"
_symmetry_group_IT_number 2
_symmetry_cell_setting 'triclinic'
loop_
_space_group_symop_operation_xyz
x,y,z
-x,-y,-z
loop_
_atom_site_type_symbol
_atom_site_label
_atom_site_fract_x
_atom_site_fract_y
_atom_site_fract_z
Si Si1 0.474345 0.148231 0.507067
Si Si2 0.504920 0.809838 0.992608
Si Si3 0.298749 0.112522 0.044874
Si Si4 0.150612 0.327348 0.596193
Si Si5 0.092039 0.622356 0.583967
Si Si6 0.225897 0.699132 0.059030
Si Si7 0.451201 0.552163 0.364265
O O1 0.257564 0.254381 0.655091
O O2 0.500000 0.000000 0.500000
O O3 0.456527 0.136235 0.711690
O O4 0.659506 0.195293 0.192324
O O5 0.645722 0.868939 0.871269
O O6 0.650563 0.718408 0.736624
O O7 0.442157 0.707816 0.243802
O O8 0.319151 0.952171 0.094655
O O9 0.088335 0.242001 0.213189
O O10 0.045016 0.495237 0.648933
O O11 0.988005 0.270930 0.768803
O O12 0.200295 0.677755 0.278549
O O13 0.239550 0.552349 0.573921
O O14 0.376649 0.552654 0.893079
O O15 0.500000 0.500000 0.500000
#
# Coordination Sequence:
#
# PCOD9062212 Si02
#       7
#     2   2   2   2   2   2   2
#     4  12  27  48  71 106 156 195 246 310 370 438
#     4  11  23  48  72 103 153 195 242 306 372 441
#     4  11  26  46  71 107 151 193 242 312 368 433
#     4  12  24  47  79 106 147 198 249 303 370 448
#     4  12  25  47  78 110 146 196 256 301 371 450
#     4  12  25  47  76 108 144 199 251 301 373 439
#     4  12  26  44  74 113 149 192 252 311 368 436
#
# _framework density 22.895665999999999
#
# number of rings (size 3 to 8) (size 9 to 14) (size 15 to 20)
#    0.000    0.286    5.714    3.429    2.000    1.714 
#    0.000    0.000    0.000    0.000    0.000    0.000 
#    0.000    0.000    0.000    0.000    0.000    0.000 
#
# Total GULP energy -78289.265292 kJ/mol
# GULP energy per Si atom -5592.090378 kJ/mol
# Density = 2.284355 g / cm^3
# Si number density = 22.895666 Si / 1000 Ang^3
#
#
#
# Elastic Constant Matrix: (Units=GPa)
#
#
# Indices 1 2 3 4 5 6 
#
# 1 99.5666 39.6079 37.1719 -6.8541 -2.4922 -3.8834
# 2 39.6079 161.1403 61.5074 -4.5231 -1.3395 7.6753
# 3 37.1719 61.5074 92.1358 -0.5308 9.8812 4.9480
# 4 -6.8541 -4.5231 -0.5308 38.2165 -3.6595 -1.0421
# 5 -2.4922 -1.3395 9.8812 -3.6595 39.3899 -1.3932
# 6 -3.8834 7.6753 4.9480 -1.0421 -1.3932 29.9212
#
#
#
# Elastic Compliance Matrix: (Units=1/GPa)
#
#
# Indices 1 2 3 4 5 6 
#
# 1 0.012631 -0.001437 -0.004518 0.002324 0.002203 0.002939
# 2 -0.001437 0.008688 -0.005306 0.000807 0.001560 -0.001437
# 3 -0.004518 -0.005306 0.016862 -0.001740 -0.004939 -0.002304
# 4 0.002324 0.000807 -0.001740 0.026999 0.003171 0.001470
# 5 0.002203 0.001560 -0.004939 0.003171 0.027187 0.002079
# 6 0.002939 -0.001437 -0.002304 0.001470 0.002079 0.034700
#
#
# Mechanical properties :
#
#
# Convention : Reuss Voigt Hill
#
# Bulk Modulus (GPa) = 63.85396 69.93524 66.89460
# Shear Modulus (GPa) = 32.29810 35.80922 34.05366
#
# Velocity S-wave (km/s) = 3.75996 3.95906 3.86079
# Velocity P-wave (km/s) = 6.84100 7.17707 7.01105
#
# Compressibility (1/GPa) = 0.01566074
#
# Stress axis : x y z
#
# Youngs Moduli (GPa) = 79.16752 115.09819 59.30611
#
# Poissons Ratio (x) = 0.16537 0.26793
# Poissons Ratio (y) = 0.11375 0.31467
# Poissons Ratio (z) = 0.35765 0.61069
#
# Static dielectric constant tensor:
#      x y z
#    x 1.929940 -0.001650 -0.020070 
#    y -0.001650 1.912390 0.004290 
#    z -0.020070 0.004290 1.851280 
# 
# From -- ./inp_files/188272.got.cif
#   From: 2010.05.17/outbox.cif.g08.bks.cpg/sg2_95_cif.got.tgz:188272.got - 2010.06.03 11:33:40.
