data_PCOD9062375
_publ_section_title
;
Structure prediction by ZEFSAII (Michael W. Deem and Ramdas Pophale) SiO2 
 PCOD9062375
Probable space group: P -1
;
_chemical_formula_sum "Si O2"
_cell_formula_units_Z 16
_cell_length_a 9.649628
_cell_length_b 12.680652
_cell_length_c 22.031375
_cell_angle_alpha 44.836725
_cell_angle_beta 26.790079
_cell_angle_gamma 45.610944
_cell_volume 837.757402
_symmetry_space_group_name_H-M "P -1"
_symmetry_group_IT_number 2
_symmetry_cell_setting 'triclinic'
loop_
_space_group_symop_operation_xyz
x,y,z
-x,-y,-z
loop_
_atom_site_type_symbol
_atom_site_label
_atom_site_fract_x
_atom_site_fract_y
_atom_site_fract_z
Si Si1 0.167650 0.266409 0.347900
Si Si2 0.984843 0.161032 0.331702
Si Si3 0.887614 0.884971 0.043791
Si Si4 0.890827 0.676366 0.907883
Si Si5 0.417413 0.068969 0.645456
Si Si6 0.762579 0.352796 0.091217
Si Si7 0.309270 0.903343 0.074092
Si Si8 0.606835 0.173973 0.658394
O O1 0.384521 0.387662 0.223183
O O2 0.076900 0.247889 0.320442
O O3 0.851013 0.281038 0.505079
O O4 0.392963 0.106050 0.347743
O O5 0.623309 0.144781 0.487249
O O6 0.043607 0.237632 0.214078
O O7 0.193049 0.989596 0.329390
O O8 0.674374 0.783894 0.201669
O O9 0.134122 0.773454 0.950440
O O10 0.700234 0.008566 0.021141
O O11 0.000000 0.000000 0.000000
O O12 0.110022 0.700530 0.869442
O O13 0.915282 0.497665 0.959169
O O14 0.533385 0.739344 0.044670
O O15 0.455461 0.143880 0.665500
O O16 0.048619 0.088088 0.768678
O O17 0.500000 0.000000 0.000000
#
# Coordination Sequence:
#
# PCOD9062375 Si02
#       8
#     2   2   2   2   2   2   2   2
#     4   9  17  35  56  84 113 148 186 232 283 332
#     4   9  18  34  58  85 111 148 191 231 279 336
#     4  12  20  36  62  86 113 149 191 236 277 332
#     4  11  24  40  56  82 121 154 184 233 286 343
#     4   9  17  33  57  85 117 143 182 242 283 323
#     4  11  24  41  56  81 121 154 184 232 295 335
#     4  12  21  36  58  86 115 146 197 236 271 330
#     4   9  17  31  58  86 114 141 186 239 282 325
#
# _framework density 19.098607999999999
#
# number of rings (size 3 to 8) (size 9 to 14) (size 15 to 20)
#    0.000    1.750    5.000    2.250    0.000    0.500 
#    2.250    3.125    0.000    6.000    0.000    0.000 
#    0.000    0.000    0.000    0.000    0.000    0.000 
#
# Total GULP energy -89129.061947 kJ/mol
# GULP energy per Si atom -5570.566372 kJ/mol
# Density = 1.905514 g / cm^3
# Si number density = 19.098608 Si / 1000 Ang^3
#
#
#
# Elastic Constant Matrix: (Units=GPa)
#
#
# Indices 1 2 3 4 5 6 
#
# 1 115.3419 23.8452 63.4300 -5.9907 -4.6511 5.6992
# 2 23.8452 32.5266 15.7615 -1.4039 2.8653 11.4813
# 3 63.4300 15.7615 158.3846 2.7205 -10.8088 5.9547
# 4 -5.9907 -1.4039 2.7205 16.5225 -6.2263 -3.0358
# 5 -4.6511 2.8653 -10.8088 -6.2263 31.9020 -2.9004
# 6 5.6992 11.4813 5.9547 -3.0358 -2.9004 17.6988
#
#
#
# Elastic Compliance Matrix: (Units=1/GPa)
#
#
# Indices 1 2 3 4 5 6 
#
# 1 0.013292 -0.009272 -0.004496 0.006814 0.003024 0.004911
# 2 -0.009272 0.049849 -0.000605 -0.009042 -0.010750 -0.032461
# 3 -0.004496 -0.000605 0.008374 -0.002669 0.001609 -0.001171
# 4 0.006814 -0.009042 -0.002669 0.072666 0.016883 0.019800
# 5 0.003024 -0.010750 0.001609 0.016883 0.037917 0.014568
# 6 0.004911 -0.032461 -0.001171 0.019800 0.014568 0.082154
#
#
# Mechanical properties :
#
#
# Convention : Reuss Voigt Hill
#
# Bulk Modulus (GPa) = 23.38124 56.92519 40.15322
# Shear Modulus (GPa) = 16.27307 26.77242 21.52275
#
# Velocity S-wave (km/s) = 2.92217 3.74812 3.36062
# Velocity P-wave (km/s) = 4.86357 6.97150 6.01067
#
# Compressibility (1/GPa) = 0.04276933
#
# Stress axis : x y z
#
# Youngs Moduli (GPa) = 75.23139 20.06046 119.41417
#
# Poissons Ratio (x) = 0.18600 0.53688
# Poissons Ratio (y) = 0.69753 0.07230
# Poissons Ratio (z) = 0.33824 0.01215
#
# Static dielectric constant tensor:
#      x y z
#    x 1.637580 0.005910 -0.020050 
#    y 0.005910 1.700840 0.005890 
#    z -0.020050 0.005890 1.709470 
# 
# From -- ./inp_files/419729.got.cif
#   From: 2010.05.17/outbox.cif.g08.bks.cpg/sg2_210_cif.got.tgz:419729.got - 2010.06.03 11:33:40.
