data_PCOD9062185
_publ_section_title
;
Structure prediction by ZEFSAII (Michael W. Deem and Ramdas Pophale) SiO2 
 PCOD9062185
Probable space group: P -1
;
_chemical_formula_sum "Si O2"
_cell_formula_units_Z 16
_cell_length_a 8.927198
_cell_length_b 21.243721
_cell_length_c 11.925724
_cell_angle_alpha 147.488270
_cell_angle_beta 53.809804
_cell_angle_gamma 139.557625
_cell_volume 779.942502
_symmetry_space_group_name_H-M "P -1"
_symmetry_group_IT_number 2
_symmetry_cell_setting 'triclinic'
loop_
_space_group_symop_operation_xyz
x,y,z
-x,-y,-z
loop_
_atom_site_type_symbol
_atom_site_label
_atom_site_fract_x
_atom_site_fract_y
_atom_site_fract_z
Si Si1 0.436770 0.603227 0.882538
Si Si2 0.634923 0.940673 0.303917
Si Si3 0.894593 0.466311 0.270147
Si Si4 0.924373 0.088893 0.606620
Si Si5 0.262006 0.441286 0.954022
Si Si6 0.052042 0.303467 0.254764
Si Si7 0.824143 0.040084 0.123237
Si Si8 0.316254 0.845971 0.008824
O O1 0.256831 0.520749 0.735145
O O2 0.321804 0.507883 0.902674
O O3 0.686865 0.636336 0.803657
O O4 0.491671 0.764266 0.106033
O O5 0.500000 0.000000 0.500000
O O6 0.843044 0.010793 0.405085
O O7 0.723050 0.009966 0.247285
O O8 0.737306 0.298411 0.127216
O O9 0.951870 0.566209 0.502421
O O10 0.120750 0.492324 0.153628
O O11 0.104999 0.263854 0.766130
O O12 0.738439 0.076885 0.756684
O O13 0.000000 0.000000 0.500000
O O14 0.500000 0.500000 0.000000
O O15 0.972864 0.198898 0.240512
O O16 0.869619 0.212803 0.098137
O O17 0.589851 0.944727 0.007149
O O18 0.000000 0.000000 0.000000
#
# Coordination Sequence:
#
# PCOD9062185 Si02
#       8
#     2   2   2   2   2   2   2   2
#     4  12  24  46  68 100 141 176 226 285 334 402
#     4  12  23  44  71  97 134 180 228 281 333 399
#     4  11  24  45  68  98 133 181 227 275 338 402
#     4  11  24  43  72 101 133 176 225 278 340 397
#     4  11  25  44  67 101 140 177 226 282 336 401
#     4  12  26  43  71  98 137 183 223 278 340 404
#     4  12  25  45  66 100 138 178 227 277 337 395
#     4  11  23  48  66  99 138 174 224 284 333 400
#
# _framework density 20.514333000000001
#
# number of rings (size 3 to 8) (size 9 to 14) (size 15 to 20)
#    0.000    0.500    3.750    5.250    3.500    1.000 
#    2.250    0.000    0.000    0.000    0.000    0.000 
#    0.000    0.000    0.000    0.000    0.000    0.000 
#
# Total GULP energy -89351.366061 kJ/mol
# GULP energy per Si atom -5584.460379 kJ/mol
# Density = 2.046764 g / cm^3
# Si number density = 20.514333 Si / 1000 Ang^3
#
#
#
# Elastic Constant Matrix: (Units=GPa)
#
#
# Indices 1 2 3 4 5 6 
#
# 1 122.6385 32.3384 30.3849 -9.1928 6.7952 5.4452
# 2 32.3384 107.5516 38.5741 -13.3853 -22.0272 4.1178
# 3 30.3849 38.5741 89.8501 -9.6263 -5.3379 4.6217
# 4 -9.1928 -13.3853 -9.6263 20.0945 -1.1922 -3.1772
# 5 6.7952 -22.0272 -5.3379 -1.1922 36.0888 1.2940
# 6 5.4452 4.1178 4.6217 -3.1772 1.2940 44.2572
#
#
#
# Elastic Compliance Matrix: (Units=1/GPa)
#
#
# Indices 1 2 3 4 5 6 
#
# 1 0.009744 -0.002741 -0.002178 0.001283 -0.003769 -0.000514
# 2 -0.002741 0.014188 -0.003893 0.006801 0.008837 -0.000346
# 3 -0.002178 -0.003893 0.013901 0.002986 0.000211 -0.000613
# 4 0.001283 0.006801 0.002986 0.057123 0.006137 0.002819
# 5 -0.003769 0.008837 0.000211 0.006137 0.034081 -0.000936
# 6 -0.000514 -0.000346 -0.000613 0.002819 -0.000936 0.022984
#
#
# Mechanical properties :
#
#
# Convention : Reuss Voigt Hill
#
# Bulk Modulus (GPa) = 49.48216 58.07058 53.77637
# Shear Modulus (GPa) = 28.34753 34.67095 31.50924
#
# Velocity S-wave (km/s) = 3.72134 4.11552 3.92339
# Velocity P-wave (km/s) = 6.52975 7.13808 6.84068
#
# Compressibility (1/GPa) = 0.02020930
#
# Stress axis : x y z
#
# Youngs Moduli (GPa) = 102.62212 70.48305 71.93502
#
# Poissons Ratio (x) = 0.19321 0.15671
# Poissons Ratio (y) = 0.28131 0.28001
# Poissons Ratio (z) = 0.22356 0.27436
#
# Static dielectric constant tensor:
#      x y z
#    x 1.835930 0.023880 0.174080 
#    y 0.023880 1.668720 -0.026980 
#    z 0.174080 -0.026980 1.759020 
# 
# From -- ./inp_files/184252.got.cif
#   From: 2010.05.17/outbox.cif.g08.bks.cpg/sg2_93_cif.got.tgz:184252.got - 2010.06.03 11:33:40.
