data_PCOD9062422
_publ_section_title
;
Structure prediction by ZEFSAII (Michael W. Deem and Ramdas Pophale) SiO2 
 PCOD9062422
Probable space group: P -1
;
_chemical_formula_sum "Si O2"
_cell_formula_units_Z 16
_cell_length_a 6.614484
_cell_length_b 15.507314
_cell_length_c 13.453658
_cell_angle_alpha 38.735875
_cell_angle_beta 62.178958
_cell_angle_gamma 55.892481
_cell_volume 713.819175
_symmetry_space_group_name_H-M "P -1"
_symmetry_group_IT_number 2
_symmetry_cell_setting 'triclinic'
loop_
_space_group_symop_operation_xyz
x,y,z
-x,-y,-z
loop_
_atom_site_type_symbol
_atom_site_label
_atom_site_fract_x
_atom_site_fract_y
_atom_site_fract_z
Si Si1 0.239067 0.336562 0.860372
Si Si2 0.211231 0.846518 0.620703
Si Si3 0.594609 0.822371 0.390633
Si Si4 0.884280 0.023631 0.113442
Si Si5 0.253810 0.722107 0.937413
Si Si6 0.747309 0.489011 0.108714
Si Si7 0.629794 0.215534 0.731238
Si Si8 0.084737 0.569734 0.511825
O O1 0.312607 0.426108 0.849192
O O2 0.455013 0.205520 0.872169
O O3 0.154544 0.448202 0.688370
O O4 0.002505 0.306133 0.983293
O O5 0.424761 0.855796 0.494065
O O6 0.259964 0.822035 0.750083
O O7 0.197838 0.686030 0.738886
O O8 0.000000 0.000000 0.500000
O O9 0.667839 0.960349 0.220890
O O10 0.498139 0.767493 0.362333
O O11 0.842229 0.700612 0.480169
O O12 0.120952 0.924634 0.211188
O O13 0.781059 0.184353 0.037848
O O14 0.000000 0.000000 0.000000
O O15 0.503952 0.580038 0.018374
O O16 0.000000 0.500000 0.000000
O O17 0.714964 0.352797 0.616862
O O18 0.000000 0.500000 0.500000
#
# Coordination Sequence:
#
# PCOD9062422 Si02
#       8
#     2   2   2   2   2   2   2   2
#     4  12  25  43  77 104 152 193 248 310 375 451
#     4  12  28  50  77 109 152 198 257 314 377 451
#     4  11  25  45  69 101 150 189 247 310 374 442
#     4  11  26  45  71 104 145 192 250 303 376 449
#     4  12  28  49  75 111 150 203 255 311 378 448
#     4  12  28  49  76 109 149 201 262 309 379 450
#     4  11  24  43  69 108 143 191 242 307 377 448
#     4  11  24  40  69 109 143 191 243 306 377 446
#
# _framework density 22.414638
#
# number of rings (size 3 to 8) (size 9 to 14) (size 15 to 20)
#    0.000    0.500    2.500    4.500    8.750    5.500 
#    0.000    0.000    0.000    0.000    0.000    0.000 
#    0.000    0.000    0.000    0.000    0.000    0.000 
#
# Total GULP energy -89359.770611 kJ/mol
# GULP energy per Si atom -5584.985663 kJ/mol
# Density = 2.236362 g / cm^3
# Si number density = 22.414638 Si / 1000 Ang^3
#
#
#
# Elastic Constant Matrix: (Units=GPa)
#
#
# Indices 1 2 3 4 5 6 
#
# 1 101.5081 50.4647 43.8237 2.5552 6.5129 -8.6619
# 2 50.4647 122.2610 40.3634 7.1946 2.7856 -5.2947
# 3 43.8237 40.3634 107.4469 12.0318 1.6363 -16.4704
# 4 2.5552 7.1946 12.0318 52.5149 -3.8486 1.5774
# 5 6.5129 2.7856 1.6363 -3.8486 41.3763 2.4043
# 6 -8.6619 -5.2947 -16.4704 1.5774 2.4043 45.0375
#
#
#
# Elastic Compliance Matrix: (Units=1/GPa)
#
#
# Indices 1 2 3 4 5 6 
#
# 1 0.013904 -0.004403 -0.003948 0.000682 -0.001718 0.000781
# 2 -0.004403 0.010757 -0.002219 -0.000739 0.000009 -0.000368
# 3 -0.003948 -0.002219 0.012600 -0.002514 -0.000176 0.003685
# 4 0.000682 -0.000739 -0.002514 0.019883 0.001989 -0.001678
# 5 -0.001718 0.000009 -0.000176 0.001989 0.024734 -0.001784
# 6 0.000781 -0.000368 0.003685 -0.001678 -0.001784 0.023812
#
#
# Mechanical properties :
#
#
# Convention : Reuss Voigt Hill
#
# Bulk Modulus (GPa) = 62.02809 66.72440 64.37625
# Shear Modulus (GPa) = 37.82104 40.89002 39.35553
#
# Velocity S-wave (km/s) = 4.11218 4.27576 4.19477
# Velocity P-wave (km/s) = 7.09082 7.36268 7.22803
#
# Compressibility (1/GPa) = 0.01612173
#
# Stress axis : x y z
#
# Youngs Moduli (GPa) = 71.91975 92.96702 79.36798
#
# Poissons Ratio (x) = 0.40935 0.31331
# Poissons Ratio (y) = 0.31667 0.17609
# Poissons Ratio (z) = 0.28390 0.20627
#
# Static dielectric constant tensor:
#      x y z
#    x 1.949490 -0.113110 0.028360 
#    y -0.113110 1.980410 -0.019220 
#    z 0.028360 -0.019220 1.837920 
# 
# From -- ./inp_files/484189.got.cif
#   From: 2010.05.17/outbox.cif.g08.bks.cpg/sg2_243_cif.got.tgz:484189.got - 2010.06.03 11:33:40.
