data_PCOD9062652
_publ_section_title
;
Structure prediction by ZEFSAII (Michael W. Deem and Ramdas Pophale) SiO2 
 PCOD9062652
Probable space group: P -1
;
_chemical_formula_sum "Si O2"
_cell_formula_units_Z 14
_cell_length_a 11.879145
_cell_length_b 10.983429
_cell_length_c 14.521608
_cell_angle_alpha 27.674543
_cell_angle_beta 123.457110
_cell_angle_gamma 134.782938
_cell_volume 609.293919
_symmetry_space_group_name_H-M "P -1"
_symmetry_group_IT_number 2
_symmetry_cell_setting 'triclinic'
loop_
_space_group_symop_operation_xyz
x,y,z
-x,-y,-z
loop_
_atom_site_type_symbol
_atom_site_label
_atom_site_fract_x
_atom_site_fract_y
_atom_site_fract_z
Si Si1 0.420507 0.907257 0.350309
Si Si2 0.216554 0.769630 0.681495
Si Si3 0.650100 0.785094 0.246956
Si Si4 0.040877 0.264442 0.099363
Si Si5 0.861797 0.225976 0.558813
Si Si6 0.588072 0.101993 0.848350
Si Si7 0.838276 0.709497 0.666032
O O1 0.385468 0.560329 0.547010
O O2 0.307706 0.886756 0.394287
O O3 0.382455 0.980393 0.183417
O O4 0.607520 0.170327 0.278826
O O5 0.130562 0.652514 0.622532
O O6 0.255496 0.121993 0.470553
O O7 0.107966 0.540793 0.869077
O O8 0.564080 0.858485 0.241394
O O9 0.845100 0.028871 0.172572
O O10 0.569171 0.844213 0.083576
O O11 0.115427 0.383195 0.155799
O O12 0.108012 0.050956 0.245400
O O13 0.000000 0.500000 0.500000
O O14 0.740527 0.429005 0.737996
O O15 0.000000 0.000000 0.500000
#
# Coordination Sequence:
#
# PCOD9062652 Si02
#       7
#     2   2   2   2   2   2   2
#     4  12  25  46  71  95 141 180 222 279 337 395
#     4  11  27  44  69 102 134 180 224 280 342 390
#     4  11  24  43  66 100 138 177 222 269 337 402
#     4  11  26  44  72 102 135 178 225 281 339 392
#     4  11  26  48  71  99 132 176 235 281 333 403
#     4  11  26  40  69 103 134 180 227 266 334 411
#     4  11  24  42  66 102 144 174 225 273 330 410
#
# _framework density 22.977416000000002
#
# number of rings (size 3 to 8) (size 9 to 14) (size 15 to 20)
#    0.000    0.857    2.857    2.571   10.000    3.429 
#    0.000    0.000    0.000    0.000    0.000    0.000 
#    0.000    0.000    0.000    0.000    0.000    0.000 
#
# Total GULP energy -78389.367298 kJ/mol
# GULP energy per Si atom -5599.240521 kJ/mol
# Density = 2.292512 g / cm^3
# Si number density = 22.977416 Si / 1000 Ang^3
#
#
#
# Elastic Constant Matrix: (Units=GPa)
#
#
# Indices 1 2 3 4 5 6 
#
# 1 104.8926 23.7165 29.4336 8.3667 -12.0955 14.8683
# 2 23.7165 113.0583 37.7629 10.2658 -10.7718 6.3601
# 3 29.4336 37.7629 105.9889 15.7977 -23.5006 -7.3989
# 4 8.3667 10.2658 15.7977 36.6482 -2.8522 -10.7302
# 5 -12.0955 -10.7718 -23.5006 -2.8522 29.1793 -0.3804
# 6 14.8683 6.3601 -7.3989 -10.7302 -0.3804 44.8009
#
#
#
# Elastic Compliance Matrix: (Units=1/GPa)
#
#
# Indices 1 2 3 4 5 6 
#
# 1 0.011519 -0.000935 -0.002309 -0.002563 0.002259 -0.004666
# 2 -0.000935 0.010465 -0.003177 -0.001925 0.000701 -0.002155
# 3 -0.002309 -0.003177 0.013789 -0.003015 0.008718 0.002846
# 4 -0.002563 -0.001925 -0.003015 0.032065 -0.000959 0.008298
# 5 0.002259 0.000701 0.008718 -0.000959 0.042403 0.000721
# 6 -0.004666 -0.002155 0.002846 0.008298 0.000721 0.026639
#
#
# Mechanical properties :
#
#
# Convention : Reuss Voigt Hill
#
# Bulk Modulus (GPa) = 43.60692 56.19620 49.90156
# Shear Modulus (GPa) = 31.77297 37.66080 34.71688
#
# Velocity S-wave (km/s) = 3.72262 4.05289 3.89126
# Velocity P-wave (km/s) = 6.12345 6.81260 6.47719
#
# Compressibility (1/GPa) = 0.02293214
#
# Stress axis : x y z
#
# Youngs Moduli (GPa) = 86.81221 95.55566 72.52035
#
# Poissons Ratio (x) = 0.08933 0.16742
# Poissons Ratio (y) = 0.08115 0.23041
# Poissons Ratio (z) = 0.20042 0.30360
#
# Static dielectric constant tensor:
#      x y z
#    x 1.907000 0.031260 0.037120 
#    y 0.031260 1.833060 0.026360 
#    z 0.037120 0.026360 1.874170 
# 
# From -- ./inp_files/397076.got.cif
#   From: 2010.05.17/outbox.cif.g08.bks.cpg/sg2_199_cif.got.tgz:397076.got - 2010.06.03 11:33:40.
