data_PCOD9062218
_publ_section_title
;
Structure prediction by ZEFSAII (Michael W. Deem and Ramdas Pophale) SiO2 
 PCOD9062218
Probable space group: P -1
;
_chemical_formula_sum "Si O2"
_cell_formula_units_Z 14
_cell_length_a 8.737921
_cell_length_b 11.442471
_cell_length_c 7.905295
_cell_angle_alpha 118.449062
_cell_angle_beta 121.951176
_cell_angle_gamma 89.614895
_cell_volume 556.857650
_symmetry_space_group_name_H-M "P -1"
_symmetry_group_IT_number 2
_symmetry_cell_setting 'triclinic'
loop_
_space_group_symop_operation_xyz
x,y,z
-x,-y,-z
loop_
_atom_site_type_symbol
_atom_site_label
_atom_site_fract_x
_atom_site_fract_y
_atom_site_fract_z
Si Si1 0.338035 0.820602 0.834783
Si Si2 0.983409 0.067835 0.357978
Si Si3 0.360882 0.283352 0.570937
Si Si4 0.805866 0.501235 0.468523
Si Si5 0.706664 0.804219 0.912810
Si Si6 0.652868 0.152176 0.749286
Si Si7 0.959246 0.641385 0.005939
O O1 0.166585 0.848036 0.653601
O O2 0.312569 0.657583 0.674384
O O3 0.562148 0.877681 0.961057
O O4 0.303748 0.853762 0.031565
O O5 0.180316 0.166429 0.466654
O O6 0.000000 0.000000 0.500000
O O7 0.894995 0.938494 0.089510
O O8 0.318654 0.427829 0.663577
O O9 0.374692 0.255452 0.358699
O O10 0.544767 0.266778 0.752241
O O11 0.000000 0.500000 0.500000
O O12 0.879516 0.595155 0.740258
O O13 0.785727 0.699634 0.002672
O O14 0.500000 0.000000 0.500000
O O15 0.844565 0.226188 0.804319
O O16 0.000000 0.500000 0.000000
#
# Coordination Sequence:
#
# PCOD9062218 Si02
#       7
#     2   2   2   2   2   2   2
#     4  12  26  47  75 106 145 188 244 295 363 436
#     4  12  25  45  71 104 143 191 238 297 361 429
#     4  11  25  44  72 104 143 190 238 296 361 430
#     4  11  23  48  73 100 144 191 238 296 359 426
#     4  11  26  44  70 106 144 186 238 297 361 430
#     4  12  26  48  75 106 147 193 244 300 363 436
#     4  11  27  45  72 105 147 193 240 302 359 429
#
# _framework density 25.141075000000001
#
# number of rings (size 3 to 8) (size 9 to 14) (size 15 to 20)
#    0.000    0.571    2.857    4.286    6.000    4.000 
#    0.000    0.000    0.000    0.000    0.000    0.000 
#    0.000    0.000    0.000    0.000    0.000    0.000 
#
# Total GULP energy -78267.314946 kJ/mol
# GULP energy per Si atom -5590.522496 kJ/mol
# Density = 2.508385 g / cm^3
# Si number density = 25.141075 Si / 1000 Ang^3
#
#
#
# Elastic Constant Matrix: (Units=GPa)
#
#
# Indices 1 2 3 4 5 6 
#
# 1 107.0728 35.4879 2.5931 -25.7320 16.9098 -13.1676
# 2 35.4879 137.0002 5.6354 -47.4841 13.0327 -31.0603
# 3 2.5931 5.6354 56.4276 -8.1018 0.6991 7.4973
# 4 -25.7320 -47.4841 -8.1018 47.9109 -6.2592 15.0356
# 5 16.9098 13.0327 0.6991 -6.2592 36.6981 -3.9145
# 6 -13.1676 -31.0603 7.4973 15.0356 -3.9145 51.2741
#
#
#
# Elastic Compliance Matrix: (Units=1/GPa)
#
#
# Indices 1 2 3 4 5 6 
#
# 1 0.011455 -0.000817 0.000165 0.004592 -0.004127 0.000761
# 2 -0.000817 0.012070 -0.000257 0.009968 -0.001769 0.004081
# 3 0.000165 -0.000257 0.018914 0.004329 -0.000049 -0.004152
# 4 0.004592 0.009968 0.004329 0.035097 -0.000149 -0.003718
# 5 -0.004127 -0.001769 -0.000049 -0.000149 0.029775 0.000192
# 6 0.000761 0.004081 -0.004152 -0.003718 0.000192 0.023883
#
#
# Mechanical properties :
#
#
# Convention : Reuss Voigt Hill
#
# Bulk Modulus (GPa) = 24.61868 43.10374 33.86121
# Shear Modulus (GPa) = 34.11710 44.29557 39.20633
#
# Velocity S-wave (km/s) = 3.68778 4.20203 3.95328
# Velocity P-wave (km/s) = 5.28644 6.38159 5.85966
#
# Compressibility (1/GPa) = 0.04061957
#
# Stress axis : x y z
#
# Youngs Moduli (GPa) = 87.29592 82.84921 52.87179
#
# Poissons Ratio (x) = 0.06771 -0.00870
# Poissons Ratio (y) = 0.07135 0.01359
# Poissons Ratio (z) = -0.01437 0.02129
#
# Static dielectric constant tensor:
#      x y z
#    x 2.622280 0.339230 0.314460 
#    y 0.339230 2.318190 0.225490 
#    z 0.314460 0.225490 2.095530 
# 
# From -- ./inp_files/190518.got.cif
#   From: 2010.05.17/outbox.cif.g08.bks.cpg/sg2_96_cif.got.tgz:190518.got - 2010.06.03 11:33:40.
