data_PCOD9062542
_publ_section_title
;
Structure prediction by ZEFSAII (Michael W. Deem and Ramdas Pophale) SiO2 
 PCOD9062542
Probable space group: P -1
;
_chemical_formula_sum "Si O2"
_cell_formula_units_Z 14
_cell_length_a 9.938214
_cell_length_b 18.805017
_cell_length_c 13.725565
_cell_angle_alpha 32.931468
_cell_angle_beta 28.179183
_cell_angle_gamma 42.866611
_cell_volume 658.289903
_symmetry_space_group_name_H-M "P -1"
_symmetry_group_IT_number 2
_symmetry_cell_setting 'triclinic'
loop_
_space_group_symop_operation_xyz
x,y,z
-x,-y,-z
loop_
_atom_site_type_symbol
_atom_site_label
_atom_site_fract_x
_atom_site_fract_y
_atom_site_fract_z
Si Si1 0.394193 0.858627 0.269942
Si Si2 0.374879 0.937779 0.748215
Si Si3 0.781007 0.735357 0.808852
Si Si4 0.651222 0.641131 0.216391
Si Si5 0.841509 0.508182 0.884038
Si Si6 0.814931 0.577751 0.606133
Si Si7 0.725932 0.862243 0.254257
O O1 0.506534 0.751175 0.246288
O O2 0.542180 0.838080 0.303284
O O3 0.053890 0.835335 0.526670
O O4 0.500000 0.000000 0.000000
O O5 0.530922 0.805228 0.829145
O O6 0.500000 0.000000 0.500000
O O7 0.417351 0.035917 0.699015
O O8 0.039350 0.919831 0.964158
O O9 0.888522 0.612509 0.819680
O O10 0.662838 0.684222 0.046716
O O11 0.500000 0.500000 0.500000
O O12 0.979327 0.619500 0.062316
O O13 0.932136 0.562313 0.658204
O O14 0.505800 0.480098 0.126646
O O15 0.787932 0.728159 0.423494
O O16 0.000000 0.500000 0.500000
#
# Coordination Sequence:
#
# PCOD9062542 Si02
#       7
#     2   2   2   2   2   2   2
#     4  12  27  46  71 105 142 184 237 294 352 418
#     4  11  25  45  70  98 137 183 230 283 351 420
#     4  12  26  44  72 101 141 182 240 288 351 419
#     4  12  27  44  71 101 142 188 233 289 353 417
#     4  11  25  42  67 102 135 182 231 281 350 418
#     4  11  24  41  68  99 137 176 230 288 344 414
#     4  11  25  43  68  97 137 177 227 287 348 406
#
# _framework density 21.267226999999998
#
# number of rings (size 3 to 8) (size 9 to 14) (size 15 to 20)
#    0.000    0.571    1.429    5.571    6.000   10.286 
#    0.000    0.000    0.000    0.000    0.000    0.000 
#    0.000    0.000    0.000    0.000    0.000    0.000 
#
# Total GULP energy -78372.921380 kJ/mol
# GULP energy per Si atom -5598.065813 kJ/mol
# Density = 2.121882 g / cm^3
# Si number density = 21.267227 Si / 1000 Ang^3
#
#
#
# Elastic Constant Matrix: (Units=GPa)
#
#
# Indices 1 2 3 4 5 6 
#
# 1 74.4313 -9.4552 31.5504 17.7226 15.4594 3.0094
# 2 -9.4552 88.8408 28.5380 9.9575 4.0119 3.9976
# 3 31.5504 28.5380 114.6112 5.5534 17.9921 14.7151
# 4 17.7226 9.9575 5.5534 38.7719 -1.4812 0.4269
# 5 15.4594 4.0119 17.9921 -1.4812 36.5699 -4.3917
# 6 3.0094 3.9976 14.7151 0.4269 -4.3917 39.1043
#
#
#
# Elastic Compliance Matrix: (Units=1/GPa)
#
#
# Indices 1 2 3 4 5 6 
#
# 1 0.020223 0.005308 -0.005177 -0.010128 -0.007095 -0.000837
# 2 0.005308 0.013922 -0.004317 -0.005453 -0.001912 -0.000362
# 3 -0.005177 -0.004317 0.012291 0.001615 -0.003828 -0.004233
# 4 -0.010128 -0.005453 0.001615 0.031789 0.005492 0.000999
# 5 -0.007095 -0.001912 -0.003828 0.005492 0.033365 0.005869
# 6 -0.000837 -0.000362 -0.004233 0.000999 0.005869 0.027915
#
#
# Mechanical properties :
#
#
# Convention : Reuss Voigt Hill
#
# Bulk Modulus (GPa) = 26.27071 42.12775 34.19923
# Shear Modulus (GPa) = 31.14031 38.03923 34.58977
#
# Velocity S-wave (km/s) = 3.83069 4.23381 4.03728
# Velocity P-wave (km/s) = 5.65200 6.61453 6.15211
#
# Compressibility (1/GPa) = 0.03806521
#
# Stress axis : x y z
#
# Youngs Moduli (GPa) = 49.44912 71.83116 81.35819
#
# Poissons Ratio (x) = -0.38131 0.42117
# Poissons Ratio (y) = -0.26249 0.35121
# Poissons Ratio (z) = 0.25598 0.31009
#
# Static dielectric constant tensor:
#      x y z
#    x 1.754850 0.007450 -0.028610 
#    y 0.007450 1.680960 -0.024490 
#    z -0.028610 -0.024490 1.790320 
# 
# From -- ./inp_files/72454.got.cif
#   From: 2010.05.17/outbox.cif.g08.bks.cpg/sg2_37_cif.got.tgz:72454.got - 2010.06.03 11:33:40.
