data_PCOD9062458
_publ_section_title
;
Structure prediction by ZEFSAII (Michael W. Deem and Ramdas Pophale) SiO2 
 PCOD9062458
Probable space group: P -1
;
_chemical_formula_sum "Si O2"
_cell_formula_units_Z 14
_cell_length_a 11.151278
_cell_length_b 12.295481
_cell_length_c 10.924354
_cell_angle_alpha 70.653408
_cell_angle_beta 144.848586
_cell_angle_gamma 86.264711
_cell_volume 639.337335
_symmetry_space_group_name_H-M "P -1"
_symmetry_group_IT_number 2
_symmetry_cell_setting 'triclinic'
loop_
_space_group_symop_operation_xyz
x,y,z
-x,-y,-z
loop_
_atom_site_type_symbol
_atom_site_label
_atom_site_fract_x
_atom_site_fract_y
_atom_site_fract_z
Si Si1 0.977372 0.527807 0.326748
Si Si2 0.590065 0.568531 0.641770
Si Si3 0.879404 0.670560 0.694597
Si Si4 0.554904 0.013657 0.843672
Si Si5 0.905764 0.250403 0.679363
Si Si6 0.304400 0.894629 0.836796
Si Si7 0.579386 0.340977 0.142763
O O1 0.000000 0.500000 0.500000
O O2 0.105444 0.381031 0.412451
O O3 0.088178 0.613507 0.352742
O O4 0.664345 0.634504 0.999459
O O5 0.500000 0.500000 0.500000
O O6 0.725904 0.626946 0.661256
O O7 0.335528 0.702824 0.452972
O O8 0.819343 0.432954 0.967828
O O9 0.709809 0.844851 0.491504
O O10 0.472955 0.926533 0.882028
O O11 0.651501 0.076573 0.999769
O O12 0.801486 0.900969 0.003203
O O13 0.830522 0.250219 0.474982
O O14 0.390201 0.736100 0.930620
O O15 0.000000 0.000000 0.500000
O O16 0.500000 0.500000 0.000000
#
# Coordination Sequence:
#
# PCOD9062458 Si02
#       7
#     2   2   2   2   2   2   2
#     4  12  23  40  68 103 140 176 227 280 344 417
#     4  11  25  48  72  96 132 185 243 293 332 400
#     4  11  26  45  71 100 134 181 238 286 343 412
#     4  11  26  43  66 102 143 182 224 284 354 417
#     4  12  24  43  67  98 138 180 228 287 339 406
#     4  11  24  41  63 100 152 184 214 275 356 424
#     4  12  24  38  65 101 139 184 227 274 338 410
#
# _framework density 21.897673999999999
#
# number of rings (size 3 to 8) (size 9 to 14) (size 15 to 20)
#    0.000    0.571    7.143    0.857    4.000    1.714 
#    0.000    0.714    0.000    0.000    0.000    0.000 
#    0.000    0.000    0.000    0.000    0.000    0.000 
#
# Total GULP energy -78282.688038 kJ/mol
# GULP energy per Si atom -5591.620574 kJ/mol
# Density = 2.184783 g / cm^3
# Si number density = 21.897674 Si / 1000 Ang^3
#
#
#
# Elastic Constant Matrix: (Units=GPa)
#
#
# Indices 1 2 3 4 5 6 
#
# 1 69.2416 16.6193 24.9899 -7.2849 15.3030 -17.0811
# 2 16.6193 101.1812 24.2526 -7.0156 1.3453 -15.4132
# 3 24.9899 24.2526 95.4020 -15.3894 17.0392 -18.8020
# 4 -7.2849 -7.0156 -15.3894 44.1966 -2.3714 9.4161
# 5 15.3030 1.3453 17.0392 -2.3714 34.3885 -3.6419
# 6 -17.0811 -15.4132 -18.8020 9.4161 -3.6419 27.8573
#
#
#
# Elastic Compliance Matrix: (Units=1/GPa)
#
#
# Indices 1 2 3 4 5 6 
#
# 1 0.019037 -0.001264 -0.001710 0.000085 -0.006624 0.008925
# 2 -0.001264 0.011192 -0.001933 0.000063 0.001541 0.004293
# 3 -0.001710 -0.001933 0.013925 0.002772 -0.005273 0.005654
# 4 0.000085 0.000063 0.002772 0.024988 -0.000383 -0.006538
# 5 -0.006624 0.001541 -0.005273 -0.000383 0.034325 -0.002151
# 6 0.008925 0.004293 0.005654 -0.006538 -0.002151 0.049490
#
#
# Mechanical properties :
#
#
# Convention : Reuss Voigt Hill
#
# Bulk Modulus (GPa) = 29.11986 44.17204 36.64595
# Shear Modulus (GPa) = 28.69990 34.61937 31.65963
#
# Velocity S-wave (km/s) = 3.62420 3.98044 3.80649
# Velocity P-wave (km/s) = 5.55339 6.42970 6.00754
#
# Compressibility (1/GPa) = 0.03434082
#
# Stress axis : x y z
#
# Youngs Moduli (GPa) = 52.52896 89.34923 71.81576
#
# Poissons Ratio (x) = 0.11290 0.12278
# Poissons Ratio (y) = 0.06637 0.13884
# Poissons Ratio (z) = 0.08981 0.17273
#
# Static dielectric constant tensor:
#      x y z
#    x 1.804330 -0.020850 0.031040 
#    y -0.020850 1.801300 0.012890 
#    z 0.031040 0.012890 1.892390 
# 
# From -- ./inp_files/27192.got.cif
#   From: 2010.05.17/outbox.cif.g08.bks.cpg/sg2_14_cif.got.tgz:27192.got - 2010.06.03 11:33:40.
