data_PCOD9062659
_publ_section_title
;
Structure prediction by ZEFSAII (Michael W. Deem and Ramdas Pophale) SiO2 
 PCOD9062659
Probable space group: P -1
;
_chemical_formula_sum "Si O2"
_cell_formula_units_Z 14
_cell_length_a 4.864404
_cell_length_b 21.740303
_cell_length_c 5.370021
_cell_angle_alpha 107.064376
_cell_angle_beta 87.387841
_cell_angle_gamma 69.512922
_cell_volume 501.540001
_symmetry_space_group_name_H-M "P -1"
_symmetry_group_IT_number 2
_symmetry_cell_setting 'triclinic'
loop_
_space_group_symop_operation_xyz
x,y,z
-x,-y,-z
loop_
_atom_site_type_symbol
_atom_site_label
_atom_site_fract_x
_atom_site_fract_y
_atom_site_fract_z
Si Si1 0.142648 0.555547 0.296012
Si Si2 0.559363 0.415069 0.182261
Si Si3 0.149404 0.887346 0.892291
Si Si4 0.766842 0.271118 0.767762
Si Si5 0.757502 0.696292 0.515659
Si Si6 0.769230 0.810927 0.981589
Si Si7 0.734812 0.016128 0.343376
O O1 0.226301 0.473124 0.227764
O O2 0.310011 0.573334 0.546524
O O3 0.812468 0.614927 0.410730
O O4 0.266283 0.565839 0.032609
O O5 0.614178 0.334360 0.045363
O O6 0.979494 0.794744 0.194309
O O7 0.864166 0.956784 0.057113
O O8 0.424429 0.862719 0.049276
O O9 0.980810 0.834138 0.815554
O O10 0.509760 0.261665 0.606611
O O11 0.945391 0.301653 0.613667
O O12 0.738436 0.739176 0.817182
O O13 0.689121 0.090132 0.313574
O O14 0.500000 0.000000 0.500000
O O15 0.000000 0.000000 0.500000
#
# Coordination Sequence:
#
# PCOD9062659 Si02
#       7
#     2   2   2   2   2   2   2
#     4   9  18  37  64  98 139 188 252 322 388 454
#     4   9  18  37  64  98 139 188 252 322 388 454
#     4  11  26  44  74 110 147 190 242 302 363 448
#     4  11  24  42  66  97 139 192 247 305 376 448
#     4  11  24  42  66  97 139 192 247 305 376 448
#     4  12  24  45  67 102 148 190 242 304 368 446
#     4  11  24  47  76 110 147 187 237 297 366 440
#
# _framework density 27.914027000000001
#
# number of rings (size 3 to 8) (size 9 to 14) (size 15 to 20)
#    0.000    1.429    1.429    3.429    0.000    7.429 
#    0.000    0.000    0.000    8.571    0.000    0.000 
#    0.000    0.000    0.000    0.000    0.000    0.286 
#
# Total GULP energy -78334.246284 kJ/mol
# GULP energy per Si atom -5595.303306 kJ/mol
# Density = 2.785049 g / cm^3
# Si number density = 27.914027 Si / 1000 Ang^3
#
#
#
# Elastic Constant Matrix: (Units=GPa)
#
#
# Indices 1 2 3 4 5 6 
#
# 1 171.9811 62.8039 40.7571 -8.1937 3.3436 9.7511
# 2 62.8039 132.3574 22.5890 -15.8476 -5.4129 -8.1652
# 3 40.7571 22.5890 82.0520 -17.6208 1.3150 4.7753
# 4 -8.1937 -15.8476 -17.6208 46.3479 -9.7217 0.8593
# 5 3.3436 -5.4129 1.3150 -9.7217 41.9610 -6.7144
# 6 9.7511 -8.1652 4.7753 0.8593 -6.7144 51.8510
#
#
#
# Elastic Compliance Matrix: (Units=1/GPa)
#
#
# Indices 1 2 3 4 5 6 
#
# 1 0.007936 -0.003580 -0.003096 -0.001300 -0.001612 -0.001958
# 2 -0.003580 0.009983 -0.000496 0.003116 0.002725 0.002592
# 3 -0.003096 -0.000496 0.015009 0.005167 0.000771 -0.000864
# 4 -0.001300 0.003116 0.005167 0.025707 0.006406 0.000663
# 5 -0.001612 0.002725 0.000771 0.006406 0.026407 0.003975
# 6 -0.001958 0.002592 -0.000864 0.000663 0.003975 0.020646
#
#
# Mechanical properties :
#
#
# Convention : Reuss Voigt Hill
#
# Bulk Modulus (GPa) = 53.80432 70.96561 62.38496
# Shear Modulus (GPa) = 39.61156 45.38136 42.49646
#
# Velocity S-wave (km/s) = 3.77112 4.03644 3.90603
# Velocity P-wave (km/s) = 6.18698 6.87036 6.53761
#
# Compressibility (1/GPa) = 0.01858587
#
# Stress axis : x y z
#
# Youngs Moduli (GPa) = 126.01022 100.17219 66.62577
#
# Poissons Ratio (x) = 0.35857 0.20626
# Poissons Ratio (y) = 0.45106 0.03302
# Poissons Ratio (z) = 0.39010 0.04965
#
# Static dielectric constant tensor:
#      x y z
#    x 2.079400 0.016550 -0.058260 
#    y 0.016550 2.340810 0.110720 
#    z -0.058260 0.110720 2.226210 
# 
# From -- ./inp_files/13725.got.cif
#   From: 2010.05.17/outbox.cif.g08.bks.cpg/sg2_7_cif.got.tgz:13725.got - 2010.06.03 11:33:40.
