data_PCOD9062717
_publ_section_title
;
Structure prediction by ZEFSAII (Michael W. Deem and Ramdas Pophale) SiO2 
 PCOD9062717
Probable space group: P -1
;
_chemical_formula_sum "Si O2"
_cell_formula_units_Z 14
_cell_length_a 19.398612
_cell_length_b 9.843531
_cell_length_c 12.949182
_cell_angle_alpha 135.296747
_cell_angle_beta 150.676218
_cell_angle_gamma 33.716817
_cell_volume 671.245209
_symmetry_space_group_name_H-M "P -1"
_symmetry_group_IT_number 2
_symmetry_cell_setting 'triclinic'
loop_
_space_group_symop_operation_xyz
x,y,z
-x,-y,-z
loop_
_atom_site_type_symbol
_atom_site_label
_atom_site_fract_x
_atom_site_fract_y
_atom_site_fract_z
Si Si1 0.331554 0.055522 0.752940
Si Si2 0.966064 0.953058 0.545905
Si Si3 0.976302 0.246864 0.078106
Si Si4 0.578363 0.641501 0.691134
Si Si5 0.533990 0.994873 0.663726
Si Si6 0.081510 0.216509 0.969553
Si Si7 0.811215 0.617027 0.440975
O O1 0.216455 0.010641 0.649807
O O2 0.219902 0.308354 0.680011
O O3 0.425104 0.867194 0.680057
O O4 0.500000 0.000000 0.000000
O O5 0.110725 0.663452 0.600021
O O6 0.000000 0.000000 0.500000
O O7 0.977919 0.129613 0.731362
O O8 0.059495 0.325674 0.311502
O O9 0.770178 0.474520 0.907322
O O10 0.079153 0.189720 0.074219
O O11 0.000000 0.000000 0.000000
O O12 0.500000 0.500000 0.500000
O O13 0.583652 0.747972 0.647195
O O14 0.366967 0.218361 0.631048
O O15 0.500000 0.000000 0.500000
O O16 0.714413 0.964013 0.899407
O O17 0.000000 0.500000 0.000000
#
# Coordination Sequence:
#
# PCOD9062717 Si02
#       7
#     2   2   2   2   2   2   2
#     4  11  26  48  71  99 140 188 229 290 351 423
#     4  12  28  46  71 105 143 187 235 291 358 417
#     4  12  23  43  73 103 135 184 235 292 348 421
#     4  11  24  42  69 101 138 176 241 286 345 413
#     4  11  24  43  71 103 138 183 230 296 346 415
#     4  12  25  45  71 101 145 184 233 289 355 414
#     4  11  25  47  70 102 142 181 241 285 354 426
#
# _framework density 20.856760000000001
#
# number of rings (size 3 to 8) (size 9 to 14) (size 15 to 20)
#    0.000    0.571    2.857    5.571    4.000    1.714 
#    0.000    0.000    0.000    0.000    0.000    0.000 
#    0.000    0.000    0.000    0.000    0.000    0.000 
#
# Total GULP energy -78225.049025 kJ/mol
# GULP energy per Si atom -5587.503502 kJ/mol
# Density = 2.080929 g / cm^3
# Si number density = 20.856760 Si / 1000 Ang^3
#
#
#
# Elastic Constant Matrix: (Units=GPa)
#
#
# Indices 1 2 3 4 5 6 
#
# 1 147.0815 42.7795 52.5801 -5.4949 10.0604 25.1046
# 2 42.7795 133.1249 41.1252 2.2261 3.2715 21.8280
# 3 52.5801 41.1252 119.7883 -3.1434 13.6489 14.4446
# 4 -5.4949 2.2261 -3.1434 37.4044 -7.5177 3.4609
# 5 10.0604 3.2715 13.6489 -7.5177 45.6707 -9.4575
# 6 25.1046 21.8280 14.4446 3.4609 -9.4575 46.7744
#
#
#
# Elastic Compliance Matrix: (Units=1/GPa)
#
#
# Indices 1 2 3 4 5 6 
#
# 1 0.008999 -0.001394 -0.002806 0.001188 -0.001620 -0.003729
# 2 -0.001394 0.009116 -0.002142 -0.000747 -0.000424 -0.002875
# 3 -0.002806 -0.002142 0.010797 0.000207 -0.002709 -0.001392
# 4 0.001188 -0.000747 0.000207 0.027923 0.003992 -0.001612
# 5 -0.001620 -0.000424 -0.002709 0.003992 0.025136 0.006691
# 6 -0.003729 -0.002875 -0.001392 -0.001612 0.006691 0.026624
#
#
# Mechanical properties :
#
#
# Convention : Reuss Voigt Hill
#
# Bulk Modulus (GPa) = 61.62380 74.77379 68.19879
# Shear Modulus (GPa) = 39.46695 43.53723 41.50209
#
# Velocity S-wave (km/s) = 4.35476 4.57381 4.46563
# Velocity P-wave (km/s) = 7.40916 7.98886 7.70446
#
# Compressibility (1/GPa) = 0.01622750
#
# Stress axis : x y z
#
# Youngs Moduli (GPa) = 111.12175 109.70061 92.61575
#
# Poissons Ratio (x) = 0.15288 0.25990
# Poissons Ratio (y) = 0.15487 0.19843
# Poissons Ratio (z) = 0.31183 0.23503
#
# Static dielectric constant tensor:
#      x y z
#    x 1.761710 0.074190 -0.000310 
#    y 0.074190 1.949610 -0.057910 
#    z -0.000310 -0.057910 1.767620 
# 
# From -- ./inp_files/186200.got.cif
#   From: 2010.05.17/outbox.cif.g08.bks.cpg/sg2_94_cif.got.tgz:186200.got - 2010.06.03 11:33:40.
