data_PCOD9062674
_publ_section_title
;
Structure prediction by ZEFSAII (Michael W. Deem and Ramdas Pophale) SiO2 
 PCOD9062674
Probable space group: P -1
;
_chemical_formula_sum "Si O2"
_cell_formula_units_Z 15
_cell_length_a 8.798265
_cell_length_b 5.413591
_cell_length_c 15.700101
_cell_angle_alpha 79.338915
_cell_angle_beta 103.926356
_cell_angle_gamma 126.928034
_cell_volume 579.425333
_symmetry_space_group_name_H-M "P -1"
_symmetry_group_IT_number 2
_symmetry_cell_setting 'triclinic'
loop_
_space_group_symop_operation_xyz
x,y,z
-x,-y,-z
loop_
_atom_site_type_symbol
_atom_site_label
_atom_site_fract_x
_atom_site_fract_y
_atom_site_fract_z
Si Si1 0.956803 0.069456 0.649940
Si Si2 0.709034 0.491996 0.439184
Si Si3 0.883190 0.184449 0.817695
Si Si4 0.595997 0.398336 0.604253
Si Si5 0.000000 0.000000 0.000000
Si Si6 0.831358 0.147205 0.202279
Si Si7 0.619595 0.849365 0.029279
Si Si8 0.478894 0.873024 0.737689
O O1 0.096343 0.978065 0.709332
O O2 0.757607 0.758372 0.617380
O O3 0.070017 0.295902 0.572204
O O4 0.922378 0.204727 0.719791
O O5 0.665853 0.316491 0.534181
O O6 0.613596 0.675407 0.432814
O O7 0.596891 0.301000 0.351437
O O8 0.655109 0.910993 0.807734
O O9 0.981282 0.542070 0.833224
O O10 0.996052 0.084895 0.894324
O O11 0.577645 0.225653 0.698857
O O12 0.179546 0.966647 0.007296
O O13 0.682485 0.883319 0.133681
O O14 0.702466 0.245700 0.220545
O O15 0.500000 0.500000 0.000000
O O16 0.500000 0.000000 0.000000
#
# Coordination Sequence:
#
# PCOD9062674 Si02
#       8
#     2   2   2   2   1   2   2   2
#     4  12  23  45  70 101 142 192 240 303 376 453
#     4  11  24  42  69 104 151 189 241 315 375 449
#     4  12  26  46  72 105 144 193 252 314 390 463
#     4  11  24  42  67 110 144 189 250 304 375 463
#     4  12  28  50  80 110 156 198 262 338 394 474
#     4  12  26  46  73 102 146 191 250 312 385 467
#     4  12  29  51  78 116 156 203 265 333 407 480
#     4  12  24  45  74 104 145 199 248 304 387 456
#
# _framework density 25.887718
#
# number of rings (size 3 to 8) (size 9 to 14) (size 15 to 20)
#    0.000    0.267    6.667    2.400    0.000    5.333 
#    0.000    1.333    0.000    0.000    0.000    0.000 
#    0.000    0.000    0.000    0.000    0.000    0.000 
#
# Total GULP energy -83681.994493 kJ/mol
# GULP energy per Si atom -5578.799633 kJ/mol
# Density = 2.582880 g / cm^3
# Si number density = 25.887718 Si / 1000 Ang^3
#
#
#
# Elastic Constant Matrix: (Units=GPa)
#
#
# Indices 1 2 3 4 5 6 
#
# 1 117.6742 13.6026 -0.7902 -5.9811 -14.6244 8.6863
# 2 13.6026 116.4619 20.9460 26.9773 1.8040 12.5621
# 3 -0.7902 20.9460 92.5216 20.2289 5.8031 0.3536
# 4 -5.9811 26.9773 20.2289 40.0053 -2.6141 -4.2412
# 5 -14.6244 1.8040 5.8031 -2.6141 38.6049 -2.4388
# 6 8.6863 12.5621 0.3536 -4.2412 -2.4388 30.9473
#
#
#
# Elastic Compliance Matrix: (Units=1/GPa)
#
#
# Indices 1 2 3 4 5 6 
#
# 1 0.009389 -0.001588 -0.000403 0.002788 0.003798 -0.001305
# 2 -0.001588 0.011440 -0.000637 -0.008339 -0.001952 -0.005488
# 3 -0.000403 -0.000637 0.012457 -0.006177 -0.002465 -0.000811
# 4 0.002788 -0.008339 -0.006177 0.035346 0.005269 0.007932
# 5 0.003798 -0.001952 -0.002465 0.005269 0.028332 0.002709
# 6 -0.001305 -0.005488 -0.000811 0.007932 0.002709 0.036217
#
#
# Mechanical properties :
#
#
# Convention : Reuss Voigt Hill
#
# Bulk Modulus (GPa) = 35.67549 43.79717 39.73633
# Shear Modulus (GPa) = 33.83393 41.43812 37.63602
#
# Velocity S-wave (km/s) = 3.61910 4.00520 3.81703
# Velocity P-wave (km/s) = 5.59237 6.19223 5.89993
#
# Compressibility (1/GPa) = 0.02803045
#
# Stress axis : x y z
#
# Youngs Moduli (GPa) = 106.50822 87.40928 80.27446
#
# Poissons Ratio (x) = 0.13882 0.03236
# Poissons Ratio (y) = 0.16915 0.05112
# Poissons Ratio (z) = 0.04294 0.05566
#
# Static dielectric constant tensor:
#      x y z
#    x 2.061880 -0.018400 0.007030 
#    y -0.018400 2.038680 0.010060 
#    z 0.007030 0.010060 2.175710 
# 
# From -- ./inp_files/43500.got.cif
#   From: 2010.05.17/outbox.cif.g08.bks.cpg/sg2_22_cif.got.tgz:43500.got - 2010.06.03 11:33:40.
