data_PCOD9062965
_publ_section_title
;
Structure prediction by ZEFSAII (Michael W. Deem and Ramdas Pophale) SiO2 
 PCOD9062965
Probable space group: P -1
;
_chemical_formula_sum "Si O2"
_cell_formula_units_Z 16
_cell_length_a 9.674669
_cell_length_b 9.501510
_cell_length_c 14.849632
_cell_angle_alpha 79.569969
_cell_angle_beta 114.602893
_cell_angle_gamma 49.937671
_cell_volume 725.697011
_symmetry_space_group_name_H-M "P -1"
_symmetry_group_IT_number 2
_symmetry_cell_setting 'triclinic'
loop_
_space_group_symop_operation_xyz
x,y,z
-x,-y,-z
loop_
_atom_site_type_symbol
_atom_site_label
_atom_site_fract_x
_atom_site_fract_y
_atom_site_fract_z
Si Si1 0.346254 0.891508 0.789294
Si Si2 0.641697 0.042950 0.025257
Si Si3 0.754450 0.351247 0.532651
Si Si4 0.340015 0.106243 0.231798
Si Si5 0.796046 0.640107 0.508730
Si Si6 0.749143 0.117221 0.872396
Si Si7 0.877895 0.510875 0.748517
Si Si8 0.459178 0.620173 0.682719
O O1 0.500785 0.916406 0.794149
O O2 0.411601 0.717499 0.757405
O O3 0.419018 0.815704 0.920981
O O4 0.037396 0.139730 0.676338
O O5 0.929182 0.762783 0.141742
O O6 0.500000 0.000000 0.000000
O O7 0.593892 0.166983 0.908201
O O8 0.500000 0.500000 0.500000
O O9 0.695863 0.558497 0.473387
O O10 0.774550 0.243689 0.460301
O O11 0.121522 0.368026 0.188512
O O12 0.552848 0.922392 0.389316
O O13 0.234284 0.036744 0.169988
O O14 0.904106 0.557263 0.649854
O O15 0.000000 0.500000 0.500000
O O16 0.613329 0.355032 0.762529
O O17 0.000000 0.000000 0.000000
O O18 0.608639 0.632849 0.669785
#
# Coordination Sequence:
#
# PCOD9062965 Si02
#       8
#     2   2   2   2   2   2   2   2
#     4  11  24  44  69  99 135 180 220 274 338 404
#     4  12  24  44  69  96 134 179 226 270 335 394
#     4  12  22  41  71  98 135 176 213 273 348 396
#     4  11  24  43  70 101 133 174 227 275 335 402
#     4  12  22  41  71 101 134 172 222 274 337 404
#     4  12  26  44  69 100 132 175 229 282 326 389
#     4  11  24  44  69  99 134 180 221 274 337 403
#     4  11  24  43  68 101 136 173 225 278 337 390
#
# _framework density 22.047768999999999
#
# number of rings (size 3 to 8) (size 9 to 14) (size 15 to 20)
#    0.000    0.500    7.500    0.750    0.000    2.000 
#    0.000    2.500    0.000    0.000    0.000    0.000 
#    0.000    0.000    0.000    0.000    0.000    0.000 
#
# Total GULP energy -89213.027139 kJ/mol
# GULP energy per Si atom -5575.814196 kJ/mol
# Density = 2.199759 g / cm^3
# Si number density = 22.047769 Si / 1000 Ang^3
#
#
#
# Elastic Constant Matrix: (Units=GPa)
#
#
# Indices 1 2 3 4 5 6 
#
# 1 116.1893 38.9894 15.6209 12.3393 -7.5479 7.6328
# 2 38.9894 128.2058 18.2500 31.8432 3.8545 12.6407
# 3 15.6209 18.2500 42.1598 20.1358 -0.4106 1.9673
# 4 12.3393 31.8432 20.1358 33.4925 0.1008 2.2720
# 5 -7.5479 3.8545 -0.4106 0.1008 35.9842 8.7813
# 6 7.6328 12.6407 1.9673 2.2720 8.7813 35.0059
#
#
#
# Elastic Compliance Matrix: (Units=1/GPa)
#
#
# Indices 1 2 3 4 5 6 
#
# 1 0.010137 -0.002762 -0.002768 0.000670 0.002831 -0.001811
# 2 -0.002762 0.011311 0.001125 -0.010233 -0.001114 -0.002602
# 3 -0.002768 0.001125 0.034067 -0.020507 -0.000171 -0.000343
# 4 0.000670 -0.010233 -0.020507 0.051585 0.000562 0.001213
# 5 0.002831 -0.001114 -0.000171 0.000562 0.030421 -0.007873
# 6 -0.001811 -0.002602 -0.000343 0.001213 -0.007873 0.031817
#
#
# Mechanical properties :
#
#
# Convention : Reuss Voigt Hill
#
# Bulk Modulus (GPa) = 21.41084 48.03062 34.72073
# Shear Modulus (GPa) = 25.81094 35.14283 30.47688
#
# Velocity S-wave (km/s) = 3.42524 3.99675 3.72198
# Velocity P-wave (km/s) = 5.03738 6.56740 5.85260
#
# Compressibility (1/GPa) = 0.04670531
#
# Stress axis : x y z
#
# Youngs Moduli (GPa) = 98.64558 88.40573 29.35426
#
# Poissons Ratio (x) = 0.24415 0.08126
# Poissons Ratio (y) = 0.27243 -0.03302
# Poissons Ratio (z) = 0.27308 -0.09945
#
# Static dielectric constant tensor:
#      x y z
#    x 1.969300 -0.179600 0.257340 
#    y -0.179600 1.958120 -0.160180 
#    z 0.257340 -0.160180 2.155910 
# 
# From -- ./inp_files/318129.got.cif
#   From: 2010.05.17/outbox.cif.g08.bks.cpg/sg2_160_cif.got.tgz:318129.got - 2010.06.03 11:33:40.
