data_PCOD9062682
_publ_section_title
;
Structure prediction by ZEFSAII (Michael W. Deem and Ramdas Pophale) SiO2 
 PCOD9062682
Probable space group: P -1
;
_chemical_formula_sum "Si O2"
_cell_formula_units_Z 14
_cell_length_a 5.101521
_cell_length_b 17.785973
_cell_length_c 11.771458
_cell_angle_alpha 30.009642
_cell_angle_beta 87.115457
_cell_angle_gamma 87.388695
_cell_volume 533.519253
_symmetry_space_group_name_H-M "P -1"
_symmetry_group_IT_number 2
_symmetry_cell_setting 'triclinic'
loop_
_space_group_symop_operation_xyz
x,y,z
-x,-y,-z
loop_
_atom_site_type_symbol
_atom_site_label
_atom_site_fract_x
_atom_site_fract_y
_atom_site_fract_z
Si Si1 0.749816 0.013957 0.403458
Si Si2 0.936429 0.868148 0.383985
Si Si3 0.359438 0.649424 0.356986
Si Si4 0.236951 0.620770 0.831464
Si Si5 0.145073 0.207819 0.931230
Si Si6 0.411678 0.374518 0.387049
Si Si7 0.870330 0.323094 0.980561
O O1 0.728003 0.174760 0.131611
O O2 0.500000 0.000000 0.500000
O O3 0.754804 0.888340 0.472639
O O4 0.000000 0.000000 0.500000
O O5 0.757346 0.777544 0.418671
O O6 0.157240 0.755859 0.570658
O O7 0.057420 0.033320 0.147903
O O8 0.500000 0.500000 0.500000
O O9 0.075262 0.690190 0.260927
O O10 0.363082 0.639369 0.506107
O O11 0.571685 0.774884 0.152969
O O12 0.488777 0.570061 0.813367
O O13 0.199586 0.691361 0.865392
O O14 0.000000 0.500000 0.000000
O O15 0.142323 0.281433 0.964213
O O16 0.227435 0.510567 0.258618
#
# Coordination Sequence:
#
# PCOD9062682 Si02
#       7
#     2   2   2   2   2   2   2
#     4  11  24  42  68 100 148 197 241 295 362 445
#     4  11  27  46  71 114 153 197 252 306 393 446
#     4  12  28  53  81 109 150 196 269 314 376 448
#     4  12  26  42  73 110 156 196 247 303 383 459
#     4  11  29  50  81 113 145 201 255 325 374 441
#     4  12  28  46  75 108 152 205 251 318 377 454
#     4  11  24  45  71 108 146 194 248 305 373 450
#
# _framework density 26.240853999999999
#
# number of rings (size 3 to 8) (size 9 to 14) (size 15 to 20)
#    0.000    0.571    4.286    1.714    8.000    4.571 
#    0.000    0.000    0.000    0.000    0.000    0.000 
#    0.000    0.000    0.000    0.000    0.000    0.000 
#
# Total GULP energy -78187.737114 kJ/mol
# GULP energy per Si atom -5584.838365 kJ/mol
# Density = 2.618113 g / cm^3
# Si number density = 26.240854 Si / 1000 Ang^3
#
#
#
# Elastic Constant Matrix: (Units=GPa)
#
#
# Indices 1 2 3 4 5 6 
#
# 1 85.2076 3.9647 0.2635 5.9047 -11.9203 -0.2177
# 2 3.9647 125.5627 25.3412 6.9572 -2.0275 3.3658
# 3 0.2635 25.3412 82.9430 -11.1305 -21.1905 10.3562
# 4 5.9047 6.9572 -11.1305 58.8721 3.3362 -0.8272
# 5 -11.9203 -2.0275 -21.1905 3.3362 33.9415 12.4515
# 6 -0.2177 3.3658 10.3562 -0.8272 12.4515 38.2587
#
#
#
# Elastic Compliance Matrix: (Units=1/GPa)
#
#
# Indices 1 2 3 4 5 6 
#
# 1 0.012794 -0.000565 0.002049 -0.001255 0.006848 -0.002688
# 2 -0.000565 0.008712 -0.003465 -0.001505 -0.001980 0.000780
# 3 0.002049 -0.003465 0.018624 0.002715 0.015426 -0.009687
# 4 -0.001255 -0.001505 0.002715 0.017835 -0.000575 -0.000037
# 5 0.006848 -0.001980 0.015426 -0.000575 0.048711 -0.019828
# 6 -0.002688 0.000780 -0.009687 -0.000037 -0.019828 0.035128
#
#
# Mechanical properties :
#
#
# Convention : Reuss Voigt Hill
#
# Bulk Modulus (GPa) = 27.64977 39.20578 33.42778
# Shear Modulus (GPa) = 31.68117 43.82405 37.75261
#
# Velocity S-wave (km/s) = 3.47842 4.09108 3.79713
# Velocity P-wave (km/s) = 5.16647 6.10648 5.65604
#
# Compressibility (1/GPa) = 0.03616666
#
# Stress axis : x y z
#
# Youngs Moduli (GPa) = 78.16081 114.78676 53.69541
#
# Poissons Ratio (x) = 0.06489 -0.11002
# Poissons Ratio (y) = 0.04419 0.18605
# Poissons Ratio (z) = -0.16014 0.39773
#
# Static dielectric constant tensor:
#      x y z
#    x 2.327530 -0.062960 0.099450 
#    y -0.062960 2.078690 -0.004080 
#    z 0.099450 -0.004080 2.252720 
# 
# From -- ./inp_files/369265.got.cif
#   From: 2010.05.17/outbox.cif.g08.bks.cpg/sg2_185_cif.got.tgz:369265.got - 2010.06.03 11:33:40.
