data_PCOD9062140
_publ_section_title
;
Structure prediction by ZEFSAII (Michael W. Deem and Ramdas Pophale) SiO2 
 PCOD9062140
Probable space group: P -1
;
_chemical_formula_sum "Si O2"
_cell_formula_units_Z 15
_cell_length_a 11.536844
_cell_length_b 10.395414
_cell_length_c 11.469107
_cell_angle_alpha 44.582120
_cell_angle_beta 140.450066
_cell_angle_gamma 133.260339
_cell_volume 585.577205
_symmetry_space_group_name_H-M "P -1"
_symmetry_group_IT_number 2
_symmetry_cell_setting 'triclinic'
loop_
_space_group_symop_operation_xyz
x,y,z
-x,-y,-z
loop_
_atom_site_type_symbol
_atom_site_label
_atom_site_fract_x
_atom_site_fract_y
_atom_site_fract_z
Si Si1 0.185025 0.091058 0.884432
Si Si2 0.261367 0.576337 0.360133
Si Si3 0.000000 0.500000 0.000000
Si Si4 0.237673 0.107129 0.288773
Si Si5 0.782729 0.476286 0.372473
Si Si6 0.497426 0.842107 0.742291
Si Si7 0.725948 0.101853 0.138347
Si Si8 0.313440 0.213329 0.521199
O O1 0.247101 0.318573 0.774188
O O2 0.168171 0.996850 0.806826
O O3 0.359375 0.054256 0.113150
O O4 0.976487 0.015143 0.828461
O O5 0.262006 0.618083 0.471397
O O6 0.250656 0.353401 0.470199
O O7 0.460740 0.697749 0.378817
O O8 0.092334 0.597314 0.134292
O O9 0.174674 0.672581 0.951523
O O10 0.355227 0.204218 0.206145
O O11 0.232660 0.236368 0.314923
O O12 0.369377 0.974585 0.515906
O O13 0.662454 0.361429 0.245066
O O14 0.000000 0.500000 0.500000
O O15 0.749776 0.006125 0.342763
O O16 0.500000 0.000000 0.000000
#
# Coordination Sequence:
#
# PCOD9062140 Si02
#       8
#     2   2   1   2   2   2   2   2
#     4  12  26  46  75 112 150 207 262 318 396 471
#     4  11  25  47  73 110 151 202 258 321 394 468
#     4  12  28  44  76 120 146 198 266 318 388 482
#     4  11  24  45  74 105 146 206 251 327 386 468
#     4  12  25  49  73 110 156 208 263 324 391 466
#     4  11  25  46  73 106 152 205 263 316 390 458
#     4  12  26  48  76 114 159 202 258 332 395 471
#     4  11  23  47  76 101 152 202 251 316 406 462
#
# _framework density 25.615750999999999
#
# number of rings (size 3 to 8) (size 9 to 14) (size 15 to 20)
#    0.000    0.533    5.333    2.400    1.867    2.133 
#    7.200    0.000    0.000    0.000    0.000    0.000 
#    0.000    0.000    0.000    0.000    0.000    0.000 
#
# Total GULP energy -83642.760441 kJ/mol
# GULP energy per Si atom -5576.184029 kJ/mol
# Density = 2.555745 g / cm^3
# Si number density = 25.615751 Si / 1000 Ang^3
#
#
#
# Elastic Constant Matrix: (Units=GPa)
#
#
# Indices 1 2 3 4 5 6 
#
# 1 79.4125 5.2634 15.1777 5.5513 -2.6808 14.7973
# 2 5.2634 112.9521 30.7563 9.3206 3.9923 21.9430
# 3 15.1777 30.7563 101.6985 19.5131 7.5209 16.4397
# 4 5.5513 9.3206 19.5131 50.0734 2.4188 -0.1295
# 5 -2.6808 3.9923 7.5209 2.4188 33.8035 8.2247
# 6 14.7973 21.9430 16.4397 -0.1295 8.2247 42.4040
#
#
#
# Elastic Compliance Matrix: (Units=1/GPa)
#
#
# Indices 1 2 3 4 5 6 
#
# 1 0.013972 0.000766 -0.001422 -0.001281 0.002703 -0.005249
# 2 0.000766 0.010477 -0.002307 -0.001178 0.000618 -0.004918
# 3 -0.001422 -0.002307 0.012072 -0.004048 -0.001581 -0.002696
# 4 -0.001281 -0.001178 -0.004048 0.021983 -0.001354 0.002956
# 5 0.002703 0.000618 -0.001581 -0.001354 0.031834 -0.006829
# 6 -0.005249 -0.004918 -0.002696 0.002956 -0.006829 0.030338
#
#
# Mechanical properties :
#
#
# Convention : Reuss Voigt Hill
#
# Bulk Modulus (GPa) = 32.68602 44.05089 38.36845
# Shear Modulus (GPa) = 36.54927 41.44722 38.99825
#
# Velocity S-wave (km/s) = 3.78144 4.02685 3.90607
# Velocity P-wave (km/s) = 5.64389 6.23336 5.94593
#
# Compressibility (1/GPa) = 0.03059412
#
# Stress axis : x y z
#
# Youngs Moduli (GPa) = 71.56933 95.45047 82.83320
#
# Poissons Ratio (x) = -0.07313 0.11783
# Poissons Ratio (y) = -0.05483 0.19113
# Poissons Ratio (z) = 0.10181 0.22024
#
# Static dielectric constant tensor:
#      x y z
#    x 1.302000 0.056880 0.004620 
#    y 0.056880 2.078980 -0.084870 
#    z 0.004620 -0.084870 2.212640 
# 
# From -- ./inp_files/425353.got.cif
#   From: 2010.05.17/outbox.cif.g08.bks.cpg/sg2_213_cif.got.tgz:425353.got - 2010.06.03 11:33:40.
