data_PCOD9062143
_publ_section_title
;
Structure prediction by ZEFSAII (Michael W. Deem and Ramdas Pophale) SiO2 
 PCOD9062143
Probable space group: P -1
;
_chemical_formula_sum "Si O2"
_cell_formula_units_Z 16
_cell_length_a 11.598682
_cell_length_b 24.598779
_cell_length_c 5.430827
_cell_angle_alpha 69.119383
_cell_angle_beta 58.789607
_cell_angle_gamma 30.744314
_cell_volume 663.305496
_symmetry_space_group_name_H-M "P -1"
_symmetry_group_IT_number 2
_symmetry_cell_setting 'triclinic'
loop_
_space_group_symop_operation_xyz
x,y,z
-x,-y,-z
loop_
_atom_site_type_symbol
_atom_site_label
_atom_site_fract_x
_atom_site_fract_y
_atom_site_fract_z
Si Si1 0.169396 0.700828 0.306418
Si Si2 0.674749 0.533692 0.222956
Si Si3 0.162760 0.790697 0.780772
Si Si4 0.814580 0.106280 0.184937
Si Si5 0.363719 0.223238 0.756153
Si Si6 0.737274 0.874359 0.854679
Si Si7 0.109402 0.597174 0.308120
Si Si8 0.560796 0.700699 0.105132
O O1 0.378227 0.622464 0.417641
O O2 0.164435 0.642873 0.257890
O O3 0.886317 0.821101 0.512518
O O4 0.280483 0.711713 0.999714
O O5 0.795254 0.474707 0.449178
O O6 0.718707 0.586556 0.038131
O O7 0.773085 0.462351 0.990882
O O8 0.036218 0.895492 0.852177
O O9 0.368761 0.740597 0.448894
O O10 0.958183 0.821477 0.856971
O O11 0.653821 0.127066 0.519716
O O12 0.611430 0.210342 0.062231
O O13 0.000000 0.000000 0.000000
O O14 0.308993 0.293184 0.906010
O O15 0.186275 0.299445 0.594136
O O16 0.314653 0.174977 0.967703
O O17 0.500000 0.000000 0.000000
#
# Coordination Sequence:
#
# PCOD9062143 Si02
#       8
#     2   2   2   2   2   2   2   2
#     4  12  25  48  75 113 160 193 263 319 379 473
#     4  12  26  47  82 110 152 211 265 312 394 466
#     4  11  23  47  76 106 154 197 257 310 386 451
#     4  11  27  47  79 105 148 208 257 312 386 469
#     4  11  29  47  71 114 160 191 255 324 384 458
#     4  12  28  46  79 114 156 203 249 323 396 454
#     4  12  28  47  78 117 153 208 255 331 396 447
#     4  11  26  48  75 109 154 200 259 318 375 474
#
# _framework density 24.121617000000001
#
# number of rings (size 3 to 8) (size 9 to 14) (size 15 to 20)
#    0.000    0.500    3.750    2.250   10.500    2.500 
#    0.000    0.000    0.000    0.000    0.000    0.000 
#    0.000    0.000    0.000    0.000    0.000    0.000 
#
# Total GULP energy -89460.552163 kJ/mol
# GULP energy per Si atom -5591.284510 kJ/mol
# Density = 2.406671 g / cm^3
# Si number density = 24.121617 Si / 1000 Ang^3
#
#
#
# Elastic Constant Matrix: (Units=GPa)
#
#
# Indices 1 2 3 4 5 6 
#
# 1 187.2532 42.0246 22.9916 -7.8516 -7.2719 39.2353
# 2 42.0246 80.1747 30.4426 6.3465 -3.2753 20.1966
# 3 22.9916 30.4426 105.6147 -1.8689 -6.1076 11.3507
# 4 -7.8516 6.3465 -1.8689 37.6614 3.8087 8.7002
# 5 -7.2719 -3.2753 -6.1076 3.8087 39.2350 1.5473
# 6 39.2353 20.1966 11.3507 8.7002 1.5473 43.9366
#
#
#
# Elastic Compliance Matrix: (Units=1/GPa)
#
#
# Indices 1 2 3 4 5 6 
#
# 1 0.007367 -0.002502 -0.000110 0.003249 0.001064 -0.006081
# 2 -0.002502 0.016428 -0.003783 -0.002665 0.000729 -0.003838
# 3 -0.000110 -0.003783 0.010815 0.001314 0.001269 -0.001262
# 4 0.003249 -0.002665 0.001314 0.029757 -0.001995 -0.007838
# 5 0.001064 0.000729 0.001269 -0.001995 0.026221 -0.002141
# 6 -0.006081 -0.003838 -0.001262 -0.007838 -0.002141 0.031909
#
#
# Mechanical properties :
#
#
# Convention : Reuss Voigt Hill
#
# Bulk Modulus (GPa) = 45.82836 62.66225 54.24530
# Shear Modulus (GPa) = 35.07304 42.67219 38.87261
#
# Velocity S-wave (km/s) = 3.81728 4.21056 4.01874
# Velocity P-wave (km/s) = 6.20234 7.04787 6.63858
#
# Compressibility (1/GPa) = 0.02182055
#
# Stress axis : x y z
#
# Youngs Moduli (GPa) = 135.73912 60.87136 92.46350
#
# Poissons Ratio (x) = 0.15227 0.01018
# Poissons Ratio (y) = 0.33956 0.34981
# Poissons Ratio (z) = 0.01495 0.23029
#
# Static dielectric constant tensor:
#      x y z
#    x 1.956570 -0.025470 0.058800 
#    y -0.025470 2.022190 -0.010030 
#    z 0.058800 -0.010030 1.994180 
# 
# From -- ./inp_files/84284.got.cif
#   From: 2010.05.17/outbox.cif.g08.bks.cpg/sg2_43_cif.got.tgz:84284.got - 2010.06.03 11:33:40.
