data_PCOD9062285
_publ_section_title
;
Structure prediction by ZEFSAII (Michael W. Deem and Ramdas Pophale) SiO2 
 PCOD9062285
Probable space group: P -1
;
_chemical_formula_sum "Si O2"
_cell_formula_units_Z 14
_cell_length_a 15.460236
_cell_length_b 7.881400
_cell_length_c 7.837761
_cell_angle_alpha 62.246063
_cell_angle_beta 92.798854
_cell_angle_gamma 132.712046
_cell_volume 566.205751
_symmetry_space_group_name_H-M "P -1"
_symmetry_group_IT_number 2
_symmetry_cell_setting 'triclinic'
loop_
_space_group_symop_operation_xyz
x,y,z
-x,-y,-z
loop_
_atom_site_type_symbol
_atom_site_label
_atom_site_fract_x
_atom_site_fract_y
_atom_site_fract_z
Si Si1 0.146512 0.400156 0.107093
Si Si2 0.967124 0.395235 0.261028
Si Si3 0.085923 0.895021 0.263152
Si Si4 0.448736 0.595627 0.555330
Si Si5 0.278757 0.802358 0.634665
Si Si6 0.362019 0.227350 0.030741
Si Si7 0.705393 0.319969 0.670769
O O1 0.206975 0.459551 0.270465
O O2 0.070865 0.095646 0.171689
O O3 0.050750 0.421180 0.118679
O O4 0.257921 0.627744 0.873836
O O5 0.977999 0.290017 0.485261
O O6 0.814569 0.176484 0.330409
O O7 0.030177 0.698617 0.184330
O O8 0.238198 0.090329 0.191304
O O9 0.500000 0.500000 0.500000
O O10 0.389107 0.662955 0.400179
O O11 0.574135 0.896144 0.515046
O O12 0.356714 0.347874 0.803085
O O13 0.234314 0.639996 0.526394
O O14 0.349491 0.975582 0.126242
O O15 0.500000 0.500000 0.000000
#
# Coordination Sequence:
#
# PCOD9062285 Si02
#       7
#     2   2   2   2   2   2   2
#     4  12  27  46  79 112 148 207 253 310 389 450
#     4  11  23  49  74 108 153 196 257 314 374 459
#     4  11  24  46  74 110 150 197 254 312 386 446
#     4  12  29  47  74 118 151 199 259 310 389 464
#     4  12  26  50  74 111 153 197 255 318 375 461
#     4  12  24  47  79 107 152 205 245 316 390 443
#     4  12  26  49  78 110 159 199 253 318 382 459
#
# _framework density 24.725992000000002
#
# number of rings (size 3 to 8) (size 9 to 14) (size 15 to 20)
#    0.000    0.286    4.286    3.857    6.000    1.714 
#    0.000    0.000    0.000    0.000    0.000    0.000 
#    0.000    0.000    0.000    0.000    0.000    0.000 
#
# Total GULP energy -78386.452702 kJ/mol
# GULP energy per Si atom -5599.032336 kJ/mol
# Density = 2.466971 g / cm^3
# Si number density = 24.725992 Si / 1000 Ang^3
#
#
#
# Elastic Constant Matrix: (Units=GPa)
#
#
# Indices 1 2 3 4 5 6 
#
# 1 106.0397 38.3123 42.8865 -14.1271 19.8726 -7.0994
# 2 38.3123 99.1652 47.8049 -1.9819 5.4644 -16.9410
# 3 42.8865 47.8049 126.1593 9.2125 -5.6281 -18.5688
# 4 -14.1271 -1.9819 9.2125 33.2127 -6.0985 13.2860
# 5 19.8726 5.4644 -5.6281 -6.0985 50.9221 1.2020
# 6 -7.0994 -16.9410 -18.5688 13.2860 1.2020 43.6312
#
#
#
# Elastic Compliance Matrix: (Units=1/GPa)
#
#
# Indices 1 2 3 4 5 6 
#
# 1 0.014281 -0.003319 -0.004840 0.007632 -0.004762 -0.003218
# 2 -0.003319 0.013684 -0.003454 -0.001268 -0.000794 0.003711
# 3 -0.004840 -0.003454 0.012305 -0.007300 0.002621 0.005259
# 4 0.007632 -0.001268 -0.007300 0.041651 0.001695 -0.015087
# 5 -0.004762 -0.000794 0.002621 0.001695 0.022100 -0.001093
# 6 -0.003218 0.003711 0.005259 -0.015087 -0.001093 0.030699
#
#
# Mechanical properties :
#
#
# Convention : Reuss Voigt Hill
#
# Bulk Modulus (GPa) = 58.67233 65.48576 62.07904
# Shear Modulus (GPa) = 30.55749 39.04389 34.80069
#
# Velocity S-wave (km/s) = 3.51927 3.97805 3.75567
# Velocity P-wave (km/s) = 6.34777 6.90232 6.63084
#
# Compressibility (1/GPa) = 0.01704381
#
# Stress axis : x y z
#
# Youngs Moduli (GPa) = 70.02363 73.07983 81.27011
#
# Poissons Ratio (x) = 0.24253 0.39338
# Poissons Ratio (y) = 0.23239 0.28067
# Poissons Ratio (z) = 0.33894 0.25239
#
# Static dielectric constant tensor:
#      x y z
#    x 1.957790 0.038890 0.025040 
#    y 0.038890 1.976660 0.004980 
#    z 0.025040 0.004980 2.004250 
# 
# From -- ./inp_files/341525.got.cif
#   From: 2010.05.17/outbox.cif.g08.bks.cpg/sg2_171_cif.got.tgz:341525.got - 2010.06.03 11:33:40.
