data_PCOD9062290
_publ_section_title
;
Structure prediction by ZEFSAII (Michael W. Deem and Ramdas Pophale) SiO2 
 PCOD9062290
Probable space group: P -1
;
_chemical_formula_sum "Si O2"
_cell_formula_units_Z 14
_cell_length_a 6.150672
_cell_length_b 14.394019
_cell_length_c 22.084713
_cell_angle_alpha 160.775908
_cell_angle_beta 78.315661
_cell_angle_gamma 91.873050
_cell_volume 548.970885
_symmetry_space_group_name_H-M "P -1"
_symmetry_group_IT_number 2
_symmetry_cell_setting 'triclinic'
loop_
_space_group_symop_operation_xyz
x,y,z
-x,-y,-z
loop_
_atom_site_type_symbol
_atom_site_label
_atom_site_fract_x
_atom_site_fract_y
_atom_site_fract_z
Si Si1 0.893254 0.749249 0.856988
Si Si2 0.194831 0.035930 0.603683
Si Si3 0.735186 0.535161 0.238307
Si Si4 0.624617 0.703641 0.726622
Si Si5 0.212630 0.947533 0.149445
Si Si6 0.752590 0.029071 0.301050
Si Si7 0.357107 0.501303 0.070298
O O1 0.825498 0.631837 0.726079
O O2 0.102342 0.473126 0.717922
O O3 0.623385 0.960541 0.035750
O O4 0.000000 0.000000 0.000000
O O5 0.234049 0.254184 0.686390
O O6 0.436577 0.682010 0.361608
O O7 0.224376 0.102786 0.713542
O O8 0.894291 0.160252 0.694183
O O9 0.856616 0.172788 0.982223
O O10 0.558915 0.413068 0.547190
O O11 0.725783 0.773785 0.701620
O O12 0.455669 0.624138 0.961148
O O13 0.004616 0.029206 0.262767
O O14 0.711589 0.785313 0.111835
O O15 0.500000 0.500000 0.000000
#
# Coordination Sequence:
#
# PCOD9062290 Si02
#       7
#     2   2   2   2   2   2   2
#     4  11  23  49  75 104 154 190 241 314 372 431
#     4  11  24  47  73 107 143 194 248 301 370 437
#     4  11  24  46  77 108 147 188 246 312 364 440
#     4  11  27  44  76 113 142 196 252 298 373 446
#     4  12  25  46  73 108 151 193 246 305 370 441
#     4  12  26  48  70 107 155 191 249 301 369 445
#     4  12  25  47  76 105 150 199 243 307 367 435
#
# _framework density 25.502265999999999
#
# number of rings (size 3 to 8) (size 9 to 14) (size 15 to 20)
#    0.000    0.571    4.286    3.429    2.000    3.429 
#    5.143    0.000    0.000    0.000    0.000    0.000 
#    0.000    0.000    0.000    0.000    0.000    0.000 
#
# Total GULP energy -78364.461761 kJ/mol
# GULP energy per Si atom -5597.461554 kJ/mol
# Density = 2.544422 g / cm^3
# Si number density = 25.502266 Si / 1000 Ang^3
#
#
#
# Elastic Constant Matrix: (Units=GPa)
#
#
# Indices 1 2 3 4 5 6 
#
# 1 67.4858 49.5790 39.7952 5.1764 -7.1970 3.8383
# 2 49.5790 140.1883 27.3294 2.4773 -10.3394 6.7578
# 3 39.7952 27.3294 106.8018 1.0348 -4.6963 3.5086
# 4 5.1764 2.4773 1.0348 39.5740 11.2604 -4.8565
# 5 -7.1970 -10.3394 -4.6963 11.2604 47.4195 1.7809
# 6 3.8383 6.7578 3.5086 -4.8565 1.7809 37.0326
#
#
#
# Elastic Compliance Matrix: (Units=1/GPa)
#
#
# Indices 1 2 3 4 5 6 
#
# 1 0.024916 -0.007098 -0.007292 -0.003442 0.002373 -0.001162
# 2 -0.007098 0.009739 0.000242 -0.000155 0.001150 -0.001140
# 3 -0.007292 0.000242 0.012025 0.000577 0.000013 -0.000353
# 4 -0.003442 -0.000155 0.000577 0.028360 -0.007399 0.004405
# 5 0.002373 0.001150 0.000013 -0.007399 0.023554 -0.002560
# 6 -0.001162 -0.001140 -0.000353 0.004405 -0.002560 0.028066
#
#
# Mechanical properties :
#
#
# Convention : Reuss Voigt Hill
#
# Bulk Modulus (GPa) = 54.39526 60.87590 57.63558
# Shear Modulus (GPa) = 31.04022 37.99004 34.51513
#
# Velocity S-wave (km/s) = 3.49256 3.86382 3.68287
# Velocity P-wave (km/s) = 6.13513 6.62027 6.38231
#
# Compressibility (1/GPa) = 0.01838395
#
# Stress axis : x y z
#
# Youngs Moduli (GPa) = 40.13550 102.68087 83.16295
#
# Poissons Ratio (x) = 0.72887 0.60638
# Poissons Ratio (y) = 0.28490 -0.02015
# Poissons Ratio (z) = 0.29265 -0.02488
#
# Static dielectric constant tensor:
#      x y z
#    x 2.015790 0.014290 -0.014690 
#    y 0.014290 1.974240 0.027250 
#    z -0.014690 0.027250 2.059410 
# 
# From -- ./inp_files/94585.got.cif
#   From: 2010.05.17/outbox.cif.g08.bks.cpg/sg2_48_cif.got.tgz:94585.got - 2010.06.03 11:33:40.
