data_PCOD9062776
_publ_section_title
;
Structure prediction by ZEFSAII (Michael W. Deem and Ramdas Pophale) SiO2 
 PCOD9062776
Probable space group: P -1
;
_chemical_formula_sum "Si O2"
_cell_formula_units_Z 16
_cell_length_a 6.972414
_cell_length_b 17.868137
_cell_length_c 10.084497
_cell_angle_alpha 82.852010
_cell_angle_beta 138.964772
_cell_angle_gamma 91.001977
_cell_volume 812.779208
_symmetry_space_group_name_H-M "P -1"
_symmetry_group_IT_number 2
_symmetry_cell_setting 'triclinic'
loop_
_space_group_symop_operation_xyz
x,y,z
-x,-y,-z
loop_
_atom_site_type_symbol
_atom_site_label
_atom_site_fract_x
_atom_site_fract_y
_atom_site_fract_z
Si Si1 0.773531 0.203638 0.564712
Si Si2 0.295203 0.966847 0.506714
Si Si3 0.657388 0.054871 0.165743
Si Si4 0.263871 0.691554 0.728247
Si Si5 0.630740 0.536113 0.932151
Si Si6 0.431932 0.284990 0.607853
Si Si7 0.446457 0.222558 0.920327
Si Si8 0.307672 0.555599 0.285650
O O1 0.786595 0.114051 0.568567
O O2 0.697244 0.245441 0.376446
O O3 0.545426 0.234313 0.552490
O O4 0.098924 0.223708 0.764587
O O5 0.439537 0.953321 0.730299
O O6 0.500000 0.000000 0.500000
O O7 0.002829 0.025856 0.353373
O O8 0.596225 0.140420 0.062900
O O9 0.500000 0.000000 0.000000
O O10 0.416516 0.612009 0.771112
O O11 0.919572 0.691715 0.579880
O O12 0.425672 0.713550 0.940306
O O13 0.641354 0.478740 0.827363
O O14 0.500000 0.500000 0.000000
O O15 0.959870 0.555641 0.129255
O O16 0.496259 0.238571 0.788097
O O17 0.592372 0.360886 0.672739
O O18 0.500000 0.500000 0.500000
#
# Coordination Sequence:
#
# PCOD9062776 Si02
#       8
#     2   2   2   2   2   2   2   2
#     4  11  24  43  62  95 131 170 212 268 320 382
#     4  11  26  41  67  96 128 169 219 266 323 382
#     4  11  24  45  66  92 132 168 215 271 321 380
#     4  11  24  43  64  93 129 173 209 266 322 379
#     4  11  24  42  70  95 130 169 218 257 321 382
#     4  11  26  40  66  97 131 167 218 261 323 381
#     4  11  24  43  65  92 131 172 215 265 326 380
#     4  11  24  44  66 100 131 168 212 270 312 381
#
# _framework density 19.685545000000001
#
# number of rings (size 3 to 8) (size 9 to 14) (size 15 to 20)
#    0.000    1.000    2.500    3.000    3.500    9.500 
#    0.000    0.000    0.000    0.000    0.000    0.000 
#    0.000    0.000    0.000    0.000    0.000    0.000 
#
# Total GULP energy -89502.753528 kJ/mol
# GULP energy per Si atom -5593.922095 kJ/mol
# Density = 1.964074 g / cm^3
# Si number density = 19.685545 Si / 1000 Ang^3
#
#
#
# Elastic Constant Matrix: (Units=GPa)
#
#
# Indices 1 2 3 4 5 6 
#
# 1 137.5336 18.9311 40.2710 -1.9889 -8.2446 3.2747
# 2 18.9311 49.9158 2.4151 -5.4116 -3.9503 0.0798
# 3 40.2710 2.4151 81.9583 2.0532 -6.2783 4.0266
# 4 -1.9889 -5.4116 2.0532 41.4748 -6.5287 -1.9677
# 5 -8.2446 -3.9503 -6.2783 -6.5287 14.9893 -6.2444
# 6 3.2747 0.0798 4.0266 -1.9677 -6.2444 32.2118
#
#
#
# Elastic Compliance Matrix: (Units=1/GPa)
#
#
# Indices 1 2 3 4 5 6 
#
# 1 0.009077 -0.002935 -0.004182 0.000720 0.002867 0.000207
# 2 -0.002935 0.022070 0.001154 0.003878 0.007087 0.001710
# 3 -0.004182 0.001154 0.014546 -0.000218 0.003714 -0.000689
# 4 0.000720 0.003878 -0.000218 0.027252 0.015085 0.004533
# 5 0.002867 0.007087 0.003714 0.015085 0.085230 0.016670
# 6 0.000207 0.001710 -0.000689 0.004533 0.016670 0.034614
#
#
# Mechanical properties :
#
#
# Convention : Reuss Voigt Hill
#
# Bulk Modulus (GPa) = 29.61641 43.62692 36.62166
# Shear Modulus (GPa) = 23.15122 31.58789 27.36955
#
# Velocity S-wave (km/s) = 3.43308 4.01012 3.73277
# Velocity P-wave (km/s) = 5.54907 6.60692 6.10097
#
# Compressibility (1/GPa) = 0.03376507
#
# Stress axis : x y z
#
# Youngs Moduli (GPa) = 110.16912 45.31079 68.74691
#
# Poissons Ratio (x) = 0.13301 0.28751
# Poissons Ratio (y) = 0.32340 -0.07931
# Poissons Ratio (z) = 0.46074 -0.05228
#
# Static dielectric constant tensor:
#      x y z
#    x 1.667490 -0.002580 -0.012440 
#    y -0.002580 1.674330 -0.009190 
#    z -0.012440 -0.009190 1.693930 
# 
# From -- ./inp_files/13128.got.cif
#   From: 2010.05.17/outbox.cif.g08.bks.cpg/sg2_7_cif.got.tgz:13128.got - 2010.06.03 11:33:40.
