data_PCOD9062092
_publ_section_title
;
Structure prediction by ZEFSAII (Michael W. Deem and Ramdas Pophale) SiO2 
 PCOD9062092
Probable space group: P -1
;
_chemical_formula_sum "Si O2"
_cell_formula_units_Z 16
_cell_length_a 9.691771
_cell_length_b 6.645070
_cell_length_c 20.890068
_cell_angle_alpha 125.474711
_cell_angle_beta 137.720611
_cell_angle_gamma 50.966673
_cell_volume 686.008018
_symmetry_space_group_name_H-M "P -1"
_symmetry_group_IT_number 2
_symmetry_cell_setting 'triclinic'
loop_
_space_group_symop_operation_xyz
x,y,z
-x,-y,-z
loop_
_atom_site_type_symbol
_atom_site_label
_atom_site_fract_x
_atom_site_fract_y
_atom_site_fract_z
Si Si1 0.039888 0.162371 0.159628
Si Si2 0.331593 0.401943 0.960615
Si Si3 0.869090 0.017540 0.207715
Si Si4 0.963907 0.749643 0.407945
Si Si5 0.617309 0.683725 0.470548
Si Si6 0.218778 0.573396 0.087800
Si Si7 0.625343 0.537796 0.297823
Si Si8 0.197520 0.597086 0.328773
O O1 0.201325 0.301779 0.266348
O O2 0.895486 0.374159 0.098306
O O3 0.911913 0.113456 0.169537
O O4 0.141280 0.886268 0.107919
O O5 0.307177 0.128028 0.883297
O O6 0.500000 0.500000 0.000000
O O7 0.361355 0.414871 0.048445
O O8 0.784738 0.254803 0.272969
O O9 0.094548 0.793625 0.269891
O O10 0.142557 0.476102 0.447723
O O11 0.029900 0.733353 0.353621
O O12 0.721036 0.741263 0.332825
O O13 0.000000 0.000000 0.500000
O O14 0.635863 0.602766 0.387510
O O15 0.442131 0.576490 0.421897
O O16 0.500000 0.000000 0.500000
O O17 0.383138 0.539807 0.197450
O O18 0.000000 0.500000 0.000000
#
# Coordination Sequence:
#
# PCOD9062092 Si02
#       8
#     2   2   2   2   2   2   2   2
#     4  11  24  45  72 100 150 188 246 295 362 437
#     4  11  26  43  72 105 141 194 244 299 362 439
#     4  11  23  47  72 105 149 190 242 301 370 431
#     4  12  26  47  72 109 148 188 254 308 367 448
#     4  12  27  47  77 109 150 195 246 309 378 441
#     4  12  27  45  72 108 148 196 244 299 370 436
#     4  12  27  45  77 104 149 195 239 307 373 436
#     4  11  25  44  76 106 140 193 240 300 369 441
#
# _framework density 23.323343000000001
#
# number of rings (size 3 to 8) (size 9 to 14) (size 15 to 20)
#    0.000    0.500    2.500    4.875    8.750    2.000 
#    0.000    0.000    0.000    0.000    0.000    0.000 
#    0.000    0.000    0.000    0.000    0.000    0.000 
#
# Total GULP energy -89470.332445 kJ/mol
# GULP energy per Si atom -5591.895778 kJ/mol
# Density = 2.327026 g / cm^3
# Si number density = 23.323343 Si / 1000 Ang^3
#
#
#
# Elastic Constant Matrix: (Units=GPa)
#
#
# Indices 1 2 3 4 5 6 
#
# 1 72.3056 1.7062 30.8000 5.4319 -1.5729 3.8958
# 2 1.7062 107.5681 41.9330 25.5615 -0.0020 -7.7794
# 3 30.8000 41.9330 112.2213 26.4186 7.1328 0.3638
# 4 5.4319 25.5615 26.4186 57.0979 7.7671 -2.9280
# 5 -1.5729 -0.0020 7.1328 7.7671 54.1790 3.0306
# 6 3.8958 -7.7794 0.3638 -2.9280 3.0306 26.9908
#
#
#
# Elastic Compliance Matrix: (Units=1/GPa)
#
#
# Indices 1 2 3 4 5 6 
#
# 1 0.016090 0.001618 -0.005050 -0.000191 0.001269 -0.001951
# 2 0.001618 0.011929 -0.004130 -0.003571 0.000948 0.002767
# 3 -0.005050 -0.004130 0.012732 -0.003431 -0.001283 -0.000861
# 4 -0.000191 -0.003571 -0.003431 0.021167 -0.002680 0.001642
# 5 0.001269 0.000948 -0.001283 -0.002680 0.019178 -0.002337
# 6 -0.001951 0.002767 -0.000861 0.001642 -0.002337 0.038581
#
#
# Mechanical properties :
#
#
# Convention : Reuss Voigt Hill
#
# Bulk Modulus (GPa) = 39.02121 48.99702 44.00912
# Shear Modulus (GPa) = 34.88087 42.16394 38.52240
#
# Velocity S-wave (km/s) = 3.87141 4.25644 4.06848
# Velocity P-wave (km/s) = 6.06223 6.72381 6.40157
#
# Compressibility (1/GPa) = 0.02562709
#
# Stress axis : x y z
#
# Youngs Moduli (GPa) = 62.14968 83.82614 78.53983
#
# Poissons Ratio (x) = -0.13560 0.39662
# Poissons Ratio (y) = -0.10054 0.32439
# Poissons Ratio (z) = 0.31385 0.34622
#
# Static dielectric constant tensor:
#      x y z
#    x 1.903790 -0.007580 -0.045400 
#    y -0.007580 1.866430 -0.025190 
#    z -0.045400 -0.025190 2.197760 
# 
# From -- ./inp_files/585881.got.cif
#   From: 2010.05.17/outbox.cif.g08.bks.cpg/sg2_293_cif.got.tgz:585881.got - 2010.06.03 11:33:40.
