data_PCOD9062417
_publ_section_title
;
Structure prediction by ZEFSAII (Michael W. Deem and Ramdas Pophale) SiO2 
 PCOD9062417
Probable space group: P -1
;
_chemical_formula_sum "Si O2"
_cell_formula_units_Z 16
_cell_length_a 13.518247
_cell_length_b 12.614509
_cell_length_c 12.352988
_cell_angle_alpha 58.478031
_cell_angle_beta 150.321734
_cell_angle_gamma 132.734017
_cell_volume 753.075351
_symmetry_space_group_name_H-M "P -1"
_symmetry_group_IT_number 2
_symmetry_cell_setting 'triclinic'
loop_
_space_group_symop_operation_xyz
x,y,z
-x,-y,-z
loop_
_atom_site_type_symbol
_atom_site_label
_atom_site_fract_x
_atom_site_fract_y
_atom_site_fract_z
Si Si1 0.716746 0.585890 0.418832
Si Si2 0.863407 0.419603 0.805827
Si Si3 0.883265 0.379928 0.361787
Si Si4 0.001787 0.913997 0.156671
Si Si5 0.273895 0.121316 0.692208
Si Si6 0.453941 0.107759 0.635104
Si Si7 0.812611 0.601849 0.040753
Si Si8 0.606659 0.900636 0.938292
O O1 0.821814 0.530297 0.638748
O O2 0.688865 0.718061 0.359000
O O3 0.914996 0.641835 0.483988
O O4 0.458691 0.451397 0.210644
O O5 0.608234 0.276901 0.659961
O O6 0.025977 0.373726 0.922321
O O7 0.000000 0.500000 0.000000
O O8 0.798340 0.460046 0.156612
O O9 0.657811 0.231604 0.267430
O O10 0.000000 0.500000 0.500000
O O11 0.943456 0.752995 0.151896
O O12 0.245124 0.014199 0.400681
O O13 0.797904 0.885105 0.063302
O O14 0.000000 0.000000 0.000000
O O15 0.367530 0.096089 0.682754
O O16 0.373098 0.103091 0.910249
O O17 0.000000 0.000000 0.500000
O O18 0.626126 0.046745 0.836830
#
# Coordination Sequence:
#
# PCOD9062417 Si02
#       8
#     2   2   2   2   2   2   2   2
#     4  11  25  45  69 102 139 177 232 284 340 411
#     4  11  27  45  71 102 137 186 229 283 343 406
#     4  11  24  40  69 103 138 180 221 281 347 410
#     4  12  27  46  72 102 140 187 234 285 348 415
#     4  12  25  45  73 102 141 184 234 286 352 412
#     4  12  27  46  71 103 141 185 235 288 344 416
#     4  11  24  45  68 100 140 177 228 282 341 410
#     4  12  26  45  71 105 141 184 231 288 351 412
#
# _framework density 21.246213999999998
#
# number of rings (size 3 to 8) (size 9 to 14) (size 15 to 20)
#    0.000    0.500    2.500    4.875    5.250    8.000 
#    0.000    0.000    0.000    0.000    0.000    0.000 
#    0.000    0.000    0.000    0.000    0.000    0.000 
#
# Total GULP energy -89476.946285 kJ/mol
# GULP energy per Si atom -5592.309143 kJ/mol
# Density = 2.119786 g / cm^3
# Si number density = 21.246214 Si / 1000 Ang^3
#
#
#
# Elastic Constant Matrix: (Units=GPa)
#
#
# Indices 1 2 3 4 5 6 
#
# 1 79.2795 15.8255 28.4156 0.4312 -0.4676 -12.6057
# 2 15.8255 79.3313 27.7849 12.4926 -14.7377 -5.8375
# 3 28.4156 27.7849 109.6935 14.5169 -6.0982 -11.2678
# 4 0.4312 12.4926 14.5169 42.2199 0.4616 1.4170
# 5 -0.4676 -14.7377 -6.0982 0.4616 27.7184 4.3303
# 6 -12.6057 -5.8375 -11.2678 1.4170 4.3303 40.2957
#
#
#
# Elastic Compliance Matrix: (Units=1/GPa)
#
#
# Indices 1 2 3 4 5 6 
#
# 1 0.014755 -0.002202 -0.003220 0.001512 -0.002215 0.003581
# 2 -0.002202 0.016042 -0.002504 -0.003958 0.007973 0.000217
# 3 -0.003220 -0.002504 0.011234 -0.003159 0.000859 0.001790
# 4 0.001512 -0.003958 -0.003159 0.026013 -0.002960 -0.001580
# 5 -0.002215 0.007973 0.000859 -0.002960 0.041081 -0.003608
# 6 0.003581 0.000217 0.001790 -0.001580 -0.003608 0.026912
#
#
# Mechanical properties :
#
#
# Convention : Reuss Voigt Hill
#
# Bulk Modulus (GPa) = 38.19578 45.81739 42.00659
# Shear Modulus (GPa) = 31.13027 35.13201 33.13114
#
# Velocity S-wave (km/s) = 3.83197 4.07082 3.95320
# Velocity P-wave (km/s) = 6.13150 6.61114 6.37583
#
# Compressibility (1/GPa) = 0.02618090
#
# Stress axis : x y z
#
# Youngs Moduli (GPa) = 67.77188 62.33649 89.01363
#
# Poissons Ratio (x) = 0.13725 0.28662
# Poissons Ratio (y) = 0.14922 0.22286
# Poissons Ratio (z) = 0.21822 0.15607
#
# Static dielectric constant tensor:
#      x y z
#    x 1.819050 0.011850 -0.070950 
#    y 0.011850 1.770410 -0.062370 
#    z -0.070950 -0.062370 1.878230 
# 
# From -- ./inp_files/72359.got.cif
#   From: 2010.05.17/outbox.cif.g08.bks.cpg/sg2_37_cif.got.tgz:72359.got - 2010.06.03 11:33:40.
