data_PCOD9062726
_publ_section_title
;
Structure prediction by ZEFSAII (Michael W. Deem and Ramdas Pophale) SiO2 
 PCOD9062726
Probable space group: P -1
;
_chemical_formula_sum "Si O2"
_cell_formula_units_Z 16
_cell_length_a 8.576570
_cell_length_b 14.297312
_cell_length_c 6.322304
_cell_angle_alpha 87.254877
_cell_angle_beta 73.307268
_cell_angle_gamma 73.491023
_cell_volume 711.489738
_symmetry_space_group_name_H-M "P -1"
_symmetry_group_IT_number 2
_symmetry_cell_setting 'triclinic'
loop_
_space_group_symop_operation_xyz
x,y,z
-x,-y,-z
loop_
_atom_site_type_symbol
_atom_site_label
_atom_site_fract_x
_atom_site_fract_y
_atom_site_fract_z
Si Si1 0.700259 0.261776 0.799131
Si Si2 0.808160 0.804018 0.953973
Si Si3 0.070665 0.502167 0.705371
Si Si4 0.548129 0.752175 0.770708
Si Si5 0.095256 0.635208 0.002154
Si Si6 0.452384 0.398850 0.542453
Si Si7 0.024280 0.107649 0.482972
Si Si8 0.367671 0.101551 0.596613
O O1 0.769191 0.333393 0.915454
O O2 0.568392 0.326877 0.676006
O O3 0.855141 0.185544 0.628202
O O4 0.603582 0.209547 0.007660
O O5 0.718161 0.746473 0.835708
O O6 0.920962 0.858226 0.769310
O O7 0.666092 0.876254 0.145386
O O8 0.929641 0.726456 0.069231
O O9 0.253547 0.424518 0.670853
O O10 0.000000 0.500000 0.500000
O O11 0.930194 0.463943 0.886402
O O12 0.103967 0.604499 0.753820
O O13 0.531661 0.652947 0.685938
O O14 0.558797 0.819467 0.559518
O O15 0.500000 0.500000 0.500000
O O16 0.185611 0.104931 0.567728
O O17 0.000000 0.000000 0.500000
O O18 0.500000 0.000000 0.500000
#
# Coordination Sequence:
#
# PCOD9062726 Si02
#       8
#     2   2   2   2   2   2   2   2
#     4  12  27  45  72 107 151 186 243 297 366 429
#     4  11  25  48  74 103 146 190 243 291 363 437
#     4  11  24  42  71 100 145 188 247 294 355 424
#     4  11  26  45  73 104 147 192 242 297 362 427
#     4  11  24  42  69 104 138 192 238 298 356 427
#     4  12  27  44  70 105 150 196 241 302 359 429
#     4  11  29  46  75 108 145 189 236 301 366 434
#     4  11  26  47  77 107 143 190 242 299 366 437
#
# _framework density 22.488026000000001
#
# number of rings (size 3 to 8) (size 9 to 14) (size 15 to 20)
#    0.000    0.750    1.250    4.500   12.250    5.500 
#    0.000    0.000    0.000    0.000    0.000    0.000 
#    0.000    0.000    0.000    0.000    0.000    0.000 
#
# Total GULP energy -89415.193563 kJ/mol
# GULP energy per Si atom -5588.449598 kJ/mol
# Density = 2.243684 g / cm^3
# Si number density = 22.488026 Si / 1000 Ang^3
#
#
#
# Elastic Constant Matrix: (Units=GPa)
#
#
# Indices 1 2 3 4 5 6 
#
# 1 130.1509 56.4321 54.0187 12.3908 3.1709 0.3243
# 2 56.4321 100.9505 55.2134 14.9335 -0.6887 12.4050
# 3 54.0187 55.2134 129.7459 14.9042 -20.6028 9.5152
# 4 12.3908 14.9335 14.9042 36.1689 5.6927 -14.0786
# 5 3.1709 -0.6887 -20.6028 5.6927 43.1747 8.5231
# 6 0.3243 12.4050 9.5152 -14.0786 8.5231 40.0994
#
#
#
# Elastic Compliance Matrix: (Units=1/GPa)
#
#
# Indices 1 2 3 4 5 6 
#
# 1 0.011284 -0.005086 -0.003564 0.001695 -0.003560 0.003680
# 2 -0.005086 0.016421 -0.003459 -0.006407 0.001155 -0.006713
# 3 -0.003564 -0.003459 0.013237 -0.006565 0.008608 -0.006177
# 4 0.001695 -0.006407 -0.006565 0.042817 -0.013224 0.021370
# 5 -0.003560 0.001155 0.008608 -0.013224 0.032021 -0.013820
# 6 0.003680 -0.006713 -0.006177 0.021370 -0.013820 0.038891
#
#
# Mechanical properties :
#
#
# Convention : Reuss Voigt Hill
#
# Bulk Modulus (GPa) = 59.78948 76.90842 68.34895
# Shear Modulus (GPa) = 27.10568 36.90080 32.00324
#
# Velocity S-wave (km/s) = 3.47556 4.05521 3.77652
# Velocity P-wave (km/s) = 6.53843 7.49668 7.03389
#
# Compressibility (1/GPa) = 0.01672535
#
# Stress axis : x y z
#
# Youngs Moduli (GPa) = 88.62247 60.89634 75.54608
#
# Poissons Ratio (x) = 0.30972 0.26921
# Poissons Ratio (y) = 0.45073 0.26130
# Poissons Ratio (z) = 0.31581 0.21063
#
# Static dielectric constant tensor:
#      x y z
#    x 1.864050 0.023410 0.093740 
#    y 0.023410 1.826870 0.048490 
#    z 0.093740 0.048490 2.246940 
# 
# From -- ./inp_files/39178.got.cif
#   From: 2010.05.17/outbox.cif.g08.bks.cpg/sg2_20_cif.got.tgz:39178.got - 2010.06.03 11:33:40.
