data_PCOD9062484
_publ_section_title
;
Structure prediction by ZEFSAII (Michael W. Deem and Ramdas Pophale) SiO2 
 PCOD9062484
Probable space group: P -1
;
_chemical_formula_sum "Si O2"
_cell_formula_units_Z 14
_cell_length_a 8.637575
_cell_length_b 9.004826
_cell_length_c 22.251244
_cell_angle_alpha 38.876880
_cell_angle_beta 38.848774
_cell_angle_gamma 48.352117
_cell_volume 673.881799
_symmetry_space_group_name_H-M "P -1"
_symmetry_group_IT_number 2
_symmetry_cell_setting 'triclinic'
loop_
_space_group_symop_operation_xyz
x,y,z
-x,-y,-z
loop_
_atom_site_type_symbol
_atom_site_label
_atom_site_fract_x
_atom_site_fract_y
_atom_site_fract_z
Si Si1 0.771945 0.242017 0.331487
Si Si2 0.761918 0.408021 0.743444
Si Si3 0.994715 0.311305 0.834736
Si Si4 0.650488 0.177750 0.088564
Si Si5 0.819490 0.702136 0.528829
Si Si6 0.794536 0.919497 0.825231
Si Si7 0.289599 0.450367 0.943016
O O1 0.871335 0.458497 0.267032
O O2 0.473857 0.300158 0.397072
O O3 0.930382 0.214264 0.230529
O O4 0.849925 0.977497 0.420242
O O5 0.850484 0.629235 0.612512
O O6 0.468547 0.453035 0.831847
O O7 0.885610 0.334717 0.793243
O O8 0.809309 0.190087 0.751380
O O9 0.185913 0.068346 0.862479
O O10 0.789042 0.289787 0.955730
O O11 0.386478 0.120462 0.162526
O O12 0.639776 0.360261 0.089328
O O13 0.000000 0.500000 0.500000
O O14 0.676581 0.805973 0.953990
O O15 0.000000 0.500000 0.000000
#
# Coordination Sequence:
#
# PCOD9062484 Si02
#       7
#     2   2   2   2   2   2   2
#     4  11  24  46  75  96 131 185 229 279 344 406
#     4  12  25  42  67 101 138 176 232 285 332 403
#     4  11  24  42  66 102 137 180 224 276 340 415
#     4  11  24  41  65 100 148 180 215 270 353 417
#     4  11  25  48  73  97 131 184 236 283 338 393
#     4  12  22  41  70  99 139 179 221 277 347 412
#     4  12  24  38  63 102 138 177 224 280 344 409
#
# _framework density 20.775158000000001
#
# number of rings (size 3 to 8) (size 9 to 14) (size 15 to 20)
#    0.000    0.571    4.286    4.286    4.000    0.571 
#    0.000    0.714    0.000    0.000    0.000    0.000 
#    0.000    0.000    0.000    0.000    0.000    0.000 
#
# Total GULP energy -78267.448299 kJ/mol
# GULP energy per Si atom -5590.532021 kJ/mol
# Density = 2.072787 g / cm^3
# Si number density = 20.775158 Si / 1000 Ang^3
#
#
#
# Elastic Constant Matrix: (Units=GPa)
#
#
# Indices 1 2 3 4 5 6 
#
# 1 100.0505 41.3714 35.7523 -9.2865 -5.0173 -10.4932
# 2 41.3714 109.0506 38.6113 -5.6811 -5.7994 -9.9711
# 3 35.7523 38.6113 115.5095 -11.4706 5.9643 -3.1155
# 4 -9.2865 -5.6811 -11.4706 43.2897 -1.4850 -7.7524
# 5 -5.0173 -5.7994 5.9643 -1.4850 33.9949 -3.3753
# 6 -10.4932 -9.9711 -3.1155 -7.7524 -3.3753 31.5415
#
#
#
# Elastic Compliance Matrix: (Units=1/GPa)
#
#
# Indices 1 2 3 4 5 6 
#
# 1 0.013117 -0.003421 -0.002691 0.002422 0.002313 0.003859
# 2 -0.003421 0.011904 -0.002904 0.000630 0.002335 0.002743
# 3 -0.002691 -0.002904 0.010754 0.001683 -0.002769 -0.000634
# 4 0.002422 0.000630 0.001683 0.025594 0.002050 0.007681
# 5 0.002313 0.002335 -0.002769 0.002050 0.031236 0.005081
# 6 0.003859 0.002743 -0.000634 0.007681 0.005081 0.036224
#
#
# Mechanical properties :
#
#
# Convention : Reuss Voigt Hill
#
# Bulk Modulus (GPa) = 56.36451 61.78677 59.07564
# Shear Modulus (GPa) = 32.72747 35.69025 34.20886
#
# Velocity S-wave (km/s) = 3.97333 4.14929 4.06226
# Velocity P-wave (km/s) = 6.94546 7.26366 7.10634
#
# Compressibility (1/GPa) = 0.01774166
#
# Stress axis : x y z
#
# Youngs Moduli (GPa) = 76.23730 84.00429 92.98864
#
# Poissons Ratio (x) = 0.28741 0.25024
# Poissons Ratio (y) = 0.26083 0.27006
# Poissons Ratio (z) = 0.20516 0.24397
#
# Static dielectric constant tensor:
#      x y z
#    x 1.735650 -0.039990 0.015170 
#    y -0.039990 1.740630 0.005470 
#    z 0.015170 0.005470 1.755160 
# 
# From -- ./inp_files/175798.got.cif
#   From: 2010.05.17/outbox.cif.g08.bks.cpg/sg2_88_cif.got.tgz:175798.got - 2010.06.03 11:33:40.
