data_PCOD9062485
_publ_section_title
;
Structure prediction by ZEFSAII (Michael W. Deem and Ramdas Pophale) SiO2 
 PCOD9062485
Probable space group: P -1
;
_chemical_formula_sum "Si O2"
_cell_formula_units_Z 16
_cell_length_a 6.620216
_cell_length_b 10.112362
_cell_length_c 22.298342
_cell_angle_alpha 137.731414
_cell_angle_beta 106.438776
_cell_angle_gamma 102.113812
_cell_volume 731.898888
_symmetry_space_group_name_H-M "P -1"
_symmetry_group_IT_number 2
_symmetry_cell_setting 'triclinic'
loop_
_space_group_symop_operation_xyz
x,y,z
-x,-y,-z
loop_
_atom_site_type_symbol
_atom_site_label
_atom_site_fract_x
_atom_site_fract_y
_atom_site_fract_z
Si Si1 0.355574 0.860912 0.311371
Si Si2 0.487940 0.171848 0.942195
Si Si3 0.773943 0.534595 0.184290
Si Si4 0.919260 0.012219 0.430021
Si Si5 0.840883 0.826566 0.780248
Si Si6 0.569569 0.638243 0.488554
Si Si7 0.261450 0.787790 0.139715
Si Si8 0.294780 0.107105 0.086184
O O1 0.335711 0.799766 0.218861
O O2 0.073666 0.612707 0.234625
O O3 0.640681 0.964734 0.397173
O O4 0.362689 0.097622 0.401284
O O5 0.502697 0.145011 0.863428
O O6 0.662219 0.092346 0.956718
O O7 0.651732 0.456963 0.080130
O O8 0.166913 0.987162 0.871206
O O9 0.536401 0.289049 0.120409
O O10 0.825992 0.772083 0.300451
O O11 0.166726 0.267412 0.498766
O O12 0.000000 0.000000 0.500000
O O13 0.699716 0.571075 0.644099
O O14 0.678456 0.748735 0.802991
O O15 0.801171 0.018037 0.810316
O O16 0.500000 0.500000 0.500000
O O17 0.000000 0.500000 0.000000
O O18 0.000000 0.000000 0.000000
#
# Coordination Sequence:
#
# PCOD9062485 Si02
#       8
#     2   2   2   2   2   2   2   2
#     4  11  26  46  74  99 140 187 228 293 349 415
#     4  11  25  40  67 104 132 183 222 283 356 410
#     4  11  24  42  70 101 137 179 229 277 352 421
#     4  11  28  48  70 102 140 191 236 294 351 412
#     4  11  25  43  69  98 139 177 226 293 341 414
#     4  11  25  48  71 103 137 184 246 283 344 415
#     4  11  24  42  66 103 140 174 228 282 356 414
#     4  11  24  41  65 102 141 177 225 280 345 418
#
# _framework density 21.860942999999999
#
# number of rings (size 3 to 8) (size 9 to 14) (size 15 to 20)
#    0.000    1.000    3.750    1.125    5.250    7.000 
#    0.000    0.000    0.000    0.000    0.000    0.000 
#    0.000    0.000    0.000    0.000    0.000    0.000 
#
# Total GULP energy -89345.284667 kJ/mol
# GULP energy per Si atom -5584.080292 kJ/mol
# Density = 2.181119 g / cm^3
# Si number density = 21.860943 Si / 1000 Ang^3
#
#
#
# Elastic Constant Matrix: (Units=GPa)
#
#
# Indices 1 2 3 4 5 6 
#
# 1 86.5767 46.6649 23.2335 -4.0414 22.4511 31.4780
# 2 46.6649 90.7461 27.2416 -3.5025 20.8095 24.4813
# 3 23.2335 27.2416 116.5196 -7.7789 4.0998 13.9226
# 4 -4.0414 -3.5025 -7.7789 31.0109 8.1613 4.6227
# 5 22.4511 20.8095 4.0998 8.1613 48.6082 1.8629
# 6 31.4780 24.4813 13.9226 4.6227 1.8629 28.5901
#
#
#
# Elastic Compliance Matrix: (Units=1/GPa)
#
#
# Indices 1 2 3 4 5 6 
#
# 1 0.026931 -0.003238 -0.000206 0.010299 -0.011704 -0.027681
# 2 -0.003238 0.017834 -0.001660 0.004513 -0.006327 -0.011215
# 3 -0.000206 -0.001660 0.009626 0.002808 -0.000345 -0.003471
# 4 0.010299 0.004513 0.002808 0.041582 -0.013047 -0.022444
# 5 -0.011704 -0.006327 -0.000345 -0.013047 0.030193 0.018614
# 6 -0.027681 -0.011215 -0.003471 -0.022444 0.018614 0.079164
#
#
# Mechanical properties :
#
#
# Convention : Reuss Voigt Hill
#
# Bulk Modulus (GPa) = 22.63322 54.23581 38.43451
# Shear Modulus (GPa) = 21.71404 34.75535 28.23469
#
# Velocity S-wave (km/s) = 3.15505 3.99160 3.59773
# Velocity P-wave (km/s) = 4.86294 6.79023 5.90573
#
# Compressibility (1/GPa) = 0.04418284
#
# Stress axis : x y z
#
# Youngs Moduli (GPa) = 37.13156 56.07357 103.88817
#
# Poissons Ratio (x) = 0.18157 0.02141
# Poissons Ratio (y) = 0.12023 0.17244
# Poissons Ratio (z) = 0.00765 0.09307
#
# Static dielectric constant tensor:
#      x y z
#    x 1.833980 0.023050 -0.017940 
#    y 0.023050 1.877670 0.001000 
#    z -0.017940 0.001000 1.817700 
# 
# From -- ./inp_files/433044.got.cif
#   From: 2010.05.17/outbox.cif.g08.bks.cpg/sg2_217_cif.got.tgz:433044.got - 2010.06.03 11:33:40.
