data_PCOD9062646
_publ_section_title
;
Structure prediction by ZEFSAII (Michael W. Deem and Ramdas Pophale) SiO2 
 PCOD9062646
Probable space group: P -1
;
_chemical_formula_sum "Si O2"
_cell_formula_units_Z 16
_cell_length_a 15.386860
_cell_length_b 11.856239
_cell_length_c 12.960843
_cell_angle_alpha 132.172557
_cell_angle_beta 58.558891
_cell_angle_gamma 153.869983
_cell_volume 747.535073
_symmetry_space_group_name_H-M "P -1"
_symmetry_group_IT_number 2
_symmetry_cell_setting 'triclinic'
loop_
_space_group_symop_operation_xyz
x,y,z
-x,-y,-z
loop_
_atom_site_type_symbol
_atom_site_label
_atom_site_fract_x
_atom_site_fract_y
_atom_site_fract_z
Si Si1 0.411379 0.347018 0.715171
Si Si2 0.417151 0.130514 0.396537
Si Si3 0.596975 0.350329 0.196433
Si Si4 0.915604 0.088367 0.194418
Si Si5 0.693209 0.599959 0.864350
Si Si6 0.567426 0.035842 0.366155
Si Si7 0.195609 0.691095 0.935615
Si Si8 0.042973 0.545584 0.715359
O O1 0.345890 0.426966 0.765647
O O2 0.216043 0.025435 0.697553
O O3 0.595991 0.581165 0.826023
O O4 0.476377 0.329190 0.567794
O O5 0.484597 0.052665 0.347890
O O6 0.172132 0.810873 0.348081
O O7 0.520989 0.294059 0.323447
O O8 0.770215 0.445901 0.156621
O O9 0.400078 0.026770 0.062110
O O10 0.989984 0.325491 0.225006
O O11 0.764074 0.788567 0.034648
O O12 0.106563 0.231312 0.193599
O O13 0.528491 0.253985 0.776034
O O14 0.500000 0.000000 0.500000
O O15 0.810399 0.342448 0.390810
O O16 0.167225 0.699564 0.839622
O O17 0.000000 0.500000 0.000000
#
# Coordination Sequence:
#
# PCOD9062646 Si02
#       8
#     2   2   2   2   2   2   2   2
#     4  12  26  43  68  94 142 178 223 275 341 402
#     4  12  25  44  67  99 134 182 228 277 335 403
#     4  11  26  45  68  98 134 178 230 270 339 407
#     4  11  25  41  66 102 130 174 223 285 340 402
#     4  11  24  42  65  99 137 173 220 277 345 395
#     4  12  24  42  70  97 139 180 223 279 339 403
#     4  11  24  45  73 100 130 177 227 286 334 392
#     4  12  24  42  71  98 134 173 231 286 332 401
#
# _framework density 21.403677999999999
#
# number of rings (size 3 to 8) (size 9 to 14) (size 15 to 20)
#    0.000    0.500    6.250    1.500    3.500    4.000 
#    0.000    0.625    0.000    0.000    0.000    0.000 
#    0.000    0.000    0.000    0.000    0.000    0.000 
#
# Total GULP energy -89533.427303 kJ/mol
# GULP energy per Si atom -5595.839206 kJ/mol
# Density = 2.135496 g / cm^3
# Si number density = 21.403678 Si / 1000 Ang^3
#
#
#
# Elastic Constant Matrix: (Units=GPa)
#
#
# Indices 1 2 3 4 5 6 
#
# 1 116.4837 39.3705 12.1559 -20.0157 3.5649 -3.5857
# 2 39.3705 71.1587 14.2329 -15.3455 2.5049 20.5457
# 3 12.1559 14.2329 34.4415 -14.1303 0.1800 7.0331
# 4 -20.0157 -15.3455 -14.1303 29.8100 -0.4153 -6.8199
# 5 3.5649 2.5049 0.1800 -0.4153 30.2784 -2.4909
# 6 -3.5857 20.5457 7.0331 -6.8199 -2.4909 38.5214
#
#
#
# Elastic Compliance Matrix: (Units=1/GPa)
#
#
# Indices 1 2 3 4 5 6 
#
# 1 0.012230 -0.007211 -0.000193 0.005783 -0.000267 0.006026
# 2 -0.007211 0.022762 -0.003391 0.002525 -0.001956 -0.011872
# 3 -0.000193 -0.003391 0.037229 0.015247 0.000102 -0.002301
# 4 0.005783 0.002525 0.015247 0.047041 0.000055 0.004740
# 5 -0.000267 -0.001956 0.000102 0.000055 0.033481 0.003174
# 6 0.006026 -0.011872 -0.002301 0.004740 0.003174 0.034317
#
#
# Mechanical properties :
#
#
# Convention : Reuss Voigt Hill
#
# Bulk Modulus (GPa) = 19.75100 39.28916 29.52008
# Shear Modulus (GPa) = 22.17025 30.14360 26.15693
#
# Velocity S-wave (km/s) = 3.22190 3.75685 3.49961
# Velocity P-wave (km/s) = 4.80507 6.10039 5.49106
#
# Compressibility (1/GPa) = 0.05063036
#
# Stress axis : x y z
#
# Youngs Moduli (GPa) = 81.76765 43.93209 26.86096
#
# Poissons Ratio (x) = 0.31681 0.00518
# Poissons Ratio (y) = 0.58966 0.09108
# Poissons Ratio (z) = 0.01578 0.14897
#
# Static dielectric constant tensor:
#      x y z
#    x 1.768140 0.015120 -0.002210 
#    y 0.015120 1.778140 -0.007670 
#    z -0.002210 -0.007670 1.776360 
# 
# From -- ./inp_files/451790.got.cif
#   From: 2010.05.17/outbox.cif.g08.bks.cpg/sg2_226_cif.got.tgz:451790.got - 2010.06.03 11:33:40.
