data_PCOD9062703
_publ_section_title
;
Structure prediction by ZEFSAII (Michael W. Deem and Ramdas Pophale) SiO2 
 PCOD9062703
Probable space group: P -1
;
_chemical_formula_sum "Si O2"
_cell_formula_units_Z 14
_cell_length_a 6.665891
_cell_length_b 8.701152
_cell_length_c 13.782779
_cell_angle_alpha 85.996783
_cell_angle_beta 79.126976
_cell_angle_gamma 52.312812
_cell_volume 620.201290
_symmetry_space_group_name_H-M "P -1"
_symmetry_group_IT_number 2
_symmetry_cell_setting 'triclinic'
loop_
_space_group_symop_operation_xyz
x,y,z
-x,-y,-z
loop_
_atom_site_type_symbol
_atom_site_label
_atom_site_fract_x
_atom_site_fract_y
_atom_site_fract_z
Si Si1 0.352363 0.414514 0.484095
Si Si2 0.919048 0.463765 0.149282
Si Si3 0.380523 0.448042 0.098058
Si Si4 0.252747 0.930941 0.418112
Si Si5 0.088095 0.886374 0.895434
Si Si6 0.146472 0.323222 0.351579
Si Si7 0.676760 0.241912 0.782813
O O1 0.500000 0.500000 0.500000
O O2 0.502411 0.204288 0.529670
O O3 0.330972 0.373042 0.375518
O O4 0.082674 0.564489 0.554451
O O5 0.623689 0.660005 0.169736
O O6 0.131562 0.475096 0.081778
O O7 0.929847 0.289080 0.109861
O O8 0.024326 0.402192 0.253532
O O9 0.296284 0.599978 0.184536
O O10 0.602185 0.231790 0.127323
O O11 0.500000 0.500000 0.000000
O O12 0.280698 0.799095 0.332590
O O13 0.251456 0.101403 0.363936
O O14 0.000000 0.000000 0.500000
O O15 0.898813 0.044003 0.825769
O O16 0.000000 0.000000 0.000000
#
# Coordination Sequence:
#
# PCOD9062703 Si02
#       7
#     2   2   2   2   2   2   2
#     4  11  24  42  68  97 144 181 233 291 345 404
#     4  11  26  44  75 101 146 189 235 293 360 425
#     4  11  26  48  71 106 141 183 236 296 365 425
#     4  12  24  43  71 104 142 186 233 291 346 414
#     4  11  24  48  72 107 140 181 241 296 357 432
#     4  11  24  43  66 101 135 188 235 282 348 420
#     4  11  25  46  70 104 149 184 243 291 355 428
#
# _framework density 22.573315999999998
#
# number of rings (size 3 to 8) (size 9 to 14) (size 15 to 20)
#    0.000    0.857    5.714    0.429    2.000    5.143 
#    2.571    0.000    0.000    0.000    0.000    0.000 
#    0.000    0.000    0.000    0.000    0.000    0.000 
#
# Total GULP energy -78217.663493 kJ/mol
# GULP energy per Si atom -5586.975964 kJ/mol
# Density = 2.252194 g / cm^3
# Si number density = 22.573316 Si / 1000 Ang^3
#
#
#
# Elastic Constant Matrix: (Units=GPa)
#
#
# Indices 1 2 3 4 5 6 
#
# 1 101.0307 18.6212 26.4225 10.2162 24.6447 -3.0939
# 2 18.6212 123.1170 22.9668 -2.0775 9.6608 -19.8824
# 3 26.4225 22.9668 109.0644 9.2342 32.1973 7.4190
# 4 10.2162 -2.0775 9.2342 53.0714 -1.1028 9.3425
# 5 24.6447 9.6608 32.1973 -1.1028 39.1060 -2.2812
# 6 -3.0939 -19.8824 7.4190 9.3425 -2.2812 27.7323
#
#
#
# Elastic Compliance Matrix: (Units=1/GPa)
#
#
# Indices 1 2 3 4 5 6 
#
# 1 0.012248 -0.001082 -0.000505 -0.002641 -0.007050 0.001035
# 2 -0.001082 0.009975 -0.002583 -0.000325 0.000796 0.007897
# 3 -0.000505 -0.002583 0.013469 -0.001534 -0.010518 -0.005860
# 4 -0.002641 -0.000325 -0.001534 0.020884 0.003195 -0.006890
# 5 -0.007050 0.000796 -0.010518 0.003195 0.038843 0.004717
# 6 0.001035 0.007897 -0.005860 -0.006890 0.004717 0.046113
#
#
# Mechanical properties :
#
#
# Convention : Reuss Voigt Hill
#
# Bulk Modulus (GPa) = 36.56164 52.13700 44.34932
# Shear Modulus (GPa) = 31.44856 41.66205 36.55531
#
# Velocity S-wave (km/s) = 3.73657 4.30074 4.02855
# Velocity P-wave (km/s) = 5.90322 6.91439 6.42871
#
# Compressibility (1/GPa) = 0.02735107
#
# Stress axis : x y z
#
# Youngs Moduli (GPa) = 81.64626 100.24803 74.24611
#
# Poissons Ratio (x) = 0.10852 0.03749
# Poissons Ratio (y) = 0.08838 0.19178
# Poissons Ratio (z) = 0.04123 0.25894
#
# Static dielectric constant tensor:
#      x y z
#    x 1.904450 -0.046710 -0.011320 
#    y -0.046710 1.826920 -0.055660 
#    z -0.011320 -0.055660 1.852540 
# 
# From -- ./inp_files/480536.got.cif
#   From: 2010.05.17/outbox.cif.g08.bks.cpg/sg2_241_cif.got.tgz:480536.got - 2010.06.03 11:33:40.
