data_PCOD9062633
_publ_section_title
;
Structure prediction by ZEFSAII (Michael W. Deem and Ramdas Pophale) SiO2 
 PCOD9062633
Probable space group: P -1
;
_chemical_formula_sum "Si O2"
_cell_formula_units_Z 14
_cell_length_a 8.217351
_cell_length_b 6.524547
_cell_length_c 12.793229
_cell_angle_alpha 114.832219
_cell_angle_beta 65.368992
_cell_angle_gamma 83.347783
_cell_volume 529.506466
_symmetry_space_group_name_H-M "P -1"
_symmetry_group_IT_number 2
_symmetry_cell_setting 'triclinic'
loop_
_space_group_symop_operation_xyz
x,y,z
-x,-y,-z
loop_
_atom_site_type_symbol
_atom_site_label
_atom_site_fract_x
_atom_site_fract_y
_atom_site_fract_z
Si Si1 0.108096 0.352706 0.041652
Si Si2 0.284727 0.903112 0.138827
Si Si3 0.072509 0.996379 0.598721
Si Si4 0.601030 0.502153 0.600561
Si Si5 0.756351 0.612526 0.307413
Si Si6 0.616735 0.628566 0.858478
Si Si7 0.560805 0.940531 0.234552
O O1 0.240844 0.463912 0.099837
O O2 0.929906 0.379192 0.170025
O O3 0.258559 0.104310 0.902566
O O4 0.000000 0.500000 0.000000
O O5 0.397926 0.725679 0.978191
O O6 0.424368 0.829766 0.185971
O O7 0.313711 0.149479 0.145941
O O8 0.078518 0.955393 0.254916
O O9 0.222523 0.731826 0.528717
O O10 0.157236 0.211633 0.619343
O O11 0.000000 0.000000 0.500000
O O12 0.405967 0.462858 0.613050
O O13 0.627569 0.493957 0.718472
O O14 0.561187 0.783342 0.649303
O O15 0.648179 0.785740 0.278399
#
# Coordination Sequence:
#
# PCOD9062633 Si02
#       7
#     2   2   2   2   2   2   2
#     4   9  19  38  65  99 134 169 220 280 335 393
#     4   9  20  40  68  98 133 173 225 280 332 400
#     4  12  26  44  67  98 136 183 228 277 341 410
#     4  11  24  42  68  98 138 181 223 281 342 404
#     4  11  24  42  64  95 136 180 226 278 337 407
#     4   9  19  40  69 100 130 173 225 280 338 397
#     4   9  21  41  65  99 132 171 225 281 342 400
#
# _framework density 26.439713000000001
#
# number of rings (size 3 to 8) (size 9 to 14) (size 15 to 20)
#    0.000    2.000    0.000    3.000    0.000    8.000 
#    0.000    8.571    0.000    0.000    0.000    0.000 
#    0.000    0.000    0.000    0.000    0.000    0.000 
#
# Total GULP energy -78285.091045 kJ/mol
# GULP energy per Si atom -5591.792218 kJ/mol
# Density = 2.637954 g / cm^3
# Si number density = 26.439713 Si / 1000 Ang^3
#
#
#
# Elastic Constant Matrix: (Units=GPa)
#
#
# Indices 1 2 3 4 5 6 
#
# 1 98.4275 -10.9320 30.6353 -11.4295 0.0250 1.2229
# 2 -10.9320 63.7294 35.1295 -9.3761 -24.8364 -1.7523
# 3 30.6353 35.1295 162.1122 8.2718 -46.4139 14.7894
# 4 -11.4295 -9.3761 8.2718 37.0319 -6.7258 7.2958
# 5 0.0250 -24.8364 -46.4139 -6.7258 63.6215 -1.4449
# 6 1.2229 -1.7523 14.7894 7.2958 -1.4449 34.1749
#
#
#
# Elastic Compliance Matrix: (Units=1/GPa)
#
#
# Indices 1 2 3 4 5 6 
#
# 1 0.012624 0.005108 -0.003873 0.005979 -0.000200 0.000202
# 2 0.005108 0.023165 -0.004680 0.009440 0.006654 0.001296
# 3 -0.003873 -0.004680 0.009796 -0.002985 0.004926 -0.003495
# 4 0.005979 0.009440 -0.002985 0.033883 0.004963 -0.005462
# 5 -0.000200 0.006654 0.004926 0.004963 0.022391 -0.001896
# 6 0.000202 0.001296 -0.003495 -0.005462 -0.001896 0.031919
#
#
# Mechanical properties :
#
#
# Convention : Reuss Voigt Hill
#
# Bulk Modulus (GPa) = 25.84302 48.21498 37.02900
# Shear Modulus (GPa) = 32.55880 44.92810 38.74345
#
# Velocity S-wave (km/s) = 3.51299 4.12669 3.83214
# Velocity P-wave (km/s) = 5.12351 6.40168 5.79792
#
# Compressibility (1/GPa) = 0.03869517
#
# Stress axis : x y z
#
# Youngs Moduli (GPa) = 79.21146 43.16853 102.07962
#
# Poissons Ratio (x) = -0.22050 0.39539
# Poissons Ratio (y) = -0.40460 0.47772
# Poissons Ratio (z) = 0.30681 0.20202
#
# Static dielectric constant tensor:
#      x y z
#    x 2.072750 -0.014570 0.005380 
#    y -0.014570 2.195430 -0.055140 
#    z 0.005380 -0.055140 2.093320 
# 
# From -- ./inp_files/488614.got.cif
#   From: 2010.05.17/outbox.cif.g08.bks.cpg/sg2_245_cif.got.tgz:488614.got - 2010.06.03 11:33:40.
