data_PCOD9062418
_publ_section_title
;
Structure prediction by ZEFSAII (Michael W. Deem and Ramdas Pophale) SiO2 
 PCOD9062418
Probable space group: P -1
;
_chemical_formula_sum "Si O2"
_cell_formula_units_Z 12
_cell_length_a 18.736452
_cell_length_b 9.914772
_cell_length_c 15.055270
_cell_angle_alpha 33.251080
_cell_angle_beta 19.377059
_cell_angle_gamma 35.391215
_cell_volume 503.440622
_symmetry_space_group_name_H-M "P -1"
_symmetry_group_IT_number 2
_symmetry_cell_setting 'triclinic'
loop_
_space_group_symop_operation_xyz
x,y,z
-x,-y,-z
loop_
_atom_site_type_symbol
_atom_site_label
_atom_site_fract_x
_atom_site_fract_y
_atom_site_fract_z
Si Si1 0.746027 0.936764 0.780715
Si Si2 0.481631 0.721810 0.652483
Si Si3 0.127015 0.593154 0.539152
Si Si4 0.355652 0.396371 0.653505
Si Si5 0.026572 0.898393 0.747087
Si Si6 0.007264 0.821779 0.179638
O O1 0.778486 0.147146 0.699032
O O2 0.888861 0.945342 0.518160
O O3 0.871424 0.678550 0.816227
O O4 0.500000 0.000000 0.000000
O O5 0.710823 0.569248 0.494645
O O6 0.472966 0.688121 0.577485
O O7 0.500000 0.000000 0.500000
O O8 0.253442 0.679429 0.984275
O O9 0.131129 0.401234 0.557598
O O10 0.500000 0.500000 0.500000
O O11 0.184547 0.638365 0.698354
O O12 0.213099 0.171371 0.952356
O O13 0.045238 0.020645 0.755230
O O14 0.000000 0.000000 0.000000
#
# Coordination Sequence:
#
# PCOD9062418 Si02
#       6
#     2   2   2   2   2   2
#     4  11  26  50  72  98 143 201 247 291 343 429
#     4  12  22  42  68 105 144 179 227 288 370 426
#     4  11  25  45  72 100 140 191 241 289 355 427
#     4  11  24  40  69 104 142 182 235 294 362 426
#     4  11  25  44  66 107 144 181 244 296 348 429
#     4  12  24  42  72 107 147 182 227 302 369 427
#
# _framework density 23.835981
#
# number of rings (size 3 to 8) (size 9 to 14) (size 15 to 20)
#    0.000    0.667    5.000    2.000    4.667    2.000 
#    0.000    1.667    0.000    0.000    0.000    0.000 
#    0.000    0.000    0.000    0.000    0.000    0.000 
#
# Total GULP energy -66877.090064 kJ/mol
# GULP energy per Si atom -5573.090839 kJ/mol
# Density = 2.378173 g / cm^3
# Si number density = 23.835981 Si / 1000 Ang^3
#
#
#
# Elastic Constant Matrix: (Units=GPa)
#
#
# Indices 1 2 3 4 5 6 
#
# 1 133.8247 58.3894 45.4063 0.8915 -17.7009 39.2838
# 2 58.3894 140.7717 23.8926 5.4230 -5.7608 25.5123
# 3 45.4063 23.8926 89.3121 5.9394 -19.7484 11.1617
# 4 0.8915 5.4230 5.9394 37.4446 6.4456 -15.5205
# 5 -17.7009 -5.7608 -19.7484 6.4456 43.1903 5.6013
# 6 39.2838 25.5123 11.1617 -15.5205 5.6013 67.1207
#
#
#
# Elastic Compliance Matrix: (Units=1/GPa)
#
#
# Indices 1 2 3 4 5 6 
#
# 1 0.012584 -0.003134 -0.003590 -0.002754 0.004362 -0.006578
# 2 -0.003134 0.008914 -0.000336 -0.002045 0.000315 -0.001998
# 3 -0.003590 -0.000336 0.014945 -0.003993 0.006133 -0.001692
# 4 -0.002754 -0.002045 -0.003993 0.034296 -0.009877 0.011808
# 5 0.004362 0.000315 0.006133 -0.009877 0.030365 -0.008510
# 6 -0.006578 -0.001998 -0.001692 0.011808 -0.008510 0.023229
#
#
# Mechanical properties :
#
#
# Convention : Reuss Voigt Hill
#
# Bulk Modulus (GPa) = 44.79537 68.80946 56.80242
# Shear Modulus (GPa) = 34.27183 45.29915 39.78549
#
# Velocity S-wave (km/s) = 3.79597 4.36415 4.08994
# Velocity P-wave (km/s) = 6.16819 7.37055 6.79601
#
# Compressibility (1/GPa) = 0.02232373
#
# Stress axis : x y z
#
# Youngs Moduli (GPa) = 79.46727 112.17998 66.91387
#
# Poissons Ratio (x) = 0.35153 0.24020
# Poissons Ratio (y) = 0.24902 0.02250
# Poissons Ratio (z) = 0.28526 0.03772
#
# Static dielectric constant tensor:
#      x y z
#    x 3.024470 -0.440650 -0.836480 
#    y -0.440650 2.066870 0.289560 
#    z -0.836480 0.289560 2.554070 
# 
# From -- ./inp_files/198872.got.cif
#   From: 2010.05.17/outbox.cif.g08.bks.cpg/sg2_100_cif.got.tgz:198872.got - 2010.06.03 11:33:40.
