data_PCOD9062030
_publ_section_title
;
Structure prediction by ZEFSAII (Michael W. Deem and Ramdas Pophale) SiO2 
 PCOD9062030
Probable space group: P -1
;
_chemical_formula_sum "Si O2"
_cell_formula_units_Z 16
_cell_length_a 9.989587
_cell_length_b 21.558629
_cell_length_c 11.763134
_cell_angle_alpha 151.129242
_cell_angle_beta 44.491712
_cell_angle_gamma 145.978268
_cell_volume 683.650725
_symmetry_space_group_name_H-M "P -1"
_symmetry_group_IT_number 2
_symmetry_cell_setting 'triclinic'
loop_
_space_group_symop_operation_xyz
x,y,z
-x,-y,-z
loop_
_atom_site_type_symbol
_atom_site_label
_atom_site_fract_x
_atom_site_fract_y
_atom_site_fract_z
Si Si1 0.831277 0.338067 0.912333
Si Si2 0.754270 0.152258 0.129102
Si Si3 0.981230 0.857084 0.846647
Si Si4 0.780258 0.700894 0.069460
Si Si5 0.631294 0.392763 0.544532
Si Si6 0.908980 0.813566 0.426885
Si Si7 0.354639 0.167059 0.806270
Si Si8 0.267769 0.481857 0.569855
O O1 0.594231 0.202197 0.766983
O O2 0.995646 0.287892 0.766566
O O3 0.750217 0.388525 0.151011
O O4 0.000000 0.500000 0.000000
O O5 0.740241 0.301515 0.371756
O O6 0.804178 0.098413 0.130216
O O7 0.968270 0.198374 0.989652
O O8 0.500000 0.000000 0.000000
O O9 0.932574 0.703043 0.565167
O O10 0.753776 0.788862 0.957092
O O11 0.000000 0.000000 0.000000
O O12 0.845011 0.784270 0.285578
O O13 0.594590 0.719106 0.147232
O O14 0.676845 0.516176 0.814483
O O15 0.347014 0.260081 0.479894
O O16 0.735938 0.491793 0.521304
O O17 0.130448 0.990540 0.617674
O O18 0.500000 0.500000 0.500000
#
# Coordination Sequence:
#
# PCOD9062030 Si02
#       8
#     2   2   2   2   2   2   2   2
#     4  12  27  46  69 107 142 188 240 288 361 428
#     4  11  25  44  71 106 146 187 242 302 355 432
#     4  11  26  45  75 106 140 186 242 298 363 421
#     4  11  23  47  69 103 141 187 243 297 360 423
#     4  12  24  46  75 106 145 188 248 296 359 430
#     4  12  27  43  74 102 147 192 232 298 364 430
#     4  11  24  48  68 101 145 188 238 299 354 430
#     4  12  24  46  77 104 143 190 240 304 353 428
#
# _framework density 23.403763000000001
#
# number of rings (size 3 to 8) (size 9 to 14) (size 15 to 20)
#    0.000    0.500    3.750    5.250    7.000    1.000 
#    2.250    0.000    0.000    0.000    0.000    0.000 
#    0.000    0.000    0.000    0.000    0.000    0.000 
#
# Total GULP energy -89457.099585 kJ/mol
# GULP energy per Si atom -5591.068724 kJ/mol
# Density = 2.335050 g / cm^3
# Si number density = 23.403763 Si / 1000 Ang^3
#
#
#
# Elastic Constant Matrix: (Units=GPa)
#
#
# Indices 1 2 3 4 5 6 
#
# 1 148.2895 33.5244 30.4789 5.8435 -16.0404 4.8356
# 2 33.5244 57.8020 18.3597 14.9053 5.3136 8.4071
# 3 30.4789 18.3597 94.5195 16.6165 -3.1839 -16.1193
# 4 5.8435 14.9053 16.6165 36.9227 4.5438 -0.9439
# 5 -16.0404 5.3136 -3.1839 4.5438 51.3199 10.1899
# 6 4.8356 8.4071 -16.1193 -0.9439 10.1899 41.1820
#
#
#
# Elastic Compliance Matrix: (Units=1/GPa)
#
#
# Indices 1 2 3 4 5 6 
#
# 1 0.008619 -0.004603 -0.002259 0.001062 0.003283 -0.001744
# 2 -0.004603 0.023697 -0.002736 -0.007435 -0.002423 -0.004939
# 3 -0.002259 -0.002736 0.013666 -0.004481 -0.000403 0.006170
# 4 0.001062 -0.007435 -0.004481 0.032230 -0.002214 0.000926
# 5 0.003283 -0.002423 -0.000403 -0.002214 0.022036 -0.005552
# 6 -0.001744 -0.004939 0.006170 0.000926 -0.005552 0.029305
#
#
# Mechanical properties :
#
#
# Convention : Reuss Voigt Hill
#
# Bulk Modulus (GPa) = 37.33138 51.70411 44.51774
# Shear Modulus (GPa) = 31.71054 40.43480 36.07267
#
# Velocity S-wave (km/s) = 3.68494 4.16108 3.93022
# Velocity P-wave (km/s) = 5.83872 6.72505 6.29750
#
# Compressibility (1/GPa) = 0.02678712
#
# Stress axis : x y z
#
# Youngs Moduli (GPa) = 116.02878 42.19869 73.17502
#
# Poissons Ratio (x) = 0.19425 0.16527
# Poissons Ratio (y) = 0.53410 0.20017
# Poissons Ratio (z) = 0.26207 0.11544
#
# Static dielectric constant tensor:
#      x y z
#    x 1.846890 -0.022650 0.065640 
#    y -0.022650 1.916840 0.037960 
#    z 0.065640 0.037960 1.913670 
# 
# From -- ./inp_files/205899.got.cif
#   From: 2010.05.17/outbox.cif.g08.bks.cpg/sg2_103_cif.got.tgz:205899.got - 2010.06.03 11:33:40.
