data_PCOD9062949
_publ_section_title
;
Structure prediction by ZEFSAII (Michael W. Deem and Ramdas Pophale) SiO2 
 PCOD9062949
Probable space group: P -1
;
_chemical_formula_sum "Si O2"
_cell_formula_units_Z 14
_cell_length_a 23.358379
_cell_length_b 12.826787
_cell_length_c 13.624212
_cell_angle_alpha 32.198897
_cell_angle_beta 160.271825
_cell_angle_gamma 154.819669
_cell_volume 585.803034
_symmetry_space_group_name_H-M "P -1"
_symmetry_group_IT_number 2
_symmetry_cell_setting 'triclinic'
loop_
_space_group_symop_operation_xyz
x,y,z
-x,-y,-z
loop_
_atom_site_type_symbol
_atom_site_label
_atom_site_fract_x
_atom_site_fract_y
_atom_site_fract_z
Si Si1 0.571045 0.274562 0.869997
Si Si2 0.937149 0.801895 0.300097
Si Si3 0.048541 0.605303 0.288726
Si Si4 0.176102 0.981596 0.345630
Si Si5 0.180974 0.037084 0.694494
Si Si6 0.495248 0.479208 0.249967
Si Si7 0.861704 0.432117 0.928924
O O1 0.443560 0.594085 0.164027
O O2 0.399506 0.219350 0.554364
O O3 0.810143 0.447658 0.076717
O O4 0.500000 0.000000 0.000000
O O5 0.872493 0.560403 0.444331
O O6 0.063601 0.830331 0.383809
O O7 0.725175 0.759225 0.956699
O O8 0.097075 0.009284 0.469483
O O9 0.201575 0.836675 0.419832
O O10 0.009188 0.632728 0.091116
O O11 0.000000 0.000000 0.000000
O O12 0.391672 0.311843 0.817747
O O13 0.000000 0.000000 0.500000
O O14 0.205377 0.826743 0.929099
O O15 0.657666 0.423498 0.587101
O O16 0.000000 0.500000 0.000000
#
# Coordination Sequence:
#
# PCOD9062949 Si02
#       7
#     2   2   2   2   2   2   2
#     4  12  22  41  71  99 138 183 221 273 351 409
#     4  11  24  44  65 101 135 176 228 280 341 411
#     4  11  24  43  67  96 139 178 220 280 340 407
#     4  12  24  37  63 102 136 173 223 276 338 409
#     4  11  24  48  73  94 136 186 227 283 345 399
#     4  12  24  44  74  99 140 180 226 288 341 402
#     4  11  25  47  71 100 136 183 234 282 339 406
#
# _framework density 23.898817000000001
#
# number of rings (size 3 to 8) (size 9 to 14) (size 15 to 20)
#    0.000    0.571    5.714    3.000    2.000    1.714 
#    0.000    0.714    0.000    0.000    0.000    0.000 
#    0.000    0.000    0.000    0.000    0.000    0.000 
#
# Total GULP energy -78395.321379 kJ/mol
# GULP energy per Si atom -5599.665813 kJ/mol
# Density = 2.384442 g / cm^3
# Si number density = 23.898817 Si / 1000 Ang^3
#
#
#
# Elastic Constant Matrix: (Units=GPa)
#
#
# Indices 1 2 3 4 5 6 
#
# 1 108.9965 9.2182 29.9172 3.4429 -1.2705 18.8030
# 2 9.2182 82.8027 31.3511 0.5056 -2.0584 7.4959
# 3 29.9172 31.3511 151.6240 0.4846 -3.6516 1.4842
# 4 3.4429 0.5056 0.4846 41.2988 -1.3308 1.3159
# 5 -1.2705 -2.0584 -3.6516 -1.3308 34.1434 -5.7207
# 6 18.8030 7.4959 1.4842 1.3159 -5.7207 23.4814
#
#
#
# Elastic Compliance Matrix: (Units=1/GPa)
#
#
# Indices 1 2 3 4 5 6 
#
# 1 0.011392 0.000414 -0.002273 -0.000673 -0.001398 -0.009414
# 2 0.000414 0.013508 -0.002836 -0.000030 -0.000232 -0.004519
# 3 -0.002273 -0.002836 0.007629 0.000087 0.000979 0.002477
# 4 -0.000673 -0.000030 0.000087 0.024316 0.000827 -0.000618
# 5 -0.001398 -0.000232 0.000979 0.000827 0.030798 0.008588
# 6 -0.009414 -0.004519 0.002477 -0.000618 0.008588 0.053538
#
#
# Mechanical properties :
#
#
# Convention : Reuss Voigt Hill
#
# Bulk Modulus (GPa) = 43.21553 53.82180 48.51866
# Shear Modulus (GPa) = 31.58865 37.98051 34.78458
#
# Velocity S-wave (km/s) = 3.63955 3.99083 3.81923
# Velocity P-wave (km/s) = 5.98195 6.61855 6.30829
#
# Compressibility (1/GPa) = 0.02313983
#
# Stress axis : x y z
#
# Youngs Moduli (GPa) = 87.77779 74.02958 131.07629
#
# Poissons Ratio (x) = -0.03064 0.29791
# Poissons Ratio (y) = -0.03632 0.37173
# Poissons Ratio (z) = 0.19950 0.20995
#
# Static dielectric constant tensor:
#      x y z
#    x 1.922990 -0.024260 -0.029310 
#    y -0.024260 1.972190 -0.022510 
#    z -0.029310 -0.022510 1.928610 
# 
# From -- ./inp_files/544147.got.cif
#   From: 2010.05.17/outbox.cif.g08.bks.cpg/sg2_273_cif.got.tgz:544147.got - 2010.06.03 11:33:40.
