data_PCOD9062618
_publ_section_title
;
Structure prediction by ZEFSAII (Michael W. Deem and Ramdas Pophale) SiO2 
 PCOD9062618
Probable space group: P -1
;
_chemical_formula_sum "Si O2"
_cell_formula_units_Z 12
_cell_length_a 9.371707
_cell_length_b 4.968671
_cell_length_c 12.887087
_cell_angle_alpha 71.965150
_cell_angle_beta 69.409223
_cell_angle_gamma 97.716182
_cell_volume 513.835944
_symmetry_space_group_name_H-M "P -1"
_symmetry_group_IT_number 2
_symmetry_cell_setting 'triclinic'
loop_
_space_group_symop_operation_xyz
x,y,z
-x,-y,-z
loop_
_atom_site_type_symbol
_atom_site_label
_atom_site_fract_x
_atom_site_fract_y
_atom_site_fract_z
Si Si1 0.127123 0.611061 0.199216
Si Si2 0.038660 0.195269 0.089324
Si Si3 0.245725 0.254591 0.830158
Si Si4 0.685830 0.523583 0.438894
Si Si5 0.877585 0.102404 0.444909
Si Si6 0.525236 0.323350 0.911254
O O1 0.101569 0.934512 0.158560
O O2 0.299188 0.592557 0.191491
O O3 0.992967 0.382816 0.324241
O O4 0.110005 0.479438 0.104528
O O5 0.847831 0.069255 0.151716
O O6 0.114997 0.268263 0.948124
O O7 0.279328 0.456606 0.696379
O O8 0.401393 0.308104 0.852738
O O9 0.500000 0.500000 0.500000
O O10 0.741373 0.248280 0.504187
O O11 0.789688 0.823079 0.430736
O O12 0.000000 0.000000 0.500000
O O13 0.500000 0.500000 0.000000
O O14 0.500000 0.000000 0.000000
#
# Coordination Sequence:
#
# PCOD9062618 Si02
#       6
#     2   2   2   2   2   2
#     4  12  22  47  67 103 141 181 234 289 352 433
#     4  11  24  41  74 102 138 183 226 291 359 427
#     4  11  24  45  70 104 143 185 230 294 353 426
#     4  12  28  51  74 108 142 189 246 301 357 421
#     4  12  27  51  75 104 141 193 245 296 359 428
#     4  12  25  42  63 105 145 181 226 283 356 424
#
# _framework density 23.353756000000001
#
# number of rings (size 3 to 8) (size 9 to 14) (size 15 to 20)
#    0.000    0.333    6.667    1.000    2.333    6.667 
#    3.000    0.000    0.000    0.000    0.000    0.000 
#    0.000    0.000    0.000    0.000    0.000    0.000 
#
# Total GULP energy -67061.652717 kJ/mol
# GULP energy per Si atom -5588.471060 kJ/mol
# Density = 2.330060 g / cm^3
# Si number density = 23.353756 Si / 1000 Ang^3
#
#
#
# Elastic Constant Matrix: (Units=GPa)
#
#
# Indices 1 2 3 4 5 6 
#
# 1 256.9234 62.0892 52.9010 -0.8088 18.0571 8.3566
# 2 62.0892 113.9053 1.1489 -5.9207 14.5719 -20.7713
# 3 52.9010 1.1489 78.7498 -10.7852 5.9080 -13.2648
# 4 -0.8088 -5.9207 -10.7852 18.4612 -2.7675 7.7596
# 5 18.0571 14.5719 5.9080 -2.7675 34.7454 -4.0776
# 6 8.3566 -20.7713 -13.2648 7.7596 -4.0776 41.6721
#
#
#
# Elastic Compliance Matrix: (Units=1/GPa)
#
#
# Indices 1 2 3 4 5 6 
#
# 1 0.006160 -0.004090 -0.005062 -0.002270 -0.001345 -0.004594
# 2 -0.004090 0.012919 0.004493 0.002843 -0.002906 0.007876
# 3 -0.005062 0.004493 0.018555 0.008807 -0.000834 0.007440
# 4 -0.002270 0.002843 0.008807 0.063421 0.002735 -0.006866
# 5 -0.001345 -0.002906 -0.000834 0.002735 0.031187 0.001098
# 6 -0.004594 0.007876 0.007440 -0.006866 0.001098 0.032598
#
#
# Mechanical properties :
#
#
# Convention : Reuss Voigt Hill
#
# Bulk Modulus (GPa) = 35.31539 75.76186 55.53862
# Shear Modulus (GPa) = 27.23340 41.20503 34.21922
#
# Velocity S-wave (km/s) = 3.41856 4.20502 3.83202
# Velocity P-wave (km/s) = 5.54408 7.48917 6.58880
#
# Compressibility (1/GPa) = 0.02831627
#
# Stress axis : x y z
#
# Youngs Moduli (GPa) = 162.34278 77.40339 53.89288
#
# Poissons Ratio (x) = 0.31661 0.27281
# Poissons Ratio (y) = 0.66404 -0.24216
# Poissons Ratio (z) = 0.82179 -0.34780
#
# Static dielectric constant tensor:
#      x y z
#    x 1.980860 -0.044080 -0.009570 
#    y -0.044080 1.936830 0.035780 
#    z -0.009570 0.035780 1.879540 
# 
# From -- ./inp_files/134687.got.cif
#   From: 2010.05.17/outbox.cif.g08.bks.cpg/sg2_68_cif.got.tgz:134687.got - 2010.06.03 11:33:40.
