data_PCOD9062882
_publ_section_title
;
Structure prediction by ZEFSAII (Michael W. Deem and Ramdas Pophale) SiO2 
 PCOD9062882
Probable space group: P -1
;
_chemical_formula_sum "Si O2"
_cell_formula_units_Z 14
_cell_length_a 15.798207
_cell_length_b 29.230251
_cell_length_c 16.375619
_cell_angle_alpha 17.472199
_cell_angle_beta 162.167162
_cell_angle_gamma 160.127617
_cell_volume 650.651917
_symmetry_space_group_name_H-M "P -1"
_symmetry_group_IT_number 2
_symmetry_cell_setting 'triclinic'
loop_
_space_group_symop_operation_xyz
x,y,z
-x,-y,-z
loop_
_atom_site_type_symbol
_atom_site_label
_atom_site_fract_x
_atom_site_fract_y
_atom_site_fract_z
Si Si1 0.222958 0.832908 0.136848
Si Si2 0.407832 0.405761 0.825540
Si Si3 0.320552 0.116765 0.121137
Si Si4 0.942046 0.391166 0.927949
Si Si5 0.312956 0.615340 0.125973
Si Si6 0.812071 0.113408 0.163102
Si Si7 0.552639 0.654357 0.845211
O O1 0.314318 0.728465 0.466694
O O2 0.488777 0.007374 0.082006
O O3 0.234058 0.790031 0.123914
O O4 0.875961 0.795895 0.892272
O O5 0.201881 0.503940 0.438804
O O6 0.296326 0.227025 0.987749
O O7 0.455590 0.400249 0.975891
O O8 0.736519 0.495559 0.940372
O O9 0.500000 0.000000 0.500000
O O10 0.501375 0.238421 0.009888
O O11 0.000000 0.000000 0.000000
O O12 0.740716 0.328256 0.929270
O O13 0.977586 0.244455 0.158683
O O14 0.500000 0.500000 0.500000
O O15 0.000000 0.500000 0.000000
O O16 0.000000 0.000000 0.500000
O O17 0.500000 0.500000 0.000000
#
# Coordination Sequence:
#
# PCOD9062882 Si02
#       7
#     2   2   2   2   2   2   2
#     4  11  24  43  64  93 143 177 231 283 358 408
#     4  12  26  45  72 104 140 188 244 285 357 446
#     4  12  26  46  74 108 150 182 230 313 374 415
#     4  12  25  44  76 101 135 192 243 287 355 422
#     4  12  23  48  74 104 143 184 246 297 351 443
#     4  11  25  44  70 101 145 179 240 300 346 420
#     4  12  24  42  67  98 139 183 230 287 349 428
#
# _framework density 21.516881999999999
#
# number of rings (size 3 to 8) (size 9 to 14) (size 15 to 20)
#    0.000    0.286    4.286    4.714    4.000    2.286 
#    0.000    0.000    0.000    0.000    0.000    0.000 
#    0.000    0.000    0.000    0.000    0.000    0.000 
#
# Total GULP energy -78239.605251 kJ/mol
# GULP energy per Si atom -5588.543232 kJ/mol
# Density = 2.146791 g / cm^3
# Si number density = 21.516882 Si / 1000 Ang^3
#
#
#
# Elastic Constant Matrix: (Units=GPa)
#
#
# Indices 1 2 3 4 5 6 
#
# 1 100.2341 52.7458 30.8402 -19.2241 -2.9921 -14.4084
# 2 52.7458 128.1522 49.5930 14.8454 1.8019 -3.7644
# 3 30.8402 49.5930 138.6786 8.3253 5.3424 -5.9872
# 4 -19.2241 14.8454 8.3253 38.3574 5.5810 2.9556
# 5 -2.9921 1.8019 5.3424 5.5810 26.8517 -4.5905
# 6 -14.4084 -3.7644 -5.9872 2.9556 -4.5905 50.4880
#
#
#
# Elastic Compliance Matrix: (Units=1/GPa)
#
#
# Indices 1 2 3 4 5 6 
#
# 1 0.017343 -0.007749 -0.001667 0.011635 0.000978 0.003582
# 2 -0.007749 0.012862 -0.002434 -0.008299 0.000307 -0.001027
# 3 -0.001667 -0.002434 0.008614 -0.001593 -0.001348 0.000335
# 4 0.011635 -0.008299 -0.001593 0.036250 -0.005381 -0.000099
# 5 0.000978 0.000307 -0.001348 -0.005381 0.039407 0.004040
# 6 0.003582 -0.001027 0.000335 -0.000099 0.004040 0.021165
#
#
# Mechanical properties :
#
#
# Convention : Reuss Voigt Hill
#
# Bulk Modulus (GPa) = 66.14795 70.38034 68.26414
# Shear Modulus (GPa) = 30.41710 38.73181 34.57446
#
# Velocity S-wave (km/s) = 3.76392 4.24732 4.01291
# Velocity P-wave (km/s) = 7.04972 7.53879 7.29835
#
# Compressibility (1/GPa) = 0.01511763
#
# Stress axis : x y z
#
# Youngs Moduli (GPa) = 57.66010 77.75115 116.08847
#
# Poissons Ratio (x) = 0.60252 0.19353
# Poissons Ratio (y) = 0.44683 0.28257
# Poissons Ratio (z) = 0.09613 0.18925
#
# Static dielectric constant tensor:
#      x y z
#    x 1.802380 0.017030 -0.012020 
#    y 0.017030 1.763300 0.001800 
#    z -0.012020 0.001800 1.753140 
# 
# From -- ./inp_files/535722.got.cif
#   From: 2010.05.17/outbox.cif.g08.bks.cpg/sg2_268_cif.got.tgz:535722.got - 2010.06.03 11:33:40.
