data_PCOD9062927
_publ_section_title
;
Structure prediction by ZEFSAII (Michael W. Deem and Ramdas Pophale) SiO2 
 PCOD9062927
Probable space group: P -1
;
_chemical_formula_sum "Si O2"
_cell_formula_units_Z 16
_cell_length_a 16.390682
_cell_length_b 9.217691
_cell_length_c 5.640231
_cell_angle_alpha 126.219008
_cell_angle_beta 90.433472
_cell_angle_gamma 82.668943
_cell_volume 679.409943
_symmetry_space_group_name_H-M "P -1"
_symmetry_group_IT_number 2
_symmetry_cell_setting 'triclinic'
loop_
_space_group_symop_operation_xyz
x,y,z
-x,-y,-z
loop_
_atom_site_type_symbol
_atom_site_label
_atom_site_fract_x
_atom_site_fract_y
_atom_site_fract_z
Si Si1 0.492506 0.602255 0.847422
Si Si2 0.305616 0.765066 0.027629
Si Si3 0.155055 0.898465 0.846545
Si Si4 0.726620 0.939241 0.319184
Si Si5 0.106205 0.289422 0.426360
Si Si6 0.065485 0.599716 0.350434
Si Si7 0.451409 0.050530 0.801409
Si Si8 0.219613 0.457750 0.916573
O O1 0.500000 0.500000 0.500000
O O2 0.500000 0.500000 0.000000
O O3 0.401841 0.719192 0.940927
O O4 0.560806 0.732580 0.986218
O O5 0.289576 0.964433 0.335544
O O6 0.236690 0.775921 0.834709
O O7 0.283532 0.597779 0.024282
O O8 0.088761 0.766388 0.671282
O O9 0.193050 0.987206 0.706312
O O10 0.121773 0.074782 0.173423
O O11 0.639084 0.007700 0.254325
O O12 0.745533 0.721864 0.108094
O O13 0.076461 0.410105 0.311962
O O14 0.187512 0.365327 0.591354
O O15 0.030179 0.340876 0.658184
O O16 0.136791 0.573463 0.132029
O O17 0.500000 0.000000 0.500000
O O18 0.500000 0.000000 0.000000
#
# Coordination Sequence:
#
# PCOD9062927 Si02
#       8
#     2   2   2   2   2   2   2   2
#     4  12  28  49  74 109 146 191 246 298 367 442
#     4  12  26  45  74 100 145 183 232 304 355 425
#     4  12  24  44  70 103 135 185 237 288 358 428
#     4  12  26  44  74 101 142 184 235 296 359 433
#     4  11  24  43  67 102 141 183 233 291 357 425
#     4  11  24  43  67 100 144 183 228 299 352 422
#     4  12  26  48  74 105 145 192 238 298 370 431
#     4  12  24  45  68 106 136 187 237 284 362 422
#
# _framework density 23.549848000000001
#
# number of rings (size 3 to 8) (size 9 to 14) (size 15 to 20)
#    0.000    0.250    6.250    3.000    1.750    2.000 
#    0.000    1.250    0.000    0.000    0.000    0.000 
#    0.000    0.000    0.000    0.000    0.000    0.000 
#
# Total GULP energy -89356.031524 kJ/mol
# GULP energy per Si atom -5584.751970 kJ/mol
# Density = 2.349625 g / cm^3
# Si number density = 23.549848 Si / 1000 Ang^3
#
#
#
# Elastic Constant Matrix: (Units=GPa)
#
#
# Indices 1 2 3 4 5 6 
#
# 1 104.4679 6.3300 11.8890 5.7681 -0.1731 -3.3636
# 2 6.3300 87.2214 15.2423 11.3337 -0.2697 0.0642
# 3 11.8890 15.2423 105.2418 12.5778 -7.4864 -2.1939
# 4 5.7681 11.3337 12.5778 38.4429 0.7042 7.7634
# 5 -0.1731 -0.2697 -7.4864 0.7042 44.7921 4.0239
# 6 -3.3636 0.0642 -2.1939 7.7634 4.0239 35.9637
#
#
#
# Elastic Compliance Matrix: (Units=1/GPa)
#
#
# Indices 1 2 3 4 5 6 
#
# 1 0.009806 -0.000390 -0.000886 -0.001298 -0.000197 0.001166
# 2 -0.000390 0.012141 -0.001331 -0.003197 -0.000152 0.000568
# 3 -0.000886 -0.001331 0.010303 -0.003084 0.001667 0.001027
# 4 -0.001298 -0.003197 -0.003084 0.029505 -0.000408 -0.006627
# 5 -0.000197 -0.000152 0.001667 -0.000408 0.022823 -0.002382
# 6 0.001166 0.000568 0.001027 -0.006627 -0.002382 0.029674
#
#
# Mechanical properties :
#
#
# Convention : Reuss Voigt Hill
#
# Bulk Modulus (GPa) = 36.98717 40.42816 38.70767
# Shear Modulus (GPa) = 38.91780 41.40437 40.16108
#
# Velocity S-wave (km/s) = 4.06959 4.19759 4.13409
# Velocity P-wave (km/s) = 6.14997 6.37945 6.26576
#
# Compressibility (1/GPa) = 0.02703640
#
# Stress axis : x y z
#
# Youngs Moduli (GPa) = 101.98202 82.36869 97.05612
#
# Poissons Ratio (x) = 0.03209 0.08597
# Poissons Ratio (y) = 0.03973 0.12920
# Poissons Ratio (z) = 0.09034 0.10965
#
# Static dielectric constant tensor:
#      x y z
#    x 2.250460 -0.287840 0.237990 
#    y -0.287840 2.179670 -0.213170 
#    z 0.237990 -0.213170 2.088600 
# 
# From -- ./inp_files/48046.got.cif
#   From: 2010.05.17/outbox.cif.g08.bks.cpg/sg2_25_cif.got.tgz:48046.got - 2010.06.03 11:33:40.
