data_PCOD9062297
_publ_section_title
;
Structure prediction by ZEFSAII (Michael W. Deem and Ramdas Pophale) SiO2 
 PCOD9062297
Probable space group: P -1
;
_chemical_formula_sum "Si O2"
_cell_formula_units_Z 15
_cell_length_a 15.657849
_cell_length_b 11.801258
_cell_length_c 12.351918
_cell_angle_alpha 46.255034
_cell_angle_beta 153.428522
_cell_angle_gamma 144.529307
_cell_volume 586.416453
_symmetry_space_group_name_H-M "P -1"
_symmetry_group_IT_number 2
_symmetry_cell_setting 'triclinic'
loop_
_space_group_symop_operation_xyz
x,y,z
-x,-y,-z
loop_
_atom_site_type_symbol
_atom_site_label
_atom_site_fract_x
_atom_site_fract_y
_atom_site_fract_z
Si Si1 0.029155 0.171330 0.073922
Si Si2 0.715132 0.870066 0.268000
Si Si3 0.727136 0.518986 0.478171
Si Si4 0.551213 0.789242 0.371293
Si Si5 0.427505 0.025541 0.179760
Si Si6 0.000000 0.500000 0.000000
Si Si7 0.218354 0.529183 0.665196
Si Si8 0.227934 0.263783 0.019123
O O1 0.267844 0.257702 0.356258
O O2 0.086749 0.271124 0.955767
O O3 0.822625 0.148051 0.929108
O O4 0.922142 0.947908 0.068158
O O5 0.640868 0.652773 0.314074
O O6 0.624924 0.879048 0.275842
O O7 0.636161 0.935058 0.035175
O O8 0.000000 0.000000 0.500000
O O9 0.899160 0.543104 0.749184
O O10 0.845980 0.563837 0.465222
O O11 0.467549 0.306511 0.314018
O O12 0.583682 0.951270 0.383078
O O13 0.270476 0.613519 0.175679
O O14 0.575306 0.235979 0.265794
O O15 0.000000 0.500000 0.500000
O O16 0.292931 0.421439 0.896977
#
# Coordination Sequence:
#
# PCOD9062297 Si02
#       8
#     2   2   2   2   2   1   2   2
#     4  11  24  47  78 110 151 203 253 329 392 455
#     4  12  26  45  76 106 151 213 254 314 375 468
#     4  12  26  49  77 111 154 204 260 309 395 464
#     4  12  28  48  72 114 155 207 266 312 387 469
#     4  12  25  47  77 113 153 201 260 324 390 455
#     4  12  30  50  74 116 162 206 258 320 382 480
#     4  12  27  46  77 117 152 196 255 335 385 463
#     4  11  23  49  76 110 150 198 256 315 400 455
#
# _framework density 25.579090999999998
#
# number of rings (size 3 to 8) (size 9 to 14) (size 15 to 20)
#    0.000    0.267    5.333    3.200    3.733    2.667 
#    0.000    2.667    0.000    0.000    0.000    0.000 
#    0.000    0.000    0.000    0.000    0.000    0.000 
#
# Total GULP energy -83894.860306 kJ/mol
# GULP energy per Si atom -5592.990687 kJ/mol
# Density = 2.552087 g / cm^3
# Si number density = 25.579091 Si / 1000 Ang^3
#
#
#
# Elastic Constant Matrix: (Units=GPa)
#
#
# Indices 1 2 3 4 5 6 
#
# 1 190.9596 20.2069 28.1073 -12.8559 1.1557 24.6519
# 2 20.2069 68.7399 27.3003 -4.0699 7.5414 14.1665
# 3 28.1073 27.3003 104.3707 6.2255 -4.4504 0.2883
# 4 -12.8559 -4.0699 6.2255 40.6597 14.5019 10.8762
# 5 1.1557 7.5414 -4.4504 14.5019 45.0073 -2.4338
# 6 24.6519 14.1665 0.2883 10.8762 -2.4338 37.6351
#
#
#
# Elastic Compliance Matrix: (Units=1/GPa)
#
#
# Indices 1 2 3 4 5 6 
#
# 1 0.006690 0.000911 -0.002444 0.005211 -0.002590 -0.006380
# 2 0.000911 0.020589 -0.006472 0.009136 -0.007675 -0.011434
# 3 -0.002444 -0.006472 0.012526 -0.006744 0.004894 0.006206
# 4 0.005211 0.009136 -0.006744 0.038976 -0.015923 -0.019094
# 5 -0.002590 -0.007675 0.004894 -0.015923 0.029785 0.011076
# 6 -0.006380 -0.011434 0.006206 -0.019094 0.011076 0.041241
#
#
# Mechanical properties :
#
#
# Convention : Reuss Voigt Hill
#
# Bulk Modulus (GPa) = 42.02111 57.25546 49.63828
# Shear Modulus (GPa) = 28.77750 43.89081 36.33415
#
# Velocity S-wave (km/s) = 3.35780 4.14682 3.77299
# Velocity P-wave (km/s) = 5.61219 6.73502 6.19908
#
# Compressibility (1/GPa) = 0.02379756
#
# Stress axis : x y z
#
# Youngs Moduli (GPa) = 149.47497 48.56871 79.83425
#
# Poissons Ratio (x) = -0.04427 0.19509
# Poissons Ratio (y) = -0.13624 0.51666
# Poissons Ratio (z) = 0.36528 0.31432
#
# Static dielectric constant tensor:
#      x y z
#    x 1.663430 0.594430 0.150420 
#    y 0.594430 1.037690 -0.184400 
#    z 0.150420 -0.184400 1.913020 
# 
# From -- ./inp_files/451192.got.cif
#   From: 2010.05.17/outbox.cif.g08.bks.cpg/sg2_226_cif.got.tgz:451192.got - 2010.06.03 11:33:40.
