data_PCOD9062832
_publ_section_title
;
Structure prediction by ZEFSAII (Michael W. Deem and Ramdas Pophale) SiO2 
 PCOD9062832
Probable space group: P -1
;
_chemical_formula_sum "Si O2"
_cell_formula_units_Z 16
_cell_length_a 14.835644
_cell_length_b 9.034298
_cell_length_c 6.091333
_cell_angle_alpha 88.632609
_cell_angle_beta 74.348705
_cell_angle_gamma 48.477152
_cell_volume 574.820874
_symmetry_space_group_name_H-M "P -1"
_symmetry_group_IT_number 2
_symmetry_cell_setting 'triclinic'
loop_
_space_group_symop_operation_xyz
x,y,z
-x,-y,-z
loop_
_atom_site_type_symbol
_atom_site_label
_atom_site_fract_x
_atom_site_fract_y
_atom_site_fract_z
Si Si1 0.663221 0.773712 0.780532
Si Si2 0.862268 0.073761 0.441543
Si Si3 0.526373 0.534217 0.216311
Si Si4 0.338464 0.202333 0.716833
Si Si5 0.642876 0.151708 0.386143
Si Si6 0.903922 0.724296 0.651988
Si Si7 0.919998 0.315344 0.155801
Si Si8 0.218180 0.646512 0.130029
O O1 0.602684 0.831799 0.569407
O O2 0.764910 0.799112 0.726426
O O3 0.745208 0.533928 0.742945
O O4 0.605801 0.832369 0.068446
O O5 0.764136 0.126600 0.318213
O O6 0.916789 0.173409 0.320842
O O7 0.794119 0.202240 0.707836
O O8 0.913316 0.859923 0.493534
O O9 0.530571 0.370552 0.343253
O O10 0.422266 0.770951 0.334352
O O11 0.500000 0.500000 0.000000
O O12 0.665784 0.456095 0.113454
O O13 0.203130 0.439151 0.780196
O O14 0.323347 0.041545 0.721309
O O15 0.000000 0.500000 0.500000
O O16 0.958871 0.717699 0.851680
O O17 0.909194 0.250649 0.927255
#
# Coordination Sequence:
#
# PCOD9062832 Si02
#       8
#     2   2   2   2   2   2   2   2
#     4  11  25  45  72 100 147 191 234 298 351 431
#     4  12  22  42  74  98 147 185 242 298 361 429
#     4  11  24  43  72 106 139 184 241 302 358 445
#     4  11  24  46  73 102 145 192 238 292 365 424
#     4  11  24  42  73 103 140 187 243 292 372 429
#     4  12  24  45  70 107 145 195 247 290 357 433
#     4  11  24  45  67 103 147 186 244 299 354 426
#     4  11  24  43  70 101 141 188 237 301 364 419
#
# _framework density 27.834757
#
# number of rings (size 3 to 8) (size 9 to 14) (size 15 to 20)
#    0.000    0.750    6.250    0.375    3.500    2.500 
#    2.250    3.125    0.000    0.000    0.000    0.000 
#    0.000    0.000    0.000    0.000    0.000    0.000 
#
# Total GULP energy -89324.097593 kJ/mol
# GULP energy per Si atom -5582.756100 kJ/mol
# Density = 2.777140 g / cm^3
# Si number density = 27.834757 Si / 1000 Ang^3
#
#
#
# Elastic Constant Matrix: (Units=GPa)
#
#
# Indices 1 2 3 4 5 6 
#
# 1 111.7853 33.6838 14.7354 -13.5597 8.6434 26.0716
# 2 33.6838 204.4093 53.7255 2.0601 7.5217 40.7495
# 3 14.7354 53.7255 91.0990 -3.3600 11.0462 6.4181
# 4 -13.5597 2.0601 -3.3600 42.8007 -0.3882 16.5429
# 5 8.6434 7.5217 11.0462 -0.3882 49.5736 -3.7562
# 6 26.0716 40.7495 6.4181 16.5429 -3.7562 36.1822
#
#
#
# Elastic Compliance Matrix: (Units=1/GPa)
#
#
# Indices 1 2 3 4 5 6 
#
# 1 0.014225 0.001325 -0.001050 0.010859 -0.003643 -0.016900
# 2 0.001325 0.007906 -0.003768 0.004056 -0.001407 -0.011191
# 3 -0.001050 -0.003768 0.013446 -0.000052 -0.002058 0.002425
# 4 0.010859 0.004056 -0.000052 0.038300 -0.004498 -0.030362
# 5 -0.003643 -0.001407 -0.002058 -0.004498 0.022120 0.008928
# 6 -0.016900 -0.011191 0.002425 -0.030362 0.008928 0.066798
#
#
# Mechanical properties :
#
#
# Convention : Reuss Voigt Hill
#
# Bulk Modulus (GPa) = 34.97468 67.95365 51.46416
# Shear Modulus (GPa) = 27.88444 46.05458 36.96951
#
# Velocity S-wave (km/s) = 3.16853 4.07205 3.64837
# Velocity P-wave (km/s) = 5.09691 6.82459 6.02302
#
# Compressibility (1/GPa) = 0.02859212
#
# Stress axis : x y z
#
# Youngs Moduli (GPa) = 70.29773 126.48451 74.37165
#
# Poissons Ratio (x) = -0.16765 0.07807
# Poissons Ratio (y) = -0.09318 0.28025
# Poissons Ratio (z) = 0.07379 0.47663
#
# Static dielectric constant tensor:
#      x y z
#    x 2.135940 -0.090980 0.216700 
#    y -0.090980 2.124120 -0.126030 
#    z 0.216700 -0.126030 1.633960 
# 
# From -- ./inp_files/106880.got.cif
#   From: 2010.05.17/outbox.cif.g08.bks.cpg/sg2_54_cif.got.tgz:106880.got - 2010.06.03 11:33:40.
