data_PCOD9062564
_publ_section_title
;
Structure prediction by ZEFSAII (Michael W. Deem and Ramdas Pophale) SiO2 
 PCOD9062564
Probable space group: P -1
;
_chemical_formula_sum "Si O2"
_cell_formula_units_Z 14
_cell_length_a 12.320220
_cell_length_b 9.233078
_cell_length_c 9.596550
_cell_angle_alpha 47.579399
_cell_angle_beta 122.276058
_cell_angle_gamma 125.087972
_cell_volume 639.799885
_symmetry_space_group_name_H-M "P -1"
_symmetry_group_IT_number 2
_symmetry_cell_setting 'triclinic'
loop_
_space_group_symop_operation_xyz
x,y,z
-x,-y,-z
loop_
_atom_site_type_symbol
_atom_site_label
_atom_site_fract_x
_atom_site_fract_y
_atom_site_fract_z
Si Si1 0.613301 0.102641 0.839917
Si Si2 0.645697 0.823091 0.264253
Si Si3 0.354986 0.614813 0.567680
Si Si4 0.569285 0.740088 0.843201
Si Si5 0.885268 0.823820 0.948269
Si Si6 0.880874 0.423896 0.353787
Si Si7 0.121108 0.018743 0.464433
O O1 0.505349 0.186933 0.788099
O O2 0.687322 0.275448 0.664259
O O3 0.537916 0.893616 0.833457
O O4 0.695538 0.020672 0.064193
O O5 0.646582 0.613826 0.325900
O O6 0.739218 0.857956 0.440834
O O7 0.504628 0.749162 0.641648
O O8 0.255892 0.605812 0.633640
O O9 0.732669 0.809030 0.899822
O O10 0.500000 0.500000 0.000000
O O11 0.898164 0.876322 0.760615
O O12 0.898709 0.602877 0.136989
O O13 0.000000 0.000000 0.000000
O O14 0.878433 0.209535 0.425503
O O15 0.000000 0.500000 0.500000
O O16 0.000000 0.000000 0.500000
#
# Coordination Sequence:
#
# PCOD9062564 Si02
#       7
#     2   2   2   2   2   2   2
#     4  11  24  41  70 100 147 188 230 298 369 418
#     4  11  25  43  65 108 150 184 236 301 364 433
#     4  12  24  44  74 107 142 190 245 298 357 436
#     4  12  23  45  76 106 141 189 250 299 350 431
#     4  12  27  48  78 105 144 193 246 302 359 431
#     4  12  25  45  76 103 140 191 249 293 358 435
#     4  12  28  46  72 106 149 189 242 301 362 430
#
# _framework density 21.881843
#
# number of rings (size 3 to 8) (size 9 to 14) (size 15 to 20)
#    0.000    0.286    4.286    4.286    2.000    1.714 
#    0.000    0.000    0.000    0.000    0.000    0.000 
#    0.000    0.000    0.000    0.000    0.000    0.000 
#
# Total GULP energy -78399.863971 kJ/mol
# GULP energy per Si atom -5599.990284 kJ/mol
# Density = 2.183204 g / cm^3
# Si number density = 21.881843 Si / 1000 Ang^3
#
#
#
# Elastic Constant Matrix: (Units=GPa)
#
#
# Indices 1 2 3 4 5 6 
#
# 1 111.0174 62.6283 46.6395 -11.2261 -4.3488 -21.1400
# 2 62.6283 104.9808 44.8464 1.3842 12.2830 -23.9925
# 3 46.6395 44.8464 196.3637 -5.9091 -22.6856 -9.3057
# 4 -11.2261 1.3842 -5.9091 50.9131 3.2548 12.9285
# 5 -4.3488 12.2830 -22.6856 3.2548 36.2527 0.6027
# 6 -21.1400 -23.9925 -9.3057 12.9285 0.6027 45.9109
#
#
#
# Elastic Compliance Matrix: (Units=1/GPa)
#
#
# Indices 1 2 3 4 5 6 
#
# 1 0.015045 -0.008752 -0.000979 0.002864 0.003879 0.001298
# 2 -0.008752 0.018566 -0.003019 -0.003797 -0.008992 0.006248
# 3 -0.000979 -0.003019 0.006562 0.000542 0.004978 -0.000916
# 4 0.002864 -0.003797 0.000542 0.022159 0.000093 -0.006797
# 5 0.003879 -0.008992 0.004978 0.000093 0.034243 -0.002380
# 6 0.001298 0.006248 -0.000916 -0.006797 -0.002380 0.027404
#
#
# Mechanical properties :
#
#
# Convention : Reuss Voigt Hill
#
# Bulk Modulus (GPa) = 68.14350 80.06558 74.10454
# Shear Modulus (GPa) = 32.38978 43.83184 38.11081
#
# Velocity S-wave (km/s) = 3.85153 4.48047 4.17785
# Velocity P-wave (km/s) = 7.14060 7.96465 7.56385
#
# Compressibility (1/GPa) = 0.01467491
#
# Stress axis : x y z
#
# Youngs Moduli (GPa) = 66.46780 53.86052 152.38109
#
# Poissons Ratio (x) = 0.47140 0.14913
# Poissons Ratio (y) = 0.58174 0.45997
# Poissons Ratio (z) = 0.06505 0.16258
#
# Static dielectric constant tensor:
#      x y z
#    x 1.820080 0.029820 0.004560 
#    y 0.029820 1.768790 0.013500 
#    z 0.004560 0.013500 1.852030 
# 
# From -- ./inp_files/242293.got.cif
#   From: 2010.05.17/outbox.cif.g08.bks.cpg/sg2_122_cif.got.tgz:242293.got - 2010.06.03 11:33:40.
