data_PCOD9062924
_publ_section_title
;
Structure prediction by ZEFSAII (Michael W. Deem and Ramdas Pophale) SiO2 
 PCOD9062924
Probable space group: P -1
;
_chemical_formula_sum "Si O2"
_cell_formula_units_Z 16
_cell_length_a 4.977380
_cell_length_b 16.228006
_cell_length_c 8.335366
_cell_angle_alpha 78.444857
_cell_angle_beta 68.089183
_cell_angle_gamma 73.795720
_cell_volume 596.318452
_symmetry_space_group_name_H-M "P -1"
_symmetry_group_IT_number 2
_symmetry_cell_setting 'triclinic'
loop_
_space_group_symop_operation_xyz
x,y,z
-x,-y,-z
loop_
_atom_site_type_symbol
_atom_site_label
_atom_site_fract_x
_atom_site_fract_y
_atom_site_fract_z
Si Si1 0.814053 0.871675 0.143047
Si Si2 0.373258 0.306079 0.692030
Si Si3 0.515552 0.327751 0.101208
Si Si4 0.752420 0.574336 0.607329
Si Si5 0.911795 0.183410 0.558278
Si Si6 0.105709 0.211243 0.160047
Si Si7 0.344972 0.959039 0.411495
Si Si8 0.685089 0.535356 0.137774
O O1 0.763418 0.773815 0.199345
O O2 0.538621 0.952817 0.207916
O O3 0.992010 0.869752 0.276029
O O4 0.901793 0.866621 0.935903
O O5 0.301371 0.340327 0.518508
O O6 0.729994 0.274428 0.627532
O O7 0.263686 0.391099 0.783760
O O8 0.231191 0.381550 0.241992
O O9 0.394472 0.253471 0.064417
O O10 0.802648 0.281968 0.157008
O O11 0.563203 0.405690 0.947227
O O12 0.466259 0.532479 0.711698
O O13 0.000000 0.500000 0.500000
O O14 0.660997 0.142025 0.540916
O O15 0.118714 0.185771 0.357268
O O16 0.500000 0.000000 0.500000
O O17 0.000000 0.000000 0.500000
O O18 0.000000 0.500000 0.000000
#
# Coordination Sequence:
#
# PCOD9062924 Si02
#       8
#     2   2   2   2   2   2   2   2
#     4  11  25  47  80 109 149 202 244 308 383 450
#     4  11  24  43  66  99 140 193 261 314 376 460
#     4  12  26  47  67  98 151 190 253 335 380 448
#     4  12  27  41  66  99 143 199 262 330 401 457
#     4  11  25  47  80 108 150 200 249 304 379 452
#     4  12  27  46  77 113 146 192 263 315 372 458
#     4  11  24  48  79 117 157 192 237 298 374 461
#     4  12  26  45  66  98 143 202 258 332 404 452
#
# _framework density 26.831299000000001
#
# number of rings (size 3 to 8) (size 9 to 14) (size 15 to 20)
#    0.000    0.500    3.750    3.750    8.750    0.000 
#    0.000    1.250    0.000    0.000    0.000    0.000 
#    0.000    0.000    0.000    0.000    0.000    0.000 
#
# Total GULP energy -89204.184788 kJ/mol
# GULP energy per Si atom -5575.261549 kJ/mol
# Density = 2.677023 g / cm^3
# Si number density = 26.831299 Si / 1000 Ang^3
#
#
#
# Elastic Constant Matrix: (Units=GPa)
#
#
# Indices 1 2 3 4 5 6 
#
# 1 136.3795 27.8221 35.0306 14.6681 4.3018 -0.6361
# 2 27.8221 62.8237 26.8741 34.6094 2.0623 3.5570
# 3 35.0306 26.8741 123.1451 48.7721 5.0125 -7.0368
# 4 14.6681 34.6094 48.7721 62.3285 -3.4150 -0.3320
# 5 4.3018 2.0623 5.0125 -3.4150 36.3838 0.3896
# 6 -0.6361 3.5570 -7.0368 -0.3320 0.3896 50.0162
#
#
#
# Elastic Compliance Matrix: (Units=1/GPa)
#
#
# Indices 1 2 3 4 5 6 
#
# 1 0.008516 -0.003834 -0.002338 0.001939 -0.000286 0.000067
# 2 -0.003834 0.025038 0.001206 -0.014087 -0.002436 -0.001734
# 3 -0.002338 0.001206 0.012778 -0.010248 -0.002532 0.001634
# 4 0.001939 -0.014087 -0.010248 0.031699 0.004959 -0.000243
# 5 -0.000286 -0.002436 -0.002532 0.004959 0.028475 -0.000375
# 6 0.000067 -0.001734 0.001634 -0.000243 -0.000375 0.020349
#
#
# Mechanical properties :
#
#
# Convention : Reuss Voigt Hill
#
# Bulk Modulus (GPa) = 27.47329 55.75578 41.61453
# Shear Modulus (GPa) = 33.57490 45.25380 39.41435
#
# Velocity S-wave (km/s) = 3.54126 4.11128 3.83687
# Velocity P-wave (km/s) = 5.19444 6.58499 5.93061
#
# Compressibility (1/GPa) = 0.03639899
#
# Stress axis : x y z
#
# Youngs Moduli (GPa) = 117.42585 39.93881 78.26176
#
# Poissons Ratio (x) = 0.15312 0.18301
# Poissons Ratio (y) = 0.45019 -0.09436
# Poissons Ratio (z) = 0.27459 -0.04815
#
# Static dielectric constant tensor:
#      x y z
#    x 2.246020 -0.024950 0.058680 
#    y -0.024950 2.151060 -0.032160 
#    z 0.058680 -0.032160 2.427090 
# 
# From -- ./inp_files/137683.got.cif
#   From: 2010.05.17/outbox.cif.g08.bks.cpg/sg2_69_cif.got.tgz:137683.got - 2010.06.03 11:33:40.
