data_PCOD9062825
_publ_section_title
;
Structure prediction by ZEFSAII (Michael W. Deem and Ramdas Pophale) SiO2 
 PCOD9062825
Probable space group: P -1
;
_chemical_formula_sum "Si O2"
_cell_formula_units_Z 16
_cell_length_a 14.594016
_cell_length_b 7.917691
_cell_length_c 6.435501
_cell_angle_alpha 101.459675
_cell_angle_beta 110.307154
_cell_angle_gamma 72.351709
_cell_volume 660.941005
_symmetry_space_group_name_H-M "P -1"
_symmetry_group_IT_number 2
_symmetry_cell_setting 'triclinic'
loop_
_space_group_symop_operation_xyz
x,y,z
-x,-y,-z
loop_
_atom_site_type_symbol
_atom_site_label
_atom_site_fract_x
_atom_site_fract_y
_atom_site_fract_z
Si Si1 0.382992 0.594418 0.895296
Si Si2 0.356258 0.120357 0.490765
Si Si3 0.458973 0.916286 0.141666
Si Si4 0.104993 0.073072 0.733048
Si Si5 0.791654 0.400479 0.962266
Si Si6 0.156188 0.293587 0.181435
Si Si7 0.730476 0.189162 0.494111
Si Si8 0.017317 0.767421 0.687210
O O1 0.331350 0.635070 0.637105
O O2 0.500000 0.500000 0.000000
O O3 0.382575 0.797753 0.007855
O O4 0.314606 0.521987 0.987352
O O5 0.437408 0.195732 0.695900
O O6 0.405070 0.070970 0.292610
O O7 0.343266 0.936353 0.535829
O O8 0.245195 0.242310 0.406811
O O9 0.500000 0.000000 0.000000
O O10 0.166727 0.146710 0.972393
O O11 0.035678 0.231824 0.578183
O O12 0.180522 0.933820 0.606883
O O13 0.029733 0.969553 0.755263
O O14 0.776500 0.245731 0.756758
O O15 0.833997 0.530762 0.882075
O O16 0.870356 0.341995 0.198054
O O17 0.053715 0.290406 0.215383
#
# Coordination Sequence:
#
# PCOD9062825 Si02
#       8
#     2   2   2   2   2   2   2   2
#     4  12  28  45  70 100 143 187 232 284 357 420
#     4  11  24  42  72  99 133 178 241 286 337 412
#     4  11  24  44  69 100 132 178 238 296 340 398
#     4  11  25  44  80 102 134 185 242 283 340 414
#     4  12  29  46  68 104 153 182 224 289 360 420
#     4  12  27  44  71 106 144 185 230 286 352 419
#     4  12  24  48  72 102 140 186 230 292 347 411
#     4  11  25  47  73 107 140 184 233 291 349 416
#
# _framework density 24.207909999999998
#
# number of rings (size 3 to 8) (size 9 to 14) (size 15 to 20)
#    0.000    0.500    5.000    2.250    7.000    2.000 
#    0.000    0.000    0.000    0.000    0.000    0.000 
#    0.000    0.000    0.000    0.000    0.000    0.000 
#
# Total GULP energy -89518.861531 kJ/mol
# GULP energy per Si atom -5594.928846 kJ/mol
# Density = 2.415281 g / cm^3
# Si number density = 24.207910 Si / 1000 Ang^3
#
#
#
# Elastic Constant Matrix: (Units=GPa)
#
#
# Indices 1 2 3 4 5 6 
#
# 1 153.0889 22.0633 37.6287 -10.1534 -4.7152 7.2693
# 2 22.0633 38.9427 11.6856 -14.6283 -4.3080 17.2981
# 3 37.6287 11.6856 56.3993 -18.6243 9.8115 1.5039
# 4 -10.1534 -14.6283 -18.6243 36.8357 2.7442 1.3662
# 5 -4.7152 -4.3080 9.8115 2.7442 48.5204 -16.7472
# 6 7.2693 17.2981 1.5039 1.3662 -16.7472 43.5901
#
#
#
# Elastic Compliance Matrix: (Units=1/GPa)
#
#
# Indices 1 2 3 4 5 6 
#
# 1 0.008488 -0.004432 -0.006098 -0.002736 0.002352 0.001543
# 2 -0.004432 0.041726 0.001070 0.016861 -0.004094 -0.017957
# 3 -0.006098 0.001070 0.027537 0.013422 -0.008178 -0.003921
# 4 -0.002736 0.016861 0.013422 0.040841 -0.007547 -0.010877
# 5 0.002352 -0.004094 -0.008178 -0.007547 0.026701 0.012010
# 6 0.001543 -0.017957 -0.003921 -0.010877 0.012010 0.034900
#
#
# Mechanical properties :
#
#
# Convention : Reuss Voigt Hill
#
# Bulk Modulus (GPa) = 16.99788 43.46513 30.23151
# Shear Modulus (GPa) = 22.86011 37.59279 30.22645
#
# Velocity S-wave (km/s) = 3.07632 3.94498 3.53741
# Velocity P-wave (km/s) = 4.43342 6.22450 5.40368
#
# Compressibility (1/GPa) = 0.05883085
#
# Stress axis : x y z
#
# Youngs Moduli (GPa) = 117.82014 23.96608 36.31465
#
# Poissons Ratio (x) = 0.10621 0.22146
# Poissons Ratio (y) = 0.52216 -0.03887
# Poissons Ratio (z) = 0.71851 -0.02565
#
# Static dielectric constant tensor:
#      x y z
#    x 1.900240 -0.025830 0.028750 
#    y -0.025830 1.959930 -0.018270 
#    z 0.028750 -0.018270 1.956930 
# 
# From -- ./inp_files/90550.got.cif
#   From: 2010.05.17/outbox.cif.g08.bks.cpg/sg2_46_cif.got.tgz:90550.got - 2010.06.03 11:33:40.
