data_PCOD9062807
_publ_section_title
;
Structure prediction by ZEFSAII (Michael W. Deem and Ramdas Pophale) SiO2 
 PCOD9062807
Probable space group: P -1
;
_chemical_formula_sum "Si O2"
_cell_formula_units_Z 14
_cell_length_a 12.647466
_cell_length_b 9.156983
_cell_length_c 18.865722
_cell_angle_alpha 36.207710
_cell_angle_beta 25.553177
_cell_angle_gamma 45.439493
_cell_volume 553.745818
_symmetry_space_group_name_H-M "P -1"
_symmetry_group_IT_number 2
_symmetry_cell_setting 'triclinic'
loop_
_space_group_symop_operation_xyz
x,y,z
-x,-y,-z
loop_
_atom_site_type_symbol
_atom_site_label
_atom_site_fract_x
_atom_site_fract_y
_atom_site_fract_z
Si Si1 0.575934 0.831685 0.086218
Si Si2 0.076138 0.479745 0.541937
Si Si3 0.658091 0.936474 0.495818
Si Si4 0.598000 0.232152 0.549884
Si Si5 0.943815 0.530937 0.746353
Si Si6 0.153129 0.027614 0.989126
Si Si7 0.763697 0.428864 0.043469
O O1 0.332164 0.654929 0.327479
O O2 0.693778 0.958120 0.035854
O O3 0.769824 0.656280 0.005287
O O4 0.500000 0.000000 0.000000
O O5 0.125121 0.190809 0.622900
O O6 0.000000 0.500000 0.500000
O O7 0.893143 0.559016 0.682548
O O8 0.494436 0.726592 0.721698
O O9 0.500000 0.000000 0.500000
O O10 0.695671 0.154166 0.444993
O O11 0.500000 0.500000 0.500000
O O12 0.369765 0.055944 0.787953
O O13 0.828228 0.272744 0.447629
O O14 0.767633 0.532118 0.920208
O O15 0.000292 0.240207 0.825507
O O16 0.979666 0.250689 0.997632
#
# Coordination Sequence:
#
# PCOD9062807 Si02
#       7
#     2   2   2   2   2   2   2
#     4  11  26  47  68 101 142 186 234 284 351 418
#     4  11  25  48  70 100 141 189 234 287 348 418
#     4  11  25  44  72 105 143 183 231 286 350 415
#     4  12  23  40  69 107 143 179 228 287 346 412
#     4  12  24  43  72 105 142 180 232 289 351 409
#     4  12  23  44  72 103 145 177 229 292 346 408
#     4  11  24  42  72 104 135 182 232 285 352 410
#
# _framework density 25.282360000000001
#
# number of rings (size 3 to 8) (size 9 to 14) (size 15 to 20)
#    0.000    0.571    4.286    4.286    2.000    3.429 
#    2.571    3.571    0.000    0.000    0.000    0.000 
#    0.000    0.000    0.000    0.000    0.000    0.000 
#
# Total GULP energy -78269.780962 kJ/mol
# GULP energy per Si atom -5590.698640 kJ/mol
# Density = 2.522482 g / cm^3
# Si number density = 25.282360 Si / 1000 Ang^3
#
#
#
# Elastic Constant Matrix: (Units=GPa)
#
#
# Indices 1 2 3 4 5 6 
#
# 1 160.5243 16.9892 4.2004 10.9030 11.8620 38.3352
# 2 16.9892 46.8124 -2.4112 -6.4669 -5.6367 24.1202
# 3 4.2004 -2.4112 100.6810 20.3182 5.3374 17.2771
# 4 10.9030 -6.4669 20.3182 29.0104 14.5852 5.0177
# 5 11.8620 -5.6367 5.3374 14.5852 41.8168 8.3118
# 6 38.3352 24.1202 17.2771 5.0177 8.3118 48.2510
#
#
#
# Elastic Compliance Matrix: (Units=1/GPa)
#
#
# Indices 1 2 3 4 5 6 
#
# 1 0.007939 0.000192 0.001350 -0.002667 -0.000160 -0.006581
# 2 0.000192 0.032731 0.002562 0.005812 0.005786 -0.019033
# 3 0.001350 0.002562 0.012743 -0.009160 0.002813 -0.006448
# 4 -0.002667 0.005812 -0.009160 0.050734 -0.014945 -0.000208
# 5 -0.000160 0.005786 0.002813 -0.014945 0.031098 -0.007576
# 6 -0.006581 -0.019033 -0.006448 -0.000208 -0.007576 0.039104
#
#
# Mechanical properties :
#
#
# Convention : Reuss Voigt Hill
#
# Bulk Modulus (GPa) = 16.22859 38.39715 27.31287
# Shear Modulus (GPa) = 26.78364 43.09826 34.94095
#
# Velocity S-wave (km/s) = 3.25834 4.13325 3.72160
# Velocity P-wave (km/s) = 4.53747 6.16431 5.41236
#
# Compressibility (1/GPa) = 0.06161964
#
# Stress axis : x y z
#
# Youngs Moduli (GPa) = 125.96543 30.55245 78.47223
#
# Poissons Ratio (x) = -0.00586 -0.10590
# Poissons Ratio (y) = -0.02416 -0.20106
# Poissons Ratio (z) = -0.17000 -0.07828
#
# Static dielectric constant tensor:
#      x y z
#    x 2.049310 -0.078350 0.035410 
#    y -0.078350 2.065090 -0.053820 
#    z 0.035410 -0.053820 2.048940 
# 
# From -- ./inp_files/398038.got.cif
#   From: 2010.05.17/outbox.cif.g08.bks.cpg/sg2_200_cif.got.tgz:398038.got - 2010.06.03 11:33:40.
