data_PCOD9062761
_publ_section_title
;
Structure prediction by ZEFSAII (Michael W. Deem and Ramdas Pophale) SiO2 
 PCOD9062761
Probable space group: P -1
;
_chemical_formula_sum "Si O2"
_cell_formula_units_Z 12
_cell_length_a 9.946289
_cell_length_b 9.384431
_cell_length_c 12.468667
_cell_angle_alpha 78.008741
_cell_angle_beta 129.010884
_cell_angle_gamma 135.675607
_cell_volume 565.305569
_symmetry_space_group_name_H-M "P -1"
_symmetry_group_IT_number 2
_symmetry_cell_setting 'triclinic'
loop_
_space_group_symop_operation_xyz
x,y,z
-x,-y,-z
loop_
_atom_site_type_symbol
_atom_site_label
_atom_site_fract_x
_atom_site_fract_y
_atom_site_fract_z
Si Si1 0.784854 0.324436 0.512168
Si Si2 0.705624 0.194339 0.723901
Si Si3 0.985142 0.143856 0.028552
Si Si4 0.709552 0.007937 0.132061
Si Si5 0.492204 0.662375 0.257717
Si Si6 0.737664 0.602799 0.524441
O O1 0.868010 0.323618 0.673617
O O2 0.654165 0.396273 0.461838
O O3 0.000000 0.500000 0.500000
O O4 0.574238 0.068576 0.404517
O O5 0.632768 0.299335 0.728718
O O6 0.855667 0.184444 0.882025
O O7 0.272301 0.396143 0.166403
O O8 0.813380 0.014694 0.070559
O O9 0.000000 0.000000 0.000000
O O10 0.975119 0.229866 0.298079
O O11 0.564798 0.795756 0.166443
O O12 0.500000 0.000000 0.000000
O O13 0.744767 0.737716 0.421220
O O14 0.500000 0.500000 0.500000
#
# Coordination Sequence:
#
# PCOD9062761 Si02
#       6
#     2   2   2   2   2   2
#     4  11  25  42  69 103 140 187 239 292 352 421
#     4  11  24  42  70 104 142 185 239 294 359 417
#     4  12  27  45  73 105 148 184 239 303 360 418
#     4  12  27  45  76 107 140 194 243 285 359 432
#     4  12  25  46  76 103 142 192 239 294 356 427
#     4  12  24  47  74 103 147 189 237 295 354 421
#
# _framework density 21.227459
#
# number of rings (size 3 to 8) (size 9 to 14) (size 15 to 20)
#    0.000    0.333    5.000    3.000    2.333    2.000 
#    0.000    0.000    0.000    0.000    0.000    0.000 
#    0.000    0.000    0.000    0.000    0.000    0.000 
#
# Total GULP energy -67114.272356 kJ/mol
# GULP energy per Si atom -5592.856030 kJ/mol
# Density = 2.117914 g / cm^3
# Si number density = 21.227459 Si / 1000 Ang^3
#
#
#
# Elastic Constant Matrix: (Units=GPa)
#
#
# Indices 1 2 3 4 5 6 
#
# 1 112.3307 89.8903 43.2257 10.6475 -22.2276 -7.9171
# 2 89.8903 122.9967 44.3343 -11.5106 -15.6340 1.3837
# 3 43.2257 44.3343 133.9697 -22.2792 -0.1429 -8.9579
# 4 10.6475 -11.5106 -22.2792 48.6846 0.9491 -11.7703
# 5 -22.2276 -15.6340 -0.1429 0.9491 31.6979 -10.4019
# 6 -7.9171 1.3837 -8.9579 -11.7703 -10.4019 60.6657
#
#
#
# Elastic Compliance Matrix: (Units=1/GPa)
#
#
# Indices 1 2 3 4 5 6 
#
# 1 0.032287 -0.021230 -0.005469 -0.013998 0.013721 0.003527
# 2 -0.021230 0.023931 0.000478 0.010121 -0.004033 -0.001974
# 3 -0.005469 0.000478 0.010232 0.006410 -0.003263 0.001471
# 4 -0.013998 0.010121 0.006410 0.029969 -0.004396 0.003950
# 5 0.013721 -0.004033 -0.003263 -0.004396 0.041831 0.007720
# 6 0.003527 -0.001974 0.001471 0.003950 0.007720 0.019296
#
#
# Mechanical properties :
#
#
# Convention : Reuss Voigt Hill
#
# Bulk Modulus (GPa) = 71.40123 80.46639 75.93381
# Shear Modulus (GPa) = 23.29291 40.99942 32.14616
#
# Velocity S-wave (km/s) = 3.31615 4.39958 3.89571
# Velocity P-wave (km/s) = 6.95498 7.98733 7.48896
#
# Compressibility (1/GPa) = 0.01400536
#
# Stress axis : x y z
#
# Youngs Moduli (GPa) = 30.97268 41.78693 97.73397
#
# Poissons Ratio (x) = 0.88716 0.53451
# Poissons Ratio (y) = 0.65756 -0.04667
# Poissons Ratio (z) = 0.16939 -0.01995
#
# Static dielectric constant tensor:
#      x y z
#    x 1.743540 0.028470 -0.017420 
#    y 0.028470 1.764760 -0.006860 
#    z -0.017420 -0.006860 1.854890 
# 
# From -- ./inp_files/152553.got.cif
#   From: 2010.05.17/outbox.cif.g08.bks.cpg/sg2_77_cif.got.tgz:152553.got - 2010.06.03 11:33:40.
