data_PCOD9062937
_publ_section_title
;
Structure prediction by ZEFSAII (Michael W. Deem and Ramdas Pophale) SiO2 
 PCOD9062937
Probable space group: P -1
;
_chemical_formula_sum "Si O2"
_cell_formula_units_Z 16
_cell_length_a 17.885478
_cell_length_b 26.041159
_cell_length_c 14.704463
_cell_angle_alpha 20.248713
_cell_angle_beta 22.348148
_cell_angle_gamma 20.174598
_cell_volume 759.220331
_symmetry_space_group_name_H-M "P -1"
_symmetry_group_IT_number 2
_symmetry_cell_setting 'triclinic'
loop_
_space_group_symop_operation_xyz
x,y,z
-x,-y,-z
loop_
_atom_site_type_symbol
_atom_site_label
_atom_site_fract_x
_atom_site_fract_y
_atom_site_fract_z
Si Si1 0.853048 0.713266 0.377384
Si Si2 0.894740 0.031970 0.766036
Si Si3 0.335112 0.428070 0.325420
Si Si4 0.875474 0.128263 0.840030
Si Si5 0.626683 0.744793 0.068085
Si Si6 0.036630 0.391265 0.254336
Si Si7 0.592439 0.803695 0.693180
Si Si8 0.621339 0.029441 0.727481
O O1 0.768637 0.610588 0.582473
O O2 0.638970 0.810621 0.524600
O O3 0.091383 0.586417 0.375913
O O4 0.896647 0.852467 0.047218
O O5 0.915012 0.045446 0.831516
O O6 0.642017 0.191929 0.750454
O O7 0.107697 0.027261 0.483380
O O8 0.476170 0.240098 0.527078
O O9 0.500000 0.500000 0.000000
O O10 0.957031 0.262548 0.525483
O O11 0.603861 0.231365 0.999289
O O12 0.000000 0.000000 0.000000
O O13 0.806846 0.586087 0.195162
O O14 0.763512 0.655687 0.967821
O O15 0.611541 0.917943 0.838535
O O16 0.173541 0.329674 0.296090
O O17 0.500000 0.000000 0.500000
O O18 0.500000 0.000000 0.000000
#
# Coordination Sequence:
#
# PCOD9062937 Si02
#       8
#     2   2   2   2   2   2   2   2
#     4  11  24  43  71 106 139 180 236 302 358 424
#     4  12  23  45  74 100 143 190 237 294 361 427
#     4  11  25  47  75 101 137 188 243 300 361 417
#     4  12  24  38  69 109 139 183 227 288 363 427
#     4  11  25  46  70  94 141 188 235 288 354 433
#     4  11  24  43  67 104 140 184 230 283 356 438
#     4  12  23  40  70 107 144 174 230 292 364 433
#     4  12  28  48  73  98 143 193 246 299 362 422
#
# _framework density 21.074251
#
# number of rings (size 3 to 8) (size 9 to 14) (size 15 to 20)
#    0.000    0.500    7.500    0.000    3.500    3.000 
#    0.000    0.000    0.000    0.000    0.000    0.000 
#    0.000    0.000    0.000    0.000    0.000    0.000 
#
# Total GULP energy -89200.049405 kJ/mol
# GULP energy per Si atom -5575.003088 kJ/mol
# Density = 2.102628 g / cm^3
# Si number density = 21.074251 Si / 1000 Ang^3
#
#
#
# Elastic Constant Matrix: (Units=GPa)
#
#
# Indices 1 2 3 4 5 6 
#
# 1 56.0208 34.0345 38.8763 15.2996 -4.4504 -14.4824
# 2 34.0345 142.2901 58.7239 15.3025 5.6880 -31.1213
# 3 38.8763 58.7239 110.8821 19.8799 -8.2810 -15.1096
# 4 15.2996 15.3025 19.8799 44.0519 -4.2279 3.2418
# 5 -4.4504 5.6880 -8.2810 -4.2279 29.1629 4.8567
# 6 -14.4824 -31.1213 -15.1096 3.2418 4.8567 38.9084
#
#
#
# Elastic Compliance Matrix: (Units=1/GPa)
#
#
# Indices 1 2 3 4 5 6 
#
# 1 0.026791 -0.001653 -0.006457 -0.006247 0.000574 0.006591
# 2 -0.001653 0.011380 -0.004355 -0.002492 -0.005347 0.007671
# 3 -0.006457 -0.004355 0.014176 -0.002242 0.003673 -0.000653
# 4 -0.006247 -0.002492 -0.002242 0.027747 0.004256 -0.008032
# 5 0.000574 -0.005347 0.003673 0.004256 0.038377 -0.007782
# 6 0.006591 0.007671 -0.000653 -0.008032 -0.007782 0.035677
#
#
# Mechanical properties :
#
#
# Convention : Reuss Voigt Hill
#
# Bulk Modulus (GPa) = 36.47222 63.60694 50.03958
# Shear Modulus (GPa) = 26.56525 34.26187 30.41356
#
# Velocity S-wave (km/s) = 3.55428 4.03646 3.80302
# Velocity P-wave (km/s) = 5.84705 7.20915 6.56353
#
# Compressibility (1/GPa) = 0.02741812
#
# Stress axis : x y z
#
# Youngs Moduli (GPa) = 37.32586 87.87373 70.54254
#
# Poissons Ratio (x) = 0.14525 0.45548
# Poissons Ratio (y) = 0.06170 0.30719
# Poissons Ratio (z) = 0.24100 0.38266
#
# Static dielectric constant tensor:
#      x y z
#    x 1.758180 -0.271040 0.335710 
#    y -0.271040 -0.382250 2.720080 
#    z 0.335710 2.720080 -1.810220 
# 
# From -- ./inp_files/539365.got.cif
#   From: 2010.05.17/outbox.cif.g08.bks.cpg/sg2_270_cif.got.tgz:539365.got - 2010.06.03 11:33:40.
