data_PCOD9062967
_publ_section_title
;
Structure prediction by ZEFSAII (Michael W. Deem and Ramdas Pophale) SiO2 
 PCOD9062967
Probable space group: P -1
;
_chemical_formula_sum "Si O2"
_cell_formula_units_Z 14
_cell_length_a 22.273001
_cell_length_b 13.991049
_cell_length_c 14.167213
_cell_angle_alpha 31.202251
_cell_angle_beta 158.022420
_cell_angle_gamma 159.902700
_cell_volume 563.577714
_symmetry_space_group_name_H-M "P -1"
_symmetry_group_IT_number 2
_symmetry_cell_setting 'triclinic'
loop_
_space_group_symop_operation_xyz
x,y,z
-x,-y,-z
loop_
_atom_site_type_symbol
_atom_site_label
_atom_site_fract_x
_atom_site_fract_y
_atom_site_fract_z
Si Si1 0.534201 0.732082 0.744166
Si Si2 0.177151 0.304169 0.046384
Si Si3 0.647265 0.234078 0.216366
Si Si4 0.181979 0.377818 0.699200
Si Si5 0.442605 0.668500 0.447633
Si Si6 0.996098 0.676505 0.030016
Si Si7 0.276168 0.909215 0.805855
O O1 0.313031 0.493024 0.691931
O O2 0.456461 0.713912 0.541078
O O3 0.699424 0.690689 0.015097
O O4 0.718244 0.038718 0.800508
O O5 0.432824 0.417858 0.322478
O O6 0.103815 0.289392 0.057411
O O7 0.172996 0.493155 0.821138
O O8 0.000000 0.000000 0.000000
O O9 0.728441 0.370688 0.321717
O O10 0.595528 0.969973 0.367985
O O11 0.393369 0.084750 0.925130
O O12 0.891039 0.110440 0.487996
O O13 0.167520 0.430198 0.209876
O O14 0.922793 0.411137 0.181212
O O15 0.500000 0.000000 0.000000
#
# Coordination Sequence:
#
# PCOD9062967 Si02
#       7
#     2   2   2   2   2   2   2
#     4  11  25  48  68 107 138 193 240 283 360 416
#     4  12  23  43  66 105 145 183 234 285 357 417
#     4  11  25  44  71 105 138 185 235 293 354 413
#     4  11  26  46  75  97 147 188 236 298 345 427
#     4  11  25  42  69 104 142 188 236 292 355 418
#     4  11  24  43  68 101 143 184 231 294 348 424
#     4  11  25  44  70 106 137 186 235 286 359 414
#
# _framework density 24.841293
#
# number of rings (size 3 to 8) (size 9 to 14) (size 15 to 20)
#    0.000    0.857    4.286    1.286    2.000    9.143 
#    0.000    5.714    0.000    0.000    0.000    0.000 
#    0.000    0.000    0.000    0.000    0.000    0.000 
#
# Total GULP energy -78301.386226 kJ/mol
# GULP energy per Si atom -5592.956159 kJ/mol
# Density = 2.478475 g / cm^3
# Si number density = 24.841293 Si / 1000 Ang^3
#
#
#
# Elastic Constant Matrix: (Units=GPa)
#
#
# Indices 1 2 3 4 5 6 
#
# 1 80.4790 19.6259 57.9830 9.7105 -28.1560 4.1409
# 2 19.6259 96.2914 18.0164 -5.3643 -13.4834 -1.3360
# 3 57.9830 18.0164 126.6900 14.5952 -22.1534 -7.7206
# 4 9.7105 -5.3643 14.5952 50.2853 -6.5539 -17.4820
# 5 -28.1560 -13.4834 -22.1534 -6.5539 41.1717 1.0967
# 6 4.1409 -1.3360 -7.7206 -17.4820 1.0967 29.7867
#
#
#
# Elastic Compliance Matrix: (Units=1/GPa)
#
#
# Indices 1 2 3 4 5 6 
#
# 1 0.023876 -0.002062 -0.008870 -0.003778 0.010500 -0.008315
# 2 -0.002062 0.011427 -0.000436 0.002859 0.002492 0.002272
# 3 -0.008870 -0.000436 0.012365 -0.000447 0.000263 0.004146
# 4 -0.003778 0.002859 -0.000447 0.026973 0.001971 0.016296
# 5 0.010500 0.002492 0.000263 0.001971 0.032776 -0.001329
# 6 -0.008315 0.002272 0.004146 0.016296 -0.001329 0.045518
#
#
# Mechanical properties :
#
#
# Convention : Reuss Voigt Hill
#
# Bulk Modulus (GPa) = 40.11010 54.96788 47.53899
# Shear Modulus (GPa) = 27.17665 38.10442 32.64054
#
# Velocity S-wave (km/s) = 3.31117 3.92077 3.62880
# Velocity P-wave (km/s) = 5.54978 6.53240 6.06104
#
# Compressibility (1/GPa) = 0.02493138
#
# Stress axis : x y z
#
# Youngs Moduli (GPa) = 41.88287 87.51377 80.87418
#
# Poissons Ratio (x) = 0.18049 0.71732
# Poissons Ratio (y) = 0.08638 0.03528
# Poissons Ratio (z) = 0.37148 0.03818
#
# Static dielectric constant tensor:
#      x y z
#    x 1.926410 -0.007480 0.014770 
#    y -0.007480 2.002050 -0.022750 
#    z 0.014770 -0.022750 2.085140 
# 
# From -- ./inp_files/543016.got.cif
#   From: 2010.05.17/outbox.cif.g08.bks.cpg/sg2_272_cif.got.tgz:543016.got - 2010.06.03 11:33:40.
