data_PCOD9062286
_publ_section_title
;
Structure prediction by ZEFSAII (Michael W. Deem and Ramdas Pophale) SiO2 
 PCOD9062286
Probable space group: P -1
;
_chemical_formula_sum "Si O2"
_cell_formula_units_Z 14
_cell_length_a 5.090658
_cell_length_b 13.666373
_cell_length_c 9.083322
_cell_angle_alpha 58.965674
_cell_angle_beta 90.820715
_cell_angle_gamma 81.805372
_cell_volume 533.069334
_symmetry_space_group_name_H-M "P -1"
_symmetry_group_IT_number 2
_symmetry_cell_setting 'triclinic'
loop_
_space_group_symop_operation_xyz
x,y,z
-x,-y,-z
loop_
_atom_site_type_symbol
_atom_site_label
_atom_site_fract_x
_atom_site_fract_y
_atom_site_fract_z
Si Si1 0.970755 0.250724 0.662547
Si Si2 0.460251 0.445601 0.882046
Si Si3 0.594537 0.980623 0.182968
Si Si4 0.266093 0.873939 0.478044
Si Si5 0.193816 0.205177 0.300463
Si Si6 0.901505 0.565448 0.675646
Si Si7 0.172753 0.789041 0.972896
O O1 0.210092 0.143229 0.716173
O O2 0.054714 0.371137 0.525748
O O3 0.742417 0.228724 0.562369
O O4 0.887069 0.235772 0.839234
O O5 0.645327 0.505283 0.727664
O O6 0.159461 0.476322 0.800345
O O7 0.500000 0.500000 0.000000
O O8 0.584555 0.310876 0.994649
O O9 0.353427 0.973012 0.299599
O O10 0.748900 0.084825 0.137040
O O11 0.500000 0.000000 0.000000
O O12 0.501490 0.842159 0.621673
O O13 0.988592 0.878443 0.556917
O O14 0.130646 0.329161 0.287101
O O15 0.076617 0.220326 0.125376
#
# Coordination Sequence:
#
# PCOD9062286 Si02
#       7
#     2   2   2   2   2   2   2
#     4  11  26  51  78 109 152 206 254 313 383 451
#     4  12  27  48  77 112 154 199 251 318 377 443
#     4  12  26  47  80 113 160 198 250 319 387 448
#     4  11  23  49  74 108 153 205 241 311 384 451
#     4  11  25  46  77 113 148 198 255 311 377 449
#     4  11  24  49  78 102 155 202 249 311 382 441
#     4  12  29  46  76 121 149 203 258 314 377 461
#
# _framework density 26.263000999999999
#
# number of rings (size 3 to 8) (size 9 to 14) (size 15 to 20)
#    0.000    0.571    5.714    2.571    0.000    4.571 
#    0.000    0.000    0.000    0.000    0.000    0.000 
#    0.000    0.000    0.000    0.000    0.000    0.000 
#
# Total GULP energy -78636.629854 kJ/mol
# GULP energy per Si atom -5616.902132 kJ/mol
# Density = 2.620323 g / cm^3
# Si number density = 26.263001 Si / 1000 Ang^3
#
#
#
# Elastic Constant Matrix: (Units=GPa)
#
#
# Indices 1 2 3 4 5 6 
#
# 1 111.1906 23.6214 35.4386 -4.2426 -1.4011 9.2150
# 2 23.6214 87.8321 25.7634 -16.8049 2.7351 -2.9955
# 3 35.4386 25.7634 147.0259 6.0342 -11.6523 6.1154
# 4 -4.2426 -16.8049 6.0342 58.2059 0.8992 1.6369
# 5 -1.4011 2.7351 -11.6523 0.8992 58.8664 -11.4858
# 6 9.2150 -2.9955 6.1154 1.6369 -11.4858 42.4594
#
#
#
# Elastic Compliance Matrix: (Units=1/GPa)
#
#
# Indices 1 2 3 4 5 6 
#
# 1 0.010305 -0.002144 -0.002072 0.000418 -0.000509 -0.002243
# 2 -0.002144 0.013405 -0.002118 0.003910 -0.000895 0.001323
# 3 -0.002072 -0.002118 0.007876 -0.001594 0.001564 -0.000349
# 4 0.000418 0.003910 -0.001594 0.018534 -0.000875 -0.000536
# 5 -0.000509 -0.000895 0.001564 -0.000875 0.018277 0.004800
# 6 -0.002243 0.001323 -0.000349 -0.000536 0.004800 0.025502
#
#
# Mechanical properties :
#
#
# Convention : Reuss Voigt Hill
#
# Bulk Modulus (GPa) = 52.86645 57.29949 55.08297
# Shear Modulus (GPa) = 44.29767 49.32135 46.80951
#
# Velocity S-wave (km/s) = 4.11139 4.33827 4.22635
# Velocity P-wave (km/s) = 6.53540 6.85266 6.69591
#
# Compressibility (1/GPa) = 0.01891559
#
# Stress axis : x y z
#
# Youngs Moduli (GPa) = 97.04005 74.60172 126.96518
#
# Poissons Ratio (x) = 0.15996 0.26312
# Poissons Ratio (y) = 0.20808 0.26897
# Poissons Ratio (z) = 0.20110 0.15804
#
# Static dielectric constant tensor:
#      x y z
#    x 2.061450 -0.036250 -0.056500 
#    y -0.036250 2.077610 -0.002530 
#    z -0.056500 -0.002530 2.045100 
# 
# From -- ./inp_files/134852.got.cif
#   From: 2010.05.17/outbox.cif.g08.bks.cpg/sg2_68_cif.got.tgz:134852.got - 2010.06.03 11:33:40.
