data_PCOD9062552
_publ_section_title
;
Structure prediction by ZEFSAII (Michael W. Deem and Ramdas Pophale) SiO2 
 PCOD9062552
Probable space group: P -1
;
_chemical_formula_sum "Si O2"
_cell_formula_units_Z 14
_cell_length_a 4.896234
_cell_length_b 23.231040
_cell_length_c 13.856714
_cell_angle_alpha 157.398506
_cell_angle_beta 111.845722
_cell_angle_gamma 65.432436
_cell_volume 550.589559
_symmetry_space_group_name_H-M "P -1"
_symmetry_group_IT_number 2
_symmetry_cell_setting 'triclinic'
loop_
_space_group_symop_operation_xyz
x,y,z
-x,-y,-z
loop_
_atom_site_type_symbol
_atom_site_label
_atom_site_fract_x
_atom_site_fract_y
_atom_site_fract_z
Si Si1 0.343641 0.171900 0.773326
Si Si2 0.715910 0.270355 0.734598
Si Si3 0.235223 0.592302 0.767820
Si Si4 0.502995 0.034144 0.770536
Si Si5 0.058902 0.177743 0.075263
Si Si6 0.254625 0.565119 0.189274
Si Si7 0.855564 0.403265 0.550731
O O1 0.538185 0.135273 0.519400
O O2 0.290357 0.146502 0.840839
O O3 0.574922 0.286430 0.975506
O O4 0.546958 0.431452 0.006107
O O5 0.713087 0.293169 0.653862
O O6 0.000000 0.500000 0.000000
O O7 0.045274 0.224582 0.753560
O O8 0.504075 0.453513 0.554732
O O9 0.027730 0.526218 0.714649
O O10 0.064264 0.674024 0.778955
O O11 0.834132 0.063581 0.847607
O O12 0.500000 0.000000 0.500000
O O13 0.619442 0.907576 0.050793
O O14 0.016638 0.243228 0.278271
O O15 0.158657 0.597444 0.336470
#
# Coordination Sequence:
#
# PCOD9062552 Si02
#       7
#     2   2   2   2   2   2   2
#     4  11  25  44  75 115 153 191 238 304 385 452
#     4  11  26  50  72 110 149 197 246 306 372 439
#     4  11  24  41  69 107 146 190 238 303 370 438
#     4  11  25  44  74 106 149 188 238 306 377 444
#     4  11  24  46  68 109 141 194 242 302 375 436
#     4  11  29  46  76 104 148 198 255 304 360 435
#     4  12  26  45  73 100 147 196 251 299 361 441
#
# _framework density 25.427288999999998
#
# number of rings (size 3 to 8) (size 9 to 14) (size 15 to 20)
#    0.000    0.857    0.000    6.429   14.000    0.000 
#    0.000    1.429    0.000    0.000    0.000    0.000 
#    0.000    0.000    0.000    0.000    0.000    0.000 
#
# Total GULP energy -78531.462802 kJ/mol
# GULP energy per Si atom -5609.390200 kJ/mol
# Density = 2.536942 g / cm^3
# Si number density = 25.427289 Si / 1000 Ang^3
#
#
#
# Elastic Constant Matrix: (Units=GPa)
#
#
# Indices 1 2 3 4 5 6 
#
# 1 123.6625 48.9057 22.6091 2.1716 1.1217 17.4042
# 2 48.9057 129.3923 44.9160 -2.3907 3.8617 28.9738
# 3 22.6091 44.9160 104.4448 -8.3051 0.7920 10.9129
# 4 2.1716 -2.3907 -8.3051 41.5805 16.2169 -4.9911
# 5 1.1217 3.8617 0.7920 16.2169 57.1582 3.3601
# 6 17.4042 28.9738 10.9129 -4.9911 3.3601 49.9677
#
#
#
# Elastic Compliance Matrix: (Units=1/GPa)
#
#
# Indices 1 2 3 4 5 6 
#
# 1 0.009678 -0.003100 -0.000696 -0.001190 0.000459 -0.001571
# 2 -0.003100 0.011225 -0.003700 -0.000386 -0.000264 -0.004642
# 3 -0.000696 -0.003700 0.011492 0.002361 -0.000575 0.000152
# 4 -0.001190 -0.000386 0.002361 0.028170 -0.008181 0.003487
# 5 0.000459 -0.000264 -0.000575 -0.008181 0.019953 -0.002040
# 6 -0.001571 -0.004642 0.000152 0.003487 -0.002040 0.023704
#
#
# Mechanical properties :
#
#
# Convention : Reuss Voigt Hill
#
# Bulk Modulus (GPa) = 57.46030 65.59570 61.52800
# Shear Modulus (GPa) = 39.99551 45.81254 42.90402
#
# Velocity S-wave (km/s) = 3.97033 4.24926 4.11216
# Velocity P-wave (km/s) = 6.60795 7.06600 6.84081
#
# Compressibility (1/GPa) = 0.01740332
#
# Stress axis : x y z
#
# Youngs Moduli (GPa) = 103.33117 89.09029 87.01491
#
# Poissons Ratio (x) = 0.27620 0.06053
# Poissons Ratio (y) = 0.32035 0.32193
# Poissons Ratio (z) = 0.07188 0.32961
#
# Static dielectric constant tensor:
#      x y z
#    x 2.026840 0.063020 -0.056800 
#    y 0.063020 2.063100 -0.053040 
#    z -0.056800 -0.053040 2.070260 
# 
# From -- ./inp_files/486108.got.cif
#   From: 2010.05.17/outbox.cif.g08.bks.cpg/sg2_244_cif.got.tgz:486108.got - 2010.06.03 11:33:40.
