data_PCOD9062553
_publ_section_title
;
Structure prediction by ZEFSAII (Michael W. Deem and Ramdas Pophale) SiO2 
 PCOD9062553
Probable space group: P -1
;
_chemical_formula_sum "Si O2"
_cell_formula_units_Z 14
_cell_length_a 9.606759
_cell_length_b 10.728971
_cell_length_c 9.416824
_cell_angle_alpha 71.582197
_cell_angle_beta 135.333768
_cell_angle_gamma 115.028480
_cell_volume 618.063943
_symmetry_space_group_name_H-M "P -1"
_symmetry_group_IT_number 2
_symmetry_cell_setting 'triclinic'
loop_
_space_group_symop_operation_xyz
x,y,z
-x,-y,-z
loop_
_atom_site_type_symbol
_atom_site_label
_atom_site_fract_x
_atom_site_fract_y
_atom_site_fract_z
Si Si1 0.353229 0.530198 0.504893
Si Si2 0.301739 0.973145 0.205292
Si Si3 0.727162 0.768755 0.736344
Si Si4 0.251909 0.026724 0.543809
Si Si5 0.971251 0.330154 0.828431
Si Si6 0.784902 0.919234 0.184106
Si Si7 0.682701 0.613736 0.172920
O O1 0.500000 0.500000 0.500000
O O2 0.494874 0.673531 0.622853
O O3 0.302497 0.427498 0.637778
O O4 0.154227 0.560902 0.282715
O O5 0.187738 0.823526 0.237665
O O6 0.237255 0.093658 0.194217
O O7 0.549426 0.001607 0.372889
O O8 0.230640 0.979096 0.989038
O O9 0.755023 0.825735 0.576146
O O10 0.874759 0.682795 0.928872
O O11 0.025669 0.925545 0.380503
O O12 0.284193 0.037143 0.731363
O O13 0.109940 0.369689 0.773821
O O14 0.655193 0.765868 0.099783
O O15 0.500000 0.500000 0.000000
#
# Coordination Sequence:
#
# PCOD9062553 Si02
#       7
#     2   2   2   2   2   2   2
#     4  12  28  49  71 100 142 190 240 286 348 422
#     4  12  23  42  76 106 139 176 236 295 360 418
#     4  12  23  44  71 103 137 181 233 289 350 426
#     4  11  24  41  69 109 143 178 226 295 364 416
#     4  12  25  45  77 100 140 186 233 298 351 409
#     4  11  24  44  68 104 148 179 230 294 360 416
#     4  12  25  49  71 101 145 192 244 285 337 433
#
# _framework density 22.651378999999999
#
# number of rings (size 3 to 8) (size 9 to 14) (size 15 to 20)
#    0.000    0.286    5.714    3.429    2.000    0.571 
#    2.571    0.000    0.000    0.000    0.000    0.000 
#    0.000    0.000    0.000    0.000    0.000    0.000 
#
# Total GULP energy -78346.806024 kJ/mol
# GULP energy per Si atom -5596.200430 kJ/mol
# Density = 2.259982 g / cm^3
# Si number density = 22.651379 Si / 1000 Ang^3
#
#
#
# Elastic Constant Matrix: (Units=GPa)
#
#
# Indices 1 2 3 4 5 6 
#
# 1 140.9737 42.3267 57.1054 -21.7472 -9.9012 11.0090
# 2 42.3267 83.4134 20.1500 -7.0079 -6.2610 22.0973
# 3 57.1054 20.1500 115.7840 -25.5398 -0.2116 -0.0242
# 4 -21.7472 -7.0079 -25.5398 44.4356 8.7559 -0.3838
# 5 -9.9012 -6.2610 -0.2116 8.7559 43.2489 -7.1711
# 6 11.0090 22.0973 -0.0242 -0.3838 -7.1711 30.3746
#
#
#
# Elastic Compliance Matrix: (Units=1/GPa)
#
#
# Indices 1 2 3 4 5 6 
#
# 1 0.010292 -0.003842 -0.003991 0.001876 0.001300 -0.000608
# 2 -0.003842 0.017137 -0.001051 0.000179 -0.000287 -0.011141
# 3 -0.003991 -0.001051 0.011906 0.005080 -0.001725 0.001878
# 4 0.001876 0.000179 0.005080 0.027411 -0.005355 -0.001724
# 5 0.001300 -0.000287 -0.001725 -0.005355 0.025393 0.005664
# 6 -0.000608 -0.011141 0.001878 -0.001724 0.005664 0.042564
#
#
# Mechanical properties :
#
#
# Convention : Reuss Voigt Hill
#
# Bulk Modulus (GPa) = 46.36938 64.37058 55.36998
# Shear Modulus (GPa) = 31.31652 38.31776 34.81714
#
# Velocity S-wave (km/s) = 3.72229 4.11741 3.92482
# Velocity P-wave (km/s) = 6.24414 7.14728 6.71092
#
# Compressibility (1/GPa) = 0.02156595
#
# Stress axis : x y z
#
# Youngs Moduli (GPa) = 97.16217 58.35421 83.99085
#
# Poissons Ratio (x) = 0.22421 0.33525
# Poissons Ratio (y) = 0.37332 0.08825
# Poissons Ratio (z) = 0.38782 0.06132
#
# Static dielectric constant tensor:
#      x y z
#    x 1.845970 0.003840 -0.015780 
#    y 0.003840 1.827900 0.016470 
#    z -0.015780 0.016470 1.888280 
# 
# From -- ./inp_files/186218.got.cif
#   From: 2010.05.17/outbox.cif.g08.bks.cpg/sg2_94_cif.got.tgz:186218.got - 2010.06.03 11:33:40.
