data_PCOD9062715
_publ_section_title
;
Structure prediction by ZEFSAII (Michael W. Deem and Ramdas Pophale) SiO2 
 PCOD9062715
Probable space group: P -1
;
_chemical_formula_sum "Si O2"
_cell_formula_units_Z 13
_cell_length_a 12.615121
_cell_length_b 28.463065
_cell_length_c 4.990873
_cell_angle_alpha 62.863399
_cell_angle_beta 57.583908
_cell_angle_gamma 22.028443
_cell_volume 562.669046
_symmetry_space_group_name_H-M "P -1"
_symmetry_group_IT_number 2
_symmetry_cell_setting 'triclinic'
loop_
_space_group_symop_operation_xyz
x,y,z
-x,-y,-z
loop_
_atom_site_type_symbol
_atom_site_label
_atom_site_fract_x
_atom_site_fract_y
_atom_site_fract_z
Si Si1 0.548093 0.122357 0.146169
Si Si2 0.823647 0.765553 0.140642
Si Si3 0.891313 0.163616 0.956434
Si Si4 0.193790 0.521771 0.378188
Si Si5 0.134671 0.755701 0.703008
Si Si6 0.000000 0.500000 0.500000
Si Si7 0.627634 0.693818 0.036757
O O1 0.444603 0.147340 0.520746
O O2 0.534085 0.190778 0.956037
O O3 0.297272 0.195128 0.097333
O O4 0.862421 0.976419 0.028362
O O5 0.082655 0.623126 0.209624
O O6 0.940536 0.779567 0.989938
O O7 0.976255 0.177971 0.598292
O O8 0.880787 0.192630 0.188091
O O9 0.587944 0.255554 0.001887
O O10 0.519646 0.395443 0.393615
O O11 0.178368 0.489488 0.226077
O O12 0.918487 0.597981 0.712247
O O13 0.736830 0.618438 0.334782
#
# Coordination Sequence:
#
# PCOD9062715 Si02
#       7
#     2   2   2   2   2   1   2
#     4  11  25  47  70  98 136 181 225 282 331 394
#     4  11  25  47  69  99 136 180 228 277 334 394
#     4  12  27  44  70 101 137 180 228 274 334 401
#     4  11  24  42  69 101 136 170 220 282 344 398
#     4  12  27  43  70 101 137 182 225 275 332 404
#     4  12  20  42  72 100 136 172 218 286 344 400
#     4  11  25  43  71 104 136 172 223 283 348 400
#
# _framework density 23.104168999999999
#
# number of rings (size 3 to 8) (size 9 to 14) (size 15 to 20)
#    0.000    0.615    3.077    4.154    2.154    3.692 
#    0.000    7.692    0.000    0.000    0.000    0.000 
#    0.000    0.000    0.000    0.000    0.000    0.000 
#
# Total GULP energy -72589.415300 kJ/mol
# GULP energy per Si atom -5583.801177 kJ/mol
# Density = 2.305158 g / cm^3
# Si number density = 23.104169 Si / 1000 Ang^3
#
#
#
# Elastic Constant Matrix: (Units=GPa)
#
#
# Indices 1 2 3 4 5 6 
#
# 1 73.9796 8.7981 0.3543 -4.4132 -5.3471 11.9390
# 2 8.7981 140.0595 18.8349 -8.1665 -45.7380 31.9319
# 3 0.3543 18.8349 61.9521 -10.6512 9.1204 2.6348
# 4 -4.4132 -8.1665 -10.6512 21.8598 -19.7371 4.5185
# 5 -5.3471 -45.7380 9.1204 -19.7371 136.9455 -5.7226
# 6 11.9390 31.9319 2.6348 4.5185 -5.7226 20.4272
#
#
#
# Elastic Compliance Matrix: (Units=1/GPa)
#
#
# Indices 1 2 3 4 5 6 
#
# 1 0.017252 0.005421 0.000918 0.013374 0.003487 -0.020657
# 2 0.005421 0.019240 -0.001756 0.022465 0.008504 -0.035604
# 3 0.000918 -0.001756 0.018285 0.008287 -0.000665 -0.002169
# 4 0.013374 0.022465 0.008287 0.089145 0.017868 -0.058715
# 5 0.003487 0.008504 -0.000665 0.017868 0.012239 -0.015770
# 6 -0.020657 -0.035604 -0.002169 -0.058715 -0.015770 0.125533
#
#
# Mechanical properties :
#
#
# Convention : Reuss Voigt Hill
#
# Bulk Modulus (GPa) = 15.63921 36.88509 26.26215
# Shear Modulus (GPa) = 17.01592 52.38011 34.69801
#
# Velocity S-wave (km/s) = 2.71677 4.76660 3.87952
# Velocity P-wave (km/s) = 4.07736 6.80392 5.60884
#
# Compressibility (1/GPa) = 0.06394186
#
# Stress axis : x y z
#
# Youngs Moduli (GPa) = 57.96557 51.97572 54.68983
#
# Poissons Ratio (x) = -0.28176 -0.05019
# Poissons Ratio (y) = -0.31423 0.09603
# Poissons Ratio (z) = -0.05319 0.09126
#
# Static dielectric constant tensor:
#      x y z
#    x 1.430800 -0.245180 -0.206640 
#    y -0.245180 1.688010 -0.090250 
#    z -0.206640 -0.090250 1.730930 
# 
# From -- ./inp_files/84765.got.cif
#   From: 2010.05.17/outbox.cif.g08.bks.cpg/sg2_43_cif.got.tgz:84765.got - 2010.06.03 11:33:40.
