data_PCOD9062921
_publ_section_title
;
Structure prediction by ZEFSAII (Michael W. Deem and Ramdas Pophale) SiO2 
 PCOD9062921
Probable space group: P -1
;
_chemical_formula_sum "Si O2"
_cell_formula_units_Z 10
_cell_length_a 7.067776
_cell_length_b 7.103731
_cell_length_c 11.692239
_cell_angle_alpha 85.708879
_cell_angle_beta 94.365468
_cell_angle_gamma 65.211965
_cell_volume 527.698948
_symmetry_space_group_name_H-M "P -1"
_symmetry_group_IT_number 2
_symmetry_cell_setting 'triclinic'
loop_
_space_group_symop_operation_xyz
x,y,z
-x,-y,-z
loop_
_atom_site_type_symbol
_atom_site_label
_atom_site_fract_x
_atom_site_fract_y
_atom_site_fract_z
Si Si1 0.230370 0.910764 0.460173
Si Si2 0.699557 0.916558 0.158334
Si Si3 0.415223 0.193046 0.336311
Si Si4 0.416679 0.727408 0.042095
Si Si5 0.178420 0.672099 0.251868
O O1 0.407992 0.803780 0.568910
O O2 0.242718 0.756196 0.365281
O O3 0.277838 0.096626 0.401030
O O4 0.000000 0.000000 0.500000
O O5 0.538364 0.039417 0.245907
O O6 0.608344 0.775279 0.093453
O O7 0.703200 0.092248 0.063882
O O8 0.927711 0.778861 0.225071
O O9 0.273650 0.422608 0.273583
O O10 0.273515 0.735514 0.142897
O O11 0.500000 0.500000 0.000000
#
# Coordination Sequence:
#
# PCOD9062921 Si02
#       5
#     2   2   2   2   2
#     4  11  24  44  67  95 132 169 212 267 319 377
#     4  11  24  43  66  97 130 167 218 261 316 388
#     4  11  24  43  66  97 130 167 218 261 316 388
#     4  11  24  44  67  95 132 169 212 267 319 377
#     4  12  24  42  70  96 128 174 208 264 326 374
#
# _framework density 18.950198
#
# number of rings (size 3 to 8) (size 9 to 14) (size 15 to 20)
#    0.000    0.800    6.000    1.200    0.000    4.800 
#    0.000    0.000    0.000    0.000    0.000    0.000 
#    0.000    0.000    0.000    0.000    0.000    0.000 
#
# Total GULP energy -55924.937550 kJ/mol
# GULP energy per Si atom -5592.493755 kJ/mol
# Density = 1.890707 g / cm^3
# Si number density = 18.950198 Si / 1000 Ang^3
#
#
#
# Elastic Constant Matrix: (Units=GPa)
#
#
# Indices 1 2 3 4 5 6 
#
# 1 69.6505 83.2519 28.1923 -6.7582 -8.6055 -5.2872
# 2 83.2519 124.9835 58.4566 -0.5087 12.7110 -9.7814
# 3 28.1923 58.4566 97.5670 6.1475 -4.0144 -4.6965
# 4 -6.7582 -0.5087 6.1475 44.7174 0.8464 -1.9165
# 5 -8.6055 12.7110 -4.0144 0.8464 44.3988 2.8076
# 6 -5.2872 -9.7814 -4.6965 -1.9165 2.8076 15.4061
#
#
#
# Elastic Compliance Matrix: (Units=1/GPa)
#
#
# Indices 1 2 3 4 5 6 
#
# 1 0.306287 -0.252659 0.064023 0.029478 0.140577 -0.057734
# 2 -0.252659 0.220919 -0.060270 -0.022773 -0.120669 0.054337
# 3 0.064023 -0.060270 0.028336 0.003905 0.032985 -0.013180
# 4 0.029478 -0.022773 0.003905 0.025697 0.012235 -0.002184
# 5 0.140577 -0.120669 0.032985 0.012235 0.089155 -0.033039
# 6 -0.057734 0.054337 -0.013180 -0.002184 -0.033039 0.081326
#
#
# Mechanical properties :
#
#
# Convention : Reuss Voigt Hill
#
# Bulk Modulus (GPa) = 17.32132 70.22249 43.77191
# Shear Modulus (GPa) = 3.94081 29.05782 16.49932
#
# Velocity S-wave (km/s) = 1.44363 3.92009 2.95391
# Velocity P-wave (km/s) = 3.45529 7.59119 5.89768
#
# Compressibility (1/GPa) = 0.05773233
#
# Stress axis : x y z
#
# Youngs Moduli (GPa) = 3.26491 4.52655 35.29034
#
# Poissons Ratio (x) = 1.14367 -2.25941
# Poissons Ratio (y) = 0.82491 2.12694
# Poissons Ratio (z) = -0.20903 0.27281
#
# Static dielectric constant tensor:
#      x y z
#    x 1.623650 0.010830 -0.000740 
#    y 0.010830 1.621750 0.001500 
#    z -0.000740 0.001500 1.654860 
# 
# From -- ./inp_files/1443.got.cif
#   From: 2010.05.17/outbox.cif.g08.bks.cpg/sg2_1_cif.got.tgz:1443.got - 2010.06.03 11:33:40.
