data_PCOD9062378
_publ_section_title
;
Structure prediction by ZEFSAII (Michael W. Deem and Ramdas Pophale) SiO2 
 PCOD9062378
Probable space group: P -1
;
_chemical_formula_sum "Si O2"
_cell_formula_units_Z 16
_cell_length_a 27.667331
_cell_length_b 22.173100
_cell_length_c 9.777944
_cell_angle_alpha 40.489597
_cell_angle_beta 149.742087
_cell_angle_gamma 162.109305
_cell_volume 852.186879
_symmetry_space_group_name_H-M "P -1"
_symmetry_group_IT_number 2
_symmetry_cell_setting 'triclinic'
loop_
_space_group_symop_operation_xyz
x,y,z
-x,-y,-z
loop_
_atom_site_type_symbol
_atom_site_label
_atom_site_fract_x
_atom_site_fract_y
_atom_site_fract_z
Si Si1 0.498782 0.329277 0.928893
Si Si2 0.298561 0.321655 0.082010
Si Si3 0.238763 0.762855 0.795859
Si Si4 0.042297 0.395201 0.864663
Si Si5 0.224649 0.753579 0.086205
Si Si6 0.697751 0.535452 0.759672
Si Si7 0.902522 0.886893 0.747675
Si Si8 0.350615 0.996289 0.222855
O O1 0.642191 0.518207 0.056207
O O2 0.614405 0.429042 0.889427
O O3 0.279156 0.199925 0.600162
O O4 0.438728 0.175230 0.096550
O O5 0.504615 0.431602 0.405541
O O6 0.179861 0.208212 0.135619
O O7 0.133739 0.139702 0.880713
O O8 0.155074 0.583174 0.887190
O O9 0.092292 0.688446 0.454322
O O10 0.203635 0.768693 0.853172
O O11 0.500000 0.000000 0.000000
O O12 0.859031 0.190462 0.867780
O O13 0.226357 0.483261 0.114197
O O14 0.268817 0.873263 0.097004
O O15 0.443231 0.880139 0.420493
O O16 0.000000 0.500000 0.000000
O O17 0.895980 0.782374 0.837752
#
# Coordination Sequence:
#
# PCOD9062378 Si02
#       8
#     2   2   2   2   2   2   2   2
#     4   9  19  33  56  85 114 150 194 240 285 341
#     4   8  15  33  54  80 114 152 190 239 279 342
#     4  11  24  43  62  84 118 160 198 241 295 352
#     4  11  24  40  60  89 124 153 193 248 297 350
#     4  11  24  43  62  84 118 160 198 241 295 352
#     4   9  19  33  56  85 114 150 194 240 285 341
#     4   8  15  33  54  80 115 147 194 236 284 336
#     4  11  24  40  60  89 124 153 193 248 297 350
#
# _framework density 18.775227000000001
#
# number of rings (size 3 to 8) (size 9 to 14) (size 15 to 20)
#    0.000    2.250    2.500    1.500    3.500    2.000 
#    4.500    2.500    0.000    1.500    0.000    0.000 
#    0.000    0.000    0.000    0.000    0.000    0.000 
#
# Total GULP energy -89208.241467 kJ/mol
# GULP energy per Si atom -5575.515092 kJ/mol
# Density = 1.873249 g / cm^3
# Si number density = 18.775227 Si / 1000 Ang^3
#
#
#
# Elastic Constant Matrix: (Units=GPa)
#
#
# Indices 1 2 3 4 5 6 
#
# 1 76.7531 32.8505 25.2180 -6.8784 4.9830 -2.1639
# 2 32.8505 134.8408 33.2867 -1.7832 3.5089 -10.9839
# 3 25.2180 33.2867 20.4361 -4.6337 -4.7210 -8.8601
# 4 -6.8784 -1.7832 -4.6337 34.8945 -6.5425 1.8312
# 5 4.9830 3.5089 -4.7210 -6.5425 25.1557 1.4288
# 6 -2.1639 -10.9839 -8.8601 1.8312 1.4288 28.5885
#
#
#
# Elastic Compliance Matrix: (Units=1/GPa)
#
#
# Indices 1 2 3 4 5 6 
#
# 1 0.029391 0.006255 -0.056576 -0.004103 -0.017712 -0.011758
# 2 0.006255 0.015209 -0.038324 -0.005008 -0.011591 -0.004661
# 3 -0.056576 -0.038324 0.220636 0.025480 0.062051 0.044639
# 4 -0.004103 -0.005008 0.025480 0.033621 0.014880 0.002765
# 5 -0.017712 -0.011591 0.062051 0.014880 0.059854 0.009493
# 6 -0.011758 -0.004661 0.044639 0.002765 0.009493 0.045482
#
#
# Mechanical properties :
#
#
# Convention : Reuss Voigt Hill
#
# Bulk Modulus (GPa) = 11.37077 46.08226 28.72652
# Shear Modulus (GPa) = 8.18602 27.10605 17.64603
#
# Velocity S-wave (km/s) = 2.09033 3.80374 3.06903
# Velocity P-wave (km/s) = 3.44897 6.62486 5.28129
#
# Compressibility (1/GPa) = 0.08794478
#
# Stress axis : x y z
#
# Youngs Moduli (GPa) = 34.02411 65.75146 4.53236
#
# Poissons Ratio (x) = -0.41126 0.25642
# Poissons Ratio (y) = -0.21281 0.17370
# Poissons Ratio (z) = 1.92494 2.51988
#
# Static dielectric constant tensor:
#      x y z
#    x 1.639260 0.000710 -0.015810 
#    y 0.000710 1.670290 0.015160 
#    z -0.015810 0.015160 1.635090 
# 
# From -- ./inp_files/338131.got.cif
#   From: 2010.05.17/outbox.cif.g08.bks.cpg/sg2_170_cif.got.tgz:338131.got - 2010.06.03 11:33:40.
