data_PCOD9062126
_publ_section_title
;
Structure prediction by ZEFSAII (Michael W. Deem and Ramdas Pophale) SiO2 
 PCOD9062126
Probable space group: P -1
;
_chemical_formula_sum "Si O2"
_cell_formula_units_Z 12
_cell_length_a 8.777737
_cell_length_b 11.025173
_cell_length_c 10.837922
_cell_angle_alpha 44.728520
_cell_angle_beta 43.937467
_cell_angle_gamma 62.044859
_cell_volume 510.194428
_symmetry_space_group_name_H-M "P -1"
_symmetry_group_IT_number 2
_symmetry_cell_setting 'triclinic'
loop_
_space_group_symop_operation_xyz
x,y,z
-x,-y,-z
loop_
_atom_site_type_symbol
_atom_site_label
_atom_site_fract_x
_atom_site_fract_y
_atom_site_fract_z
Si Si1 0.446076 0.795930 0.710479
Si Si2 0.702286 0.782818 0.037149
Si Si3 0.999773 0.186104 0.923860
Si Si4 0.230029 0.593692 0.755739
Si Si5 0.774649 0.142282 0.654977
Si Si6 0.111545 0.329601 0.515310
O O1 0.336230 0.715652 0.709973
O O2 0.666500 0.696018 0.672992
O O3 0.500000 0.000000 0.500000
O O4 0.254974 0.770443 0.945216
O O5 0.891915 0.794869 0.020604
O O6 0.638863 0.578395 0.202464
O O7 0.481046 0.843669 0.178810
O O8 0.785961 0.933702 0.780076
O O9 0.163398 0.278992 0.661975
O O10 0.000000 0.000000 0.000000
O O11 0.181662 0.714400 0.580815
O O12 0.000000 0.500000 0.000000
O O13 0.925894 0.207154 0.637495
O O14 0.000000 0.500000 0.500000
#
# Coordination Sequence:
#
# PCOD9062126 Si02
#       6
#     2   2   2   2   2   2
#     4  12  26  48  77 108 146 207 244 303 387 445
#     4  11  23  47  74 107 145 196 251 309 375 443
#     4  12  23  47  74 103 148 195 248 298 375 445
#     4  12  26  47  71 108 151 188 250 309 369 452
#     4  11  25  45  74 108 145 198 246 307 380 444
#     4  12  26  46  73 109 151 190 249 314 368 448
#
# _framework density 23.520444000000001
#
# number of rings (size 3 to 8) (size 9 to 14) (size 15 to 20)
#    0.000    0.333    5.000    3.500    0.000    1.333 
#    3.000    0.000    0.000    0.000    0.000    0.000 
#    0.000    0.000    0.000    0.000    0.000    0.000 
#
# Total GULP energy -66818.552436 kJ/mol
# GULP energy per Si atom -5568.212703 kJ/mol
# Density = 2.346691 g / cm^3
# Si number density = 23.520444 Si / 1000 Ang^3
#
#
#
# Elastic Constant Matrix: (Units=GPa)
#
#
# Indices 1 2 3 4 5 6 
#
# 1 -5.9797 43.0394 19.4197 -48.3481 10.6927 -22.8691
# 2 43.0394 151.7342 39.7370 -5.4806 -12.2560 4.2249
# 3 19.4197 39.7370 121.9992 -12.1230 11.5489 -6.1502
# 4 -48.3481 -5.4806 -12.1230 36.7704 1.5131 -36.4214
# 5 10.6927 -12.2560 11.5489 1.5131 37.9868 9.6321
# 6 -22.8691 4.2249 -6.1502 -36.4214 9.6321 25.2750
#
#
#
# Elastic Compliance Matrix: (Units=1/GPa)
#
#
# Indices 1 2 3 4 5 6 
#
# 1 0.004310 0.000063 -0.003354 -0.013098 0.004821 -0.017638
# 2 0.000063 0.007267 -0.001927 0.004262 0.001769 0.003841
# 3 -0.003354 -0.001927 0.009869 0.000889 -0.003276 0.002219
# 4 -0.013098 0.004262 0.000889 0.008128 0.005124 -0.002587
# 5 0.004821 0.001769 -0.003276 0.005124 0.026157 0.000685
# 6 -0.017638 0.003841 0.002219 -0.002587 0.000685 0.019514
#
#
# Mechanical properties :
#
#
# Convention : Reuss Voigt Hill
#
# Bulk Modulus (GPa) = 90.82619 52.46067 71.64343
# Shear Modulus (GPa) = 55.95846 31.04360 43.50103
#
# Velocity S-wave (km/s) = 4.88294 3.63692 4.30525
# Velocity P-wave (km/s) = 8.39586 6.32368 7.43234
#
# Compressibility (1/GPa) = 0.01101004
#
# Stress axis : x y z
#
# Youngs Moduli (GPa) = 232.00216 137.60320 101.33005
#
# Poissons Ratio (x) = -0.00868 0.33984
# Poissons Ratio (y) = -0.01464 0.19531
# Poissons Ratio (z) = 0.77808 0.26523
#
# Static dielectric constant tensor:
#      x y z
#    x 1.829500 -0.088690 0.009060 
#    y -0.088690 2.024130 -0.113710 
#    z 0.009060 -0.113710 1.824110 
# 
# From -- ./inp_files/236035.got.cif
#   From: 2010.05.17/outbox.cif.g08.bks.cpg/sg2_119_cif.got.tgz:236035.got - 2010.06.03 11:33:40.
