data_PCOD9062259
_publ_section_title
;
Structure prediction by ZEFSAII (Michael W. Deem and Ramdas Pophale) SiO2 
 PCOD9062259
Probable space group: P -1
;
_chemical_formula_sum "Si O2"
_cell_formula_units_Z 13
_cell_length_a 9.917622
_cell_length_b 15.873384
_cell_length_c 9.437703
_cell_angle_alpha 133.703772
_cell_angle_beta 135.827725
_cell_angle_gamma 36.757173
_cell_volume 594.966758
_symmetry_space_group_name_H-M "P -1"
_symmetry_group_IT_number 2
_symmetry_cell_setting 'triclinic'
loop_
_space_group_symop_operation_xyz
x,y,z
-x,-y,-z
loop_
_atom_site_type_symbol
_atom_site_label
_atom_site_fract_x
_atom_site_fract_y
_atom_site_fract_z
Si Si1 0.000000 0.000000 0.000000
Si Si2 0.355086 0.942022 0.645571
Si Si3 0.850665 0.892692 0.019295
Si Si4 0.011895 0.813119 0.563276
Si Si5 0.706259 0.442552 0.973017
Si Si6 0.998648 0.545972 0.214369
Si Si7 0.547779 0.340095 0.496491
O O1 0.916258 0.972536 0.056035
O O2 0.022825 0.859791 0.782753
O O3 0.614010 0.911369 0.805685
O O4 0.391351 0.790815 0.507832
O O5 0.194353 0.041945 0.510215
O O6 0.220021 0.030677 0.790879
O O7 0.067051 0.722531 0.008410
O O8 0.940130 0.703265 0.369296
O O9 0.268592 0.730213 0.578632
O O10 0.600759 0.437398 0.737235
O O11 0.500000 0.500000 0.000000
O O12 0.807093 0.535958 0.142003
O O13 0.270845 0.430160 0.344311
O O14 0.000000 0.500000 0.000000
#
# Coordination Sequence:
#
# PCOD9062259 Si02
#       7
#     1   2   2   2   2   2   2
#     4  12  28  42  72 110 156 180 258 316 376 422
#     4  11  23  48  81 101 149 201 260 296 380 460
#     4  11  24  46  74 113 144 201 250 318 367 452
#     4  12  26  46  78 114 150 201 250 317 377 448
#     4  12  28  47  76 109 153 199 253 306 381 452
#     4  12  27  48  76 113 149 198 255 307 375 453
#     4  12  24  48  78 107 148 203 249 305 377 459
#
# _framework density 21.849958999999998
#
# number of rings (size 3 to 8) (size 9 to 14) (size 15 to 20)
#    0.000    0.308    6.154    1.846    4.308    3.692 
#    0.000    0.000    0.000    0.000    0.000    0.000 
#    0.000    0.000    0.000    0.000    0.000    0.000 
#
# Total GULP energy -72601.856755 kJ/mol
# GULP energy per Si atom -5584.758212 kJ/mol
# Density = 2.180023 g / cm^3
# Si number density = 21.849959 Si / 1000 Ang^3
#
#
#
# Elastic Constant Matrix: (Units=GPa)
#
#
# Indices 1 2 3 4 5 6 
#
# 1 108.0925 47.4219 39.8051 -3.2676 19.0877 4.4183
# 2 47.4219 92.6163 46.0905 -5.0176 16.6947 2.4871
# 3 39.8051 46.0905 128.3258 12.4537 12.1406 -17.5351
# 4 -3.2676 -5.0176 12.4537 33.2778 1.0208 16.1743
# 5 19.0877 16.6947 12.1406 1.0208 40.6967 18.0406
# 6 4.4183 2.4871 -17.5351 16.1743 18.0406 31.9270
#
#
#
# Elastic Compliance Matrix: (Units=1/GPa)
#
#
# Indices 1 2 3 4 5 6 
#
# 1 0.012960 -0.004365 -0.003382 0.004210 -0.001296 -0.004711
# 2 -0.004365 0.017359 -0.007661 0.010556 0.002020 -0.011445
# 3 -0.003382 -0.007661 0.019946 -0.024572 -0.015279 0.033101
# 4 0.004210 0.010556 -0.024572 0.074003 0.029877 -0.069272
# 5 -0.001296 0.002020 -0.015279 0.029877 0.051473 -0.052590
# 6 -0.004711 -0.011445 0.033101 -0.069272 -0.052590 0.115855
#
#
# Mechanical properties :
#
#
# Convention : Reuss Voigt Hill
#
# Bulk Modulus (GPa) = 51.40988 66.18552 58.79770
# Shear Modulus (GPa) = 15.20237 34.22811 24.71524
#
# Velocity S-wave (km/s) = 2.64059 3.96221 3.36688
# Velocity P-wave (km/s) = 5.73382 7.16162 6.48712
#
# Compressibility (1/GPa) = 0.01945151
#
# Stress axis : x y z
#
# Youngs Moduli (GPa) = 77.15781 57.60541 50.13429
#
# Poissons Ratio (x) = 0.25143 0.16957
# Poissons Ratio (y) = 0.33677 0.38406
# Poissons Ratio (z) = 0.26097 0.44129
#
# Static dielectric constant tensor:
#      x y z
#    x 1.780050 0.021460 0.022640 
#    y 0.021460 1.782840 -0.003540 
#    z 0.022640 -0.003540 1.779340 
# 
# From -- ./inp_files/159047.got.cif
#   From: 2010.05.17/outbox.cif.g08.bks.cpg/sg2_80_cif.got.tgz:159047.got - 2010.06.03 11:33:40.
