data_PCOD9062531
_publ_section_title
;
Structure prediction by ZEFSAII (Michael W. Deem and Ramdas Pophale) SiO2 
 PCOD9062531
Probable space group: P -1
;
_chemical_formula_sum "Si O2"
_cell_formula_units_Z 14
_cell_length_a 14.206789
_cell_length_b 11.128920
_cell_length_c 12.507682
_cell_angle_alpha 120.223966
_cell_angle_beta 42.871670
_cell_angle_gamma 149.992759
_cell_volume 620.779038
_symmetry_space_group_name_H-M "P -1"
_symmetry_group_IT_number 2
_symmetry_cell_setting 'triclinic'
loop_
_space_group_symop_operation_xyz
x,y,z
-x,-y,-z
loop_
_atom_site_type_symbol
_atom_site_label
_atom_site_fract_x
_atom_site_fract_y
_atom_site_fract_z
Si Si1 0.469412 0.893487 0.311266
Si Si2 0.528966 0.120513 0.926968
Si Si3 0.402482 0.436021 0.375821
Si Si4 0.089859 0.732162 0.707212
Si Si5 0.577634 0.678086 0.105549
Si Si6 0.879628 0.016680 0.712491
Si Si7 0.928193 0.974426 0.248117
O O1 0.495305 0.980995 0.211203
O O2 0.232471 0.754773 0.512398
O O3 0.432656 0.700310 0.225568
O O4 0.720630 0.110286 0.276348
O O5 0.806280 0.434560 0.839270
O O6 0.290961 0.025646 0.094444
O O7 0.500000 0.000000 0.000000
O O8 0.515502 0.577702 0.230955
O O9 0.295459 0.191188 0.330958
O O10 0.645169 0.667560 0.352090
O O11 0.148435 0.301555 0.568395
O O12 0.081413 0.878484 0.725929
O O13 0.500000 0.500000 0.000000
O O14 0.884593 0.952892 0.954258
O O15 0.955322 0.951770 0.697943
#
# Coordination Sequence:
#
# PCOD9062531 Si02
#       7
#     2   2   2   2   2   2   2
#     4  11  25  48  70 105 145 181 242 301 344 427
#     4  12  28  46  70 102 146 193 234 290 368 429
#     4  11  24  41  68 102 141 180 226 293 353 411
#     4  11  27  45  76 108 136 195 240 291 361 421
#     4  12  22  41  74 100 137 180 234 297 343 406
#     4  11  26  43  66 105 144 180 231 292 350 421
#     4  12  23  43  75 104 133 182 241 287 349 417
#
# _framework density 22.552309000000001
#
# number of rings (size 3 to 8) (size 9 to 14) (size 15 to 20)
#    0.000    0.571    4.286    3.000    4.000    2.857 
#    0.000    0.000    0.000    0.000    0.000    0.000 
#    0.000    0.000    0.000    0.000    0.000    0.000 
#
# Total GULP energy -78240.515836 kJ/mol
# GULP energy per Si atom -5588.608274 kJ/mol
# Density = 2.250098 g / cm^3
# Si number density = 22.552309 Si / 1000 Ang^3
#
#
#
# Elastic Constant Matrix: (Units=GPa)
#
#
# Indices 1 2 3 4 5 6 
#
# 1 119.1598 36.7707 35.1296 0.2646 14.0109 0.0336
# 2 36.7707 88.1087 49.5865 -16.4059 -1.3313 16.4913
# 3 35.1296 49.5865 173.1055 -15.2523 17.7067 -3.9333
# 4 0.2646 -16.4059 -15.2523 43.9875 2.5526 -0.0394
# 5 14.0109 -1.3313 17.7067 2.5526 38.1839 0.2362
# 6 0.0336 16.4913 -3.9333 -0.0394 0.2362 24.2711
#
#
#
# Elastic Compliance Matrix: (Units=1/GPa)
#
#
# Indices 1 2 3 4 5 6 
#
# 1 0.010581 -0.005324 -0.000321 -0.001936 -0.003812 0.003585
# 2 -0.005324 0.020249 -0.005046 0.005548 0.004719 -0.014606
# 3 -0.000321 -0.005046 0.007880 0.001078 -0.003814 0.004745
# 4 -0.001936 0.005548 0.001078 0.025258 -0.001263 -0.003539
# 5 -0.003812 0.004719 -0.003814 -0.001263 0.029631 -0.004110
# 6 0.003585 -0.014606 0.004745 -0.003539 -0.004110 0.051924
#
#
# Mechanical properties :
#
#
# Convention : Reuss Voigt Hill
#
# Bulk Modulus (GPa) = 57.70923 69.26084 63.48503
# Shear Modulus (GPa) = 28.95489 38.54765 33.75127
#
# Velocity S-wave (km/s) = 3.58704 4.13880 3.87276
# Velocity P-wave (km/s) = 6.54220 7.32239 6.94326
#
# Compressibility (1/GPa) = 0.01732825
#
# Stress axis : x y z
#
# Youngs Moduli (GPa) = 94.50642 49.38429 126.89830
#
# Poissons Ratio (x) = 0.26293 0.04080
# Poissons Ratio (y) = 0.50316 0.64030
# Poissons Ratio (z) = 0.03038 0.24918
#
# Static dielectric constant tensor:
#      x y z
#    x 1.905330 0.004940 -0.004770 
#    y 0.004940 1.907310 -0.038880 
#    z -0.004770 -0.038880 1.845860 
# 
# From -- ./inp_files/532592.got.cif
#   From: 2010.05.17/outbox.cif.g08.bks.cpg/sg2_267_cif.got.tgz:532592.got - 2010.06.03 11:33:40.
