data_PCOD9062325
_publ_section_title
;
Structure prediction by ZEFSAII (Michael W. Deem and Ramdas Pophale) SiO2 
 PCOD9062325
Probable space group: P -1
;
_chemical_formula_sum "Si O2"
_cell_formula_units_Z 14
_cell_length_a 12.705707
_cell_length_b 18.999468
_cell_length_c 8.974111
_cell_angle_alpha 28.531251
_cell_angle_beta 43.035411
_cell_angle_gamma 31.126508
_cell_volume 532.923144
_symmetry_space_group_name_H-M "P -1"
_symmetry_group_IT_number 2
_symmetry_cell_setting 'triclinic'
loop_
_space_group_symop_operation_xyz
x,y,z
-x,-y,-z
loop_
_atom_site_type_symbol
_atom_site_label
_atom_site_fract_x
_atom_site_fract_y
_atom_site_fract_z
Si Si1 0.651325 0.865659 0.750611
Si Si2 0.073478 0.380867 0.815283
Si Si3 0.702365 0.450201 0.073892
Si Si4 0.479230 0.186769 0.568232
Si Si5 0.812949 0.057554 0.685175
Si Si6 0.926670 0.777273 0.358785
Si Si7 0.331446 0.479858 0.689005
O O1 0.495112 0.938004 0.366418
O O2 0.736775 0.877564 0.484960
O O3 0.848644 0.736505 0.893210
O O4 0.596173 0.726843 0.056763
O O5 0.273333 0.290789 0.679771
O O6 0.963224 0.602984 0.556040
O O7 0.915591 0.365311 0.935364
O O8 0.685754 0.288087 0.416318
O O9 0.725372 0.510785 0.097955
O O10 0.525494 0.644228 0.807260
O O11 0.664672 0.056354 0.734605
O O12 0.000000 0.000000 0.500000
O O13 0.884455 0.933557 0.993337
O O14 0.139084 0.656251 0.460473
O O15 0.500000 0.500000 0.500000
#
# Coordination Sequence:
#
# PCOD9062325 Si02
#       7
#     2   2   2   2   2   2   2
#     4  11  24  53  81 121 158 211 279 330 399 493
#     4  11  23  52  81 116 159 216 268 333 401 487
#     4  12  26  51  80 114 168 212 271 337 403 478
#     4  12  29  49  85 119 163 217 276 330 409 490
#     4  12  30  51  79 124 168 213 269 339 412 485
#     4  11  25  54  87 112 163 220 269 330 407 486
#     4  11  26  49  86 121 161 209 273 342 407 473
#
# _framework density 26.270205000000001
#
# number of rings (size 3 to 8) (size 9 to 14) (size 15 to 20)
#    0.000    0.571    2.857    3.857    6.000    4.571 
#    0.000    2.143    0.000    0.000    0.000    0.000 
#    0.000    0.000    0.000    0.000    0.000    0.000 
#
# Total GULP energy -78461.647458 kJ/mol
# GULP energy per Si atom -5604.403390 kJ/mol
# Density = 2.621041 g / cm^3
# Si number density = 26.270205 Si / 1000 Ang^3
#
#
#
# Elastic Constant Matrix: (Units=GPa)
#
#
# Indices 1 2 3 4 5 6 
#
# 1 136.5828 48.5543 66.3710 0.4298 7.6216 2.3185
# 2 48.5543 154.4664 65.7823 18.4431 -6.9068 14.2107
# 3 66.3710 65.7823 236.8982 -8.6832 25.1060 9.2115
# 4 0.4298 18.4431 -8.6832 53.9826 0.5108 -3.8370
# 5 7.6216 -6.9068 25.1060 0.5108 60.0839 -6.4163
# 6 2.3185 14.2107 9.2115 -3.8370 -6.4163 52.3549
#
#
#
# Elastic Compliance Matrix: (Units=1/GPa)
#
#
# Indices 1 2 3 4 5 6 
#
# 1 0.009020 -0.002154 -0.001873 0.000402 -0.000562 0.000476
# 2 -0.002154 0.008711 -0.002076 -0.003447 0.001967 -0.001915
# 3 -0.001873 -0.002076 0.005660 0.001620 -0.002437 -0.000530
# 4 0.000402 -0.003447 0.001620 0.020110 -0.001084 0.001974
# 5 -0.000562 0.001967 -0.002437 -0.001084 0.018189 0.002069
# 6 0.000476 -0.001915 -0.000530 0.001974 0.002069 0.020091
#
#
# Mechanical properties :
#
#
# Convention : Reuss Voigt Hill
#
# Bulk Modulus (GPa) = 89.40508 98.81807 94.11157
# Shear Modulus (GPa) = 51.16917 56.43360 53.80138
#
# Velocity S-wave (km/s) = 4.41818 4.63989 4.53039
# Velocity P-wave (km/s) = 7.75460 8.14877 7.95413
#
# Compressibility (1/GPa) = 0.01118505
#
# Stress axis : x y z
#
# Youngs Moduli (GPa) = 110.86954 114.80011 176.66308
#
# Poissons Ratio (x) = 0.24733 0.33088
# Poissons Ratio (y) = 0.23886 0.36667
# Poissons Ratio (z) = 0.20765 0.23827
#
# Static dielectric constant tensor:
#      x y z
#    x 2.028640 0.006990 0.019530 
#    y 0.006990 2.179070 -0.000100 
#    z 0.019530 -0.000100 2.083410 
# 
# From -- ./inp_files/282600.got.cif
#   From: 2010.05.17/outbox.cif.g08.bks.cpg/sg2_142_cif.got.tgz:282600.got - 2010.06.03 11:33:40.
