data_PCOD9062292
_publ_section_title
;
Structure prediction by ZEFSAII (Michael W. Deem and Ramdas Pophale) SiO2 
 PCOD9062292
Probable space group: P -1
;
_chemical_formula_sum "Si O2"
_cell_formula_units_Z 10
_cell_length_a 13.438459
_cell_length_b 11.628358
_cell_length_c 5.600448
_cell_angle_alpha 67.331626
_cell_angle_beta 126.853418
_cell_angle_gamma 145.669870
_cell_volume 383.042946
_symmetry_space_group_name_H-M "P -1"
_symmetry_group_IT_number 2
_symmetry_cell_setting 'triclinic'
loop_
_space_group_symop_operation_xyz
x,y,z
-x,-y,-z
loop_
_atom_site_type_symbol
_atom_site_label
_atom_site_fract_x
_atom_site_fract_y
_atom_site_fract_z
Si Si1 0.418294 0.321255 0.263576
Si Si2 0.179514 0.803251 0.936218
Si Si3 0.476279 0.237004 0.905089
Si Si4 0.086318 0.477747 0.835806
Si Si5 0.132114 0.225760 0.610879
O O1 0.385244 0.223687 0.541815
O O2 0.653782 0.571592 0.396629
O O3 0.421645 0.245626 0.081380
O O4 0.230221 0.263707 0.976212
O O5 0.179171 0.654108 0.016015
O O6 0.011359 0.765089 0.604717
O O7 0.398249 0.033314 0.984036
O O8 0.101189 0.751324 0.137196
O O9 0.721638 0.441398 0.053618
O O10 0.000000 0.500000 0.500000
O O11 0.000000 0.000000 0.500000
#
# Coordination Sequence:
#
# PCOD9062292 Si02
#       5
#     2   2   2   2   2
#     4  11  27  48  77 112 156 196 247 318 370 456
#     4  11  25  47  71 111 145 202 246 308 378 440
#     4  12  26  50  77 111 152 196 255 309 380 448
#     4  11  26  46  75 105 152 196 256 314 366 454
#     4  11  23  49  75 114 151 200 250 308 380 451
#
# _framework density 26.106732999999998
#
# number of rings (size 3 to 8) (size 9 to 14) (size 15 to 20)
#    0.000    0.800    4.000    1.800    5.600    4.800 
#    7.200    0.000    0.000    0.000    0.000    0.000 
#    0.000    0.000    0.000    0.000    0.000    0.000 
#
# Total GULP energy -55863.274542 kJ/mol
# GULP energy per Si atom -5586.327454 kJ/mol
# Density = 2.604731 g / cm^3
# Si number density = 26.106733 Si / 1000 Ang^3
#
#
#
# Elastic Constant Matrix: (Units=GPa)
#
#
# Indices 1 2 3 4 5 6 
#
# 1 106.1991 17.5199 27.8701 -5.0507 -7.1751 -8.5221
# 2 17.5199 147.1019 21.2336 -18.3150 -30.1091 9.2820
# 3 27.8701 21.2336 128.1680 -24.6094 -14.4458 15.6839
# 4 -5.0507 -18.3150 -24.6094 42.2226 12.0714 -6.4901
# 5 -7.1751 -30.1091 -14.4458 12.0714 35.8927 -9.9028
# 6 -8.5221 9.2820 15.6839 -6.4901 -9.9028 37.1015
#
#
#
# Elastic Compliance Matrix: (Units=1/GPa)
#
#
# Indices 1 2 3 4 5 6 
#
# 1 0.010657 -0.000876 -0.002576 -0.000444 0.001644 0.004117
# 2 -0.000876 0.008414 -0.000154 0.001640 0.006186 -0.000303
# 3 -0.002576 -0.000154 0.009799 0.004554 0.000747 -0.003699
# 4 -0.000444 0.001640 0.004554 0.028959 -0.006363 0.000930
# 5 0.001644 0.006186 0.000747 -0.006363 0.037893 0.007515
# 6 0.004117 -0.000303 -0.003699 0.000930 0.007515 0.031707
#
#
# Mechanical properties :
#
#
# Convention : Reuss Voigt Hill
#
# Bulk Modulus (GPa) = 46.17230 57.19068 51.68149
# Shear Modulus (GPa) = 35.24581 44.03306 39.63944
#
# Velocity S-wave (km/s) = 3.67831 4.11135 3.90084
# Velocity P-wave (km/s) = 5.98033 6.67020 6.33466
#
# Compressibility (1/GPa) = 0.02165801
#
# Stress axis : x y z
#
# Youngs Moduli (GPa) = 93.83353 118.84877 102.04774
#
# Poissons Ratio (x) = 0.10411 0.26287
# Poissons Ratio (y) = 0.08220 0.01575
# Poissons Ratio (z) = 0.24172 0.01834
#
# Static dielectric constant tensor:
#      x y z
#    x 1.393460 0.480410 0.194190 
#    y 0.480410 1.652190 -0.100080 
#    z 0.194190 -0.100080 1.970870 
# 
# From -- ./inp_files/60155.got.cif
#   From: 2010.05.17/outbox.cif.g08.bks.cpg/sg2_31_cif.got.tgz:60155.got - 2010.06.03 11:33:40.
