data_PCOD9062478
_publ_section_title
;
Structure prediction by ZEFSAII (Michael W. Deem and Ramdas Pophale) SiO2 
 PCOD9062478
Probable space group: P -1
;
_chemical_formula_sum "Si O2"
_cell_formula_units_Z 12
_cell_length_a 21.355301
_cell_length_b 6.440192
_cell_length_c 5.982783
_cell_angle_alpha 132.924151
_cell_angle_beta 115.242880
_cell_angle_gamma 68.682450
_cell_volume 541.653157
_symmetry_space_group_name_H-M "P -1"
_symmetry_group_IT_number 2
_symmetry_cell_setting 'triclinic'
loop_
_space_group_symop_operation_xyz
x,y,z
-x,-y,-z
loop_
_atom_site_type_symbol
_atom_site_label
_atom_site_fract_x
_atom_site_fract_y
_atom_site_fract_z
Si Si1 0.116326 0.024363 0.307811
Si Si2 0.792650 0.561108 0.037746
Si Si3 0.448893 0.270143 0.192830
Si Si4 0.672554 0.394454 0.029814
Si Si5 0.671749 0.776133 0.688528
Si Si6 0.990053 0.652402 0.854793
O O1 0.144234 0.256338 0.680900
O O2 0.090007 0.200461 0.174337
O O3 0.175626 0.760281 0.202335
O O4 0.046179 0.878850 0.137463
O O5 0.741577 0.518270 0.135962
O O6 0.741641 0.726821 0.903305
O O7 0.500000 0.500000 0.500000
O O8 0.398446 0.176717 0.240850
O O9 0.394125 0.425457 0.047803
O O10 0.500000 0.000000 0.000000
O O11 0.668731 0.474649 0.341265
O O12 0.674324 0.057286 0.747450
O O13 0.000000 0.500000 0.500000
O O14 0.000000 0.500000 0.000000
#
# Coordination Sequence:
#
# PCOD9062478 Si02
#       6
#     2   2   2   2   2   2
#     4  11  24  45  70 102 136 183 232 287 350 432
#     4  11  24  45  64 102 130 177 226 279 348 410
#     4  11  24  41  64  94 132 173 224 279 332 410
#     4  11  24  42  65  95 133 173 221 282 338 408
#     4  11  24  42  65  95 133 173 221 282 338 408
#     4  11  26  50  73 107 147 188 238 300 359 429
#
# _framework density 22.154399000000002
#
# number of rings (size 3 to 8) (size 9 to 14) (size 15 to 20)
#    0.000    1.000    1.667    4.000    0.000   16.000 
#    6.000    0.000    0.000    0.000    0.000    0.000 
#    0.000    0.000    0.000    0.000    0.000    0.000 
#
# Total GULP energy -66875.987564 kJ/mol
# GULP energy per Si atom -5572.998964 kJ/mol
# Density = 2.210397 g / cm^3
# Si number density = 22.154399 Si / 1000 Ang^3
#
#
#
# Elastic Constant Matrix: (Units=GPa)
#
#
# Indices 1 2 3 4 5 6 
#
# 1 46.3671 15.8362 10.5030 -4.9054 13.3197 -8.9174
# 2 15.8362 58.5382 -5.8913 34.7772 -19.9026 22.9777
# 3 10.5030 -5.8913 77.6808 29.9908 12.1717 27.7212
# 4 -4.9054 34.7772 29.9908 21.7878 -1.1903 -19.6885
# 5 13.3197 -19.9026 12.1717 -1.1903 27.5437 17.5614
# 6 -8.9174 22.9777 27.7212 -19.6885 17.5614 10.3229
#
#
#
# Elastic Compliance Matrix: (Units=1/GPa)
#
#
# Indices 1 2 3 4 5 6 
#
# 1 0.019776 0.001324 0.004793 -0.010348 -0.007150 -0.006306
# 2 0.001324 0.007999 -0.006352 0.006629 0.000963 0.011402
# 3 0.004793 -0.006352 0.013275 -0.002649 -0.016638 0.005881
# 4 -0.010348 0.006629 -0.002649 0.020126 0.024423 -0.019743
# 5 -0.007150 0.000963 -0.016638 0.024423 0.047400 0.002301
# 6 -0.006306 0.011402 0.005881 -0.019743 0.002301 0.008682
#
#
# Mechanical properties :
#
#
# Convention : Reuss Voigt Hill
#
# Bulk Modulus (GPa) = 24.64300 24.83133 24.73716
# Shear Modulus (GPa) = 38.09430 22.74009 30.41720
#
# Velocity S-wave (km/s) = 4.15117 3.20728 3.70937
# Velocity P-wave (km/s) = 5.84156 4.99481 5.43470
#
# Compressibility (1/GPa) = 0.04057948
#
# Stress axis : x y z
#
# Youngs Moduli (GPa) = 50.56744 125.01816 75.33192
#
# Poissons Ratio (x) = -0.16557 -0.36103
# Poissons Ratio (y) = -0.06697 0.47848
# Poissons Ratio (z) = -0.24235 0.79407
#
# Static dielectric constant tensor:
#      x y z
#    x 1.835020 -0.003240 -0.051420 
#    y -0.003240 1.903900 -0.048260 
#    z -0.051420 -0.048260 1.818600 
# 
# From -- ./inp_files/6426.got.cif
#   From: 2010.05.17/outbox.cif.g08.bks.cpg/sg2_4_cif.got.tgz:6426.got - 2010.06.03 11:33:40.
