data_PCOD9062344
_publ_section_title
;
Structure prediction by ZEFSAII (Michael W. Deem and Ramdas Pophale) SiO2 
 PCOD9062344
Probable space group: P -1
;
_chemical_formula_sum "Si O2"
_cell_formula_units_Z 16
_cell_length_a 13.441295
_cell_length_b 6.220268
_cell_length_c 11.976852
_cell_angle_alpha 96.167440
_cell_angle_beta 106.793514
_cell_angle_gamma 128.894055
_cell_volume 687.790268
_symmetry_space_group_name_H-M "P -1"
_symmetry_group_IT_number 2
_symmetry_cell_setting 'triclinic'
loop_
_space_group_symop_operation_xyz
x,y,z
-x,-y,-z
loop_
_atom_site_type_symbol
_atom_site_label
_atom_site_fract_x
_atom_site_fract_y
_atom_site_fract_z
Si Si1 0.018529 0.303119 0.555024
Si Si2 0.308907 0.398731 0.249360
Si Si3 0.969462 0.198728 0.941367
Si Si4 0.190102 0.596311 0.846150
Si Si5 0.632167 0.797088 0.127726
Si Si6 0.199510 0.284226 0.451412
Si Si7 0.563055 0.461195 0.292096
Si Si8 0.586819 0.161025 0.883945
O O1 0.144327 0.477916 0.698824
O O2 0.070805 0.233059 0.463387
O O3 0.000000 0.500000 0.500000
O O4 0.868546 0.046210 0.558275
O O5 0.240869 0.376509 0.342458
O O6 0.464534 0.508908 0.314714
O O7 0.322014 0.607635 0.174765
O O8 0.199966 0.063785 0.147742
O O9 0.058654 0.323120 0.862616
O O10 0.000000 0.500000 0.000000
O O11 0.000000 0.000000 0.000000
O O12 0.229939 0.912270 0.876481
O O13 0.325025 0.693047 0.964287
O O14 0.665288 0.701904 0.240899
O O15 0.556410 0.903751 0.156230
O O16 0.500000 0.500000 0.000000
O O17 0.344181 0.519384 0.582605
O O18 0.459168 0.144831 0.178113
#
# Coordination Sequence:
#
# PCOD9062344 Si02
#       8
#     2   2   2   2   2   2   2   2
#     4  11  26  46  69 100 144 193 248 306 374 461
#     4  11  25  46  70 109 145 190 251 309 374 456
#     4  12  27  47  75 112 155 201 253 316 391 460
#     4  12  23  45  71 102 142 191 239 315 381 449
#     4  11  24  38  66 106 141 181 236 303 374 446
#     4  11  25  47  69 100 140 196 247 302 373 453
#     4  11  24  45  71 102 147 187 251 305 375 455
#     4  11  24  42  69 105 140 183 238 310 382 443
#
# _framework density 23.262906000000001
#
# number of rings (size 3 to 8) (size 9 to 14) (size 15 to 20)
#    0.000    0.750    3.750    3.000    3.500    3.500 
#    0.000    0.000    0.000    0.000    0.000    0.000 
#    0.000    0.000    0.000    0.000    0.000    0.000 
#
# Total GULP energy -89205.118313 kJ/mol
# GULP energy per Si atom -5575.319895 kJ/mol
# Density = 2.320996 g / cm^3
# Si number density = 23.262906 Si / 1000 Ang^3
#
#
#
# Elastic Constant Matrix: (Units=GPa)
#
#
# Indices 1 2 3 4 5 6 
#
# 1 55.4970 18.0278 16.6158 -15.0432 -7.6341 0.4714
# 2 18.0278 143.7698 32.2855 -37.4326 -18.9515 22.0403
# 3 16.6158 32.2855 95.9533 -20.3924 -18.7711 5.1519
# 4 -15.0432 -37.4326 -20.3924 41.6798 11.6051 0.1185
# 5 -7.6341 -18.9515 -18.7711 11.6051 27.8909 0.1087
# 6 0.4714 22.0403 5.1519 0.1185 0.1087 30.1756
#
#
#
# Elastic Compliance Matrix: (Units=1/GPa)
#
#
# Indices 1 2 3 4 5 6 
#
# 1 0.020482 -0.000547 -0.001884 0.005513 0.001671 0.000373
# 2 -0.000547 0.011063 -0.000740 0.008458 0.003382 -0.007991
# 3 -0.001884 -0.000740 0.013032 0.003253 0.006406 -0.001691
# 4 0.005513 0.008458 0.003253 0.036818 -0.005847 -0.006943
# 5 0.001671 0.003382 0.006406 -0.005847 0.045368 -0.003730
# 6 0.000373 -0.007991 -0.001691 -0.006943 -0.003730 0.039300
#
#
# Mechanical properties :
#
#
# Convention : Reuss Voigt Hill
#
# Bulk Modulus (GPa) = 26.15334 47.67536 36.91435
# Shear Modulus (GPa) = 27.00531 35.16866 31.08698
#
# Velocity S-wave (km/s) = 3.41086 3.89239 3.65955
# Velocity P-wave (km/s) = 5.17483 6.38276 5.81027
#
# Compressibility (1/GPa) = 0.03823604
#
# Stress axis : x y z
#
# Youngs Moduli (GPa) = 48.82369 90.39002 76.73326
#
# Poissons Ratio (x) = 0.04941 0.14458
# Poissons Ratio (y) = 0.02669 0.05676
# Poissons Ratio (z) = 0.09200 0.06686
#
# Static dielectric constant tensor:
#      x y z
#    x 1.936000 -0.024780 0.007110 
#    y -0.024780 2.204750 0.111180 
#    z 0.007110 0.111180 1.915470 
# 
# From -- ./inp_files/70716.got.cif
#   From: 2010.05.17/outbox.cif.g08.bks.cpg/sg2_36_cif.got.tgz:70716.got - 2010.06.03 11:33:40.
