data_PCOD9062007
_publ_section_title
;
Structure prediction by ZEFSAII (Michael W. Deem and Ramdas Pophale) SiO2 
 PCOD9062007
Probable space group: P -1
;
_chemical_formula_sum "Si O2"
_cell_formula_units_Z 14
_cell_length_a 9.288008
_cell_length_b 14.474404
_cell_length_c 11.435394
_cell_angle_alpha 150.175600
_cell_angle_beta 125.716236
_cell_angle_gamma 65.222063
_cell_volume 606.088949
_symmetry_space_group_name_H-M "P -1"
_symmetry_group_IT_number 2
_symmetry_cell_setting 'triclinic'
loop_
_space_group_symop_operation_xyz
x,y,z
-x,-y,-z
loop_
_atom_site_type_symbol
_atom_site_label
_atom_site_fract_x
_atom_site_fract_y
_atom_site_fract_z
Si Si1 0.470821 0.880456 0.670962
Si Si2 0.193232 0.488382 0.523486
Si Si3 0.909247 0.749064 0.409940
Si Si4 0.800843 0.855542 0.238861
Si Si5 0.779552 0.447598 0.661888
Si Si6 0.865679 0.957774 0.001665
Si Si7 0.393395 0.413240 0.741167
O O1 0.377842 0.715543 0.536422
O O2 0.667930 0.000332 0.933540
O O3 0.514746 0.754254 0.444647
O O4 0.338199 0.018530 0.729678
O O5 0.226595 0.574139 0.505075
O O6 0.178726 0.266404 0.250910
O O7 0.353212 0.542210 0.755092
O O8 0.000000 0.500000 0.500000
O O9 0.776511 0.783427 0.282561
O O10 0.804097 0.671721 0.392293
O O11 0.030910 0.605163 0.267293
O O12 0.042793 0.940421 0.727689
O O13 0.782649 0.662583 0.941795
O O14 0.000000 0.000000 0.500000
O O15 0.000000 0.000000 0.000000
O O16 0.500000 0.500000 0.000000
#
# Coordination Sequence:
#
# PCOD9062007 Si02
#       7
#     2   2   2   2   2   2   2
#     4  11  27  51  77 112 157 199 258 321 374 458
#     4  11  23  46  78 108 144 206 250 310 383 452
#     4  12  24  49  76 106 156 199 253 324 374 455
#     4  12  27  48  78 114 154 209 248 313 396 451
#     4  12  26  50  78 112 154 198 265 308 382 460
#     4  11  23  50  73 109 154 195 259 319 377 451
#     4  11  25  46  73 113 151 194 255 315 381 451
#
# _framework density 23.098917
#
# number of rings (size 3 to 8) (size 9 to 14) (size 15 to 20)
#    0.000    0.571    5.714    2.143    2.000    4.571 
#   18.000    0.000    0.000    0.000    0.000    0.000 
#    0.000    0.000    0.000    0.000    0.000    0.000 
#
# Total GULP energy -78316.390039 kJ/mol
# GULP energy per Si atom -5594.027860 kJ/mol
# Density = 2.304634 g / cm^3
# Si number density = 23.098917 Si / 1000 Ang^3
#
#
#
# Elastic Constant Matrix: (Units=GPa)
#
#
# Indices 1 2 3 4 5 6 
#
# 1 141.7062 60.1989 52.1935 -1.5365 -0.1473 -4.0726
# 2 60.1989 142.2903 70.3640 -15.8298 -1.2247 -7.9866
# 3 52.1935 70.3640 135.7851 -21.8407 -20.1989 -6.0595
# 4 -1.5365 -15.8298 -21.8407 39.0573 2.4176 -3.9894
# 5 -0.1473 -1.2247 -20.1989 2.4176 38.8626 -1.1946
# 6 -4.0726 -7.9866 -6.0595 -3.9894 -1.1946 52.2417
#
#
#
# Elastic Compliance Matrix: (Units=1/GPa)
#
#
# Indices 1 2 3 4 5 6 
#
# 1 0.009206 -0.002876 -0.002602 -0.002202 -0.001278 -0.000221
# 2 -0.002876 0.010659 -0.004353 0.002001 -0.002031 0.001007
# 3 -0.002602 -0.004353 0.012326 0.004763 0.005996 0.001062
# 4 -0.002202 0.002001 0.004763 0.029242 0.000802 0.002938
# 5 -0.001278 -0.002031 0.005996 0.000802 0.028760 0.001004
# 6 -0.000221 0.001007 0.001062 0.002938 0.001004 0.019649
#
#
# Mechanical properties :
#
#
# Convention : Reuss Voigt Hill
#
# Bulk Modulus (GPa) = 79.82518 87.25495 83.54006
# Shear Modulus (GPa) = 37.40227 41.83399 39.61813
#
# Velocity S-wave (km/s) = 4.02832 4.26030 4.14593
# Velocity P-wave (km/s) = 7.50130 7.87760 7.69175
#
# Compressibility (1/GPa) = 0.01252738
#
# Stress axis : x y z
#
# Youngs Moduli (GPa) = 108.62943 93.81591 81.12754
#
# Poissons Ratio (x) = 0.26983 0.21111
# Poissons Ratio (y) = 0.31244 0.35318
# Poissons Ratio (z) = 0.28268 0.40842
#
# Static dielectric constant tensor:
#      x y z
#    x 1.936900 -0.004800 0.087250 
#    y -0.004800 1.916920 -0.044270 
#    z 0.087250 -0.044270 1.932720 
# 
# From -- ./inp_files/400185.got.cif
#   From: 2010.05.17/outbox.cif.g08.bks.cpg/sg2_201_cif.got.tgz:400185.got - 2010.06.03 11:33:40.
