data_PCOD9062771
_publ_section_title
;
Structure prediction by ZEFSAII (Michael W. Deem and Ramdas Pophale) SiO2 
 PCOD9062771
Probable space group: P -1
;
_chemical_formula_sum "Si O2"
_cell_formula_units_Z 16
_cell_length_a 5.251986
_cell_length_b 10.898232
_cell_length_c 12.303000
_cell_angle_alpha 102.520501
_cell_angle_beta 65.253668
_cell_angle_gamma 90.336275
_cell_volume 621.448703
_symmetry_space_group_name_H-M "P -1"
_symmetry_group_IT_number 2
_symmetry_cell_setting 'triclinic'
loop_
_space_group_symop_operation_xyz
x,y,z
-x,-y,-z
loop_
_atom_site_type_symbol
_atom_site_label
_atom_site_fract_x
_atom_site_fract_y
_atom_site_fract_z
Si Si1 0.404579 0.855473 0.002469
Si Si2 0.277551 0.730214 0.793254
Si Si3 0.711437 0.285116 0.791578
Si Si4 0.089738 0.892270 0.550937
Si Si5 0.356674 0.165591 0.664151
Si Si6 0.018105 0.486767 0.294186
Si Si7 0.757984 0.653569 0.551386
Si Si8 0.084500 0.986765 0.799385
O O1 0.455922 0.760323 0.873772
O O2 0.447529 0.770857 0.087707
O O3 0.500000 0.000000 0.000000
O O4 0.073864 0.898954 0.085679
O O5 0.106721 0.610133 0.784961
O O6 0.458396 0.722543 0.649196
O O7 0.088873 0.861825 0.843903
O O8 0.506772 0.267383 0.724378
O O9 0.026936 0.208248 0.710692
O O10 0.789005 0.427995 0.793905
O O11 0.430124 0.868791 0.478413
O O12 0.965726 0.943004 0.697478
O O13 0.973450 0.758832 0.524611
O O14 0.000000 0.000000 0.500000
O O15 0.364815 0.043573 0.719069
O O16 0.775279 0.574920 0.421303
O O17 0.171965 0.425092 0.363651
#
# Coordination Sequence:
#
# PCOD9062771 Si02
#       8
#     2   2   2   2   2   2   2   2
#     4  11  25  48  75 105 145 189 245 314 368 435
#     4  12  25  43  74 102 143 196 247 297 370 442
#     4  11  26  47  76 106 147 198 244 303 371 433
#     4  12  22  40  70 110 149 188 242 306 381 446
#     4  11  24  44  70 109 148 189 238 307 375 442
#     4  11  26  46  71 103 151 189 250 295 369 442
#     4  11  25  46  70 108 148 191 240 304 373 441
#     4  11  24  42  70 108 144 189 242 307 376 440
#
# _framework density 25.746293000000001
#
# number of rings (size 3 to 8) (size 9 to 14) (size 15 to 20)
#    0.000    0.750    2.500    4.875    3.500    1.500 
#    0.000    0.625    0.000    0.000    0.000    0.000 
#    0.000    0.000    0.000    0.000    0.000    0.000 
#
# Total GULP energy -89310.709878 kJ/mol
# GULP energy per Si atom -5581.919367 kJ/mol
# Density = 2.568769 g / cm^3
# Si number density = 25.746293 Si / 1000 Ang^3
#
#
#
# Elastic Constant Matrix: (Units=GPa)
#
#
# Indices 1 2 3 4 5 6 
#
# 1 48.2019 2.1400 10.1206 -5.4119 3.7659 10.6288
# 2 2.1400 141.0804 34.9453 -28.1902 11.3964 35.0651
# 3 10.1206 34.9453 116.9242 -12.0246 22.6399 -1.3175
# 4 -5.4119 -28.1902 -12.0246 51.7613 -4.1077 -1.8347
# 5 3.7659 11.3964 22.6399 -4.1077 34.7324 -5.0749
# 6 10.6288 35.0651 -1.3175 -1.8347 -5.0749 43.0493
#
#
#
# Elastic Compliance Matrix: (Units=1/GPa)
#
#
# Indices 1 2 3 4 5 6 
#
# 1 0.023592 0.003246 -0.002184 0.003170 -0.003106 -0.008767
# 2 0.003246 0.011687 -0.002688 0.005441 -0.003335 -0.010564
# 3 -0.002184 -0.002688 0.010669 0.000442 -0.005428 0.002434
# 4 0.003170 0.005441 0.000442 0.022535 -0.000378 -0.004285
# 5 -0.003106 -0.003335 -0.005428 -0.000378 0.034798 0.007403
# 6 -0.008767 -0.010564 0.002434 -0.004285 0.007403 0.034763
#
#
# Mechanical properties :
#
#
# Convention : Reuss Voigt Hill
#
# Bulk Modulus (GPa) = 23.42033 44.51315 33.96674
# Shear Modulus (GPa) = 32.14890 43.17530 37.66210
#
# Velocity S-wave (km/s) = 3.53750 4.09950 3.82883
# Velocity P-wave (km/s) = 5.07952 6.30354 5.72434
#
# Compressibility (1/GPa) = 0.04269795
#
# Stress axis : x y z
#
# Youngs Moduli (GPa) = 42.38685 85.56540 93.73250
#
# Poissons Ratio (x) = -0.27778 0.20468
# Poissons Ratio (y) = -0.13760 0.25192
# Poissons Ratio (z) = 0.09256 0.22997
#
# Static dielectric constant tensor:
#      x y z
#    x 2.207340 -0.068070 0.041310 
#    y -0.068070 2.106960 0.020670 
#    z 0.041310 0.020670 2.063580 
# 
# From -- ./inp_files/364709.got.cif
#   From: 2010.05.17/outbox.cif.g08.bks.cpg/sg2_183_cif.got.tgz:364709.got - 2010.06.03 11:33:40.
