data_PCOD9062406
_publ_section_title
;
Structure prediction by ZEFSAII (Michael W. Deem and Ramdas Pophale) SiO2 
 PCOD9062406
Probable space group: P -1
;
_chemical_formula_sum "Si O2"
_cell_formula_units_Z 12
_cell_length_a 8.906399
_cell_length_b 16.512287
_cell_length_c 14.234345
_cell_angle_alpha 155.254528
_cell_angle_beta 41.686729
_cell_angle_gamma 145.869267
_cell_volume 491.545737
_symmetry_space_group_name_H-M "P -1"
_symmetry_group_IT_number 2
_symmetry_cell_setting 'triclinic'
loop_
_space_group_symop_operation_xyz
x,y,z
-x,-y,-z
loop_
_atom_site_type_symbol
_atom_site_label
_atom_site_fract_x
_atom_site_fract_y
_atom_site_fract_z
Si Si1 0.002709 0.008581 0.775807
Si Si2 0.594302 0.318889 0.274172
Si Si3 0.357472 0.685345 0.963482
Si Si4 0.848687 0.156244 0.283567
Si Si5 0.896500 0.575754 0.739143
Si Si6 0.990143 0.815405 0.379329
O O1 0.687029 0.915935 0.821759
O O2 0.062737 0.925541 0.564559
O O3 0.041613 0.885762 0.716864
O O4 0.167755 0.278932 0.007189
O O5 0.500000 0.500000 0.500000
O O6 0.819354 0.381755 0.311964
O O7 0.716103 0.321878 0.118927
O O8 0.189881 0.743242 0.172610
O O9 0.650872 0.907336 0.070431
O O10 0.293171 0.431334 0.746596
O O11 0.046101 0.305878 0.264509
O O12 0.715226 0.301902 0.526898
O O13 0.000000 0.000000 0.500000
#
# Coordination Sequence:
#
# PCOD9062406 Si02
#       6
#     2   2   2   2   2   2
#     4  12  24  44  69  99 136 175 225 275 329 394
#     4  12  22  42  73 100 131 175 226 276 327 390
#     4  11  25  44  67  96 138 170 220 279 331 383
#     4  11  25  41  66 102 142 169 215 278 344 383
#     4  11  24  40  67 106 138 169 218 275 338 397
#     4  11  26  45  68  95 130 181 229 265 327 403
#
# _framework density 24.412785
#
# number of rings (size 3 to 8) (size 9 to 14) (size 15 to 20)
#    0.000    0.667    5.000    2.000    2.333    3.333 
#    0.000    1.667    0.000    0.000    0.000    0.000 
#    0.000    0.000    0.000    0.000    0.000    0.000 
#
# Total GULP energy -67147.254477 kJ/mol
# GULP energy per Si atom -5595.604540 kJ/mol
# Density = 2.435722 g / cm^3
# Si number density = 24.412785 Si / 1000 Ang^3
#
#
#
# Elastic Constant Matrix: (Units=GPa)
#
#
# Indices 1 2 3 4 5 6 
#
# 1 114.9011 34.3295 46.3458 -0.7658 9.1854 -43.6468
# 2 34.3295 70.5557 49.1782 6.5873 8.6074 -27.9587
# 3 46.3458 49.1782 219.5889 1.6459 10.2573 -34.8988
# 4 -0.7658 6.5873 1.6459 64.6691 -11.8240 -0.0978
# 5 9.1854 8.6074 10.2573 -11.8240 41.6813 -3.6026
# 6 -43.6468 -27.9587 -34.8988 -0.0978 -3.6026 27.0334
#
#
#
# Elastic Compliance Matrix: (Units=1/GPa)
#
#
# Indices 1 2 3 4 5 6 
#
# 1 0.024559 0.006571 0.001025 -0.000916 -0.003189 0.047343
# 2 0.006571 0.027259 -0.001491 -0.003438 -0.004552 0.036258
# 3 0.001025 -0.001491 0.005925 -0.000111 -0.000745 0.007662
# 4 -0.000916 -0.003438 -0.000111 0.016771 0.005316 -0.004410
# 5 -0.003189 -0.004552 -0.000745 0.005316 0.026700 -0.007242
# 6 0.047343 0.036258 0.007662 -0.004410 -0.007242 0.159837
#
#
# Mechanical properties :
#
#
# Convention : Reuss Voigt Hill
#
# Bulk Modulus (GPa) = 14.29528 73.86141 44.07834
# Shear Modulus (GPa) = 18.37162 45.02292 31.69727
#
# Velocity S-wave (km/s) = 2.74622 4.29912 3.60722
# Velocity P-wave (km/s) = 3.99049 7.41378 5.95349
#
# Compressibility (1/GPa) = 0.06995317
#
# Stress axis : x y z
#
# Youngs Moduli (GPa) = 40.71803 36.68490 168.77963
#
# Poissons Ratio (x) = -0.24106 -0.17299
# Poissons Ratio (y) = -0.26756 0.25164
# Poissons Ratio (z) = -0.04173 0.05470
#
# Static dielectric constant tensor:
#      x y z
#    x 1.932820 0.060580 -0.040850 
#    y 0.060580 2.006440 0.037450 
#    z -0.040850 0.037450 2.052420 
# 
# From -- ./inp_files/159449.got.cif
#   From: 2010.05.17/outbox.cif.g08.bks.cpg/sg2_80_cif.got.tgz:159449.got - 2010.06.03 11:33:40.
