data_PCOD9062685
_publ_section_title
;
Structure prediction by ZEFSAII (Michael W. Deem and Ramdas Pophale) SiO2 
 PCOD9062685
Probable space group: P -1
;
_chemical_formula_sum "Si O2"
_cell_formula_units_Z 16
_cell_length_a 16.980755
_cell_length_b 5.394939
_cell_length_c 13.801964
_cell_angle_alpha 74.414164
_cell_angle_beta 32.379852
_cell_angle_gamma 70.828943
_cell_volume 639.478680
_symmetry_space_group_name_H-M "P -1"
_symmetry_group_IT_number 2
_symmetry_cell_setting 'triclinic'
loop_
_space_group_symop_operation_xyz
x,y,z
-x,-y,-z
loop_
_atom_site_type_symbol
_atom_site_label
_atom_site_fract_x
_atom_site_fract_y
_atom_site_fract_z
Si Si1 0.214628 0.212568 0.907388
Si Si2 0.071790 0.947822 0.825579
Si Si3 0.464620 0.746114 0.760955
Si Si4 0.829629 0.788002 0.836606
Si Si5 0.642109 0.471570 0.425652
Si Si6 0.991509 0.763940 0.329034
Si Si7 0.571582 0.668508 0.009213
Si Si8 0.650015 0.895749 0.721133
O O1 0.260380 0.347146 0.750097
O O2 0.329010 0.930366 0.824771
O O3 0.233219 0.312504 0.986202
O O4 0.036511 0.234139 0.086219
O O5 0.244451 0.807578 0.661036
O O6 0.036661 0.187025 0.762362
O O7 0.000000 0.000000 0.000000
O O8 0.574622 0.569811 0.589025
O O9 0.568607 0.897753 0.701699
O O10 0.394273 0.586933 0.932970
O O11 0.686228 0.850975 0.910520
O O12 0.937439 0.541071 0.701409
O O13 0.909526 0.031407 0.753521
O O14 0.500000 0.500000 0.500000
O O15 0.827081 0.836654 0.536472
O O16 0.599463 0.674138 0.865500
O O17 0.411607 0.827244 0.193219
#
# Coordination Sequence:
#
# PCOD9062685 Si02
#       8
#     2   2   2   2   2   2   2   2
#     4  11  24  44  68 105 137 197 231 295 362 440
#     4  11  24  42  68 101 145 190 241 291 360 438
#     4  12  25  45  74 104 148 188 247 309 366 437
#     4  11  24  48  74 104 151 191 251 297 371 438
#     4  12  26  41  70 105 145 190 242 300 363 437
#     4  11  27  45  73 110 145 197 240 313 363 436
#     4  11  24  49  73 102 142 193 248 301 376 440
#     4  11  27  44  74 106 142 192 245 307 372 440
#
# _framework density 25.020379999999999
#
# number of rings (size 3 to 8) (size 9 to 14) (size 15 to 20)
#    0.000    0.750    1.250    5.625    8.750    1.000 
#    0.000    0.000    0.000    0.000    0.000    0.000 
#    0.000    0.000    0.000    0.000    0.000    0.000 
#
# Total GULP energy -89494.085018 kJ/mol
# GULP energy per Si atom -5593.380314 kJ/mol
# Density = 2.496343 g / cm^3
# Si number density = 25.020380 Si / 1000 Ang^3
#
#
#
# Elastic Constant Matrix: (Units=GPa)
#
#
# Indices 1 2 3 4 5 6 
#
# 1 90.3141 3.8305 13.2057 12.0144 9.9592 0.6680
# 2 3.8305 77.3775 21.7345 12.3573 -1.8657 -1.2839
# 3 13.2057 21.7345 137.5925 23.9958 -2.6861 4.6802
# 4 12.0144 12.3573 23.9958 51.6179 -9.7782 8.5413
# 5 9.9592 -1.8657 -2.6861 -9.7782 33.1780 2.5384
# 6 0.6680 -1.2839 4.6802 8.5413 2.5384 30.3184
#
#
#
# Elastic Compliance Matrix: (Units=1/GPa)
#
#
# Indices 1 2 3 4 5 6 
#
# 1 0.012188 0.000079 -0.000680 -0.003679 -0.004892 0.001286
# 2 0.000079 0.013894 -0.001766 -0.002873 -0.000362 0.001699
# 3 -0.000680 -0.001766 0.008178 -0.003178 -0.000138 -0.000415
# 4 -0.003679 -0.002873 -0.003178 0.025266 0.008698 -0.007396
# 5 -0.004892 -0.000362 -0.000138 0.008698 0.034541 -0.005228
# 6 0.001286 0.001699 -0.000415 -0.007396 -0.005228 0.035612
#
#
# Mechanical properties :
#
#
# Convention : Reuss Voigt Hill
#
# Bulk Modulus (GPa) = 33.86947 42.53614 38.20281
# Shear Modulus (GPa) = 34.66076 40.79043 37.72560
#
# Velocity S-wave (km/s) = 3.72600 4.04206 3.88725
# Velocity P-wave (km/s) = 5.66365 6.23072 5.95394
#
# Compressibility (1/GPa) = 0.02952512
#
# Stress axis : x y z
#
# Youngs Moduli (GPa) = 82.04886 71.97265 122.28342
#
# Poissons Ratio (x) = -0.00565 0.08313
# Poissons Ratio (y) = -0.00644 0.21596
# Poissons Ratio (z) = 0.05578 0.12711
#
# Static dielectric constant tensor:
#      x y z
#    x 2.056540 0.076010 -0.014790 
#    y 0.076010 2.104590 -0.073970 
#    z -0.014790 -0.073970 1.966380 
# 
# From -- ./inp_files/99708.got.cif
#   From: 2010.05.17/outbox.cif.g08.bks.cpg/sg2_50_cif.got.tgz:99708.got - 2010.06.03 11:33:40.
