data_PCOD9062858
_publ_section_title
;
Structure prediction by ZEFSAII (Michael W. Deem and Ramdas Pophale) SiO2 
 PCOD9062858
Probable space group: P -1
;
_chemical_formula_sum "Si O2"
_cell_formula_units_Z 14
_cell_length_a 9.924471
_cell_length_b 27.869113
_cell_length_c 11.905214
_cell_angle_alpha 17.332650
_cell_angle_beta 36.924191
_cell_angle_gamma 33.331050
_cell_volume 538.996797
_symmetry_space_group_name_H-M "P -1"
_symmetry_group_IT_number 2
_symmetry_cell_setting 'triclinic'
loop_
_space_group_symop_operation_xyz
x,y,z
-x,-y,-z
loop_
_atom_site_type_symbol
_atom_site_label
_atom_site_fract_x
_atom_site_fract_y
_atom_site_fract_z
Si Si1 0.317691 0.245926 0.544564
Si Si2 0.471751 0.142831 0.910637
Si Si3 0.215436 0.643461 0.799954
Si Si4 0.264884 0.037078 0.652511
Si Si5 0.929771 0.336685 0.897015
Si Si6 0.522847 0.356110 0.956705
Si Si7 0.811071 0.264179 0.749288
O O1 0.463841 0.127566 0.816276
O O2 0.065139 0.231613 0.713517
O O3 0.255213 0.446103 0.184165
O O4 0.456020 0.237797 0.354016
O O5 0.568830 0.300472 0.511631
O O6 0.194910 0.181496 0.046593
O O7 0.648319 0.998487 0.198619
O O8 0.951512 0.773146 0.640351
O O9 0.191211 0.681060 0.866084
O O10 0.500000 0.000000 0.500000
O O11 0.167359 0.892668 0.996961
O O12 0.000000 0.500000 0.500000
O O13 0.752061 0.372601 0.829752
O O14 0.614051 0.280237 0.942609
O O15 0.300759 0.547062 0.661150
#
# Coordination Sequence:
#
# PCOD9062858 Si02
#       7
#     2   2   2   2   2   2   2
#     4  12  24  45  79 107 136 182 245 293 347 413
#     4  12  24  44  72 108 140 186 239 295 344 420
#     4  12  25  43  74 108 141 184 235 296 349 420
#     4  12  28  48  72 103 147 190 231 288 368 419
#     4  12  20  38  69 108 140 178 234 290 347 406
#     4  11  24  42  74 108 139 182 238 294 348 410
#     4  11  26  47  70 105 148 183 233 293 354 422
#
# _framework density 25.974181000000002
#
# number of rings (size 3 to 8) (size 9 to 14) (size 15 to 20)
#    0.000    0.286    5.714    3.857    4.000    0.000 
#    2.571    3.571    0.000    0.000    0.000    0.000 
#    0.000    0.000    0.000    0.000    0.000    0.000 
#
# Total GULP energy -78571.045493 kJ/mol
# GULP energy per Si atom -5612.217535 kJ/mol
# Density = 2.591506 g / cm^3
# Si number density = 25.974181 Si / 1000 Ang^3
#
#
#
# Elastic Constant Matrix: (Units=GPa)
#
#
# Indices 1 2 3 4 5 6 
#
# 1 205.9309 47.0169 59.4921 -14.4562 21.2694 -5.8648
# 2 47.0169 102.0116 27.8314 10.8114 4.8072 -2.8887
# 3 59.4921 27.8314 78.4240 8.0367 11.5185 3.5336
# 4 -14.4562 10.8114 8.0367 41.7123 0.8445 -0.9240
# 5 21.2694 4.8072 11.5185 0.8445 62.5288 -1.3073
# 6 -5.8648 -2.8887 3.5336 -0.9240 -1.3073 57.1474
#
#
#
# Elastic Compliance Matrix: (Units=1/GPa)
#
#
# Indices 1 2 3 4 5 6 
#
# 1 0.007289 -0.002352 -0.004954 0.004141 -0.001422 0.000970
# 2 -0.002352 0.011832 -0.002128 -0.003469 0.000339 0.000440
# 3 -0.004954 -0.002128 0.018037 -0.004652 -0.001449 -0.001840
# 4 0.004141 -0.003469 -0.004652 0.027238 -0.000633 0.000963
# 5 -0.001422 0.000339 -0.001449 -0.000633 0.016733 0.000333
# 6 0.000970 0.000440 -0.001840 0.000963 0.000333 0.017757
#
#
# Mechanical properties :
#
#
# Convention : Reuss Voigt Hill
#
# Bulk Modulus (GPa) = 54.67916 72.78304 63.73110
# Shear Modulus (GPa) = 40.37034 49.07945 44.72489
#
# Velocity S-wave (km/s) = 3.94667 4.35161 4.15408
# Velocity P-wave (km/s) = 6.47034 7.30279 6.89914
#
# Compressibility (1/GPa) = 0.01828850
#
# Stress axis : x y z
#
# Youngs Moduli (GPa) = 137.18433 84.51725 55.44088
#
# Poissons Ratio (x) = 0.19882 0.27466
# Poissons Ratio (y) = 0.32272 0.11800
# Poissons Ratio (z) = 0.67963 0.17989
#
# Static dielectric constant tensor:
#      x y z
#    x 1.967820 0.008930 -0.002130 
#    y 0.008930 2.103130 0.002770 
#    z -0.002130 0.002770 2.050940 
# 
# From -- ./inp_files/180536.got.cif
#   From: 2010.05.17/outbox.cif.g08.bks.cpg/sg2_91_cif.got.tgz:180536.got - 2010.06.03 11:33:40.
