data_PCOD9062847
_publ_section_title
;
Structure prediction by ZEFSAII (Michael W. Deem and Ramdas Pophale) SiO2 
 PCOD9062847
Probable space group: P -1
;
_chemical_formula_sum "Si O2"
_cell_formula_units_Z 16
_cell_length_a 15.004485
_cell_length_b 11.311026
_cell_length_c 14.986047
_cell_angle_alpha 58.274818
_cell_angle_beta 28.273355
_cell_angle_gamma 41.730090
_cell_volume 728.933374
_symmetry_space_group_name_H-M "P -1"
_symmetry_group_IT_number 2
_symmetry_cell_setting 'triclinic'
loop_
_space_group_symop_operation_xyz
x,y,z
-x,-y,-z
loop_
_atom_site_type_symbol
_atom_site_label
_atom_site_fract_x
_atom_site_fract_y
_atom_site_fract_z
Si Si1 0.688226 0.683048 0.711889
Si Si2 0.189822 0.895788 0.739254
Si Si3 0.382707 0.692473 0.134441
Si Si4 0.219569 0.072352 0.202696
Si Si5 0.836878 0.896018 0.562045
Si Si6 0.339710 0.714155 0.870193
Si Si7 0.972212 0.292554 0.148940
Si Si8 0.422315 0.257279 0.690810
O O1 0.668195 0.850828 0.697933
O O2 0.534082 0.725213 0.741222
O O3 0.000000 0.500000 0.500000
O O4 0.556036 0.653689 0.914374
O O5 0.314590 0.759457 0.770385
O O6 0.071301 0.834347 0.806673
O O7 0.412419 0.855947 0.500039
O O8 0.949353 0.115291 0.898618
O O9 0.544428 0.496948 0.126132
O O10 0.104456 0.768843 0.320170
O O11 0.287208 0.878443 0.197336
O O12 0.078587 0.160262 0.387458
O O13 0.069886 0.218278 0.193503
O O14 0.500000 0.000000 0.000000
O O15 0.643107 0.126288 0.625386
O O16 0.709774 0.523203 0.285673
O O17 0.189792 0.269203 0.912155
#
# Coordination Sequence:
#
# PCOD9062847 Si02
#       8
#     2   2   2   2   2   2   2   2
#     4  12  25  45  71 103 145 182 230 297 349 413
#     4  11  26  48  67  98 147 185 238 289 340 424
#     4  12  26  44  73 105 143 182 240 287 362 416
#     4  12  24  46  73 108 142 175 236 303 353 415
#     4  12  25  45  74 109 141 185 233 299 351 419
#     4  11  26  47  70 103 140 194 238 285 347 423
#     4  11  25  46  70 101 143 185 232 289 355 421
#     4  11  24  42  73  99 138 189 230 283 361 411
#
# _framework density 21.949878999999999
#
# number of rings (size 3 to 8) (size 9 to 14) (size 15 to 20)
#    0.000    0.500    3.750    4.125    5.250    0.000 
#    2.250    1.875    0.000    0.000    0.000    0.000 
#    0.000    0.000    0.000    0.000    0.000    0.000 
#
# Total GULP energy -89569.754760 kJ/mol
# GULP energy per Si atom -5598.109672 kJ/mol
# Density = 2.189992 g / cm^3
# Si number density = 21.949879 Si / 1000 Ang^3
#
#
#
# Elastic Constant Matrix: (Units=GPa)
#
#
# Indices 1 2 3 4 5 6 
#
# 1 90.3080 28.1585 19.9778 -20.0849 1.9224 -21.5023
# 2 28.1585 129.5850 29.2579 4.7375 -6.8035 -18.2852
# 3 19.9778 29.2579 136.9057 -11.8246 3.8365 -16.6811
# 4 -20.0849 4.7375 -11.8246 34.8019 -1.4900 -2.7306
# 5 1.9224 -6.8035 3.8365 -1.4900 26.8882 -0.0826
# 6 -21.5023 -18.2852 -16.6811 -2.7306 -0.0826 37.0563
#
#
#
# Elastic Compliance Matrix: (Units=1/GPa)
#
#
# Indices 1 2 3 4 5 6 
#
# 1 0.016432 -0.002809 0.000257 0.010607 -0.001307 0.009043
# 2 -0.002809 0.009233 -0.001674 -0.003183 0.002605 0.001943
# 3 0.000257 -0.001674 0.008367 0.003420 -0.001436 0.003338
# 4 0.010607 -0.003183 0.003420 0.037147 0.000034 0.008861
# 5 -0.001307 0.002605 -0.001436 0.000034 0.038150 -0.000031
# 6 0.009043 0.001943 0.003338 0.008861 -0.000031 0.035348
#
#
# Mechanical properties :
#
#
# Convention : Reuss Voigt Hill
#
# Bulk Modulus (GPa) = 39.09415 56.84301 47.96858
# Shear Modulus (GPa) = 30.92973 38.37623 34.65298
#
# Velocity S-wave (km/s) = 3.75788 4.18587 3.97764
# Velocity P-wave (km/s) = 6.05625 7.02246 6.55718
#
# Compressibility (1/GPa) = 0.02557927
#
# Stress axis : x y z
#
# Youngs Moduli (GPa) = 60.85601 108.30999 119.51815
#
# Poissons Ratio (x) = 0.30425 -0.03072
# Poissons Ratio (y) = 0.17095 0.20011
# Poissons Ratio (z) = -0.01564 0.18135
#
# Static dielectric constant tensor:
#      x y z
#    x 1.802510 0.026590 0.014720 
#    y 0.026590 1.834550 -0.004230 
#    z 0.014720 -0.004230 1.842650 
# 
# From -- ./inp_files/532457.got.cif
#   From: 2010.05.17/outbox.cif.g08.bks.cpg/sg2_267_cif.got.tgz:532457.got - 2010.06.03 11:33:40.
