data_PCOD9062884
_publ_section_title
;
Structure prediction by ZEFSAII (Michael W. Deem and Ramdas Pophale) SiO2 
 PCOD9062884
Probable space group: P -1
;
_chemical_formula_sum "Si O2"
_cell_formula_units_Z 12
_cell_length_a 6.689597
_cell_length_b 6.802214
_cell_length_c 21.396020
_cell_angle_alpha 67.619824
_cell_angle_beta 47.061409
_cell_angle_gamma 91.527926
_cell_volume 597.347965
_symmetry_space_group_name_H-M "P -1"
_symmetry_group_IT_number 2
_symmetry_cell_setting 'triclinic'
loop_
_space_group_symop_operation_xyz
x,y,z
-x,-y,-z
loop_
_atom_site_type_symbol
_atom_site_label
_atom_site_fract_x
_atom_site_fract_y
_atom_site_fract_z
Si Si1 0.843110 0.065259 0.287030
Si Si2 0.849008 0.599311 0.930504
Si Si3 0.847940 0.722739 0.060282
Si Si4 0.185726 0.965247 0.407432
Si Si5 0.809453 0.601656 0.717384
Si Si6 0.860744 0.639451 0.403493
O O1 0.483901 0.954542 0.371534
O O2 0.976488 0.183561 0.178540
O O3 0.969317 0.269836 0.287666
O O4 0.935268 0.861630 0.314645
O O5 0.982209 0.404753 0.920852
O O6 0.500000 0.500000 0.000000
O O7 0.877600 0.671270 0.987735
O O8 0.497625 0.606953 0.168486
O O9 0.000000 0.000000 0.000000
O O10 0.276644 0.199552 0.318146
O O11 0.000000 0.000000 0.500000
O O12 0.993783 0.748454 0.429500
O O13 0.981747 0.515198 0.640470
O O14 0.500000 0.500000 0.500000
#
# Coordination Sequence:
#
# PCOD9062884 Si02
#       6
#     2   2   2   2   2   2
#     4  11  24  43  67  94 129 175 210 262 325 382
#     4  11  24  45  66  94 134 170 212 261 325 382
#     4  11  26  41  67  98 131 168 216 268 315 381
#     4  11  24  44  68  90 128 173 214 266 327 381
#     4  11  24  43  64  97 132 166 216 267 319 381
#     4  11  26  43  66  99 131 165 217 271 317 380
#
# _framework density 20.088797
#
# number of rings (size 3 to 8) (size 9 to 14) (size 15 to 20)
#    0.000    1.000    3.333    2.000    4.667    8.667 
#    0.000    0.000    0.000    0.000    0.000    0.000 
#    0.000    0.000    0.000    0.000    0.000    0.000 
#
# Total GULP energy -67105.247745 kJ/mol
# GULP energy per Si atom -5592.103979 kJ/mol
# Density = 2.004307 g / cm^3
# Si number density = 20.088797 Si / 1000 Ang^3
#
#
#
# Elastic Constant Matrix: (Units=GPa)
#
#
# Indices 1 2 3 4 5 6 
#
# 1 106.5026 32.3147 12.6859 -3.6749 -13.4277 6.9775
# 2 32.3147 100.0287 21.0083 -4.8534 -16.3401 7.9511
# 3 12.6859 21.0083 78.6397 -6.3931 -1.7613 11.3928
# 4 -3.6749 -4.8534 -6.3931 34.6782 -0.9548 -1.2337
# 5 -13.4277 -16.3401 -1.7613 -0.9548 39.8330 -5.1258
# 6 6.9775 7.9511 11.3928 -1.2337 -5.1258 30.0081
#
#
#
# Elastic Compliance Matrix: (Units=1/GPa)
#
#
# Indices 1 2 3 4 5 6 
#
# 1 0.010711 -0.002819 -0.000720 0.000634 0.002303 -0.001051
# 2 -0.002819 0.012183 -0.002497 0.001019 0.003842 -0.000926
# 3 -0.000720 -0.002497 0.014321 0.002013 -0.001194 -0.004730
# 4 0.000634 0.001019 0.002013 0.029468 0.001463 0.000280
# 5 0.002303 0.003842 -0.001194 0.001463 0.027919 0.003729
# 6 -0.001051 -0.000926 -0.004730 0.000280 0.003729 0.036258
#
#
# Mechanical properties :
#
#
# Convention : Reuss Voigt Hill
#
# Bulk Modulus (GPa) = 39.76842 46.35430 43.06136
# Shear Modulus (GPa) = 33.04406 35.51467 34.27937
#
# Velocity S-wave (km/s) = 4.06014 4.20918 4.13533
# Velocity P-wave (km/s) = 6.46675 6.83723 6.65457
#
# Compressibility (1/GPa) = 0.02514558
#
# Stress axis : x y z
#
# Youngs Moduli (GPa) = 93.35787 82.08260 69.82544
#
# Poissons Ratio (x) = 0.23138 0.05024
# Poissons Ratio (y) = 0.26316 0.17434
# Poissons Ratio (z) = 0.06717 0.20494
#
# Static dielectric constant tensor:
#      x y z
#    x 1.713400 -0.012670 -0.011190 
#    y -0.012670 1.677810 -0.017090 
#    z -0.011190 -0.017090 1.729260 
# 
# From -- ./inp_files/3196.got.cif
#   From: 2010.05.17/outbox.cif.g08.bks.cpg/sg2_2_cif.got.tgz:3196.got - 2010.06.03 11:33:40.
