data_PCOD9062772
_publ_section_title
;
Structure prediction by ZEFSAII (Michael W. Deem and Ramdas Pophale) SiO2 
 PCOD9062772
Probable space group: P -1
;
_chemical_formula_sum "Si O2"
_cell_formula_units_Z 12
_cell_length_a 7.122324
_cell_length_b 14.852744
_cell_length_c 5.160787
_cell_angle_alpha 75.341009
_cell_angle_beta 81.157377
_cell_angle_gamma 60.221670
_cell_volume 458.170011
_symmetry_space_group_name_H-M "P -1"
_symmetry_group_IT_number 2
_symmetry_cell_setting 'triclinic'
loop_
_space_group_symop_operation_xyz
x,y,z
-x,-y,-z
loop_
_atom_site_type_symbol
_atom_site_label
_atom_site_fract_x
_atom_site_fract_y
_atom_site_fract_z
Si Si1 0.898203 0.274300 0.398670
Si Si2 0.175810 0.311948 0.667406
Si Si3 0.519595 0.107179 0.933438
Si Si4 0.492671 0.396089 0.685326
Si Si5 0.786637 0.103386 0.380974
Si Si6 0.818610 0.474977 0.942807
O O1 0.728232 0.299821 0.653425
O O2 0.868661 0.189835 0.298710
O O3 0.824214 0.378355 0.170140
O O4 0.125154 0.253167 0.488167
O O5 0.293868 0.218120 0.921447
O O6 0.330754 0.366201 0.580620
O O7 0.939429 0.412553 0.702403
O O8 0.615104 0.122479 0.630892
O O9 0.679894 0.096342 0.140722
O O10 0.500000 0.000000 0.000000
O O11 0.500000 0.500000 0.500000
O O12 0.401845 0.425005 0.977535
O O13 0.000000 0.000000 0.500000
O O14 0.000000 0.500000 0.000000
#
# Coordination Sequence:
#
# PCOD9062772 Si02
#       6
#     2   2   2   2   2   2
#     4  11  24  42  72 104 151 193 248 309 367 444
#     4  11  24  42  70 108 147 194 248 302 378 432
#     4  12  28  50  79 111 153 192 244 311 373 449
#     4   9  20  43  64 103 149 195 249 306 363 433
#     4  12  28  50  79 112 150 194 247 305 377 448
#     4   9  22  39  66 101 145 196 243 306 358 435
#
# _framework density 26.19115
#
# number of rings (size 3 to 8) (size 9 to 14) (size 15 to 20)
#    0.000    1.333    1.667    2.000    7.000    6.667 
#    0.000   10.000    0.000    0.000    0.000    0.000 
#    0.000    0.000    0.000    0.000    0.000    0.000 
#
# Total GULP energy -67070.238478 kJ/mol
# GULP energy per Si atom -5589.186540 kJ/mol
# Density = 2.613154 g / cm^3
# Si number density = 26.191150 Si / 1000 Ang^3
#
#
#
# Elastic Constant Matrix: (Units=GPa)
#
#
# Indices 1 2 3 4 5 6 
#
# 1 191.4776 67.6188 61.0104 8.8433 40.7515 44.8591
# 2 67.6188 145.8867 18.4540 -9.5133 12.1830 34.0575
# 3 61.0104 18.4540 95.5780 11.1069 9.3239 10.9961
# 4 8.8433 -9.5133 11.1069 29.7055 4.6136 1.7999
# 5 40.7515 12.1830 9.3239 4.6136 59.1411 7.2780
# 6 44.8591 34.0575 10.9961 1.7999 7.2780 73.6570
#
#
#
# Elastic Compliance Matrix: (Units=1/GPa)
#
#
# Indices 1 2 3 4 5 6 
#
# 1 0.009473 -0.002705 -0.004555 -0.001042 -0.004760 -0.003343
# 2 -0.002705 0.008981 -0.000168 0.003892 0.000054 -0.002581
# 3 -0.004555 -0.000168 0.013661 -0.004046 0.001238 0.000789
# 4 -0.001042 0.003892 -0.004046 0.037149 -0.002190 -0.001253
# 5 -0.004760 0.000054 0.001238 -0.002190 0.020059 0.000760
# 6 -0.003343 -0.002581 0.000789 -0.001253 0.000760 0.016644
#
#
# Mechanical properties :
#
#
# Convention : Reuss Voigt Hill
#
# Bulk Modulus (GPa) = 57.93664 80.78987 69.36326
# Shear Modulus (GPa) = 39.50150 51.55800 45.52975
#
# Velocity S-wave (km/s) = 3.88777 4.44162 4.17389
# Velocity P-wave (km/s) = 6.50551 7.56421 7.05475
#
# Compressibility (1/GPa) = 0.01726023
#
# Stress axis : x y z
#
# Youngs Moduli (GPa) = 105.55925 111.34146 73.19929
#
# Poissons Ratio (x) = 0.30115 0.33342
# Poissons Ratio (y) = 0.28551 0.01232
# Poissons Ratio (z) = 0.48082 0.01874
#
# Static dielectric constant tensor:
#      x y z
#    x 1.965530 -0.069190 -0.109250 
#    y -0.069190 2.108930 0.114510 
#    z -0.109250 0.114510 2.145920 
# 
# From -- ./inp_files/4554.got.cif
#   From: 2010.05.17/outbox.cif.g08.bks.cpg/sg2_3_cif.got.tgz:4554.got - 2010.06.03 11:33:40.
