data_PCOD9062289
_publ_section_title
;
Structure prediction by ZEFSAII (Michael W. Deem and Ramdas Pophale) SiO2 
 PCOD9062289
Probable space group: P -1
;
_chemical_formula_sum "Si O2"
_cell_formula_units_Z 15
_cell_length_a 7.806495
_cell_length_b 11.323658
_cell_length_c 10.258410
_cell_angle_alpha 76.663048
_cell_angle_beta 50.330143
_cell_angle_gamma 55.655145
_cell_volume 564.234908
_symmetry_space_group_name_H-M "P -1"
_symmetry_group_IT_number 2
_symmetry_cell_setting 'triclinic'
loop_
_space_group_symop_operation_xyz
x,y,z
-x,-y,-z
loop_
_atom_site_type_symbol
_atom_site_label
_atom_site_fract_x
_atom_site_fract_y
_atom_site_fract_z
Si Si1 0.500000 0.500000 0.500000
Si Si2 0.900605 0.403266 0.937868
Si Si3 0.422887 0.887908 0.699975
Si Si4 0.353209 0.686968 0.133018
Si Si5 0.578099 0.843884 0.334303
Si Si6 0.843644 0.248065 0.221940
Si Si7 0.701501 0.033726 0.825295
Si Si8 0.977204 0.371582 0.480473
O O1 0.574227 0.382861 0.378224
O O2 0.820233 0.409507 0.411222
O O3 0.675095 0.573705 0.022600
O O4 0.970049 0.320151 0.062488
O O5 0.742491 0.355716 0.936352
O O6 0.190229 0.327096 0.749647
O O7 0.457517 0.879823 0.527371
O O8 0.232949 0.832229 0.825266
O O9 0.719810 0.771694 0.640148
O O10 0.315411 0.049984 0.756741
O O11 0.195014 0.664382 0.331022
O O12 0.281061 0.849439 0.128760
O O13 0.380206 0.895079 0.296104
O O14 0.026272 0.123418 0.267278
O O15 0.500000 0.000000 0.000000
O O16 0.000000 0.500000 0.500000
#
# Coordination Sequence:
#
# PCOD9062289 Si02
#       8
#     1   2   2   2   2   2   2   2
#     4  12  26  46  74 118 152 196 256 316 380 458
#     4  11  23  49  75 104 142 200 258 311 373 460
#     4  11  25  45  74 107 147 204 249 318 383 460
#     4  11  26  46  78 109 147 199 261 312 380 465
#     4  11  25  45  71 105 149 197 254 310 387 447
#     4  12  26  47  76 107 154 201 254 319 385 453
#     4  12  28  48  71 113 156 200 254 326 381 451
#     4  12  24  49  75 112 153 200 252 315 384 450
#
# _framework density 26.584671
#
# number of rings (size 3 to 8) (size 9 to 14) (size 15 to 20)
#    0.000    0.533    5.333    1.600    5.600    2.133 
#    7.200    0.000    0.000    0.000    0.000    0.000 
#    0.000    0.000    0.000    0.000    0.000    0.000 
#
# Total GULP energy -83822.450521 kJ/mol
# GULP energy per Si atom -5588.163368 kJ/mol
# Density = 2.652416 g / cm^3
# Si number density = 26.584671 Si / 1000 Ang^3
#
#
#
# Elastic Constant Matrix: (Units=GPa)
#
#
# Indices 1 2 3 4 5 6 
#
# 1 116.8501 11.5968 1.3538 -11.2551 5.4774 -17.2207
# 2 11.5968 125.7766 30.3398 14.1280 -1.3893 -2.1529
# 3 1.3538 30.3398 69.6999 0.2288 -10.4246 -1.9972
# 4 -11.2551 14.1280 0.2288 39.8774 -1.9947 -2.8552
# 5 5.4774 -1.3893 -10.4246 -1.9947 26.2818 3.6087
# 6 -17.2207 -2.1529 -1.9972 -2.8552 3.6087 62.5928
#
#
#
# Elastic Compliance Matrix: (Units=1/GPa)
#
#
# Indices 1 2 3 4 5 6 
#
# 1 0.009510 -0.001238 0.000103 0.003219 -0.002153 0.002848
# 2 -0.001238 0.009505 -0.004286 -0.003770 -0.001191 -0.000254
# 3 0.000103 -0.004286 0.017210 0.001793 0.006697 0.000126
# 4 0.003219 -0.003770 0.001793 0.027535 0.001660 0.001973
# 5 -0.002153 -0.001191 0.006697 0.001660 0.041594 -0.002742
# 6 0.002848 -0.000254 0.000126 0.001973 -0.002742 0.017003
#
#
# Mechanical properties :
#
#
# Convention : Reuss Voigt Hill
#
# Bulk Modulus (GPa) = 39.39674 44.32303 41.85988
# Shear Modulus (GPa) = 35.29547 43.68615 39.49081
#
# Velocity S-wave (km/s) = 3.64766 4.05814 3.85836
# Velocity P-wave (km/s) = 5.70895 6.21825 5.96903
#
# Compressibility (1/GPa) = 0.02538281
#
# Stress axis : x y z
#
# Youngs Moduli (GPa) = 105.14822 105.21116 58.10444
#
# Poissons Ratio (x) = 0.13029 -0.00600
# Poissons Ratio (y) = 0.13021 0.24905
# Poissons Ratio (z) = -0.01086 0.45096
#
# Static dielectric constant tensor:
#      x y z
#    x 2.085380 -0.003390 -0.067840 
#    y -0.003390 2.042190 0.009780 
#    z -0.067840 0.009780 2.061230 
# 
# From -- ./inp_files/392451.got.cif
#   From: 2010.05.17/outbox.cif.g08.bks.cpg/sg2_197_cif.got.tgz:392451.got - 2010.06.03 11:33:40.
