data_PCOD9062842
_publ_section_title
;
Structure prediction by ZEFSAII (Michael W. Deem and Ramdas Pophale) SiO2 
 PCOD9062842
Probable space group: P -1
;
_chemical_formula_sum "Si O2"
_cell_formula_units_Z 14
_cell_length_a 23.186453
_cell_length_b 28.357162
_cell_length_c 14.175232
_cell_angle_alpha 161.239783
_cell_angle_beta 20.321609
_cell_angle_gamma 168.307341
_cell_volume 599.485974
_symmetry_space_group_name_H-M "P -1"
_symmetry_group_IT_number 2
_symmetry_cell_setting 'triclinic'
loop_
_space_group_symop_operation_xyz
x,y,z
-x,-y,-z
loop_
_atom_site_type_symbol
_atom_site_label
_atom_site_fract_x
_atom_site_fract_y
_atom_site_fract_z
Si Si1 0.744503 0.056679 0.355996
Si Si2 0.835758 0.279672 0.135186
Si Si3 0.684386 0.686266 0.796031
Si Si4 0.756664 0.055260 0.654906
Si Si5 0.832666 0.208247 0.307084
Si Si6 0.899630 0.763576 0.220817
Si Si7 0.396541 0.538432 0.312214
O O1 0.462936 0.956144 0.602832
O O2 0.765860 0.050780 0.197922
O O3 0.702296 0.874412 0.130168
O O4 0.061410 0.339356 0.434409
O O5 0.496025 0.071479 0.266619
O O6 0.020323 0.543737 0.399317
O O7 0.929009 0.201060 0.896895
O O8 0.878158 0.272638 0.946160
O O9 0.440819 0.480841 0.702510
O O10 0.587286 0.533127 0.749225
O O11 0.990429 0.844292 0.595740
O O12 0.595365 0.822742 0.530314
O O13 0.041047 0.286203 0.059749
O O14 0.000000 0.000000 0.500000
O O15 0.500000 0.500000 0.000000
#
# Coordination Sequence:
#
# PCOD9062842 Si02
#       7
#     2   2   2   2   2   2   2
#     4  11  24  42  73 113 142 203 250 300 377 447
#     4  11  25  50  74 105 156 199 248 314 376 435
#     4  12  27  43  77 114 146 205 246 307 387 437
#     4  11  27  48  75 111 152 201 251 312 370 448
#     4  11  25  47  76 106 152 195 251 312 374 447
#     4  12  28  48  76 112 151 196 251 314 374 450
#     4  12  24  43  72 112 160 188 253 310 365 450
#
# _framework density 23.353338999999998
#
# number of rings (size 3 to 8) (size 9 to 14) (size 15 to 20)
#    0.000    0.571    4.286    2.571    4.000    2.857 
#    0.000    3.571    0.000    0.000    0.000    0.000 
#    0.000    0.000    0.000    0.000    0.000    0.000 
#
# Total GULP energy -78372.388648 kJ/mol
# GULP energy per Si atom -5598.027761 kJ/mol
# Density = 2.330019 g / cm^3
# Si number density = 23.353339 Si / 1000 Ang^3
#
#
#
# Elastic Constant Matrix: (Units=GPa)
#
#
# Indices 1 2 3 4 5 6 
#
# 1 122.1068 55.6682 49.1179 -12.0261 -34.5780 16.4943
# 2 55.6682 135.0022 42.8235 -13.4683 -15.3288 20.6061
# 3 49.1179 42.8235 74.2159 9.9000 -20.2080 17.1371
# 4 -12.0261 -13.4683 9.9000 48.1595 10.5618 -11.2822
# 5 -34.5780 -15.3288 -20.2080 10.5618 34.9760 1.8412
# 6 16.4943 20.6061 17.1371 -11.2822 1.8412 32.4462
#
#
#
# Elastic Compliance Matrix: (Units=1/GPa)
#
#
# Indices 1 2 3 4 5 6 
#
# 1 0.014985 -0.002877 -0.004407 0.000500 0.011062 -0.003917
# 2 -0.002877 0.010420 -0.004746 0.003266 -0.001933 -0.001402
# 3 -0.004407 -0.004746 0.029679 -0.016114 0.016469 -0.016959
# 4 0.000500 0.003266 -0.016114 0.033612 -0.018530 0.018921
# 5 0.011062 -0.001933 0.016469 -0.018530 0.054984 -0.022658
# 6 -0.003917 -0.001402 -0.016959 0.018921 -0.022658 0.050524
#
#
# Mechanical properties :
#
#
# Convention : Reuss Voigt Hill
#
# Bulk Modulus (GPa) = 32.23471 69.61601 50.92536
# Shear Modulus (GPa) = 21.87161 35.36401 28.61781
#
# Velocity S-wave (km/s) = 3.06363 3.89562 3.50441
# Velocity P-wave (km/s) = 5.13298 7.07878 6.18290
#
# Compressibility (1/GPa) = 0.03102246
#
# Stress axis : x y z
#
# Youngs Moduli (GPa) = 66.73292 95.97161 33.69336
#
# Poissons Ratio (x) = 0.27614 0.14850
# Poissons Ratio (y) = 0.19201 0.15991
# Poissons Ratio (z) = 0.29412 0.45550
#
# Static dielectric constant tensor:
#      x y z
#    x 1.910230 0.005790 -0.004990 
#    y 0.005790 1.908670 0.023030 
#    z -0.004990 0.023030 1.872340 
# 
# From -- ./inp_files/543479.got.cif
#   From: 2010.05.17/outbox.cif.g08.bks.cpg/sg2_272_cif.got.tgz:543479.got - 2010.06.03 11:33:40.
