data_PCOD9062415
_publ_section_title
;
Structure prediction by ZEFSAII (Michael W. Deem and Ramdas Pophale) SiO2 
 PCOD9062415
Probable space group: P -1
;
_chemical_formula_sum "Si O2"
_cell_formula_units_Z 16
_cell_length_a 22.594389
_cell_length_b 11.133675
_cell_length_c 6.618043
_cell_angle_alpha 63.884891
_cell_angle_beta 79.427303
_cell_angle_gamma 31.073100
_cell_volume 701.052095
_symmetry_space_group_name_H-M "P -1"
_symmetry_group_IT_number 2
_symmetry_cell_setting 'triclinic'
loop_
_space_group_symop_operation_xyz
x,y,z
-x,-y,-z
loop_
_atom_site_type_symbol
_atom_site_label
_atom_site_fract_x
_atom_site_fract_y
_atom_site_fract_z
Si Si1 0.367382 0.787663 0.258490
Si Si2 0.412881 0.214850 0.210077
Si Si3 0.014241 0.284999 0.684845
Si Si4 0.207942 0.650621 0.586313
Si Si5 0.897124 0.690552 0.743384
Si Si6 0.981293 0.995624 0.242788
Si Si7 0.381281 0.076402 0.989145
Si Si8 0.724784 0.284604 0.828165
O O1 0.500000 0.500000 0.500000
O O2 0.349845 0.709551 0.152190
O O3 0.242194 0.011395 0.309134
O O4 0.359986 0.959409 0.076496
O O5 0.375571 0.149012 0.166442
O O6 0.329222 0.492450 0.163215
O O7 0.500000 0.000000 0.500000
O O8 0.485262 0.150783 0.030634
O O9 0.058533 0.300370 0.472595
O O10 0.909800 0.526162 0.737941
O O11 0.967457 0.253745 0.603907
O O12 0.138176 0.015152 0.942963
O O13 0.071766 0.914779 0.369039
O O14 0.272702 0.651614 0.444526
O O15 0.285227 0.363654 0.718301
O O16 0.160237 0.738558 0.781475
O O17 0.000000 0.500000 0.000000
O O18 0.000000 0.000000 0.000000
#
# Coordination Sequence:
#
# PCOD9062415 Si02
#       8
#     2   2   2   2   2   2   2   2
#     4  12  29  48  73 111 150 194 249 312 371 441
#     4  11  24  48  73 102 145 191 247 301 373 444
#     4  11  25  44  75 104 139 202 242 304 373 445
#     4  11  25  42  71 105 147 191 239 309 368 447
#     4  11  26  49  72  99 151 193 246 299 376 445
#     4  11  24  40  68 109 142 180 252 301 362 435
#     4  11  27  45  74 103 143 195 244 304 373 441
#     4  12  24  47  76 108 151 194 246 305 381 443
#
# _framework density 22.822838999999998
#
# number of rings (size 3 to 8) (size 9 to 14) (size 15 to 20)
#    0.000    0.750    3.750    2.250    7.000    0.500 
#    4.500    0.000    0.000    0.000    0.000    0.000 
#    0.000    0.000    0.000    0.000    0.000    0.000 
#
# Total GULP energy -89207.493157 kJ/mol
# GULP energy per Si atom -5575.468322 kJ/mol
# Density = 2.277089 g / cm^3
# Si number density = 22.822839 Si / 1000 Ang^3
#
#
#
# Elastic Constant Matrix: (Units=GPa)
#
#
# Indices 1 2 3 4 5 6 
#
# 1 125.2791 17.7634 28.6673 -0.8843 -8.1649 19.8154
# 2 17.7634 114.9351 26.2593 3.7797 -0.2791 12.2594
# 3 28.6673 26.2593 105.5241 -4.2410 -8.0492 -0.8430
# 4 -0.8843 3.7797 -4.2410 28.3579 -2.9156 -2.5443
# 5 -8.1649 -0.2791 -8.0492 -2.9156 34.9748 -3.3310
# 6 19.8154 12.2594 -0.8430 -2.5443 -3.3310 29.3481
#
#
#
# Elastic Compliance Matrix: (Units=1/GPa)
#
#
# Indices 1 2 3 4 5 6 
#
# 1 0.009684 -0.000199 -0.002578 -0.000533 0.001006 -0.006462
# 2 -0.000199 0.009867 -0.002616 -0.002227 -0.001173 -0.004389
# 3 -0.002578 -0.002616 0.011149 0.002521 0.002502 0.003656
# 4 -0.000533 -0.002227 0.002521 0.036779 0.003980 0.005003
# 5 0.001006 -0.001173 0.002502 0.003980 0.030072 0.003641
# 6 -0.006462 -0.004389 0.003656 0.005003 0.003641 0.041222
#
#
# Mechanical properties :
#
#
# Convention : Reuss Voigt Hill
#
# Bulk Modulus (GPa) = 50.20911 54.56869 52.38890
# Shear Modulus (GPa) = 32.01112 36.73938 34.37525
#
# Velocity S-wave (km/s) = 3.74918 4.01654 3.88516
# Velocity P-wave (km/s) = 6.38663 6.74327 6.56737
#
# Compressibility (1/GPa) = 0.01991670
#
# Stress axis : x y z
#
# Youngs Moduli (GPa) = 103.26274 101.34406 89.69419
#
# Poissons Ratio (x) = 0.02012 0.23121
# Poissons Ratio (y) = 0.02050 0.23460
# Poissons Ratio (z) = 0.26618 0.26507
#
# Static dielectric constant tensor:
#      x y z
#    x 1.466800 -0.268620 0.169610 
#    y -0.268620 1.734160 0.112520 
#    z 0.169610 0.112520 1.849400 
# 
# From -- ./inp_files/123568.got.cif
#   From: 2010.05.17/outbox.cif.g08.bks.cpg/sg2_62_cif.got.tgz:123568.got - 2010.06.03 11:33:40.
