data_PCOD9062683
_publ_section_title
;
Structure prediction by ZEFSAII (Michael W. Deem and Ramdas Pophale) SiO2 
 PCOD9062683
Probable space group: P -1
;
_chemical_formula_sum "Si O2"
_cell_formula_units_Z 12
_cell_length_a 12.067159
_cell_length_b 8.675350
_cell_length_c 15.920864
_cell_angle_alpha 143.971850
_cell_angle_beta 142.138284
_cell_angle_gamma 57.200257
_cell_volume 579.657539
_symmetry_space_group_name_H-M "P -1"
_symmetry_group_IT_number 2
_symmetry_cell_setting 'triclinic'
loop_
_space_group_symop_operation_xyz
x,y,z
-x,-y,-z
loop_
_atom_site_type_symbol
_atom_site_label
_atom_site_fract_x
_atom_site_fract_y
_atom_site_fract_z
Si Si1 0.106450 0.911336 0.945780
Si Si2 0.522115 0.716175 0.351915
Si Si3 0.877331 0.704222 0.034601
Si Si4 0.132870 0.525684 0.507605
Si Si5 0.604580 0.357839 0.935186
Si Si6 0.108312 0.080615 0.688620
O O1 0.304504 0.869576 0.074686
O O2 0.991297 0.626361 0.710971
O O3 0.123188 0.116234 0.968785
O O4 0.000000 0.000000 0.000000
O O5 0.335515 0.475012 0.155413
O O6 0.701914 0.619306 0.444518
O O7 0.500000 0.000000 0.500000
O O8 0.526824 0.749512 0.269182
O O9 0.973339 0.885056 0.252192
O O10 0.000000 0.500000 0.000000
O O11 0.000000 0.500000 0.500000
O O12 0.207733 0.841876 0.664501
O O13 0.770634 0.612667 0.117119
O O14 0.500000 0.500000 0.000000
O O15 0.000000 0.000000 0.500000
#
# Coordination Sequence:
#
# PCOD9062683 Si02
#       6
#     2   2   2   2   2   2
#     4  12  24  45  68  98 134 179 223 274 341 398
#     4  11  26  46  66  99 135 180 226 274 338 401
#     4  11  25  44  71  97 139 179 221 281 337 398
#     4  12  24  44  72  98 135 179 226 281 333 399
#     4  11  25  42  67  97 136 170 223 282 329 397
#     4  11  24  42  68 101 132 176 228 270 341 398
#
# _framework density 20.701875999999999
#
# number of rings (size 3 to 8) (size 9 to 14) (size 15 to 20)
#    0.000    0.667    3.333    5.000    2.333    1.333 
#    0.000    1.667    0.000    0.000    0.000    0.000 
#    0.000    0.000    0.000    0.000    0.000    0.000 
#
# Total GULP energy -66964.691540 kJ/mol
# GULP energy per Si atom -5580.390962 kJ/mol
# Density = 2.065476 g / cm^3
# Si number density = 20.701876 Si / 1000 Ang^3
#
#
#
# Elastic Constant Matrix: (Units=GPa)
#
#
# Indices 1 2 3 4 5 6 
#
# 1 96.6535 41.1494 16.7570 -6.0542 -34.7483 2.5920
# 2 41.1494 174.8882 13.6124 0.4031 -18.6673 2.7251
# 3 16.7570 13.6124 75.5130 -0.9609 -35.8089 7.4534
# 4 -6.0542 0.4031 -0.9609 36.6534 -0.0010 -1.4215
# 5 -34.7483 -18.6673 -35.8089 -0.0010 49.4333 1.5797
# 6 2.5920 2.7251 7.4534 -1.4215 1.5797 41.3707
#
#
#
# Elastic Compliance Matrix: (Units=1/GPa)
#
#
# Indices 1 2 3 4 5 6 
#
# 1 0.015492 -0.002561 0.002982 0.002599 0.012137 -0.001713
# 2 -0.002561 0.006391 -0.000419 -0.000513 0.000317 -0.000215
# 3 0.002982 -0.000419 0.021507 0.000880 0.017667 -0.004678
# 4 0.002599 -0.000513 0.000880 0.027763 0.002253 0.000580
# 5 0.012137 0.000317 0.017667 0.002253 0.041854 -0.005485
# 6 -0.001713 -0.000215 -0.004678 0.000580 -0.005485 0.025365
#
#
# Mechanical properties :
#
#
# Convention : Reuss Voigt Hill
#
# Bulk Modulus (GPa) = 23.04455 54.45471 38.74963
# Shear Modulus (GPa) = 32.71520 43.86053 38.28787
#
# Velocity S-wave (km/s) = 3.97961 4.60790 4.30523
# Velocity P-wave (km/s) = 5.68086 7.39403 6.59333
#
# Compressibility (1/GPa) = 0.04339421
#
# Stress axis : x y z
#
# Youngs Moduli (GPa) = 64.54992 156.45903 46.49573
#
# Poissons Ratio (x) = 0.40068 -0.13863
# Poissons Ratio (y) = 0.16531 0.01948
# Poissons Ratio (z) = -0.19247 0.06555
#
# Static dielectric constant tensor:
#      x y z
#    x 1.818410 0.043710 0.026230 
#    y 0.043710 1.707850 -0.000370 
#    z 0.026230 -0.000370 1.753150 
# 
# From -- ./inp_files/145878.got.cif
#   From: 2010.05.17/outbox.cif.g08.bks.cpg/sg2_73_cif.got.tgz:145878.got - 2010.06.03 11:33:40.
