data_PCOD9062506
_publ_section_title
;
Structure prediction by ZEFSAII (Michael W. Deem and Ramdas Pophale) SiO2 
 PCOD9062506
Probable space group: P -1
;
_chemical_formula_sum "Si O2"
_cell_formula_units_Z 16
_cell_length_a 16.328243
_cell_length_b 10.377288
_cell_length_c 19.482733
_cell_angle_alpha 27.098544
_cell_angle_beta 145.414680
_cell_angle_gamma 144.669736
_cell_volume 808.502078
_symmetry_space_group_name_H-M "P -1"
_symmetry_group_IT_number 2
_symmetry_cell_setting 'triclinic'
loop_
_space_group_symop_operation_xyz
x,y,z
-x,-y,-z
loop_
_atom_site_type_symbol
_atom_site_label
_atom_site_fract_x
_atom_site_fract_y
_atom_site_fract_z
Si Si1 0.750866 0.733666 0.045292
Si Si2 0.778445 0.740846 0.410564
Si Si3 0.369107 0.099834 0.898819
Si Si4 0.214663 0.473640 0.148536
Si Si5 0.478345 0.180334 0.467361
Si Si6 0.055536 0.591337 0.109274
Si Si7 0.442456 0.639632 0.793603
Si Si8 0.068856 0.652405 0.713379
O O1 0.695637 0.529198 0.171454
O O2 0.858551 0.594913 0.142121
O O3 0.598844 0.707528 0.910587
O O4 0.834797 0.076810 0.957365
O O5 0.745492 0.850361 0.260967
O O6 0.633922 0.449060 0.463004
O O7 0.934943 0.667099 0.562990
O O8 0.802631 0.023114 0.344304
O O9 0.440781 0.405608 0.843435
O O10 0.500000 0.000000 0.000000
O O11 0.286592 0.831175 0.019980
O O12 0.344137 0.323229 0.298293
O O13 0.136458 0.421491 0.193942
O O14 0.088144 0.379729 0.046406
O O15 0.500000 0.000000 0.500000
O O16 0.434931 0.941637 0.611711
O O17 0.003867 0.426452 0.223705
#
# Coordination Sequence:
#
# PCOD9062506 Si02
#       8
#     2   2   2   2   2   2   2   2
#     4  11  25  44  68  93 136 176 223 270 335 397
#     4  11  24  41  66  98 130 172 228 265 331 394
#     4  12  20  43  72  90 130 174 221 274 322 392
#     4  11  25  42  70 100 132 176 224 273 331 391
#     4  12  25  41  68 102 133 168 222 277 332 387
#     4  11  24  44  67  97 133 178 223 269 331 399
#     4  11  25  43  66 100 129 171 227 272 332 389
#     4  11  25  42  67  96 134 178 219 272 333 399
#
# _framework density 19.789683
#
# number of rings (size 3 to 8) (size 9 to 14) (size 15 to 20)
#    0.000    0.750    5.000    1.875    3.500    2.000 
#    0.000    3.125    0.000    0.000    0.000    0.000 
#    0.000    0.000    0.000    0.000    0.000    0.000 
#
# Total GULP energy -89450.165320 kJ/mol
# GULP energy per Si atom -5590.635332 kJ/mol
# Density = 1.974464 g / cm^3
# Si number density = 19.789683 Si / 1000 Ang^3
#
#
#
# Elastic Constant Matrix: (Units=GPa)
#
#
# Indices 1 2 3 4 5 6 
#
# 1 74.3710 23.2023 29.1468 -4.8278 -8.3483 2.9396
# 2 23.2023 133.8187 45.0011 -7.8564 8.8775 8.8510
# 3 29.1468 45.0011 90.5315 -13.5573 -11.3998 4.2489
# 4 -4.8278 -7.8564 -13.5573 7.8045 0.3464 2.2429
# 5 -8.3483 8.8775 -11.3998 0.3464 27.2359 -1.5312
# 6 2.9396 8.8510 4.2489 2.2429 -1.5312 16.4137
#
#
#
# Elastic Compliance Matrix: (Units=1/GPa)
#
#
# Indices 1 2 3 4 5 6 
#
# 1 0.015936 -0.001671 -0.003400 0.002394 0.003918 -0.001035
# 2 -0.001671 0.010231 -0.004651 0.002888 -0.006110 -0.004978
# 3 -0.003400 -0.004651 0.020136 0.029364 0.008228 -0.005341
# 4 0.002394 0.002888 0.029364 0.193331 0.007640 -0.035292
# 5 0.003918 -0.006110 0.008228 0.007640 0.043451 0.003473
# 6 -0.001035 -0.004978 -0.005341 -0.035292 0.003473 0.070324
#
#
# Mechanical properties :
#
#
# Convention : Reuss Voigt Hill
#
# Bulk Modulus (GPa) = 37.22969 54.82462 46.02716
# Shear Modulus (GPa) = 13.09573 23.71554 18.40563
#
# Velocity S-wave (km/s) = 2.57523 3.46552 3.05300
# Velocity P-wave (km/s) = 5.26269 6.61641 5.97799
#
# Compressibility (1/GPa) = 0.02686028
#
# Stress axis : x y z
#
# Youngs Moduli (GPa) = 62.75194 97.74584 49.66162
#
# Poissons Ratio (x) = 0.16330 0.16884
# Poissons Ratio (y) = 0.10484 0.23096
# Poissons Ratio (z) = 0.21334 0.45459
#
# Static dielectric constant tensor:
#      x y z
#    x 1.705270 0.013950 -0.030830 
#    y 0.013950 1.684560 -0.008280 
#    z -0.030830 -0.008280 1.670660 
# 
# From -- ./inp_files/243643.got.cif
#   From: 2010.05.17/outbox.cif.g08.bks.cpg/sg2_122_cif.got.tgz:243643.got - 2010.06.03 11:33:40.
