data_PCOD9062518
_publ_section_title
;
Structure prediction by ZEFSAII (Michael W. Deem and Ramdas Pophale) SiO2 
 PCOD9062518
Probable space group: P -1
;
_chemical_formula_sum "Si O2"
_cell_formula_units_Z 14
_cell_length_a 10.644234
_cell_length_b 9.859868
_cell_length_c 12.147348
_cell_angle_alpha 142.974038
_cell_angle_beta 127.540158
_cell_angle_gamma 59.692914
_cell_volume 608.287643
_symmetry_space_group_name_H-M "P -1"
_symmetry_group_IT_number 2
_symmetry_cell_setting 'triclinic'
loop_
_space_group_symop_operation_xyz
x,y,z
-x,-y,-z
loop_
_atom_site_type_symbol
_atom_site_label
_atom_site_fract_x
_atom_site_fract_y
_atom_site_fract_z
Si Si1 0.535830 0.114318 0.976891
Si Si2 0.446927 0.321785 0.444430
Si Si3 0.902961 0.499957 0.619094
Si Si4 0.653566 0.069702 0.554272
Si Si5 0.925918 0.277980 0.982990
Si Si6 0.347036 0.374800 0.878545
Si Si7 0.894807 0.189674 0.229988
O O1 0.394280 0.275665 0.959987
O O2 0.559620 0.918278 0.773105
O O3 0.706138 0.222166 0.139239
O O4 0.500000 0.000000 0.000000
O O5 0.500000 0.500000 0.500000
O O6 0.272742 0.402971 0.440066
O O7 0.577881 0.276510 0.577301
O O8 0.924713 0.255828 0.416489
O O9 0.016922 0.650726 0.703601
O O10 0.939509 0.535881 0.791514
O O11 0.810590 0.161700 0.755310
O O12 0.500000 0.000000 0.500000
O O13 0.692000 0.841579 0.356800
O O14 0.786464 0.429566 0.063682
O O15 0.037901 0.057976 0.925174
O O16 0.500000 0.500000 0.000000
#
# Coordination Sequence:
#
# PCOD9062518 Si02
#       7
#     2   2   2   2   2   2   2
#     4  11  25  45  71 102 140 187 238 284 347 426
#     4  11  25  45  71 102 140 187 238 284 347 426
#     4  11  24  42  70 102 143 186 236 287 349 419
#     4  11  24  41  67 103 141 182 233 289 345 415
#     4  12  23  40  67 100 137 174 230 290 350 392
#     4  11  24  41  67 103 141 182 233 289 345 415
#     4  11  24  42  70 102 143 186 236 287 349 419
#
# _framework density 23.015428
#
# number of rings (size 3 to 8) (size 9 to 14) (size 15 to 20)
#    0.000    0.857    2.857    3.857    8.000    2.286 
#    0.000    2.857    0.000    5.143    0.000    0.000 
#    0.000    0.000    0.000    0.000    0.000    0.000 
#
# Total GULP energy -77951.370001 kJ/mol
# GULP energy per Si atom -5567.955000 kJ/mol
# Density = 2.296304 g / cm^3
# Si number density = 23.015428 Si / 1000 Ang^3
#
#
#
# Elastic Constant Matrix: (Units=GPa)
#
#
# Indices 1 2 3 4 5 6 
#
# 1 53.5738 11.7200 19.0484 1.6851 -9.6552 -19.5117
# 2 11.7200 47.2949 26.5253 -11.5099 -14.2403 -6.5292
# 3 19.0484 26.5253 160.9507 -10.8522 -19.9544 -18.1357
# 4 1.6851 -11.5099 -10.8522 32.9861 -10.9590 0.1345
# 5 -9.6552 -14.2403 -19.9544 -10.9590 33.1003 8.2849
# 6 -19.5117 -6.5292 -18.1357 0.1345 8.2849 42.3020
#
#
#
# Elastic Compliance Matrix: (Units=1/GPa)
#
#
# Indices 1 2 3 4 5 6 
#
# 1 0.023783 -0.004285 -0.001065 -0.002722 0.001138 0.009637
# 2 -0.004285 0.032324 -0.001651 0.016777 0.017511 -0.001178
# 3 -0.001065 -0.001651 0.007548 0.003360 0.004229 0.001651
# 4 -0.002722 0.016777 0.003360 0.045395 0.023997 -0.002070
# 5 0.001138 0.017511 0.004229 0.023997 0.049768 -0.004783
# 6 0.009637 -0.001178 0.001651 -0.002070 -0.004783 0.029554
#
#
# Mechanical properties :
#
#
# Convention : Reuss Voigt Hill
#
# Bulk Modulus (GPa) = 20.13951 41.82295 30.98123
# Shear Modulus (GPa) = 22.83879 35.31273 29.07576
#
# Velocity S-wave (km/s) = 3.15354 3.92127 3.55817
# Velocity P-wave (km/s) = 4.69352 6.22198 5.51100
#
# Compressibility (1/GPa) = 0.04965364
#
# Stress axis : x y z
#
# Youngs Moduli (GPa) = 42.04734 30.93634 132.48569
#
# Poissons Ratio (x) = 0.13257 0.14108
# Poissons Ratio (y) = 0.18019 0.21867
# Poissons Ratio (z) = 0.04477 0.05106
#
# Static dielectric constant tensor:
#      x y z
#    x 1.884000 -0.001610 -0.000040 
#    y -0.001610 1.793920 -0.087870 
#    z -0.000040 -0.087870 1.976780 
# 
# From -- ./inp_files/420205.got.cif
#   From: 2010.05.17/outbox.cif.g08.bks.cpg/sg2_211_cif.got.tgz:420205.got - 2010.06.03 11:33:40.
