data_PCOD9062411
_publ_section_title
;
Structure prediction by ZEFSAII (Michael W. Deem and Ramdas Pophale) SiO2 
 PCOD9062411
Probable space group: P -1
;
_chemical_formula_sum "Si O2"
_cell_formula_units_Z 10
_cell_length_a 10.332936
_cell_length_b 9.755630
_cell_length_c 9.722013
_cell_angle_alpha 43.395128
_cell_angle_beta 131.782152
_cell_angle_gamma 138.441582
_cell_volume 430.198664
_symmetry_space_group_name_H-M "P -1"
_symmetry_group_IT_number 2
_symmetry_cell_setting 'triclinic'
loop_
_space_group_symop_operation_xyz
x,y,z
-x,-y,-z
loop_
_atom_site_type_symbol
_atom_site_label
_atom_site_fract_x
_atom_site_fract_y
_atom_site_fract_z
Si Si1 0.811748 0.299639 0.928063
Si Si2 0.155846 0.447287 0.499901
Si Si3 0.368436 0.195216 0.725361
Si Si4 0.710577 0.018074 0.470614
Si Si5 0.447652 0.684711 0.769418
O O1 0.845157 0.370423 0.740273
O O2 0.604268 0.282242 0.843853
O O3 0.000000 0.500000 0.000000
O O4 0.769891 0.043575 0.114414
O O5 0.316103 0.383685 0.599126
O O6 0.238857 0.550989 0.632171
O O7 0.615357 0.853657 0.654871
O O8 0.311787 0.123555 0.578849
O O9 0.942036 0.211748 0.516508
O O10 0.586541 0.153646 0.266955
O O11 0.500000 0.500000 0.000000
#
# Coordination Sequence:
#
# PCOD9062411 Si02
#       5
#     2   2   2   2   2
#     4  11  24  40  68 102 136 168 211 274 339 383
#     4  12  25  43  70  99 133 174 218 273 332 388
#     4  11  25  41  70 103 133 167 222 274 327 395
#     4  11  25  46  66  99 135 170 228 269 321 401
#     4  11  28  45  67  91 137 183 218 270 327 385
#
# _framework density 23.245075
#
# number of rings (size 3 to 8) (size 9 to 14) (size 15 to 20)
#    0.000    0.800    4.000    1.800    5.600    2.400 
#    0.000    0.000    0.000    0.000    0.000    0.000 
#    0.000    0.000    0.000    0.000    0.000    0.000 
#
# Total GULP energy -56060.095139 kJ/mol
# GULP energy per Si atom -5606.009514 kJ/mol
# Density = 2.319217 g / cm^3
# Si number density = 23.245075 Si / 1000 Ang^3
#
#
#
# Elastic Constant Matrix: (Units=GPa)
#
#
# Indices 1 2 3 4 5 6 
#
# 1 46.1480 22.7443 12.4719 0.5821 4.8313 8.1456
# 2 22.7443 105.7222 10.3736 14.6811 -6.5156 29.7562
# 3 12.4719 10.3736 93.4351 -13.5172 -24.8606 13.7745
# 4 0.5821 14.6811 -13.5172 41.3693 -0.7633 2.7432
# 5 4.8313 -6.5156 -24.8606 -0.7633 22.4660 -12.0159
# 6 8.1456 29.7562 13.7745 2.7432 -12.0159 60.9072
#
#
#
# Elastic Compliance Matrix: (Units=1/GPa)
#
#
# Indices 1 2 3 4 5 6 
#
# 1 0.028946 -0.005613 -0.007772 -0.001097 -0.018031 -0.002879
# 2 -0.005613 0.012729 0.000058 -0.004056 0.002226 -0.004859
# 3 -0.007772 0.000058 0.018686 0.006552 0.023155 0.001058
# 4 -0.001097 -0.004056 0.006552 0.027850 0.007748 0.000921
# 5 -0.018031 0.002226 0.023155 0.007748 0.081211 0.011760
# 6 -0.002879 -0.004859 0.001058 0.000921 0.011760 0.021217
#
#
# Mechanical properties :
#
#
# Convention : Reuss Voigt Hill
#
# Bulk Modulus (GPa) = 29.66829 37.38721 33.52775
# Shear Modulus (GPa) = 21.87905 38.26287 30.07096
#
# Velocity S-wave (km/s) = 3.07128 4.06157 3.60063
# Velocity P-wave (km/s) = 5.03667 6.17365 5.63392
#
# Compressibility (1/GPa) = 0.03370602
#
# Stress axis : x y z
#
# Youngs Moduli (GPa) = 34.54690 78.56236 53.51497
#
# Poissons Ratio (x) = 0.44100 0.41593
# Poissons Ratio (y) = 0.19392 -0.00310
# Poissons Ratio (z) = 0.26851 -0.00456
#
# Static dielectric constant tensor:
#      x y z
#    x 1.904810 0.033940 -0.033440 
#    y 0.033940 1.859970 -0.020320 
#    z -0.033440 -0.020320 1.898700 
# 
# From -- ./inp_files/411542.got.cif
#   From: 2010.05.17/outbox.cif.g08.bks.cpg/sg2_206_cif.got.tgz:411542.got - 2010.06.03 11:33:40.
