data_PCOD9062950
_publ_section_title
;
Structure prediction by ZEFSAII (Michael W. Deem and Ramdas Pophale) SiO2 
 PCOD9062950
Probable space group: P -1
;
_chemical_formula_sum "Si O2"
_cell_formula_units_Z 12
_cell_length_a 14.807561
_cell_length_b 5.221173
_cell_length_c 13.608568
_cell_angle_alpha 104.334762
_cell_angle_beta 30.410197
_cell_angle_gamma 111.739279
_cell_volume 488.882898
_symmetry_space_group_name_H-M "P -1"
_symmetry_group_IT_number 2
_symmetry_cell_setting 'triclinic'
loop_
_space_group_symop_operation_xyz
x,y,z
-x,-y,-z
loop_
_atom_site_type_symbol
_atom_site_label
_atom_site_fract_x
_atom_site_fract_y
_atom_site_fract_z
Si Si1 0.108108 0.884928 0.018211
Si Si2 0.945628 0.686812 0.485223
Si Si3 0.160660 0.497669 0.096989
Si Si4 0.522689 0.113485 0.650313
Si Si5 0.679576 0.629375 0.413001
Si Si6 0.513355 0.467605 0.866970
O O1 0.153873 0.647138 0.016073
O O2 0.889511 0.731746 0.176961
O O3 0.095602 0.163477 0.111965
O O4 0.314086 0.008137 0.782752
O O5 0.728623 0.616695 0.660127
O O6 0.000000 0.500000 0.500000
O O7 0.039966 0.619624 0.293657
O O8 0.000000 0.000000 0.500000
O O9 0.364385 0.582662 0.964476
O O10 0.650753 0.389160 0.499611
O O11 0.480547 0.181071 0.809040
O O12 0.634560 0.894882 0.524899
O O13 0.500000 0.500000 0.500000
O O14 0.500000 0.500000 0.000000
#
# Coordination Sequence:
#
# PCOD9062950 Si02
#       6
#     2   2   2   2   2   2
#     4  11  24  45  72 101 141 179 229 291 352 422
#     4  12  25  39  60  93 130 177 235 283 329 392
#     4  11  24  43  67  96 140 187 232 284 343 402
#     4  11  26  46  71 107 142 185 234 289 351 415
#     4  12  26  48  77 106 139 182 232 295 359 423
#     4  11  24  45  68  99 141 186 232 280 334 410
#
# _framework density 24.545753999999999
#
# number of rings (size 3 to 8) (size 9 to 14) (size 15 to 20)
#    0.000    0.667    1.667    6.500    2.333    6.000 
#    0.000    0.000    0.000    0.000    0.000    0.000 
#    0.000    0.000    0.000    0.000    0.000    0.000 
#
# Total GULP energy -67049.092687 kJ/mol
# GULP energy per Si atom -5587.424391 kJ/mol
# Density = 2.448989 g / cm^3
# Si number density = 24.545754 Si / 1000 Ang^3
#
#
#
# Elastic Constant Matrix: (Units=GPa)
#
#
# Indices 1 2 3 4 5 6 
#
# 1 96.3384 57.5427 10.9540 -8.4501 -30.1158 1.5390
# 2 57.5427 144.7532 50.0180 1.2055 -2.0654 -22.4892
# 3 10.9540 50.0180 156.5035 -5.9523 -52.0147 -0.4544
# 4 -8.4501 1.2055 -5.9523 42.5387 15.5554 -6.1668
# 5 -30.1158 -2.0654 -52.0147 15.5554 51.6331 -5.4248
# 6 1.5390 -22.4892 -0.4544 -6.1668 -5.4248 29.0612
#
#
#
# Elastic Compliance Matrix: (Units=1/GPa)
#
#
# Indices 1 2 3 4 5 6 
#
# 1 0.026920 -0.015922 0.012184 -0.003909 0.027545 -0.009244
# 2 -0.015922 0.018711 -0.011230 0.003710 -0.019681 0.012261
# 3 0.012184 -0.011230 0.017177 -0.004719 0.024811 -0.005437
# 4 -0.003909 0.003710 -0.004719 0.028264 -0.014744 0.006249
# 5 0.027545 -0.019681 0.024811 -0.014744 0.063283 -0.007617
# 6 -0.009244 0.012261 -0.005437 0.006249 -0.007617 0.044207
#
#
# Mechanical properties :
#
#
# Convention : Reuss Voigt Hill
#
# Bulk Modulus (GPa) = 30.42124 70.51384 50.46754
# Shear Modulus (GPa) = 20.88071 43.25196 32.06634
#
# Velocity S-wave (km/s) = 2.91981 4.20229 3.61832
# Velocity P-wave (km/s) = 4.87726 7.23433 6.16941
#
# Compressibility (1/GPa) = 0.03287178
#
# Stress axis : x y z
#
# Youngs Moduli (GPa) = 37.14653 53.44391 58.21811
#
# Poissons Ratio (x) = 0.85093 -0.70930
# Poissons Ratio (y) = 0.59145 0.65378
# Poissons Ratio (z) = -0.45258 0.60017
#
# Static dielectric constant tensor:
#      x y z
#    x 2.188930 0.050040 0.147570 
#    y 0.050040 1.953960 0.012620 
#    z 0.147570 0.012620 2.017690 
# 
# From -- ./inp_files/31517.got.cif
#   From: 2010.05.17/outbox.cif.g08.bks.cpg/sg2_16_cif.got.tgz:31517.got - 2010.06.03 11:33:40.
