data_PCOD9062892
_publ_section_title
;
Structure prediction by ZEFSAII (Michael W. Deem and Ramdas Pophale) SiO2 
 PCOD9062892
Probable space group: P -1
;
_chemical_formula_sum "Si O2"
_cell_formula_units_Z 16
_cell_length_a 23.304259
_cell_length_b 14.877266
_cell_length_c 23.882300
_cell_angle_alpha 153.117722
_cell_angle_beta 167.384115
_cell_angle_gamma 28.983661
_cell_volume 816.926467
_symmetry_space_group_name_H-M "P -1"
_symmetry_group_IT_number 2
_symmetry_cell_setting 'triclinic'
loop_
_space_group_symop_operation_xyz
x,y,z
-x,-y,-z
loop_
_atom_site_type_symbol
_atom_site_label
_atom_site_fract_x
_atom_site_fract_y
_atom_site_fract_z
Si Si1 0.912865 0.414761 0.458064
Si Si2 0.411082 0.066283 0.283704
Si Si3 0.353537 0.265623 0.883420
Si Si4 0.708557 0.064957 0.282433
Si Si5 0.044964 0.177259 0.337978
Si Si6 0.243172 0.561953 0.030774
Si Si7 0.670068 0.543645 0.521598
Si Si8 0.712314 0.070533 0.785239
O O1 0.915058 0.651159 0.576290
O O2 0.131991 0.343859 0.672520
O O3 0.979037 0.298689 0.399031
O O4 0.632612 0.344013 0.173576
O O5 0.393593 0.307501 0.404195
O O6 0.694613 0.963160 0.483909
O O7 0.348183 0.998957 0.249651
O O8 0.191608 0.962988 0.980689
O O9 0.349877 0.033979 0.767404
O O10 0.282661 0.346761 0.923026
O O11 0.682428 0.303808 0.401849
O O12 0.000000 0.000000 0.500000
O O13 0.500000 0.000000 0.000000
O O14 0.451408 0.598859 0.297418
O O15 0.292652 0.694533 0.097204
O O16 0.955035 0.599066 0.801182
O O17 0.500000 0.000000 0.500000
O O18 0.000000 0.000000 0.000000
#
# Coordination Sequence:
#
# PCOD9062892 Si02
#       8
#     2   2   2   2   2   2   2   2
#     4  11  24  43  65  94 119 159 213 266 307 359
#     4  12  23  39  61  88 127 173 199 243 315 369
#     4  12  23  39  67  90 123 160 208 265 309 353
#     4  12  23  42  63  90 125 167 207 251 306 362
#     4  11  24  43  65  90 125 162 209 256 312 369
#     4  12  21  36  56  86 126 164 194 239 299 368
#     4  12  23  39  58  87 127 163 200 239 297 371
#     4  12  21  33  51  83 126 162 194 233 283 372
#
# _framework density 19.585607
#
# number of rings (size 3 to 8) (size 9 to 14) (size 15 to 20)
#    0.000    0.250    5.000    6.000    0.000    2.000 
#    0.000    0.000    0.000    4.500    0.000    0.000 
#    0.000    0.000    0.000    0.000    0.000    0.000 
#
# Total GULP energy -89332.036826 kJ/mol
# GULP energy per Si atom -5583.252302 kJ/mol
# Density = 1.954103 g / cm^3
# Si number density = 19.585607 Si / 1000 Ang^3
#
#
#
# Elastic Constant Matrix: (Units=GPa)
#
#
# Indices 1 2 3 4 5 6 
#
# 1 53.5741 20.4773 45.0322 2.6477 46.7776 -17.5704
# 2 20.4773 150.3553 48.9301 -3.1854 -15.2815 -2.1301
# 3 45.0322 48.9301 194.3788 -3.7566 30.1299 -13.3181
# 4 2.6477 -3.1854 -3.7566 62.1935 53.3738 -11.2627
# 5 46.7776 -15.2815 30.1299 53.3738 406.2189 -83.2356
# 6 -17.5704 -2.1301 -13.3181 -11.2627 -83.2356 56.6871
#
#
#
# Elastic Compliance Matrix: (Units=1/GPa)
#
#
# Indices 1 2 3 4 5 6 
#
# 1 0.026876 -0.002143 -0.005059 0.000976 -0.002062 0.004227
# 2 -0.002143 0.007501 -0.001487 -0.000182 0.000723 0.000294
# 3 -0.005059 -0.001487 0.006710 0.000586 -0.000049 -0.000002
# 4 0.000976 -0.000182 0.000586 0.018265 -0.002475 0.000428
# 5 -0.002062 0.000723 -0.000049 -0.002475 0.004043 0.004822
# 6 0.004227 0.000294 -0.000002 0.000428 0.004822 0.026126
#
#
# Mechanical properties :
#
#
# Convention : Reuss Voigt Hill
#
# Bulk Modulus (GPa) = 42.17965 69.68749 55.93357
# Shear Modulus (GPa) = 43.55385 123.94448 83.74916
#
# Velocity S-wave (km/s) = 4.72080 7.96372 6.54625
# Velocity P-wave (km/s) = 7.16222 10.96446 9.26058
#
# Compressibility (1/GPa) = 0.02370811
#
# Stress axis : x y z
#
# Youngs Moduli (GPa) = 37.20818 133.32311 149.04054
#
# Poissons Ratio (x) = 0.28572 0.75396
# Poissons Ratio (y) = 0.07974 0.22164
# Poissons Ratio (z) = 0.18823 0.19826
#
# Static dielectric constant tensor:
#      x y z
#    x 1.647770 0.006150 0.004110 
#    y 0.006150 1.822050 0.022760 
#    z 0.004110 0.022760 1.726990 
# 
# From -- ./inp_files/543433.got.cif
#   From: 2010.05.17/outbox.cif.g08.bks.cpg/sg2_272_cif.got.tgz:543433.got - 2010.06.03 11:33:40.
