data_PCOD9062534
_publ_section_title
;
Structure prediction by ZEFSAII (Michael W. Deem and Ramdas Pophale) SiO2 
 PCOD9062534
Probable space group: P -1
;
_chemical_formula_sum "Si O2"
_cell_formula_units_Z 15
_cell_length_a 9.448883
_cell_length_b 14.889977
_cell_length_c 15.134799
_cell_angle_alpha 27.461860
_cell_angle_beta 67.257884
_cell_angle_gamma 48.252461
_cell_volume 589.598196
_symmetry_space_group_name_H-M "P -1"
_symmetry_group_IT_number 2
_symmetry_cell_setting 'triclinic'
loop_
_space_group_symop_operation_xyz
x,y,z
-x,-y,-z
loop_
_atom_site_type_symbol
_atom_site_label
_atom_site_fract_x
_atom_site_fract_y
_atom_site_fract_z
Si Si1 0.944223 0.262859 0.511233
Si Si2 0.543274 0.060144 0.342093
Si Si3 0.500000 0.000000 0.000000
Si Si4 0.217471 0.779942 0.573251
Si Si5 0.762071 0.651232 0.378966
Si Si6 0.337737 0.446456 0.344406
Si Si7 0.897049 0.892090 0.939706
Si Si8 0.968236 0.375803 0.037573
O O1 0.834518 0.344965 0.370285
O O2 0.813326 0.554003 0.346424
O O3 0.219280 0.045006 0.626705
O O4 0.907800 0.097643 0.717025
O O5 0.308731 0.410754 0.073114
O O6 0.500000 0.000000 0.500000
O O7 0.573497 0.852257 0.448266
O O8 0.554371 0.993605 0.104226
O O9 0.645947 0.060025 0.883794
O O10 0.484158 0.560809 0.728183
O O11 0.000000 0.000000 0.500000
O O12 0.162175 0.028100 0.314560
O O13 0.684645 0.548008 0.549428
O O14 0.000000 0.500000 0.500000
O O15 0.082320 0.716544 0.128093
O O16 0.995856 0.640541 0.062342
O O17 0.000000 0.500000 0.000000
#
# Coordination Sequence:
#
# PCOD9062534 Si02
#       8
#     2   2   1   2   2   2   2   2
#     4  11  27  47  70 109 144 187 245 307 363 426
#     4  12  23  42  74 100 141 189 238 295 358 436
#     4  12  26  48  78 102 146 190 246 294 366 434
#     4  11  26  44  68 107 146 184 234 301 365 433
#     4  12  25  50  74 106 142 194 245 302 363 434
#     4  12  24  48  71 103 144 190 245 294 370 440
#     4  11  26  45  73 108 143 191 243 305 362 436
#     4  11  24  41  68 104 141 189 239 288 369 436
#
# _framework density 25.441054999999999
#
# number of rings (size 3 to 8) (size 9 to 14) (size 15 to 20)
#    0.000    0.533    5.333    2.400    1.867    3.733 
#    2.400    0.000    0.000    0.000    0.000    0.000 
#    0.000    0.000    0.000    0.000    0.000    0.000 
#
# Total GULP energy -83660.869159 kJ/mol
# GULP energy per Si atom -5577.391277 kJ/mol
# Density = 2.538315 g / cm^3
# Si number density = 25.441055 Si / 1000 Ang^3
#
#
#
# Elastic Constant Matrix: (Units=GPa)
#
#
# Indices 1 2 3 4 5 6 
#
# 1 161.0824 57.8198 22.0399 -2.7319 25.5609 -35.3421
# 2 57.8198 114.5002 9.6650 13.3820 11.5414 -15.9618
# 3 22.0399 9.6650 55.8979 0.8308 15.7540 -5.2062
# 4 -2.7319 13.3820 0.8308 46.2820 -2.8155 5.5421
# 5 25.5609 11.5414 15.7540 -2.8155 47.8386 -7.8271
# 6 -35.3421 -15.9618 -5.2062 5.5421 -7.8271 73.3515
#
#
#
# Elastic Compliance Matrix: (Units=1/GPa)
#
#
# Indices 1 2 3 4 5 6 
#
# 1 0.008921 -0.003797 -0.001843 0.001138 -0.002691 0.002968
# 2 -0.003797 0.011271 -0.000116 -0.003623 -0.000733 0.000810
# 3 -0.001843 -0.000116 0.020254 -0.000783 -0.005708 -0.000025
# 4 0.001138 -0.003623 -0.000783 0.023055 0.001575 -0.001869
# 5 -0.002691 -0.000733 -0.005708 0.001575 0.024596 0.000645
# 6 0.002968 0.000810 -0.000025 -0.001869 0.000645 0.015447
#
#
# Mechanical properties :
#
#
# Convention : Reuss Voigt Hill
#
# Bulk Modulus (GPa) = 34.56108 56.72557 45.64332
# Shear Modulus (GPa) = 40.09595 49.62482 44.86038
#
# Velocity S-wave (km/s) = 3.97424 4.42133 4.20373
# Velocity P-wave (km/s) = 5.88843 6.95769 6.44527
#
# Compressibility (1/GPa) = 0.02893428
#
# Stress axis : x y z
#
# Youngs Moduli (GPa) = 112.10005 88.72244 49.37225
#
# Poissons Ratio (x) = 0.33690 0.09099
# Poissons Ratio (y) = 0.42567 0.00572
# Poissons Ratio (z) = 0.20659 0.01027
#
# Static dielectric constant tensor:
#      x y z
#    x 2.060020 0.081340 0.020410 
#    y 0.081340 2.149090 0.330440 
#    z 0.020410 0.330440 1.691350 
# 
# From -- ./inp_files/186529.got.cif
#   From: 2010.05.17/outbox.cif.g08.bks.cpg/sg2_94_cif.got.tgz:186529.got - 2010.06.03 11:33:40.
