data_PCOD9062762
_publ_section_title
;
Structure prediction by ZEFSAII (Michael W. Deem and Ramdas Pophale) SiO2 
 PCOD9062762
Probable space group: P -1
;
_chemical_formula_sum "Si O2"
_cell_formula_units_Z 16
_cell_length_a 12.104023
_cell_length_b 16.932157
_cell_length_c 8.620710
_cell_angle_alpha 45.730365
_cell_angle_beta 129.725925
_cell_angle_gamma 149.251511
_cell_volume 643.104582
_symmetry_space_group_name_H-M "P -1"
_symmetry_group_IT_number 2
_symmetry_cell_setting 'triclinic'
loop_
_space_group_symop_operation_xyz
x,y,z
-x,-y,-z
loop_
_atom_site_type_symbol
_atom_site_label
_atom_site_fract_x
_atom_site_fract_y
_atom_site_fract_z
Si Si1 0.330163 0.477395 0.788130
Si Si2 0.696804 0.122066 0.892845
Si Si3 0.151305 0.024353 0.228097
Si Si4 0.059346 0.555033 0.155866
Si Si5 0.848603 0.736963 0.557403
Si Si6 0.358952 0.732120 0.622844
Si Si7 0.017177 0.147887 0.127565
Si Si8 0.415659 0.592406 0.372873
O O1 0.334913 0.604992 0.677161
O O2 0.386621 0.501635 0.626044
O O3 0.500000 0.500000 0.000000
O O4 0.108926 0.291981 0.892128
O O5 0.886384 0.296384 0.920736
O O6 0.642341 0.164582 0.635923
O O7 0.766510 0.036097 0.039289
O O8 0.500000 0.000000 0.000000
O O9 0.402828 0.144209 0.252426
O O10 0.130150 0.099781 0.246813
O O11 0.033318 0.850710 0.436011
O O12 0.000000 0.000000 0.000000
O O13 0.295047 0.631688 0.265178
O O14 0.856083 0.387465 0.299056
O O15 0.000000 0.500000 0.000000
O O16 0.666592 0.725644 0.372921
O O17 0.725421 0.549592 0.690462
O O18 0.926912 0.804174 0.708141
#
# Coordination Sequence:
#
# PCOD9062762 Si02
#       8
#     2   2   2   2   2   2   2   2
#     4  12  21  41  72 104 135 186 239 289 359 427
#     4  12  27  47  76 111 153 199 248 303 379 447
#     4  12  28  45  72 106 145 191 251 307 375 431
#     4  12  27  45  75 109 151 198 252 300 376 450
#     4  11  25  43  69 105 145 184 248 304 364 432
#     4  12  26  49  73 104 149 196 247 302 366 456
#     4  12  24  43  71 103 144 192 238 300 367 437
#     4  11  24  42  70 104 142 187 242 303 356 440
#
# _framework density 24.879314000000001
#
# number of rings (size 3 to 8) (size 9 to 14) (size 15 to 20)
#    0.000    0.250    5.000    3.750    3.500    0.000 
#    0.000    1.875    0.000    0.000    0.000    0.000 
#    0.000    0.000    0.000    0.000    0.000    0.000 
#
# Total GULP energy -89435.013808 kJ/mol
# GULP energy per Si atom -5589.688363 kJ/mol
# Density = 2.482269 g / cm^3
# Si number density = 24.879314 Si / 1000 Ang^3
#
#
#
# Elastic Constant Matrix: (Units=GPa)
#
#
# Indices 1 2 3 4 5 6 
#
# 1 90.7173 10.9140 9.8478 -1.4939 13.4644 18.7011
# 2 10.9140 73.9286 21.5903 -4.2179 -4.9366 32.7597
# 3 9.8478 21.5903 68.7547 10.2231 -8.0888 -8.6512
# 4 -1.4939 -4.2179 10.2231 35.5955 2.6894 -7.5011
# 5 13.4644 -4.9366 -8.0888 2.6894 58.5046 0.8486
# 6 18.7011 32.7597 -8.6512 -7.5011 0.8486 48.7351
#
#
#
# Elastic Compliance Matrix: (Units=1/GPa)
#
#
# Indices 1 2 3 4 5 6 
#
# 1 0.013142 0.002130 -0.003928 0.000707 -0.003319 -0.007006
# 2 0.002130 0.025078 -0.010883 0.002099 0.000304 -0.019289
# 3 -0.003928 -0.010883 0.021134 -0.005282 0.002981 0.011710
# 4 0.000707 0.002099 -0.005282 0.030496 -0.002148 0.002112
# 5 -0.003319 0.000304 0.002981 -0.002148 0.018379 0.000947
# 6 -0.007006 -0.019289 0.011710 0.002112 0.000947 0.038561
#
#
# Mechanical properties :
#
#
# Convention : Reuss Voigt Hill
#
# Bulk Modulus (GPa) = 29.41958 35.34498 32.38228
# Shear Modulus (GPa) = 27.25041 41.30361 34.27701
#
# Velocity S-wave (km/s) = 3.31313 4.07892 3.71581
# Velocity P-wave (km/s) = 5.14649 6.03497 5.60835
#
# Compressibility (1/GPa) = 0.03399097
#
# Stress axis : x y z
#
# Youngs Moduli (GPa) = 76.09313 39.87539 47.31676
#
# Poissons Ratio (x) = -0.08494 0.18587
# Poissons Ratio (y) = -0.16209 0.51497
# Poissons Ratio (z) = 0.29891 0.43398
#
# Static dielectric constant tensor:
#      x y z
#    x 2.634370 1.239410 -1.061270 
#    y 1.239410 4.391930 -2.097980 
#    z -1.061270 -2.097980 3.909410 
# 
# From -- ./inp_files/279119.got.cif
#   From: 2010.05.17/outbox.cif.g08.bks.cpg/sg2_140_cif.got.tgz:279119.got - 2010.06.03 11:33:40.
