data_PCOD9062752
_publ_section_title
;
Structure prediction by ZEFSAII (Michael W. Deem and Ramdas Pophale) SiO2 
 PCOD9062752
Probable space group: P -1
;
_chemical_formula_sum "Si O2"
_cell_formula_units_Z 16
_cell_length_a 5.156416
_cell_length_b 29.019206
_cell_length_c 9.110978
_cell_angle_alpha 31.803433
_cell_angle_beta 83.169735
_cell_angle_gamma 71.887856
_cell_volume 653.527124
_symmetry_space_group_name_H-M "P -1"
_symmetry_group_IT_number 2
_symmetry_cell_setting 'triclinic'
loop_
_space_group_symop_operation_xyz
x,y,z
-x,-y,-z
loop_
_atom_site_type_symbol
_atom_site_label
_atom_site_fract_x
_atom_site_fract_y
_atom_site_fract_z
Si Si1 0.091072 0.087692 0.754698
Si Si2 0.445337 0.571846 0.452796
Si Si3 0.760967 0.700823 0.684819
Si Si4 0.465327 0.067178 0.531486
Si Si5 0.083852 0.090496 0.239382
Si Si6 0.403385 0.773116 0.786520
Si Si7 0.999635 0.512419 0.787525
Si Si8 0.817048 0.221913 0.658409
O O1 0.381235 0.056171 0.731979
O O2 0.863046 0.175168 0.441465
O O3 0.037843 0.130798 0.801811
O O4 0.000000 0.000000 0.000000
O O5 0.500000 0.500000 0.500000
O O6 0.161655 0.576855 0.543705
O O7 0.702738 0.539350 0.644980
O O8 0.412459 0.675383 0.116500
O O9 0.670535 0.748415 0.721579
O O10 0.499543 0.749906 0.456697
O O11 0.051503 0.701539 0.596809
O O12 0.799790 0.593269 0.992790
O O13 0.190832 0.112980 0.323803
O O14 0.598282 0.145573 0.320932
O O15 0.629843 0.963148 0.732361
O O16 0.000000 0.000000 0.500000
O O17 0.862588 0.183443 0.923563
O O18 0.000000 0.500000 0.000000
#
# Coordination Sequence:
#
# PCOD9062752 Si02
#       8
#     2   2   2   2   2   2   2   2
#     4  11  24  42  70 101 143 189 245 304 361 432
#     4  12  27  48  86 111 155 203 256 322 392 463
#     4  11  25  46  75 105 145 184 251 306 372 454
#     4  11  24  43  70  96 149 189 251 307 368 441
#     4  11  26  45  63 100 148 197 247 302 379 446
#     4  11  25  43  73 112 141 189 260 306 370 448
#     4  12  28  53  77 115 155 200 250 325 400 469
#     4  11  25  43  73 101 139 191 242 305 366 435
#
# _framework density 24.482533
#
# number of rings (size 3 to 8) (size 9 to 14) (size 15 to 20)
#    0.000    0.750    2.500    3.750   10.500    2.000 
#    4.500    0.000    0.000    0.000    0.000    0.000 
#    0.000    0.000    0.000    0.000    0.000    0.000 
#
# Total GULP energy -89462.307203 kJ/mol
# GULP energy per Si atom -5591.394200 kJ/mol
# Density = 2.442681 g / cm^3
# Si number density = 24.482533 Si / 1000 Ang^3
#
#
#
# Elastic Constant Matrix: (Units=GPa)
#
#
# Indices 1 2 3 4 5 6 
#
# 1 113.0069 22.7536 30.8385 22.3950 -6.2642 25.7624
# 2 22.7536 75.5427 22.7176 17.0335 8.2393 12.8001
# 3 30.8385 22.7176 135.1132 19.5971 -0.1691 23.1634
# 4 22.3950 17.0335 19.5971 37.8057 2.7175 3.9608
# 5 -6.2642 8.2393 -0.1691 2.7175 42.3552 8.4851
# 6 25.7624 12.8001 23.1634 3.9608 8.4851 38.8065
#
#
#
# Elastic Compliance Matrix: (Units=1/GPa)
#
#
# Indices 1 2 3 4 5 6 
#
# 1 0.012439 -0.001389 -0.000383 -0.006014 0.004066 -0.007846
# 2 -0.001389 0.015898 -0.001152 -0.005299 -0.002450 -0.002557
# 3 -0.000383 -0.001152 0.008997 -0.003526 0.001366 -0.004675
# 4 -0.006014 -0.005299 -0.003526 0.033920 -0.003061 0.005053
# 5 0.004066 -0.002450 0.001366 -0.003061 0.026532 -0.008195
# 6 -0.007846 -0.002557 -0.004675 0.005053 -0.008195 0.035888
#
#
# Mechanical properties :
#
#
# Convention : Reuss Voigt Hill
#
# Bulk Modulus (GPa) = 31.76106 52.92026 42.34066
# Shear Modulus (GPa) = 33.32954 40.28369 36.80661
#
# Velocity S-wave (km/s) = 3.69366 4.06076 3.88155
# Velocity P-wave (km/s) = 5.58498 6.60672 6.11722
#
# Compressibility (1/GPa) = 0.03148509
#
# Stress axis : x y z
#
# Youngs Moduli (GPa) = 80.39005 62.90195 111.14939
#
# Poissons Ratio (x) = 0.08740 0.04257
# Poissons Ratio (y) = 0.11170 0.12805
# Poissons Ratio (z) = 0.03079 0.07247
#
# Static dielectric constant tensor:
#      x y z
#    x 1.933690 -0.158740 0.209770 
#    y -0.158740 1.920170 0.283350 
#    z 0.209770 0.283350 1.200050 
# 
# From -- ./inp_files/143332.got.cif
#   From: 2010.05.17/outbox.cif.g08.bks.cpg/sg2_72_cif.got.tgz:143332.got - 2010.06.03 11:33:40.
