data_PCOD9062352
_publ_section_title
;
Structure prediction by ZEFSAII (Michael W. Deem and Ramdas Pophale) SiO2 
 PCOD9062352
Probable space group: P -1
;
_chemical_formula_sum "Si O2"
_cell_formula_units_Z 9
_cell_length_a 18.136740
_cell_length_b 5.009081
_cell_length_c 7.546889
_cell_angle_alpha 134.203633
_cell_angle_beta 42.122299
_cell_angle_gamma 130.303522
_cell_volume 317.435187
_symmetry_space_group_name_H-M "P -1"
_symmetry_group_IT_number 2
_symmetry_cell_setting 'triclinic'
loop_
_space_group_symop_operation_xyz
x,y,z
-x,-y,-z
loop_
_atom_site_type_symbol
_atom_site_label
_atom_site_fract_x
_atom_site_fract_y
_atom_site_fract_z
Si Si1 0.669160 0.604102 0.351879
Si Si2 0.400764 0.700247 0.304711
Si Si3 0.000000 0.000000 0.500000
Si Si4 0.097230 0.940401 0.677011
Si Si5 0.209254 0.307965 0.190651
O O1 0.622145 0.284349 0.436312
O O2 0.582364 0.869062 0.599966
O O3 0.778936 0.876738 0.380602
O O4 0.717116 0.531080 0.041235
O O5 0.293994 0.437250 0.262351
O O6 0.500000 0.500000 0.000000
O O7 0.927665 0.933973 0.412159
O O8 0.873288 0.119365 0.874286
O O9 0.094738 0.480632 0.473929
O O10 0.000000 0.000000 0.000000
#
# Coordination Sequence:
#
# PCOD9062352 Si02
#       5
#     2   2   1   2   2
#     4  11  25  43  70  98 133 173 220 275 328 389
#     4  11  26  47  69  97 131 172 224 278 330 387
#     4  12  22  40  66  92 138 174 216 264 332 388
#     4  11  24  39  62  98 136 175 214 268 323 396
#     4  11  26  40  66 100 132 175 223 264 332 393
#
# _framework density 28.352243999999999
#
# number of rings (size 3 to 8) (size 9 to 14) (size 15 to 20)
#    0.000    0.889    4.444    1.333    3.111    2.667 
#    0.000    0.000    0.000    0.000    0.000    0.000 
#    0.000    0.000    0.000    0.000    0.000    0.000 
#
# Total GULP energy -50321.668563 kJ/mol
# GULP energy per Si atom -5591.296507 kJ/mol
# Density = 2.828771 g / cm^3
# Si number density = 28.352244 Si / 1000 Ang^3
#
#
#
# Elastic Constant Matrix: (Units=GPa)
#
#
# Indices 1 2 3 4 5 6 
#
# 1 168.8316 61.8307 67.5376 -12.1605 -17.0543 -16.6754
# 2 61.8307 96.5078 30.6373 -17.4951 13.8001 -29.2376
# 3 67.5376 30.6373 153.1537 -11.9205 -4.1202 -34.6365
# 4 -12.1605 -17.4951 -11.9205 47.3647 -15.4773 6.8152
# 5 -17.0543 13.8001 -4.1202 -15.4773 44.3856 -10.7123
# 6 -16.6754 -29.2376 -34.6365 6.8152 -10.7123 69.8857
#
#
#
# Elastic Compliance Matrix: (Units=1/GPa)
#
#
# Indices 1 2 3 4 5 6 
#
# 1 0.010105 -0.006356 -0.003150 0.001514 0.005838 -0.001062
# 2 -0.006356 0.016924 0.000499 0.002185 -0.005758 0.004715
# 3 -0.003150 0.000499 0.008808 0.001315 0.000833 0.003822
# 4 0.001514 0.002185 0.001315 0.025498 0.009118 0.000838
# 5 0.005838 -0.005758 0.000833 0.009118 0.030592 0.003197
# 6 -0.001062 0.004715 0.003822 0.000838 0.003197 0.018331
#
#
# Mechanical properties :
#
#
# Convention : Reuss Voigt Hill
#
# Bulk Modulus (GPa) = 56.10932 82.05604 69.08268
# Shear Modulus (GPa) = 37.25480 49.55971 43.40726
#
# Velocity S-wave (km/s) = 3.62884 4.18544 3.91704
# Velocity P-wave (km/s) = 6.11482 7.23614 6.69898
#
# Compressibility (1/GPa) = 0.01782235
#
# Stress axis : x y z
#
# Youngs Moduli (GPa) = 98.96391 59.08938 113.53843
#
# Poissons Ratio (x) = 0.37557 0.35761
# Poissons Ratio (y) = 0.62901 -0.05665
# Poissons Ratio (z) = 0.31171 -0.02948
#
# Static dielectric constant tensor:
#      x y z
#    x 2.092710 0.047580 -0.118020 
#    y 0.047580 2.590650 -0.072560 
#    z -0.118020 -0.072560 2.769660 
# 
# From -- ./inp_files/91576.got.cif
#   From: 2010.05.17/outbox.cif.g08.bks.cpg/sg2_46_cif.got.tgz:91576.got - 2010.06.03 11:33:40.
