data_PCOD9062632
_publ_section_title
;
Structure prediction by ZEFSAII (Michael W. Deem and Ramdas Pophale) SiO2 
 PCOD9062632
Probable space group: P -1
;
_chemical_formula_sum "Si O2"
_cell_formula_units_Z 14
_cell_length_a 6.859673
_cell_length_b 5.466128
_cell_length_c 21.553842
_cell_angle_alpha 90.863652
_cell_angle_beta 55.931904
_cell_angle_gamma 65.251209
_cell_volume 573.547987
_symmetry_space_group_name_H-M "P -1"
_symmetry_group_IT_number 2
_symmetry_cell_setting 'triclinic'
loop_
_space_group_symop_operation_xyz
x,y,z
-x,-y,-z
loop_
_atom_site_type_symbol
_atom_site_label
_atom_site_fract_x
_atom_site_fract_y
_atom_site_fract_z
Si Si1 0.687568 0.815959 0.576658
Si Si2 0.427753 0.505496 0.301242
Si Si3 0.256109 0.736280 0.211380
Si Si4 0.157266 0.410609 0.697222
Si Si5 0.809022 0.435380 0.443512
Si Si6 0.077539 0.977559 0.845458
Si Si7 0.104131 0.478242 0.911774
O O1 0.676091 0.577397 0.620285
O O2 0.764083 0.707011 0.492904
O O3 0.939262 0.825872 0.564609
O O4 0.382865 0.085491 0.635527
O O5 0.225373 0.755006 0.292025
O O6 0.665740 0.555627 0.281732
O O7 0.596978 0.218708 0.228556
O O8 0.567827 0.646625 0.145194
O O9 0.126458 0.534757 0.224649
O O10 0.075841 0.967308 0.193013
O O11 0.108277 0.578620 0.642666
O O12 0.500000 0.500000 0.500000
O O13 0.995180 0.789898 0.901832
O O14 0.035009 0.264795 0.886043
O O15 0.000000 0.500000 0.000000
#
# Coordination Sequence:
#
# PCOD9062632 Si02
#       7
#     2   2   2   2   2   2   2
#     4  11  24  42  64  94 134 177 244 298 357 423
#     4  11  24  42  67 102 139 181 243 297 351 424
#     4  11  24  43  72 103 141 188 233 293 355 427
#     4  12  24  43  67  98 135 190 243 301 364 421
#     4  11  24  44  63  93 136 186 241 304 368 423
#     4  11  25  47  73 110 145 187 238 287 356 424
#     4  11  27  50  77 111 150 186 234 290 351 433
#
# _framework density 24.409465999999998
#
# number of rings (size 3 to 8) (size 9 to 14) (size 15 to 20)
#    0.000    0.857    4.286    2.571    0.000    8.571 
#    0.000    0.000    0.000    0.000    0.000    0.000 
#    0.000    0.000    0.000    0.000    0.000    0.000 
#
# Total GULP energy -78125.438065 kJ/mol
# GULP energy per Si atom -5580.388433 kJ/mol
# Density = 2.435391 g / cm^3
# Si number density = 24.409466 Si / 1000 Ang^3
#
#
#
# Elastic Constant Matrix: (Units=GPa)
#
#
# Indices 1 2 3 4 5 6 
#
# 1 145.5655 51.6556 1.7844 -5.4813 17.2632 -17.4500
# 2 51.6556 117.6983 30.0275 -23.4744 16.3781 -9.9710
# 3 1.7844 30.0275 38.6107 -9.9477 15.6221 4.8385
# 4 -5.4813 -23.4744 -9.9477 37.2429 0.7617 8.1664
# 5 17.2632 16.3781 15.6221 0.7617 38.2078 -6.6855
# 6 -17.4500 -9.9710 4.8385 8.1664 -6.6855 44.9953
#
#
#
# Elastic Compliance Matrix: (Units=1/GPa)
#
#
# Indices 1 2 3 4 5 6 
#
# 1 0.009013 -0.004522 0.004134 -0.000710 -0.003521 0.001655
# 2 -0.004522 0.014108 -0.009591 0.005347 0.000063 0.001443
# 3 0.004134 -0.009591 0.043596 0.008615 -0.017391 -0.009358
# 4 -0.000710 0.005347 0.008615 0.034177 -0.007457 -0.007328
# 5 -0.003521 0.000063 -0.017391 -0.007457 0.036266 0.007261
# 6 0.001655 0.001443 -0.009358 -0.007328 0.007261 0.026601
#
#
# Mechanical properties :
#
#
# Convention : Reuss Voigt Hill
#
# Bulk Modulus (GPa) = 21.38620 52.08993 36.73807
# Shear Modulus (GPa) = 25.08712 38.64968 31.86840
#
# Velocity S-wave (km/s) = 3.20935 3.98350 3.61719
# Velocity P-wave (km/s) = 4.74486 6.52258 5.70341
#
# Compressibility (1/GPa) = 0.04675912
#
# Stress axis : x y z
#
# Youngs Moduli (GPa) = 110.95274 70.88300 22.93765
#
# Poissons Ratio (x) = 0.32053 -0.09483
# Poissons Ratio (y) = 0.50172 0.22000
# Poissons Ratio (z) = -0.45871 0.67986
#
# Static dielectric constant tensor:
#      x y z
#    x 1.993600 0.026710 -0.007460 
#    y 0.026710 2.052040 0.022180 
#    z -0.007460 0.022180 1.906390 
# 
# From -- ./inp_files/12586.got.cif
#   From: 2010.05.17/outbox.cif.g08.bks.cpg/sg2_7_cif.got.tgz:12586.got - 2010.06.03 11:33:40.
