data_PCOD9062104
_publ_section_title
;
Structure prediction by ZEFSAII (Michael W. Deem and Ramdas Pophale) SiO2 
 PCOD9062104
Probable space group: P -1
;
_chemical_formula_sum "Si O2"
_cell_formula_units_Z 14
_cell_length_a 8.866364
_cell_length_b 9.204701
_cell_length_c 11.601129
_cell_angle_alpha 127.772673
_cell_angle_beta 62.876266
_cell_angle_gamma 99.729520
_cell_volume 657.853676
_symmetry_space_group_name_H-M "P -1"
_symmetry_group_IT_number 2
_symmetry_cell_setting 'triclinic'
loop_
_space_group_symop_operation_xyz
x,y,z
-x,-y,-z
loop_
_atom_site_type_symbol
_atom_site_label
_atom_site_fract_x
_atom_site_fract_y
_atom_site_fract_z
Si Si1 0.628528 0.647266 0.541673
Si Si2 0.800873 0.630863 0.724551
Si Si3 0.588648 0.011696 0.349470
Si Si4 0.531690 0.704835 0.056440
Si Si5 0.974963 0.706896 0.406832
Si Si6 0.971735 0.052407 0.169803
Si Si7 0.151641 0.888917 0.236429
O O1 0.500000 0.500000 0.500000
O O2 0.695429 0.649947 0.651418
O O3 0.531294 0.839101 0.615714
O O4 0.810215 0.607280 0.392552
O O5 0.892771 0.422734 0.620489
O O6 0.946488 0.761826 0.745253
O O7 0.668052 0.694731 0.902952
O O8 0.778727 0.065933 0.294251
O O9 0.500000 0.000000 0.500000
O O10 0.597081 0.808652 0.192807
O O11 0.353365 0.825983 0.139313
O O12 0.500000 0.500000 0.000000
O O13 0.067196 0.749601 0.278742
O O14 0.906020 0.906433 0.587089
O O15 0.083280 0.897767 0.135416
O O16 0.000000 0.000000 0.000000
#
# Coordination Sequence:
#
# PCOD9062104 Si02
#       7
#     2   2   2   2   2   2   2
#     4  12  27  44  75 111 146 191 246 307 371 440
#     4  12  26  47  74 105 153 185 250 308 372 437
#     4  12  28  48  75 111 151 197 253 305 366 452
#     4  12  26  49  75 109 145 201 241 310 375 440
#     4  11  23  47  73 105 138 195 236 300 372 438
#     4  12  26  46  72 107 148 195 242 309 375 431
#     4  11  25  45  75  99 144 190 243 294 369 445
#
# _framework density 21.281328999999999
#
# number of rings (size 3 to 8) (size 9 to 14) (size 15 to 20)
#    0.000    0.286    5.714    2.143    8.000    1.143 
#    0.000    1.429    0.000    0.000    0.000    0.000 
#    0.000    0.000    0.000    0.000    0.000    0.000 
#
# Total GULP energy -78290.287385 kJ/mol
# GULP energy per Si atom -5592.163385 kJ/mol
# Density = 2.123289 g / cm^3
# Si number density = 21.281329 Si / 1000 Ang^3
#
#
#
# Elastic Constant Matrix: (Units=GPa)
#
#
# Indices 1 2 3 4 5 6 
#
# 1 156.3362 87.0802 71.9936 -15.3364 -4.5110 10.9062
# 2 87.0802 170.1144 73.6617 -15.4585 7.5789 5.3606
# 3 71.9936 73.6617 120.9170 -16.2484 -9.3442 14.0551
# 4 -15.3364 -15.4585 -16.2484 35.5862 4.6006 -15.3558
# 5 -4.5110 7.5789 -9.3442 4.6006 42.5286 -1.4120
# 6 10.9062 5.3606 14.0551 -15.3558 -1.4120 43.8365
#
#
#
# Elastic Compliance Matrix: (Units=1/GPa)
#
#
# Indices 1 2 3 4 5 6 
#
# 1 0.010229 -0.003597 -0.003656 0.000801 0.000815 -0.000626
# 2 -0.003597 0.009683 -0.003918 0.001938 -0.003126 0.001545
# 3 -0.003656 -0.003918 0.013542 0.001508 0.003045 -0.002327
# 4 0.000801 0.001938 0.001508 0.035305 -0.003372 0.011339
# 5 0.000815 -0.003126 0.003045 -0.003372 0.025152 -0.001168
# 6 -0.000626 0.001545 -0.002327 0.011339 -0.001168 0.027459
#
#
# Mechanical properties :
#
#
# Convention : Reuss Voigt Hill
#
# Bulk Modulus (GPa) = 89.98618 101.42652 95.70635
# Shear Modulus (GPa) = 33.91745 38.69905 36.30825
#
# Velocity S-wave (km/s) = 3.99653 4.26896 4.13499
# Velocity P-wave (km/s) = 7.97949 8.48893 8.23815
#
# Compressibility (1/GPa) = 0.01111282
#
# Stress axis : x y z
#
# Youngs Moduli (GPa) = 97.75745 103.27479 73.84487
#
# Poissons Ratio (x) = 0.37150 0.26996
# Poissons Ratio (y) = 0.35165 0.28931
# Poissons Ratio (z) = 0.35738 0.40461
#
# Static dielectric constant tensor:
#      x y z
#    x 1.784150 0.021800 -0.004600 
#    y 0.021800 1.801470 -0.000460 
#    z -0.004600 -0.000460 1.774020 
# 
# From -- ./inp_files/209406.got.cif
#   From: 2010.05.17/outbox.cif.g08.bks.cpg/sg2_105_cif.got.tgz:209406.got - 2010.06.03 11:33:40.
