data_PCOD9062781
_publ_section_title
;
Structure prediction by ZEFSAII (Michael W. Deem and Ramdas Pophale) SiO2 
 PCOD9062781
Probable space group: P -1
;
_chemical_formula_sum "Si O2"
_cell_formula_units_Z 10
_cell_length_a 9.985025
_cell_length_b 8.664425
_cell_length_c 6.541442
_cell_angle_alpha 81.450466
_cell_angle_beta 111.157740
_cell_angle_gamma 112.341459
_cell_volume 488.119430
_symmetry_space_group_name_H-M "P -1"
_symmetry_group_IT_number 2
_symmetry_cell_setting 'triclinic'
loop_
_space_group_symop_operation_xyz
x,y,z
-x,-y,-z
loop_
_atom_site_type_symbol
_atom_site_label
_atom_site_fract_x
_atom_site_fract_y
_atom_site_fract_z
Si Si1 0.488665 0.711254 0.539083
Si Si2 0.658691 0.651758 0.290683
Si Si3 0.083607 0.451563 0.744614
Si Si4 0.598991 0.923973 0.931054
Si Si5 0.206383 0.721722 0.099668
O O1 0.639525 0.732164 0.482353
O O2 0.445137 0.540280 0.679475
O O3 0.185575 0.612180 0.902892
O O4 0.521803 0.861397 0.684251
O O5 0.813856 0.642046 0.284837
O O6 0.609361 0.763250 0.080958
O O7 0.049274 0.653797 0.153709
O O8 0.000000 0.500000 0.500000
O O9 0.753574 0.082822 0.958158
O O10 0.345821 0.699592 0.314246
O O11 0.500000 0.000000 0.000000
#
# Coordination Sequence:
#
# PCOD9062781 Si02
#       5
#     2   2   2   2   2
#     4  11  24  42  70  99 128 167 223 264 318 392
#     4  11  25  40  69  98 128 174 215 262 326 381
#     4  11  25  45  68  91 133 178 215 260 322 386
#     4  12  25  41  68 101 133 163 213 278 326 370
#     4  11  25  43  69  97 129 172 220 262 321 389
#
# _framework density 20.486787
#
# number of rings (size 3 to 8) (size 9 to 14) (size 15 to 20)
#    0.000    0.800    4.000    2.400    5.600    0.800 
#    0.000    2.000    0.000    0.000    0.000    0.000 
#    0.000    0.000    0.000    0.000    0.000    0.000 
#
# Total GULP energy -55828.177028 kJ/mol
# GULP energy per Si atom -5582.817703 kJ/mol
# Density = 2.044016 g / cm^3
# Si number density = 20.486787 Si / 1000 Ang^3
#
#
#
# Elastic Constant Matrix: (Units=GPa)
#
#
# Indices 1 2 3 4 5 6 
#
# 1 134.7698 27.6013 59.5327 7.8960 -20.7764 -27.8159
# 2 27.6013 71.0380 81.8512 -13.2395 -2.8378 -1.6568
# 3 59.5327 81.8512 142.9816 15.5200 -10.3942 -14.8054
# 4 7.8960 -13.2395 15.5200 44.1819 -6.1088 -4.6511
# 5 -20.7764 -2.8378 -10.3942 -6.1088 23.6329 0.4863
# 6 -27.8159 -1.6568 -14.8054 -4.6511 0.4863 45.7644
#
#
#
# Elastic Compliance Matrix: (Units=1/GPa)
#
#
# Indices 1 2 3 4 5 6 
#
# 1 0.011602 0.002600 -0.005373 0.002374 0.008648 0.005557
# 2 0.002600 0.083755 -0.054610 0.042843 -0.000423 -0.008696
# 3 -0.005373 -0.054610 0.044433 -0.030335 0.000296 0.006046
# 4 0.002374 0.042843 -0.030335 0.046290 0.005899 -0.002178
# 5 0.008648 -0.000423 0.000296 0.005899 0.051410 0.005390
# 6 0.005557 -0.008696 0.006046 -0.002178 0.005390 0.026591
#
#
# Mechanical properties :
#
#
# Convention : Reuss Voigt Hill
#
# Bulk Modulus (GPa) = 39.96127 76.30667 58.13397
# Shear Modulus (GPa) = 12.91361 34.70281 23.80821
#
# Velocity S-wave (km/s) = 2.51338 4.12018 3.41269
# Velocity P-wave (km/s) = 5.28876 7.74352 6.63073
#
# Compressibility (1/GPa) = 0.02502423
#
# Stress axis : x y z
#
# Youngs Moduli (GPa) = 86.19260 11.93964 22.50556
#
# Poissons Ratio (x) = -0.03104 0.12091
# Poissons Ratio (y) = -0.22410 1.22904
# Poissons Ratio (z) = 0.46308 0.65203
#
# Static dielectric constant tensor:
#      x y z
#    x 1.716680 0.063750 -0.004890 
#    y 0.063750 1.712190 -0.008490 
#    z -0.004890 -0.008490 1.738840 
# 
# From -- ./inp_files/147714.got.cif
#   From: 2010.05.17/outbox.cif.g08.bks.cpg/sg2_74_cif.got.tgz:147714.got - 2010.06.03 11:33:40.
