data_PCOD9062689
_publ_section_title
;
Structure prediction by ZEFSAII (Michael W. Deem and Ramdas Pophale) SiO2 
 PCOD9062689
Probable space group: P -1
;
_chemical_formula_sum "Si O2"
_cell_formula_units_Z 16
_cell_length_a 7.890704
_cell_length_b 22.714740
_cell_length_c 9.157916
_cell_angle_alpha 40.072762
_cell_angle_beta 46.664652
_cell_angle_gamma 44.692495
_cell_volume 705.520261
_symmetry_space_group_name_H-M "P -1"
_symmetry_group_IT_number 2
_symmetry_cell_setting 'triclinic'
loop_
_space_group_symop_operation_xyz
x,y,z
-x,-y,-z
loop_
_atom_site_type_symbol
_atom_site_label
_atom_site_fract_x
_atom_site_fract_y
_atom_site_fract_z
Si Si1 0.927345 0.128765 0.441232
Si Si2 0.268892 0.463282 0.199194
Si Si3 0.529376 0.281233 0.587203
Si Si4 0.286800 0.454520 0.590837
Si Si5 0.498942 0.108021 0.135602
Si Si6 0.764232 0.171034 0.122146
Si Si7 0.476744 0.405500 0.883615
Si Si8 0.245384 0.027124 0.005117
O O1 0.767971 0.227664 0.441977
O O2 0.821297 0.135178 0.325934
O O3 0.887397 0.040390 0.716727
O O4 0.220214 0.109803 0.305931
O O5 0.325041 0.363171 0.449353
O O6 0.994870 0.542766 0.257710
O O7 0.500000 0.500000 0.000000
O O8 0.288522 0.430613 0.082292
O O9 0.519202 0.356508 0.580625
O O10 0.480372 0.193852 0.865200
O O11 0.324013 0.459157 0.730696
O O12 0.314591 0.546488 0.318545
O O13 0.605746 0.129213 0.185801
O O14 0.683589 0.006032 0.140663
O O15 0.613020 0.288563 0.000371
O O16 0.039553 0.137815 0.943868
O O17 0.500000 0.000000 0.000000
#
# Coordination Sequence:
#
# PCOD9062689 Si02
#       8
#     2   2   2   2   2   2   2   2
#     4  11  26  47  73 105 144 179 233 290 349 416
#     4  12  25  40  69  96 136 188 230 287 354 402
#     4  11  24  42  68 103 135 188 233 285 347 415
#     4  11  25  45  67  97 142 181 235 289 342 407
#     4  11  26  47  72 105 142 182 234 290 345 424
#     4  12  24  47  74 101 143 185 233 285 356 410
#     4  11  25  45  66 102 135 184 236 288 341 416
#     4  11  25  49  75 106 143 182 227 290 350 423
#
# _framework density 22.678301000000001
#
# number of rings (size 3 to 8) (size 9 to 14) (size 15 to 20)
#    0.000    0.750    5.000    1.500    3.500    0.500 
#    9.000    0.000    0.000    0.000    0.000    0.000 
#    0.000    0.000    0.000    0.000    0.000    0.000 
#
# Total GULP energy -89354.095513 kJ/mol
# GULP energy per Si atom -5584.630970 kJ/mol
# Density = 2.262668 g / cm^3
# Si number density = 22.678301 Si / 1000 Ang^3
#
#
#
# Elastic Constant Matrix: (Units=GPa)
#
#
# Indices 1 2 3 4 5 6 
#
# 1 118.8857 22.9220 50.6977 23.7932 -6.3663 1.5440
# 2 22.9220 130.7401 33.8638 33.7008 -6.3388 12.3457
# 3 50.6977 33.8638 87.1085 25.8375 4.6231 -2.9177
# 4 23.7932 33.7008 25.8375 33.3251 -0.9481 5.6178
# 5 -6.3663 -6.3388 4.6231 -0.9481 30.0256 7.9883
# 6 1.5440 12.3457 -2.9177 5.6178 7.9883 33.2340
#
#
#
# Elastic Compliance Matrix: (Units=1/GPa)
#
#
# Indices 1 2 3 4 5 6 
#
# 1 0.012044 0.001006 -0.006426 -0.004220 0.004092 -0.001768
# 2 0.001006 0.011004 -0.002435 -0.009241 0.003590 -0.003649
# 3 -0.006426 -0.002435 0.019485 -0.009281 -0.006797 0.006116
# 4 -0.004220 -0.009241 -0.009281 0.050657 0.001829 -0.006189
# 5 0.004092 0.003590 -0.006797 0.001829 0.039187 -0.011849
# 6 -0.001768 -0.003649 0.006116 -0.006189 -0.011849 0.035959
#
#
# Mechanical properties :
#
#
# Convention : Reuss Voigt Hill
#
# Bulk Modulus (GPa) = 37.28078 61.30014 49.29046
# Shear Modulus (GPa) = 25.90862 34.60033 30.25448
#
# Velocity S-wave (km/s) = 3.38367 3.91026 3.65646
# Velocity P-wave (km/s) = 5.63385 6.89027 6.29349
#
# Compressibility (1/GPa) = 0.02682347
#
# Stress axis : x y z
#
# Youngs Moduli (GPa) = 83.02650 90.87804 51.32215
#
# Poissons Ratio (x) = -0.09141 0.32977
# Poissons Ratio (y) = -0.08351 0.12497
# Poissons Ratio (z) = 0.53349 0.22129
#
# Static dielectric constant tensor:
#      x y z
#    x 1.903560 0.036460 0.018060 
#    y 0.036460 1.887130 -0.002380 
#    z 0.018060 -0.002380 1.845180 
# 
# From -- ./inp_files/225918.got.cif
#   From: 2010.05.17/outbox.cif.g08.bks.cpg/sg2_113_cif.got.tgz:225918.got - 2010.06.03 11:33:40.
