data_PCOD9062196
_publ_section_title
;
Structure prediction by ZEFSAII (Michael W. Deem and Ramdas Pophale) SiO2 
 PCOD9062196
Probable space group: P -1
;
_chemical_formula_sum "Si O2"
_cell_formula_units_Z 16
_cell_length_a 16.085341
_cell_length_b 17.893301
_cell_length_c 7.620387
_cell_angle_alpha 33.875731
_cell_angle_beta 133.659736
_cell_angle_gamma 149.268593
_cell_volume 622.639465
_symmetry_space_group_name_H-M "P -1"
_symmetry_group_IT_number 2
_symmetry_cell_setting 'triclinic'
loop_
_space_group_symop_operation_xyz
x,y,z
-x,-y,-z
loop_
_atom_site_type_symbol
_atom_site_label
_atom_site_fract_x
_atom_site_fract_y
_atom_site_fract_z
Si Si1 0.991217 0.185172 0.758439
Si Si2 0.501499 0.863837 0.971487
Si Si3 0.877288 0.663590 0.979668
Si Si4 0.779033 0.015049 0.321505
Si Si5 0.831891 0.282445 0.162834
Si Si6 0.414042 0.328706 0.077115
Si Si7 0.797518 0.750991 0.366924
Si Si8 0.390403 0.741863 0.669448
O O1 0.088463 0.250747 0.587286
O O2 0.855906 0.190329 0.529544
O O3 0.117769 0.319274 0.837788
O O4 0.894608 0.970895 0.082844
O O5 0.315680 0.736525 0.003654
O O6 0.481142 0.791449 0.888528
O O7 0.580283 0.078224 0.672417
O O8 0.618223 0.876341 0.239058
O O9 0.776421 0.678012 0.674787
O O10 0.799721 0.455787 0.221930
O O11 0.060496 0.848811 0.826645
O O12 0.754523 0.869530 0.699743
O O13 0.793599 0.161681 0.172033
O O14 0.000000 0.500000 0.000000
O O15 0.523684 0.288154 0.281225
O O16 0.500000 0.500000 0.000000
O O17 0.365051 0.360769 0.763500
#
# Coordination Sequence:
#
# PCOD9062196 Si02
#       8
#     2   2   2   2   2   2   2   2
#     4  11  24  45  71 107 151 187 249 310 372 439
#     4  11  27  47  75 105 158 196 242 318 379 444
#     4  12  27  44  77 111 144 200 253 306 373 449
#     4  12  26  48  75 113 149 196 260 301 381 451
#     4  12  25  47  79 109 148 201 247 311 376 451
#     4  12  27  48  77 106 152 203 245 315 381 446
#     4  11  23  48  70 103 153 192 247 313 370 440
#     4  11  27  50  70 112 150 196 252 310 379 447
#
# _framework density 25.697056
#
# number of rings (size 3 to 8) (size 9 to 14) (size 15 to 20)
#    0.000    0.500    3.750    3.000    8.750    2.000 
#    0.000    0.000    0.000    0.000    0.000    0.000 
#    0.000    0.000    0.000    0.000    0.000    0.000 
#
# Total GULP energy -89700.201489 kJ/mol
# GULP energy per Si atom -5606.262593 kJ/mol
# Density = 2.563857 g / cm^3
# Si number density = 25.697056 Si / 1000 Ang^3
#
#
#
# Elastic Constant Matrix: (Units=GPa)
#
#
# Indices 1 2 3 4 5 6 
#
# 1 69.4782 34.1067 10.3875 -4.2021 4.9214 -2.4185
# 2 34.1067 177.5688 41.3819 -0.3485 -5.0532 -12.4001
# 3 10.3875 41.3819 34.0591 1.4912 -2.6199 -3.5922
# 4 -4.2021 -0.3485 1.4912 58.3878 -5.8245 -3.6908
# 5 4.9214 -5.0532 -2.6199 -5.8245 25.3970 0.3646
# 6 -2.4185 -12.4001 -3.5922 -3.6908 0.3646 53.8136
#
#
#
# Elastic Compliance Matrix: (Units=1/GPa)
#
#
# Indices 1 2 3 4 5 6 
#
# 1 0.016370 -0.002801 -0.001909 0.000841 -0.003734 0.000046
# 2 -0.002801 0.008430 -0.009171 0.000292 0.001323 0.001215
# 3 -0.001909 -0.009171 0.041377 -0.000961 0.002586 0.000480
# 4 0.000841 0.000292 -0.000961 0.017673 0.003832 0.001227
# 5 -0.003734 0.001323 0.002586 0.003832 0.041503 0.000291
# 6 0.000046 0.001215 0.000480 0.001227 0.000291 0.018979
#
#
# Mechanical properties :
#
#
# Convention : Reuss Voigt Hill
#
# Bulk Modulus (GPa) = 26.03076 50.31761 38.17419
# Shear Modulus (GPa) = 27.04167 40.53502 33.78834
#
# Velocity S-wave (km/s) = 3.24748 3.97598 3.63005
# Velocity P-wave (km/s) = 4.92070 6.37977 5.69714
#
# Compressibility (1/GPa) = 0.03841608
#
# Stress axis : x y z
#
# Youngs Moduli (GPa) = 61.08619 118.62386 24.16788
#
# Poissons Ratio (x) = 0.33226 0.04613
# Poissons Ratio (y) = 0.17110 0.22164
# Poissons Ratio (z) = 0.11660 1.08790
#
# Static dielectric constant tensor:
#      x y z
#    x 2.093160 0.038230 -0.018070 
#    y 0.038230 1.981280 0.025520 
#    z -0.018070 0.025520 2.029910 
# 
# From -- ./inp_files/336650.got.cif
#   From: 2010.05.17/outbox.cif.g08.bks.cpg/sg2_169_cif.got.tgz:336650.got - 2010.06.03 11:33:40.
