data_PCOD9062260
_publ_section_title
;
Structure prediction by ZEFSAII (Michael W. Deem and Ramdas Pophale) SiO2 
 PCOD9062260
Probable space group: P -1
;
_chemical_formula_sum "Si O2"
_cell_formula_units_Z 11
_cell_length_a 12.414422
_cell_length_b 5.565644
_cell_length_c 8.635086
_cell_angle_alpha 92.842703
_cell_angle_beta 127.850450
_cell_angle_gamma 65.383717
_cell_volume 410.283052
_symmetry_space_group_name_H-M "P -1"
_symmetry_group_IT_number 2
_symmetry_cell_setting 'triclinic'
loop_
_space_group_symop_operation_xyz
x,y,z
-x,-y,-z
loop_
_atom_site_type_symbol
_atom_site_label
_atom_site_fract_x
_atom_site_fract_y
_atom_site_fract_z
Si Si1 0.340381 0.479290 0.363265
Si Si2 0.065211 0.643958 0.681212
Si Si3 0.589956 0.169959 0.068021
Si Si4 0.000000 0.000000 0.000000
Si Si5 0.798010 0.191817 0.474602
Si Si6 0.777733 0.824005 0.946654
O O1 0.500000 0.500000 0.500000
O O2 0.190007 0.749942 0.168582
O O3 0.287180 0.530821 0.496904
O O4 0.333032 0.222046 0.273234
O O5 0.147179 0.749896 0.637935
O O6 0.167590 0.422359 0.887639
O O7 0.000000 0.500000 0.500000
O O8 0.942428 0.924533 0.673727
O O9 0.684685 0.085801 0.310965
O O10 0.683388 0.081634 0.985877
O O11 0.500000 0.500000 0.000000
O O12 0.500000 0.000000 0.000000
O O13 0.934649 0.801860 0.013474
#
# Coordination Sequence:
#
# PCOD9062260 Si02
#       6
#     2   2   2   1   2   2
#     4  12  29  53  84 123 172 228 290 358 446 524
#     4  11  23  48  85 121 159 221 292 354 434 511
#     4  12  28  51  85 123 169 224 293 365 435 520
#     4  12  30  54  82 120 180 226 294 348 448 524
#     4  11  26  47  82 121 163 216 285 360 429 517
#     4  12  28  54  86 121 174 232 286 367 442 528
#
# _framework density 26.810759999999998
#
# number of rings (size 3 to 8) (size 9 to 14) (size 15 to 20)
#    0.000    0.364    1.818    4.909   10.182    2.182 
#    0.000    0.000    0.000    0.000    0.000    0.000 
#    0.000    0.000    0.000    0.000    0.000    0.000 
#
# Total GULP energy -61388.150872 kJ/mol
# GULP energy per Si atom -5580.740988 kJ/mol
# Density = 2.674974 g / cm^3
# Si number density = 26.810760 Si / 1000 Ang^3
#
#
#
# Elastic Constant Matrix: (Units=GPa)
#
#
# Indices 1 2 3 4 5 6 
#
# 1 137.1080 63.1875 45.4524 0.1212 2.9175 -14.4796
# 2 63.1875 171.7754 51.8041 25.5130 6.8893 -24.4545
# 3 45.4524 51.8041 93.1035 21.9075 30.8212 -5.1298
# 4 0.1212 25.5130 21.9075 70.8920 2.4068 -7.7532
# 5 2.9175 6.8893 30.8212 2.4068 50.4598 11.5380
# 6 -14.4796 -24.4545 -5.1298 -7.7532 11.5380 48.9789
#
#
#
# Elastic Compliance Matrix: (Units=1/GPa)
#
#
# Indices 1 2 3 4 5 6 
#
# 1 0.010134 -0.002589 -0.004799 0.002431 0.002347 0.001033
# 2 -0.002589 0.008279 -0.002837 -0.001806 0.000213 0.002735
# 3 -0.004799 -0.002837 0.019530 -0.004494 -0.011316 0.001164
# 4 0.002431 -0.001806 -0.004494 0.016247 0.001731 0.001510
# 5 0.002347 0.000213 -0.011316 0.001731 0.028017 -0.006711
# 6 0.001033 0.002735 0.001164 0.001510 -0.006711 0.024030
#
#
# Mechanical properties :
#
#
# Convention : Reuss Voigt Hill
#
# Bulk Modulus (GPa) = 57.16626 80.31942 68.74284
# Shear Modulus (GPa) = 37.73061 50.16899 43.94980
#
# Velocity S-wave (km/s) = 3.75546 4.33046 4.05317
# Velocity P-wave (km/s) = 6.33822 7.41800 6.89927
#
# Compressibility (1/GPa) = 0.01749284
#
# Stress axis : x y z
#
# Youngs Moduli (GPa) = 98.67298 120.79354 51.20256
#
# Poissons Ratio (x) = 0.31271 0.24572
# Poissons Ratio (y) = 0.25544 0.14529
# Poissons Ratio (z) = 0.47353 0.34275
#
# Static dielectric constant tensor:
#      x y z
#    x 2.028700 1.646900 -0.195940 
#    y 1.646900 -9.581610 1.224020 
#    z -0.195940 1.224020 2.078130 
# 
# From -- ./inp_files/228617.got.cif
#   From: 2010.05.17/outbox.cif.g08.bks.cpg/sg2_115_cif.got.tgz:228617.got - 2010.06.03 11:33:40.
