data_PCOD9062737
_publ_section_title
;
Structure prediction by ZEFSAII (Michael W. Deem and Ramdas Pophale) SiO2 
 PCOD9062737
Probable space group: P -1
;
_chemical_formula_sum "Si O2"
_cell_formula_units_Z 16
_cell_length_a 23.178696
_cell_length_b 6.562211
_cell_length_c 19.315961
_cell_angle_alpha 60.769296
_cell_angle_beta 20.471159
_cell_angle_gamma 50.674995
_cell_volume 732.096032
_symmetry_space_group_name_H-M "P -1"
_symmetry_group_IT_number 2
_symmetry_cell_setting 'triclinic'
loop_
_space_group_symop_operation_xyz
x,y,z
-x,-y,-z
loop_
_atom_site_type_symbol
_atom_site_label
_atom_site_fract_x
_atom_site_fract_y
_atom_site_fract_z
Si Si1 0.565022 0.431942 0.019039
Si Si2 0.433325 0.218364 0.925499
Si Si3 0.379052 0.624330 0.804099
Si Si4 0.740984 0.708312 0.575908
Si Si5 0.378522 0.730951 0.539891
Si Si6 0.998739 0.737816 0.915131
Si Si7 0.258597 0.323347 0.576736
Si Si8 0.896310 0.903805 0.684615
O O1 0.529706 0.694102 0.057239
O O2 0.797215 0.160141 0.809253
O O3 0.500000 0.500000 0.000000
O O4 0.430996 0.348442 0.220640
O O5 0.297007 0.102564 0.111958
O O6 0.324708 0.488903 0.949630
O O7 0.643119 0.982801 0.689682
O O8 0.476345 0.393284 0.670401
O O9 0.558252 0.643868 0.628093
O O10 0.201498 0.939817 0.923359
O O11 0.784064 0.726144 0.445076
O O12 0.935549 0.421186 0.433348
O O13 0.500000 0.500000 0.500000
O O14 0.174883 0.760062 0.743699
O O15 0.328841 0.022563 0.579978
O O16 0.070770 0.589543 0.783101
O O17 0.000000 0.500000 0.000000
O O18 0.000000 0.000000 0.500000
#
# Coordination Sequence:
#
# PCOD9062737 Si02
#       8
#     2   2   2   2   2   2   2   2
#     4  11  24  48  69  99 136 179 223 283 346 408
#     4  11  26  43  72 100 136 183 226 289 345 404
#     4  11  24  44  67 101 137 176 234 279 341 402
#     4  11  24  45  67  99 136 173 232 280 343 405
#     4  11  24  44  69  96 136 183 224 278 342 402
#     4  11  26  43  66 105 137 180 229 281 339 408
#     4  11  24  42  69  96 137 179 223 285 336 401
#     4  11  26  45  67 104 135 177 227 279 346 414
#
# _framework density 21.855055
#
# number of rings (size 3 to 8) (size 9 to 14) (size 15 to 20)
#    0.000    1.000    3.750    1.500    3.500    8.500 
#    0.000    0.000    0.000    0.000    0.000    0.000 
#    0.000    0.000    0.000    0.000    0.000    0.000 
#
# Total GULP energy -89301.713123 kJ/mol
# GULP energy per Si atom -5581.357070 kJ/mol
# Density = 2.180531 g / cm^3
# Si number density = 21.855055 Si / 1000 Ang^3
#
#
#
# Elastic Constant Matrix: (Units=GPa)
#
#
# Indices 1 2 3 4 5 6 
#
# 1 85.8210 15.9440 20.5449 14.4717 13.8780 5.0810
# 2 15.9440 105.2946 28.2070 15.5068 -0.4180 -4.1154
# 3 20.5449 28.2070 85.1852 20.9254 12.0715 1.9364
# 4 14.4717 15.5068 20.9254 52.1580 -4.6854 5.6695
# 5 13.8780 -0.4180 12.0715 -4.6854 12.6074 7.9742
# 6 5.0810 -4.1154 1.9364 5.6695 7.9742 43.0378
#
#
#
# Elastic Compliance Matrix: (Units=1/GPa)
#
#
# Indices 1 2 3 4 5 6 
#
# 1 0.016680 -0.001912 0.001944 -0.007478 -0.025228 0.003420
# 2 -0.001912 0.010951 -0.003751 -0.000792 0.005423 0.000541
# 3 0.001944 -0.003751 0.018613 -0.009824 -0.026794 0.004833
# 4 -0.007478 -0.000792 -0.009824 0.029476 0.034245 -0.008979
# 5 -0.025228 0.005423 -0.026794 0.034245 0.164849 -0.030352
# 6 0.003420 0.000541 0.004833 -0.008979 -0.030352 0.029472
#
#
# Mechanical properties :
#
#
# Convention : Reuss Voigt Hill
#
# Bulk Modulus (GPa) = 25.76913 45.07697 35.42305
# Shear Modulus (GPa) = 17.21683 35.66764 26.44224
#
# Velocity S-wave (km/s) = 2.80978 4.04420 3.48212
# Velocity P-wave (km/s) = 4.72684 6.51748 5.69300
#
# Compressibility (1/GPa) = 0.03880612
#
# Stress axis : x y z
#
# Youngs Moduli (GPa) = 59.95206 91.31687 53.72730
#
# Poissons Ratio (x) = 0.17458 -0.10447
# Poissons Ratio (y) = 0.11462 0.20154
# Poissons Ratio (z) = -0.11657 0.34255
#
# Static dielectric constant tensor:
#      x y z
#    x 1.819630 -0.030510 0.025750 
#    y -0.030510 1.874520 0.066810 
#    z 0.025750 0.066810 1.803740 
# 
# From -- ./inp_files/53179.got.cif
#   From: 2010.05.17/outbox.cif.g08.bks.cpg/sg2_27_cif.got.tgz:53179.got - 2010.06.03 11:33:40.
