data_PCOD9062276
_publ_section_title
;
Structure prediction by ZEFSAII (Michael W. Deem and Ramdas Pophale) SiO2 
 PCOD9062276
Probable space group: P -1
;
_chemical_formula_sum "Si O2"
_cell_formula_units_Z 12
_cell_length_a 12.773022
_cell_length_b 11.832378
_cell_length_c 5.223927
_cell_angle_alpha 114.804848
_cell_angle_beta 51.119612
_cell_angle_gamma 130.432713
_cell_volume 467.716812
_symmetry_space_group_name_H-M "P -1"
_symmetry_group_IT_number 2
_symmetry_cell_setting 'triclinic'
loop_
_space_group_symop_operation_xyz
x,y,z
-x,-y,-z
loop_
_atom_site_type_symbol
_atom_site_label
_atom_site_fract_x
_atom_site_fract_y
_atom_site_fract_z
Si Si1 0.183320 0.126846 0.391812
Si Si2 0.746593 0.224688 0.426335
Si Si3 0.860575 0.394698 0.910369
Si Si4 0.325729 0.449253 0.603597
Si Si5 0.500625 0.704968 0.247650
Si Si6 0.615764 0.951552 0.673080
O O1 0.207456 0.271411 0.637114
O O2 0.250651 0.039530 0.346238
O O3 0.319784 0.222758 0.057478
O O4 0.000000 0.000000 0.500000
O O5 0.778340 0.257195 0.107619
O O6 0.595020 0.241072 0.718494
O O7 0.699381 0.061202 0.408140
O O8 0.872583 0.333573 0.556655
O O9 0.769340 0.478759 0.078999
O O10 0.000000 0.500000 0.000000
O O11 0.500000 0.500000 0.500000
O O12 0.381269 0.529752 0.313641
O O13 0.522844 0.783355 0.559830
O O14 0.500000 0.000000 0.000000
#
# Coordination Sequence:
#
# PCOD9062276 Si02
#       6
#     2   2   2   2   2   2
#     4  12  28  45  70 112 149 190 242 315 384 426
#     4  11  24  43  75 108 142 191 252 305 365 441
#     4  11  26  46  73 108 147 195 246 312 376 433
#     4  11  23  49  72 101 143 197 251 294 365 459
#     4  11  24  46  78 103 141 202 252 301 363 455
#     4  12  24  45  75 105 147 191 255 303 367 455
#
# _framework density 25.656551
#
# number of rings (size 3 to 8) (size 9 to 14) (size 15 to 20)
#    0.000    0.667    3.333    4.500    4.667    2.000 
#    3.000    0.000    0.000    0.000    0.000    0.000 
#    0.000    0.000    0.000    0.000    0.000    0.000 
#
# Total GULP energy -66950.315641 kJ/mol
# GULP energy per Si atom -5579.192970 kJ/mol
# Density = 2.559816 g / cm^3
# Si number density = 25.656551 Si / 1000 Ang^3
#
#
#
# Elastic Constant Matrix: (Units=GPa)
#
#
# Indices 1 2 3 4 5 6 
#
# 1 161.2966 69.1265 14.2690 -0.9846 -1.5545 -3.0549
# 2 69.1265 167.5643 0.1800 0.7903 -16.5848 -9.0480
# 3 14.2690 0.1800 36.6497 7.4279 11.1449 -11.5602
# 4 -0.9846 0.7903 7.4279 39.5225 1.3069 -1.4875
# 5 -1.5545 -16.5848 11.1449 1.3069 25.7235 -0.3496
# 6 -3.0549 -9.0480 -11.5602 -1.4875 -0.3496 64.6463
#
#
#
# Elastic Compliance Matrix: (Units=1/GPa)
#
#
# Indices 1 2 3 4 5 6 
#
# 1 0.007915 -0.003328 -0.003379 0.000882 -0.000257 -0.000677
# 2 -0.003328 0.007874 0.000182 -0.000397 0.004830 0.000994
# 3 -0.003379 0.000182 0.036521 -0.006207 -0.015510 0.006170
# 4 0.000882 -0.000397 -0.006207 0.026442 0.001136 -0.000509
# 5 -0.000257 0.004830 -0.015510 0.001136 0.048611 -0.001821
# 6 -0.000677 0.000994 0.006170 -0.000509 -0.001821 0.016658
#
#
# Mechanical properties :
#
#
# Convention : Reuss Voigt Hill
#
# Bulk Modulus (GPa) = 25.47127 59.18462 42.32795
# Shear Modulus (GPa) = 29.38462 44.77414 37.07938
#
# Velocity S-wave (km/s) = 3.38791 4.18201 3.80573
# Velocity P-wave (km/s) = 5.02526 6.81448 5.98708
#
# Compressibility (1/GPa) = 0.03925992
#
# Stress axis : x y z
#
# Youngs Moduli (GPa) = 126.34302 126.99790 27.38170
#
# Poissons Ratio (x) = 0.42262 0.09253
# Poissons Ratio (y) = 0.42044 -0.00499
# Poissons Ratio (z) = 0.42696 -0.02313
#
# Static dielectric constant tensor:
#      x y z
#    x 2.026130 0.070770 0.006250 
#    y 0.070770 2.204090 -0.048200 
#    z 0.006250 -0.048200 2.213260 
# 
# From -- ./inp_files/67510.got.cif
#   From: 2010.05.17/outbox.cif.g08.bks.cpg/sg2_34_cif.got.tgz:67510.got - 2010.06.03 11:33:40.
