data_PCOD9062431
_publ_section_title
;
Structure prediction by ZEFSAII (Michael W. Deem and Ramdas Pophale) SiO2 
 PCOD9062431
Probable space group: P -1
;
_chemical_formula_sum "Si O2"
_cell_formula_units_Z 16
_cell_length_a 13.521155
_cell_length_b 9.084611
_cell_length_c 9.099634
_cell_angle_alpha 50.037836
_cell_angle_beta 63.405858
_cell_angle_gamma 93.461410
_cell_volume 660.042391
_symmetry_space_group_name_H-M "P -1"
_symmetry_group_IT_number 2
_symmetry_cell_setting 'triclinic'
loop_
_space_group_symop_operation_xyz
x,y,z
-x,-y,-z
loop_
_atom_site_type_symbol
_atom_site_label
_atom_site_fract_x
_atom_site_fract_y
_atom_site_fract_z
Si Si1 0.813003 0.500602 0.238036
Si Si2 0.416047 0.632637 0.058992
Si Si3 0.139683 0.038834 0.192720
Si Si4 0.757506 0.167782 0.226547
Si Si5 0.664654 0.037415 0.072781
Si Si6 0.992052 0.550577 0.644534
Si Si7 0.443160 0.612343 0.366160
Si Si8 0.301503 0.175786 0.293706
O O1 0.753078 0.324708 0.256440
O O2 0.900735 0.445216 0.319529
O O3 0.697449 0.467185 0.436698
O O4 0.878821 0.754819 0.970574
O O5 0.444866 0.541268 0.245615
O O6 0.340066 0.429743 0.131393
O O7 0.328321 0.729472 0.108169
O O8 0.559923 0.812550 0.797051
O O9 0.014520 0.800704 0.465971
O O10 0.231548 0.101897 0.232956
O O11 0.220028 0.995499 0.039898
O O12 0.649667 0.020403 0.270992
O O13 0.781777 0.994479 0.413030
O O14 0.866457 0.349620 0.930489
O O15 0.540234 0.869747 0.169517
O O16 0.000000 0.500000 0.500000
O O17 0.500000 0.500000 0.500000
#
# Coordination Sequence:
#
# PCOD9062431 Si02
#       8
#     2   2   2   2   2   2   2   2
#     4  12  27  48  78 112 147 200 247 308 378 437
#     4  11  24  40  71 107 148 199 238 302 382 439
#     4  12  25  49  73 107 147 193 248 305 370 446
#     4  12  27  48  73 108 150 193 253 312 364 438
#     4  12  24  43  71 108 146 195 243 302 372 445
#     4  12  28  53  76 107 148 195 259 313 365 442
#     4  12  23  42  73 109 153 190 243 299 370 455
#     4  11  24  45  71 108 152 190 251 307 368 451
#
# _framework density 24.240867999999999
#
# number of rings (size 3 to 8) (size 9 to 14) (size 15 to 20)
#    0.000    0.250    5.000    3.750    0.000    5.000 
#    2.250    0.000    0.000    0.000    0.000    0.000 
#    0.000    0.000    0.000    0.000    0.000    0.000 
#
# Total GULP energy -89424.456011 kJ/mol
# GULP energy per Si atom -5589.028501 kJ/mol
# Density = 2.418569 g / cm^3
# Si number density = 24.240868 Si / 1000 Ang^3
#
#
#
# Elastic Constant Matrix: (Units=GPa)
#
#
# Indices 1 2 3 4 5 6 
#
# 1 42.9502 -0.5756 13.7679 -4.3873 18.1413 12.2711
# 2 -0.5756 112.4480 29.7923 -10.9809 14.2861 26.7397
# 3 13.7679 29.7923 107.4072 4.1043 11.4190 7.6209
# 4 -4.3873 -10.9809 4.1043 35.5733 4.5683 8.9034
# 5 18.1413 14.2861 11.4190 4.5683 42.0620 -0.1588
# 6 12.2711 26.7397 7.6209 8.9034 -0.1588 33.3910
#
#
#
# Elastic Compliance Matrix: (Units=1/GPa)
#
#
# Indices 1 2 3 4 5 6 
#
# 1 0.051696 0.017436 -0.006597 0.025931 -0.029389 -0.038509
# 2 0.017436 0.020119 -0.005038 0.017392 -0.014973 -0.026078
# 3 -0.006597 -0.005038 0.011151 -0.005261 0.002121 0.005327
# 4 0.025931 0.017392 -0.005261 0.048850 -0.021102 -0.035382
# 5 -0.029389 -0.014973 0.002121 -0.021102 0.043358 0.028140
# 6 -0.038509 -0.026078 0.005327 -0.035382 0.028140 0.073336
#
#
# Mechanical properties :
#
#
# Convention : Reuss Voigt Hill
#
# Bulk Modulus (GPa) = 10.57442 38.75272 24.66357
# Shear Modulus (GPa) = 18.62683 36.85999 27.74341
#
# Velocity S-wave (km/s) = 2.77502 3.90368 3.38670
# Velocity P-wave (km/s) = 3.82614 6.02823 5.04871
#
# Compressibility (1/GPa) = 0.09456782
#
# Stress axis : x y z
#
# Youngs Moduli (GPa) = 19.34397 49.70472 89.67785
#
# Poissons Ratio (x) = -0.86665 0.59159
# Poissons Ratio (y) = -0.33728 0.45179
# Poissons Ratio (z) = 0.12761 0.25041
#
# Static dielectric constant tensor:
#      x y z
#    x 1.910660 -0.057770 0.004690 
#    y -0.057770 1.901860 -0.100380 
#    z 0.004690 -0.100380 2.124210 
# 
# From -- ./inp_files/297392.got.cif
#   From: 2010.05.17/outbox.cif.g08.bks.cpg/sg2_149_cif.got.tgz:297392.got - 2010.06.03 11:33:40.
