data_PCOD9062201
_publ_section_title
;
Structure prediction by ZEFSAII (Michael W. Deem and Ramdas Pophale) SiO2 
 PCOD9062201
Probable space group: P -1
;
_chemical_formula_sum "Si O2"
_cell_formula_units_Z 14
_cell_length_a 11.884087
_cell_length_b 22.662412
_cell_length_c 12.770738
_cell_angle_alpha 155.962630
_cell_angle_beta 23.586001
_cell_angle_gamma 156.640856
_cell_volume 486.340525
_symmetry_space_group_name_H-M "P -1"
_symmetry_group_IT_number 2
_symmetry_cell_setting 'triclinic'
loop_
_space_group_symop_operation_xyz
x,y,z
-x,-y,-z
loop_
_atom_site_type_symbol
_atom_site_label
_atom_site_fract_x
_atom_site_fract_y
_atom_site_fract_z
Si Si1 0.437301 0.421256 0.644916
Si Si2 0.431462 0.830976 0.338289
Si Si3 0.289306 0.191718 0.728835
Si Si4 0.883368 0.534575 0.810296
Si Si5 0.324203 0.101303 0.123836
Si Si6 0.706131 0.696893 0.720331
Si Si7 0.833053 0.088525 0.792071
O O1 0.286554 0.224491 0.438874
O O2 0.453851 0.503289 0.650837
O O3 0.795815 0.480226 0.480749
O O4 0.256240 0.471315 0.964605
O O5 0.496557 0.849734 0.436601
O O6 0.054303 0.711300 0.441536
O O7 0.500000 0.000000 0.500000
O O8 0.660870 0.775328 0.994269
O O9 0.588792 0.379354 0.752350
O O10 0.174913 0.080615 0.538039
O O11 0.954348 0.085902 0.913679
O O12 0.982410 0.722426 0.994237
O O13 0.317086 0.184569 0.155276
O O14 0.684924 0.138389 0.898543
O O15 0.500000 0.000000 0.000000
#
# Coordination Sequence:
#
# PCOD9062201 Si02
#       7
#     2   2   2   2   2   2   2
#     4  11  23  48  71 112 146 191 237 301 367 434
#     4  12  26  43  75 109 147 188 242 302 364 426
#     4  12  24  47  74 106 145 192 245 301 361 427
#     4  11  25  47  77 105 146 189 248 300 360 429
#     4  11  27  44  75 107 151 193 241 301 367 435
#     4  12  24  46  74 108 147 191 242 296 363 438
#     4  11  27  48  72 108 148 196 246 299 366 434
#
# _framework density 28.786415999999999
#
# number of rings (size 3 to 8) (size 9 to 14) (size 15 to 20)
#    0.000    0.571    4.286    2.571    2.000    4.571 
#    0.000    9.286    0.000    0.000    0.000    0.000 
#    0.000    0.000    0.000    0.000    0.000    0.000 
#
# Total GULP energy -78270.113182 kJ/mol
# GULP energy per Si atom -5590.722370 kJ/mol
# Density = 2.872090 g / cm^3
# Si number density = 28.786416 Si / 1000 Ang^3
#
#
#
# Elastic Constant Matrix: (Units=GPa)
#
#
# Indices 1 2 3 4 5 6 
#
# 1 67.0461 58.5516 68.3201 -9.1732 42.7847 65.6943
# 2 58.5516 214.8180 45.9585 0.8856 -2.5328 12.0567
# 3 68.3201 45.9585 140.7098 -11.6682 -36.0930 -12.6680
# 4 -9.1732 0.8856 -11.6682 53.9545 3.0065 -5.8150
# 5 42.7847 -2.5328 -36.0930 3.0065 15.4003 -22.9254
# 6 65.6943 12.0567 -12.6680 -5.8150 -22.9254 35.4257
#
#
#
# Elastic Compliance Matrix: (Units=1/GPa)
#
#
# Indices 1 2 3 4 5 6 
#
# 1 0.001482 -0.001194 0.002825 0.000897 0.010124 0.005368
# 2 -0.001194 0.005388 -0.001662 -0.000704 -0.001251 -0.001139
# 3 0.002825 -0.001662 0.005181 0.001304 -0.003082 -0.004601
# 4 0.000897 -0.000704 0.001304 0.019204 -0.000891 0.001618
# 5 0.010124 -0.001251 -0.003082 -0.000891 0.010367 -0.012888
# 6 0.005368 -0.001139 -0.004601 0.001618 -0.012888 0.008942
#
#
# Mechanical properties :
#
#
# Convention : Reuss Voigt Hill
#
# Bulk Modulus (GPa) = 83.40610 85.35937 84.38274
# Shear Modulus (GPa) = 91.53862 37.60567 64.57215
#
# Velocity S-wave (km/s) = 5.64520 3.61829 4.74132
# Velocity P-wave (km/s) = 8.45743 6.86827 7.70393
#
# Compressibility (1/GPa) = 0.01198953
#
# Stress axis : x y z
#
# Youngs Moduli (GPa) = 674.93659 185.59209 193.00095
#
# Poissons Ratio (x) = 0.22157 -0.54523
# Poissons Ratio (y) = 0.80576 0.32077
# Poissons Ratio (z) = -1.90672 0.30845
#
# Static dielectric constant tensor:
#      x y z
#    x -0.244610 0.557510 1.776480 
#    y 0.557510 2.115130 -0.226900 
#    z 1.776480 -0.226900 1.025390 
# 
# From -- ./inp_files/535729.got.cif
#   From: 2010.05.17/outbox.cif.g08.bks.cpg/sg2_268_cif.got.tgz:535729.got - 2010.06.03 11:33:40.
