data_PCOD9062193
_publ_section_title
;
Structure prediction by ZEFSAII (Michael W. Deem and Ramdas Pophale) SiO2 
 PCOD9062193
Probable space group: P -1
;
_chemical_formula_sum "Si O2"
_cell_formula_units_Z 14
_cell_length_a 12.394283
_cell_length_b 12.818200
_cell_length_c 5.639443
_cell_angle_alpha 69.453859
_cell_angle_beta 117.831597
_cell_angle_gamma 136.511059
_cell_volume 545.169927
_symmetry_space_group_name_H-M "P -1"
_symmetry_group_IT_number 2
_symmetry_cell_setting 'triclinic'
loop_
_space_group_symop_operation_xyz
x,y,z
-x,-y,-z
loop_
_atom_site_type_symbol
_atom_site_label
_atom_site_fract_x
_atom_site_fract_y
_atom_site_fract_z
Si Si1 0.075875 0.663696 0.356898
Si Si2 0.984056 0.115039 0.292982
Si Si3 0.667772 0.262433 0.742925
Si Si4 0.217655 0.347891 0.029025
Si Si5 0.306097 0.969366 0.632956
Si Si6 0.746205 0.878554 0.902724
Si Si7 0.407233 0.670263 0.900158
O O1 0.158459 0.690727 0.165150
O O2 0.230023 0.818730 0.527684
O O3 0.000000 0.500000 0.500000
O O4 0.926286 0.658883 0.207810
O O5 0.842824 0.101573 0.277376
O O6 0.912368 0.042603 0.017853
O O7 0.000000 0.000000 0.500000
O O8 0.158509 0.282779 0.289650
O O9 0.646545 0.320397 0.426870
O O10 0.507339 0.082136 0.755144
O O11 0.675479 0.331119 0.946356
O O12 0.238435 0.242802 0.008623
O O13 0.379223 0.521850 0.019452
O O14 0.303658 0.090407 0.411111
O O15 0.602245 0.817685 0.990657
#
# Coordination Sequence:
#
# PCOD9062193 Si02
#       7
#     2   2   2   2   2   2   2
#     4  12  26  47  73 107 151 196 247 309 372 440
#     4  12  23  41  73 109 143 187 245 308 379 443
#     4  11  26  50  75 106 151 203 255 296 368 451
#     4  12  25  44  74 111 151 190 245 316 373 441
#     4  11  24  47  72 106 143 196 251 305 370 443
#     4  11  23  48  69 109 144 192 249 301 378 445
#     4  11  26  48  77 109 152 198 246 311 374 444
#
# _framework density 25.680067999999999
#
# number of rings (size 3 to 8) (size 9 to 14) (size 15 to 20)
#    0.000    0.571    5.714    2.143    2.000    2.857 
#    0.000    5.714    0.000    0.000    0.000    0.000 
#    0.000    0.000    0.000    0.000    0.000    0.000 
#
# Total GULP energy -78160.026721 kJ/mol
# GULP energy per Si atom -5582.859052 kJ/mol
# Density = 2.562162 g / cm^3
# Si number density = 25.680068 Si / 1000 Ang^3
#
#
#
# Elastic Constant Matrix: (Units=GPa)
#
#
# Indices 1 2 3 4 5 6 
#
# 1 126.7598 14.6385 28.0028 -21.8209 -30.4652 -3.8421
# 2 14.6385 106.0967 42.5811 -36.4105 -0.4473 -8.4497
# 3 28.0028 42.5811 92.2407 -40.4341 -13.1710 -7.2827
# 4 -21.8209 -36.4105 -40.4341 43.1458 -7.7980 1.4729
# 5 -30.4652 -0.4473 -13.1710 -7.7980 40.5159 -1.8781
# 6 -3.8421 -8.4497 -7.2827 1.4729 -1.8781 47.9749
#
#
#
# Elastic Compliance Matrix: (Units=1/GPa)
#
#
# Indices 1 2 3 4 5 6 
#
# 1 0.012370 0.001652 0.003074 0.012794 0.012868 0.001859
# 2 0.001652 0.013993 -0.000791 0.012486 0.003647 0.002236
# 3 0.003074 -0.000791 0.024303 0.026331 0.015438 0.003592
# 4 0.012794 0.012486 0.026331 0.070460 0.032172 0.006317
# 5 0.012868 0.003647 0.015438 0.032172 0.045832 0.004823
# 6 0.001859 0.002236 0.003592 0.006317 0.004823 0.021927
#
#
# Mechanical properties :
#
#
# Convention : Reuss Voigt Hill
#
# Bulk Modulus (GPa) = 17.08274 55.06023 36.07148
# Shear Modulus (GPa) = 24.93443 42.31897 33.62670
#
# Velocity S-wave (km/s) = 3.11941 4.06388 3.62255
# Velocity P-wave (km/s) = 4.43180 6.59602 5.61909
#
# Compressibility (1/GPa) = 0.05853863
#
# Stress axis : x y z
#
# Youngs Moduli (GPa) = 80.83819 71.46306 41.14731
#
# Poissons Ratio (x) = -0.11808 -0.12650
# Poissons Ratio (y) = -0.13358 0.03253
# Poissons Ratio (z) = -0.24852 0.05650
#
# Static dielectric constant tensor:
#      x y z
#    x 2.097820 -0.000590 0.082580 
#    y -0.000590 1.965670 -0.013080 
#    z 0.082580 -0.013080 2.179550 
# 
# From -- ./inp_files/47920.got.cif
#   From: 2010.05.17/outbox.cif.g08.bks.cpg/sg2_24_cif.got.tgz:47920.got - 2010.06.03 11:33:40.
