data_PCOD9062231
_publ_section_title
;
Structure prediction by ZEFSAII (Michael W. Deem and Ramdas Pophale) SiO2 
 PCOD9062231
Probable space group: P -1
;
_chemical_formula_sum "Si O2"
_cell_formula_units_Z 15
_cell_length_a 7.675199
_cell_length_b 12.299788
_cell_length_c 13.285539
_cell_angle_alpha 142.245665
_cell_angle_beta 124.293590
_cell_angle_gamma 65.758676
_cell_volume 632.912313
_symmetry_space_group_name_H-M "P -1"
_symmetry_group_IT_number 2
_symmetry_cell_setting 'triclinic'
loop_
_space_group_symop_operation_xyz
x,y,z
-x,-y,-z
loop_
_atom_site_type_symbol
_atom_site_label
_atom_site_fract_x
_atom_site_fract_y
_atom_site_fract_z
Si Si1 0.965015 0.311441 0.580396
Si Si2 0.428371 0.517250 0.873410
Si Si3 0.130210 0.410098 0.390268
Si Si4 0.047263 0.941691 0.231546
Si Si5 0.174589 0.648220 0.207739
Si Si6 0.777846 0.135011 0.978258
Si Si7 0.500000 0.500000 0.500000
Si Si8 0.661806 0.863774 0.917429
O O1 0.194847 0.415732 0.719837
O O2 0.802687 0.434530 0.558980
O O3 0.889355 0.305373 0.665488
O O4 0.984508 0.126443 0.394253
O O5 0.599674 0.428026 0.795817
O O6 0.401393 0.723476 0.987517
O O7 0.500000 0.500000 0.000000
O O8 0.368940 0.376804 0.464659
O O9 0.000000 0.500000 0.500000
O O10 0.975623 0.265124 0.179191
O O11 0.154677 0.823706 0.262163
O O12 0.187203 0.950743 0.182367
O O13 0.835038 0.844169 0.045824
O O14 0.000000 0.500000 0.000000
O O15 0.749046 0.980315 0.936029
O O16 0.557505 0.673119 0.719347
O O17 0.500000 0.000000 0.000000
#
# Coordination Sequence:
#
# PCOD9062231 Si02
#       8
#     2   2   2   2   2   2   1   2
#     4  11  26  44  71 108 143 196 249 309 377 441
#     4  11  23  48  75 105 142 197 251 300 377 442
#     4  11  24  46  71 106 145 193 248 306 370 447
#     4  12  25  48  70 103 153 191 248 316 374 452
#     4  12  25  46  76 103 147 194 249 310 372 446
#     4  11  24  48  75 102 152 198 243 312 377 451
#     4  12  26  44  78 106 150 194 254 300 386 442
#     4  12  28  47  74 116 149 196 254 313 381 458
#
# _framework density 23.699964999999999
#
# number of rings (size 3 to 8) (size 9 to 14) (size 15 to 20)
#    0.000    0.533    4.000    4.000    3.733    2.667 
#    2.400    0.000    0.000    0.000    0.000    0.000 
#    0.000    0.000    0.000    0.000    0.000    0.000 
#
# Total GULP energy -83750.929176 kJ/mol
# GULP energy per Si atom -5583.395278 kJ/mol
# Density = 2.364602 g / cm^3
# Si number density = 23.699965 Si / 1000 Ang^3
#
#
#
# Elastic Constant Matrix: (Units=GPa)
#
#
# Indices 1 2 3 4 5 6 
#
# 1 158.5089 39.6383 61.4996 -1.4651 -34.1405 0.2629
# 2 39.6383 119.4560 54.1908 1.0941 -19.9897 -7.4437
# 3 61.4996 54.1908 180.3561 14.7824 -24.3284 3.9596
# 4 -1.4651 1.0941 14.7824 40.3536 -2.6556 -9.9271
# 5 -34.1405 -19.9897 -24.3284 -2.6556 65.2247 1.8180
# 6 0.2629 -7.4437 3.9596 -9.9271 1.8180 47.3552
#
#
#
# Elastic Compliance Matrix: (Units=1/GPa)
#
#
# Indices 1 2 3 4 5 6 
#
# 1 0.008114 -0.001227 -0.002084 0.001321 0.003145 0.000093
# 2 -0.001227 0.010346 -0.002629 0.001245 0.001541 0.002055
# 3 -0.002084 -0.002629 0.007445 -0.003098 0.000801 -0.001704
# 4 0.001321 0.001245 -0.003098 0.027507 0.000865 0.006181
# 5 0.003145 0.001541 0.000801 0.000865 0.017794 -0.000344
# 6 0.000093 0.002055 -0.001704 0.006181 -0.000344 0.022891
#
#
# Mechanical properties :
#
#
# Convention : Reuss Voigt Hill
#
# Bulk Modulus (GPa) = 71.31061 85.44205 78.37633
# Shear Modulus (GPa) = 45.18689 50.78618 47.98654
#
# Velocity S-wave (km/s) = 4.37123 4.63415 4.50461
# Velocity P-wave (km/s) = 7.45862 8.04758 7.75869
#
# Compressibility (1/GPa) = 0.01402316
#
# Stress axis : x y z
#
# Youngs Moduli (GPa) = 123.24979 96.65779 134.32242
#
# Poissons Ratio (x) = 0.11859 0.27994
# Poissons Ratio (y) = 0.15122 0.35319
# Poissons Ratio (z) = 0.25687 0.25416
#
# Static dielectric constant tensor:
#      x y z
#    x 3.038790 -0.575960 0.217300 
#    y -0.575960 2.241270 -0.137350 
#    z 0.217300 -0.137350 1.913370 
# 
# From -- ./inp_files/391743.got.cif
#   From: 2010.05.17/outbox.cif.g08.bks.cpg/sg2_196_cif.got.tgz:391743.got - 2010.06.03 11:33:40.
