data_PCOD9062765
_publ_section_title
;
Structure prediction by ZEFSAII (Michael W. Deem and Ramdas Pophale) SiO2 
 PCOD9062765
Probable space group: P -1
;
_chemical_formula_sum "Si O2"
_cell_formula_units_Z 14
_cell_length_a 19.132245
_cell_length_b 5.353576
_cell_length_c 9.723586
_cell_angle_alpha 70.259645
_cell_angle_beta 39.474027
_cell_angle_gamma 60.213276
_cell_volume 547.611480
_symmetry_space_group_name_H-M "P -1"
_symmetry_group_IT_number 2
_symmetry_cell_setting 'triclinic'
loop_
_space_group_symop_operation_xyz
x,y,z
-x,-y,-z
loop_
_atom_site_type_symbol
_atom_site_label
_atom_site_fract_x
_atom_site_fract_y
_atom_site_fract_z
Si Si1 0.667003 0.145122 0.879185
Si Si2 0.936425 0.683706 0.192635
Si Si3 0.320465 0.246760 0.322630
Si Si4 0.056536 0.153019 0.489004
Si Si5 0.096470 0.839889 0.058782
Si Si6 0.655124 0.336266 0.157354
Si Si7 0.471103 0.913139 0.409104
O O1 0.660763 0.463710 0.794850
O O2 0.633600 0.996634 0.823886
O O3 0.804927 0.941306 0.725381
O O4 0.620194 0.202506 0.098762
O O5 0.821034 0.675355 0.445983
O O6 0.060295 0.581239 0.112610
O O7 0.000000 0.500000 0.000000
O O8 0.888398 0.000143 0.130342
O O9 0.392872 0.138210 0.374138
O O10 0.000000 0.500000 0.500000
O O11 0.030349 0.012710 0.696694
O O12 0.000000 0.000000 0.500000
O O13 0.203725 0.758275 0.017529
O O14 0.585241 0.680089 0.201436
O O15 0.613976 0.246979 0.380325
O O16 0.500000 0.000000 0.500000
#
# Coordination Sequence:
#
# PCOD9062765 Si02
#       7
#     2   2   2   2   2   2   2
#     4  12  28  49  77 118 157 199 253 315 400 449
#     4  11  25  40  70 109 149 202 248 310 378 453
#     4  12  28  51  78 112 160 200 253 324 381 462
#     4  12  25  43  71 110 155 197 239 301 373 463
#     4  11  24  42  70 105 147 195 253 302 377 447
#     4  11  27  49  77 110 148 205 259 323 379 461
#     4  11  29  51  79 107 148 204 271 318 379 455
#
# _framework density 25.565570000000001
#
# number of rings (size 3 to 8) (size 9 to 14) (size 15 to 20)
#    0.000    0.571    4.286    1.714   12.000    1.143 
#    0.000    0.000    0.000    0.000    0.000    0.000 
#    0.000    0.000    0.000    0.000    0.000    0.000 
#
# Total GULP energy -78058.609865 kJ/mol
# GULP energy per Si atom -5575.614990 kJ/mol
# Density = 2.550738 g / cm^3
# Si number density = 25.565570 Si / 1000 Ang^3
#
#
#
# Elastic Constant Matrix: (Units=GPa)
#
#
# Indices 1 2 3 4 5 6 
#
# 1 157.7478 46.7876 18.1640 9.1975 14.9525 13.4481
# 2 46.7876 135.1568 33.8665 -1.2363 14.8781 2.8206
# 3 18.1640 33.8665 129.1970 -9.3875 26.9739 -0.7008
# 4 9.1975 -1.2363 -9.3875 41.7315 -4.4497 11.7431
# 5 14.9525 14.8781 26.9739 -4.4497 44.4308 8.8823
# 6 13.4481 2.8206 -0.7008 11.7431 8.8823 42.7741
#
#
#
# Elastic Compliance Matrix: (Units=1/GPa)
#
#
# Indices 1 2 3 4 5 6 
#
# 1 0.007406 -0.002328 -0.000252 -0.001494 -0.001414 -0.001475
# 2 -0.002328 0.008756 -0.001712 0.000174 -0.001155 0.000318
# 3 -0.000252 -0.001712 0.009394 0.001272 -0.005129 0.001062
# 4 -0.001494 0.000174 0.001272 0.027203 0.003958 -0.007811
# 5 -0.001414 -0.001155 -0.005129 0.003958 0.028180 -0.006502
# 6 -0.001475 0.000318 0.001062 -0.007811 -0.006502 0.027333
#
#
# Mechanical properties :
#
#
# Convention : Reuss Voigt Hill
#
# Bulk Modulus (GPa) = 58.92561 68.85975 63.89268
# Shear Modulus (GPa) = 40.81213 47.33951 44.07582
#
# Velocity S-wave (km/s) = 3.99980 4.30780 4.15665
# Velocity P-wave (km/s) = 6.66558 7.19276 6.93418
#
# Compressibility (1/GPa) = 0.01697055
#
# Stress axis : x y z
#
# Youngs Moduli (GPa) = 135.03409 114.21084 106.45582
#
# Poissons Ratio (x) = 0.26583 0.02686
# Poissons Ratio (y) = 0.31430 0.18228
# Poissons Ratio (z) = 0.03406 0.19556
#
# Static dielectric constant tensor:
#      x y z
#    x 3.508120 0.728660 1.044360 
#    y 0.728660 2.512450 0.472910 
#    z 1.044360 0.472910 2.930110 
# 
# From -- ./inp_files/323402.got.cif
#   From: 2010.05.17/outbox.cif.g08.bks.cpg/sg2_162_cif.got.tgz:323402.got - 2010.06.03 11:33:40.
