data_PCOD9062707
_publ_section_title
;
Structure prediction by ZEFSAII (Michael W. Deem and Ramdas Pophale) SiO2 
 PCOD9062707
Probable space group: P -1
;
_chemical_formula_sum "Si O2"
_cell_formula_units_Z 14
_cell_length_a 16.476668
_cell_length_b 8.434755
_cell_length_c 6.531320
_cell_angle_alpha 79.565991
_cell_angle_beta 103.509339
_cell_angle_gamma 141.526664
_cell_volume 549.099197
_symmetry_space_group_name_H-M "P -1"
_symmetry_group_IT_number 2
_symmetry_cell_setting 'triclinic'
loop_
_space_group_symop_operation_xyz
x,y,z
-x,-y,-z
loop_
_atom_site_type_symbol
_atom_site_label
_atom_site_fract_x
_atom_site_fract_y
_atom_site_fract_z
Si Si1 0.801916 0.258681 0.646013
Si Si2 0.288005 0.109088 0.986903
Si Si3 0.668586 0.357397 0.663189
Si Si4 0.899786 0.704388 0.053287
Si Si5 0.519146 0.407213 0.726543
Si Si6 0.817622 0.777680 0.357124
Si Si7 0.046314 0.772407 0.442220
O O1 0.681075 0.206449 0.585684
O O2 0.822880 0.142199 0.524119
O O3 0.938018 0.553107 0.594880
O O4 0.778226 0.137120 0.877392
O O5 0.399958 0.232872 0.859542
O O6 0.187141 0.069705 0.816669
O O7 0.356115 0.328088 0.143074
O O8 0.549528 0.263594 0.733824
O O9 0.694350 0.537957 0.472892
O O10 0.794049 0.528031 0.852563
O O11 0.827958 0.651204 0.231188
O O12 0.981931 0.676486 0.198137
O O13 0.000000 0.000000 0.000000
O O14 0.500000 0.500000 0.500000
O O15 0.917638 0.990184 0.539387
#
# Coordination Sequence:
#
# PCOD9062707 Si02
#       7
#     2   2   2   2   2   2   2
#     4  11  26  44  64 104 145 179 218 276 349 400
#     4  11  25  45  73 100 131 175 230 282 345 400
#     4  12  24  43  70 101 137 175 230 283 330 399
#     4  12  22  38  68 101 132 180 236 269 321 391
#     4  11  24  47  76  97 124 179 235 286 336 399
#     4  12  22  43  71 100 134 181 232 272 321 410
#     4  11  24  42  68  98 147 188 217 267 338 412
#
# _framework density 25.496300999999999
#
# number of rings (size 3 to 8) (size 9 to 14) (size 15 to 20)
#    0.000    0.571    5.714    3.000    0.000    4.000 
#    0.000    0.714    0.000    0.000    0.000    0.000 
#    0.000    0.000    0.000    0.000    0.000    0.000 
#
# Total GULP energy -78087.964531 kJ/mol
# GULP energy per Si atom -5577.711752 kJ/mol
# Density = 2.543827 g / cm^3
# Si number density = 25.496301 Si / 1000 Ang^3
#
#
#
# Elastic Constant Matrix: (Units=GPa)
#
#
# Indices 1 2 3 4 5 6 
#
# 1 167.5169 11.6082 27.3536 -3.4892 -22.0956 -30.4292
# 2 11.6082 40.0231 31.8123 -7.6685 3.1137 -3.1610
# 3 27.3536 31.8123 115.6400 -11.0979 10.0259 3.7808
# 4 -3.4892 -7.6685 -11.0979 55.5682 -5.7695 3.5936
# 5 -22.0956 3.1137 10.0259 -5.7695 43.0420 -5.2024
# 6 -30.4292 -3.1610 3.7808 3.5936 -5.2024 21.3006
#
#
#
# Elastic Compliance Matrix: (Units=1/GPa)
#
#
# Indices 1 2 3 4 5 6 
#
# 1 0.011331 0.000971 -0.004400 -0.000346 0.009068 0.019385
# 2 0.000971 0.033262 -0.009551 0.002393 0.001605 0.008006
# 3 -0.004400 -0.009551 0.013329 0.001210 -0.005927 -0.011721
# 4 -0.000346 0.002393 0.001210 0.018909 0.001519 -0.003173
# 5 0.009068 0.001605 -0.005927 0.001519 0.031992 0.021802
# 6 0.019385 0.008006 -0.011721 -0.003173 0.021802 0.083769
#
#
# Mechanical properties :
#
#
# Convention : Reuss Voigt Hill
#
# Bulk Modulus (GPa) = 31.28919 51.63647 41.46283
# Shear Modulus (GPa) = 21.81440 40.80923 31.31182
#
# Velocity S-wave (km/s) = 2.92822 4.00508 3.50822
# Velocity P-wave (km/s) = 4.87148 6.45632 5.71907
#
# Compressibility (1/GPa) = 0.03195992
#
# Stress axis : x y z
#
# Youngs Moduli (GPa) = 88.25306 30.06469 75.02344
#
# Poissons Ratio (x) = -0.02918 0.33014
# Poissons Ratio (y) = -0.08566 0.71656
# Poissons Ratio (z) = 0.38835 0.28715
#
# Static dielectric constant tensor:
#      x y z
#    x 2.118300 -0.011990 -0.001740 
#    y -0.011990 2.001670 0.062500 
#    z -0.001740 0.062500 2.010050 
# 
# From -- ./inp_files/106751.got.cif
#   From: 2010.05.17/outbox.cif.g08.bks.cpg/sg2_54_cif.got.tgz:106751.got - 2010.06.03 11:33:40.
