data_PCOD9062838
_publ_section_title
;
Structure prediction by ZEFSAII (Michael W. Deem and Ramdas Pophale) SiO2 
 PCOD9062838
Probable space group: P -1
;
_chemical_formula_sum "Si O2"
_cell_formula_units_Z 16
_cell_length_a 5.210017
_cell_length_b 19.436549
_cell_length_c 9.268356
_cell_angle_alpha 47.775687
_cell_angle_beta 92.583440
_cell_angle_gamma 99.736105
_cell_volume 681.979785
_symmetry_space_group_name_H-M "P -1"
_symmetry_group_IT_number 2
_symmetry_cell_setting 'triclinic'
loop_
_space_group_symop_operation_xyz
x,y,z
-x,-y,-z
loop_
_atom_site_type_symbol
_atom_site_label
_atom_site_fract_x
_atom_site_fract_y
_atom_site_fract_z
Si Si1 0.877164 0.375384 0.009358
Si Si2 0.393724 0.693352 0.403053
Si Si3 0.072395 0.231267 0.028479
Si Si4 0.734322 0.955369 0.642089
Si Si5 0.033626 0.208928 0.736167
Si Si6 0.316401 0.547898 0.827983
Si Si7 0.243012 0.972915 0.130009
Si Si8 0.496861 0.404250 0.721517
O O1 0.819424 0.386328 0.161344
O O2 0.915265 0.272184 0.096842
O O3 0.642242 0.406604 0.871894
O O4 0.118580 0.462474 0.869159
O O5 0.100588 0.702176 0.423310
O O6 0.471621 0.614762 0.618417
O O7 0.353896 0.656790 0.292322
O O8 0.652951 0.776649 0.292178
O O9 0.251808 0.157695 0.195433
O O10 0.226419 0.331727 0.832476
O O11 0.957255 0.183071 0.940656
O O12 0.500000 0.000000 0.500000
O O13 0.730520 0.985682 0.767433
O O14 0.000000 0.000000 0.500000
O O15 0.861782 0.138573 0.718862
O O16 0.500000 0.500000 0.000000
O O17 0.500000 0.000000 0.000000
O O18 0.000000 0.000000 0.000000
O O19 0.500000 0.500000 0.500000
#
# Coordination Sequence:
#
# PCOD9062838 Si02
#       8
#     2   2   2   2   2   2   2   2
#     4  11  24  43  73  98 150 201 252 309 388 453
#     4  11  25  43  71 103 144 184 254 305 364 450
#     4  11  25  46  76 107 150 195 257 315 393 454
#     4  12  30  52  80 116 160 207 263 330 402 479
#     4  11  25  45  75 110 139 187 251 317 375 453
#     4  11  26  45  63 102 150 205 249 304 380 456
#     4  12  25  49  83 110 150 199 255 324 400 462
#     4  11  24  42  73 107 141 190 248 310 375 450
#
# _framework density 23.461106000000001
#
# number of rings (size 3 to 8) (size 9 to 14) (size 15 to 20)
#    0.000    0.750    2.500    3.750   10.500    2.000 
#    4.500    0.000    0.000    0.000    0.000    0.000 
#    0.000    0.000    0.000    0.000    0.000    0.000 
#
# Total GULP energy -89161.645891 kJ/mol
# GULP energy per Si atom -5572.602868 kJ/mol
# Density = 2.340771 g / cm^3
# Si number density = 23.461106 Si / 1000 Ang^3
#
#
#
# Elastic Constant Matrix: (Units=GPa)
#
#
# Indices 1 2 3 4 5 6 
#
# 1 126.8811 40.0684 33.6257 2.2361 10.3353 -5.1969
# 2 40.0684 144.1781 37.3726 16.4702 2.0639 -13.7028
# 3 33.6257 37.3726 84.9585 13.9940 8.3979 -9.2805
# 4 2.2361 16.4702 13.9940 22.5788 1.0712 -4.7663
# 5 10.3353 2.0639 8.3979 1.0712 40.4249 1.9574
# 6 -5.1969 -13.7028 -9.2805 -4.7663 1.9574 34.9607
#
#
#
# Elastic Compliance Matrix: (Units=1/GPa)
#
#
# Indices 1 2 3 4 5 6 
#
# 1 0.009457 -0.002087 -0.003056 0.002612 -0.001757 0.000231
# 2 -0.002087 0.008754 -0.002133 -0.004480 0.000556 0.001913
# 3 -0.003056 -0.002133 0.015551 -0.007257 -0.002244 0.001974
# 4 0.002612 -0.004480 -0.007257 0.052646 -0.000516 0.003913
# 5 -0.001757 0.000556 -0.002244 -0.000516 0.025742 -0.002150
# 6 0.000231 0.001913 0.001974 0.003913 -0.002150 0.030565
#
#
# Mechanical properties :
#
#
# Convention : Reuss Voigt Hill
#
# Bulk Modulus (GPa) = 52.05752 64.23901 58.14827
# Shear Modulus (GPa) = 30.54883 35.92295 33.23589
#
# Velocity S-wave (km/s) = 3.61238 3.91726 3.76791
# Velocity P-wave (km/s) = 6.29572 6.92101 6.61576
#
# Compressibility (1/GPa) = 0.01920952
#
# Stress axis : x y z
#
# Youngs Moduli (GPa) = 105.74151 114.22783 64.30441
#
# Poissons Ratio (x) = 0.23843 0.19653
# Poissons Ratio (y) = 0.22071 0.13716
# Poissons Ratio (z) = 0.32317 0.24364
#
# Static dielectric constant tensor:
#      x y z
#    x 1.933360 0.017620 -0.073530 
#    y 0.017620 1.926620 -0.018830 
#    z -0.073530 -0.018830 1.890750 
# 
# From -- ./inp_files/138590.got.cif
#   From: 2010.05.17/outbox.cif.g08.bks.cpg/sg2_70_cif.got.tgz:138590.got - 2010.06.03 11:33:40.
