data_PCOD9062405
_publ_section_title
;
Structure prediction by ZEFSAII (Michael W. Deem and Ramdas Pophale) SiO2 
 PCOD9062405
Probable space group: P -1
;
_chemical_formula_sum "Si O2"
_cell_formula_units_Z 16
_cell_length_a 6.609570
_cell_length_b 10.607947
_cell_length_c 12.510292
_cell_angle_alpha 111.361128
_cell_angle_beta 114.425021
_cell_angle_gamma 82.547263
_cell_volume 743.553930
_symmetry_space_group_name_H-M "P -1"
_symmetry_group_IT_number 2
_symmetry_cell_setting 'triclinic'
loop_
_space_group_symop_operation_xyz
x,y,z
-x,-y,-z
loop_
_atom_site_type_symbol
_atom_site_label
_atom_site_fract_x
_atom_site_fract_y
_atom_site_fract_z
Si Si1 0.453167 0.293826 0.194942
Si Si2 0.055242 0.774608 0.971999
Si Si3 0.271787 0.941044 0.888933
Si Si4 0.073636 0.901517 0.237514
Si Si5 0.330445 0.519381 0.869858
Si Si6 0.966046 0.731114 0.366609
Si Si7 0.435871 0.654453 0.529221
Si Si8 0.673386 0.880561 0.520952
O O1 0.210295 0.246962 0.086640
O O2 0.657018 0.194462 0.193474
O O3 0.527468 0.425110 0.183435
O O4 0.449183 0.298766 0.321880
O O5 0.114566 0.891509 0.935469
O O6 0.166242 0.636940 0.911877
O O7 0.147469 0.822111 0.123091
O O8 0.174870 0.054026 0.827449
O O9 0.500000 0.000000 0.000000
O O10 0.075019 0.812028 0.315780
O O11 0.187745 0.047350 0.331232
O O12 0.189453 0.388020 0.756814
O O13 0.500000 0.500000 0.000000
O O14 0.826183 0.835415 0.440958
O O15 0.170244 0.673294 0.463403
O O16 0.500000 0.500000 0.500000
O O17 0.549970 0.743941 0.489545
O O18 0.500000 0.000000 0.500000
#
# Coordination Sequence:
#
# PCOD9062405 Si02
#       8
#     2   2   2   2   2   2   2   2
#     4  11  24  45  71 101 142 187 239 300 362 427
#     4  11  25  45  69 108 140 187 243 296 369 439
#     4  11  24  40  67 105 142 183 230 293 366 429
#     4  12  25  44  75 104 150 190 236 303 366 441
#     4  11  27  46  73 104 144 189 241 304 364 435
#     4  12  28  49  71 108 147 192 253 300 368 438
#     4  12  27  48  77 105 146 199 247 306 365 439
#     4  12  28  47  73 108 148 197 249 304 371 436
#
# _framework density 21.518280000000001
#
# number of rings (size 3 to 8) (size 9 to 14) (size 15 to 20)
#    0.000    0.500    2.500    4.500    7.000    7.000 
#    0.000    0.000    0.000    0.000    0.000    0.000 
#    0.000    0.000    0.000    0.000    0.000    0.000 
#
# Total GULP energy -89307.505910 kJ/mol
# GULP energy per Si atom -5581.719119 kJ/mol
# Density = 2.146930 g / cm^3
# Si number density = 21.518280 Si / 1000 Ang^3
#
#
#
# Elastic Constant Matrix: (Units=GPa)
#
#
# Indices 1 2 3 4 5 6 
#
# 1 76.7119 30.8981 24.5817 6.6974 -4.3610 -3.2465
# 2 30.8981 103.7650 21.5248 -1.8427 -3.4529 -2.3774
# 3 24.5817 21.5248 108.3736 6.9824 1.0317 -6.8455
# 4 6.6974 -1.8427 6.9824 41.8536 -3.1884 4.1728
# 5 -4.3610 -3.4529 1.0317 -3.1884 44.3600 -0.9995
# 6 -3.2465 -2.3774 -6.8455 4.1728 -0.9995 47.5694
#
#
#
# Elastic Compliance Matrix: (Units=1/GPa)
#
#
# Indices 1 2 3 4 5 6 
#
# 1 0.015835 -0.004165 -0.002583 -0.002271 0.001146 0.000724
# 2 -0.004165 0.011209 -0.001382 0.001440 0.000598 -0.000037
# 3 -0.002583 -0.001382 0.010280 -0.001549 -0.000681 0.001356
# 4 -0.002271 0.001440 -0.001549 0.024950 0.001663 -0.002460
# 5 0.001146 0.000598 -0.000681 0.001663 0.022845 0.000344
# 6 0.000724 -0.000037 0.001356 -0.002460 0.000344 0.021488
#
#
# Mechanical properties :
#
#
# Convention : Reuss Voigt Hill
#
# Bulk Modulus (GPa) = 47.47795 49.20664 48.34229
# Shear Modulus (GPa) = 38.49450 40.87967 39.68709
#
# Velocity S-wave (km/s) = 4.23415 4.36336 4.29924
# Velocity P-wave (km/s) = 6.78351 6.94998 6.86725
#
# Compressibility (1/GPa) = 0.02106241
#
# Stress axis : x y z
#
# Youngs Moduli (GPa) = 63.15021 89.21619 97.27813
#
# Poissons Ratio (x) = 0.37158 0.25131
# Poissons Ratio (y) = 0.26302 0.13447
# Poissons Ratio (z) = 0.16314 0.12332
#
# Static dielectric constant tensor:
#      x y z
#    x 1.953880 -0.095500 -0.125760 
#    y -0.095500 1.828760 0.076470 
#    z -0.125760 0.076470 1.774140 
# 
# From -- ./inp_files/365108.got.cif
#   From: 2010.05.17/outbox.cif.g08.bks.cpg/sg2_183_cif.got.tgz:365108.got - 2010.06.03 11:33:40.
