data_PCOD9062094
_publ_section_title
;
Structure prediction by ZEFSAII (Michael W. Deem and Ramdas Pophale) SiO2 
 PCOD9062094
Probable space group: P -1
;
_chemical_formula_sum "Si O2"
_cell_formula_units_Z 16
_cell_length_a 17.874220
_cell_length_b 17.731678
_cell_length_c 5.547696
_cell_angle_alpha 57.108597
_cell_angle_beta 48.601622
_cell_angle_gamma 29.027186
_cell_volume 636.987652
_symmetry_space_group_name_H-M "P -1"
_symmetry_group_IT_number 2
_symmetry_cell_setting 'triclinic'
loop_
_space_group_symop_operation_xyz
x,y,z
-x,-y,-z
loop_
_atom_site_type_symbol
_atom_site_label
_atom_site_fract_x
_atom_site_fract_y
_atom_site_fract_z
Si Si1 0.368848 0.281858 0.850052
Si Si2 0.076672 0.760207 0.661177
Si Si3 0.665159 0.935685 0.342699
Si Si4 0.643011 0.325010 0.604880
Si Si5 0.139152 0.544809 0.231093
Si Si6 0.628747 0.537937 0.752366
Si Si7 0.692800 0.084540 0.793393
Si Si8 0.194634 0.239602 0.141670
O O1 0.372454 0.376355 0.563748
O O2 0.561597 0.131608 0.807231
O O3 0.219407 0.401613 0.166370
O O4 0.296223 0.258815 0.872806
O O5 0.169920 0.766585 0.616448
O O6 0.221751 0.634625 0.369293
O O7 0.057722 0.683690 0.996611
O O8 0.900080 0.920777 0.632210
O O9 0.719111 0.864841 0.616734
O O10 0.500000 0.000000 0.500000
O O11 0.787323 0.821803 0.047373
O O12 0.645242 0.058693 0.174637
O O13 0.500000 0.500000 0.500000
O O14 0.657268 0.216659 0.641911
O O15 0.559056 0.364519 0.976346
O O16 0.303261 0.473698 0.120154
O O17 0.005956 0.611963 0.605000
#
# Coordination Sequence:
#
# PCOD9062094 Si02
#       8
#     2   2   2   2   2   2   2   2
#     4  11  26  44  73 110 148 203 252 309 386 457
#     4  11  24  46  72 109 146 192 252 314 379 451
#     4  12  27  48  75 112 158 203 253 314 389 459
#     4  12  24  48  77 106 146 194 250 316 386 456
#     4  11  23  47  72 109 151 197 253 314 377 453
#     4  11  24  46  74 102 151 196 251 313 384 453
#     4  12  25  47  75 107 150 192 252 310 385 453
#     4  12  27  46  79 110 156 205 260 315 378 460
#
# _framework density 25.118224999999999
#
# number of rings (size 3 to 8) (size 9 to 14) (size 15 to 20)
#    0.000    0.500    5.000    3.000    5.250    0.500 
#    2.250    1.250    0.000    0.000    0.000    0.000 
#    0.000    0.000    0.000    0.000    0.000    0.000 
#
# Total GULP energy -89447.016310 kJ/mol
# GULP energy per Si atom -5590.438519 kJ/mol
# Density = 2.506105 g / cm^3
# Si number density = 25.118225 Si / 1000 Ang^3
#
#
#
# Elastic Constant Matrix: (Units=GPa)
#
#
# Indices 1 2 3 4 5 6 
#
# 1 112.1375 41.6543 27.2876 12.1080 -22.9245 -0.3453
# 2 41.6543 108.5927 29.7053 6.3784 -10.7392 -12.8045
# 3 27.2876 29.7053 89.5318 20.1472 -11.1870 -6.0777
# 4 12.1080 6.3784 20.1472 32.8609 -1.4090 -2.3669
# 5 -22.9245 -10.7392 -11.1870 -1.4090 51.7469 4.2857
# 6 -0.3453 -12.8045 -6.0777 -2.3669 4.2857 43.8019
#
#
#
# Elastic Compliance Matrix: (Units=1/GPa)
#
#
# Indices 1 2 3 4 5 6 
#
# 1 0.011803 -0.003797 -0.001309 -0.002755 0.004229 -0.001761
# 2 -0.003797 0.011715 -0.002764 0.001038 -0.000075 0.003075
# 3 -0.001309 -0.002764 0.014483 -0.007744 0.001717 0.000605
# 4 -0.002755 0.001038 -0.007744 0.036011 -0.001809 0.001330
# 5 0.004229 -0.000075 0.001717 -0.001809 0.021668 -0.001968
# 6 -0.001761 0.003075 0.000605 0.001330 -0.001968 0.024063
#
#
# Mechanical properties :
#
#
# Convention : Reuss Voigt Hill
#
# Bulk Modulus (GPa) = 44.91879 56.39516 50.65697
# Shear Modulus (GPa) = 34.98848 39.78960 37.38904
#
# Velocity S-wave (km/s) = 3.73628 3.98438 3.86232
# Velocity P-wave (km/s) = 6.04440 6.60816 6.33255
#
# Compressibility (1/GPa) = 0.02226240
#
# Stress axis : x y z
#
# Youngs Moduli (GPa) = 84.72338 85.35715 69.04516
#
# Poissons Ratio (x) = 0.32411 0.09036
# Poissons Ratio (y) = 0.32170 0.19083
# Poissons Ratio (z) = 0.11088 0.23592
#
# Static dielectric constant tensor:
#      x y z
#    x 2.009450 0.010770 0.018200 
#    y 0.010770 2.108960 0.017430 
#    z 0.018200 0.017430 2.045880 
# 
# From -- ./inp_files/111625.got.cif
#   From: 2010.05.17/outbox.cif.g08.bks.cpg/sg2_56_cif.got.tgz:111625.got - 2010.06.03 11:33:40.
