data_PCOD9062371
_publ_section_title
;
Structure prediction by ZEFSAII (Michael W. Deem and Ramdas Pophale) SiO2 
 PCOD9062371
Probable space group: P -1
;
_chemical_formula_sum "Si O2"
_cell_formula_units_Z 14
_cell_length_a 14.958544
_cell_length_b 13.999322
_cell_length_c 9.619543
_cell_angle_alpha 73.114074
_cell_angle_beta 55.093453
_cell_angle_gamma 28.268399
_cell_volume 653.546699
_symmetry_space_group_name_H-M "P -1"
_symmetry_group_IT_number 2
_symmetry_cell_setting 'triclinic'
loop_
_space_group_symop_operation_xyz
x,y,z
-x,-y,-z
loop_
_atom_site_type_symbol
_atom_site_label
_atom_site_fract_x
_atom_site_fract_y
_atom_site_fract_z
Si Si1 0.295520 0.776832 0.990787
Si Si2 0.357977 0.611200 0.373837
Si Si3 0.764252 0.119170 0.302279
Si Si4 0.404075 0.184041 0.941822
Si Si5 0.502628 0.865949 0.429639
Si Si6 0.896708 0.620467 0.390516
Si Si7 0.258109 0.909147 0.249980
O O1 0.531671 0.516152 0.822650
O O2 0.197924 0.921971 0.881852
O O3 0.352965 0.801410 0.056005
O O4 0.046721 0.915140 0.194605
O O5 0.436145 0.620935 0.616998
O O6 0.356529 0.732126 0.327445
O O7 0.059205 0.826030 0.573330
O O8 0.631205 0.130006 0.468024
O O9 0.361295 0.215155 0.801409
O O10 0.624380 0.084400 0.812357
O O11 0.143598 0.432378 0.150565
O O12 0.500000 0.000000 0.000000
O O13 0.707532 0.699238 0.445774
O O14 0.275583 0.136380 0.544021
O O15 0.000000 0.500000 0.500000
#
# Coordination Sequence:
#
# PCOD9062371 Si02
#       7
#     2   2   2   2   2   2   2
#     4   9  21  42  62  97 140 174 230 282 344 417
#     4   9  22  42  60 102 135 173 235 280 349 420
#     4   9  22  41  67  97 138 177 223 295 349 409
#     4  12  28  46  70 105 144 186 240 294 353 413
#     4  11  26  48  72 104 141 189 234 299 356 412
#     4  11  26  49  76  98 138 186 247 287 354 417
#     4  11  24  39  70  97 136 188 223 282 355 420
#
# _framework density 21.421575000000001
#
# number of rings (size 3 to 8) (size 9 to 14) (size 15 to 20)
#    0.857    0.857    1.429    0.857   10.000    1.714 
#    2.571    0.000    0.000    0.000    0.000    0.000 
#    0.000    0.000    0.000    0.000    0.000    0.000 
#
# Total GULP energy -78220.644120 kJ/mol
# GULP energy per Si atom -5587.188866 kJ/mol
# Density = 2.137282 g / cm^3
# Si number density = 21.421575 Si / 1000 Ang^3
#
#
#
# Elastic Constant Matrix: (Units=GPa)
#
#
# Indices 1 2 3 4 5 6 
#
# 1 104.3452 41.9105 35.5861 -5.3625 -1.7147 3.3448
# 2 41.9105 102.8134 43.8273 -0.1689 0.1052 -10.0472
# 3 35.5861 43.8273 125.8924 8.0995 10.2531 4.3074
# 4 -5.3625 -0.1689 8.0995 36.1274 -0.5210 6.0182
# 5 -1.7147 0.1052 10.2531 -0.5210 37.6089 -6.5644
# 6 3.3448 -10.0472 4.3074 6.0182 -6.5644 26.3833
#
#
#
# Elastic Compliance Matrix: (Units=1/GPa)
#
#
# Indices 1 2 3 4 5 6 
#
# 1 0.012353 -0.004501 -0.002036 0.002853 0.000567 -0.003458
# 2 -0.004501 0.013947 -0.003943 -0.000896 0.002083 0.007248
# 3 -0.002036 -0.003943 0.010432 -0.002155 -0.003538 -0.003335
# 4 0.002853 -0.000896 -0.002155 0.029775 -0.000119 -0.007173
# 5 0.000567 0.002083 -0.003538 -0.000119 0.029066 0.008558
# 6 -0.003458 0.007248 -0.003335 -0.007173 0.008558 0.045412
#
#
# Mechanical properties :
#
#
# Convention : Reuss Voigt Hill
#
# Bulk Modulus (GPa) = 63.40677 63.96653 63.68665
# Shear Modulus (GPa) = 29.90380 34.13907 32.02143
#
# Velocity S-wave (km/s) = 3.74032 3.99642 3.87049
# Velocity P-wave (km/s) = 6.95105 7.15687 7.05471
#
# Compressibility (1/GPa) = 0.01577119
#
# Stress axis : x y z
#
# Youngs Moduli (GPa) = 80.95404 71.70123 95.85490
#
# Poissons Ratio (x) = 0.32274 0.19518
# Poissons Ratio (y) = 0.36439 0.37795
# Poissons Ratio (z) = 0.16484 0.28272
#
# Static dielectric constant tensor:
#      x y z
#    x 1.796050 -0.032300 0.068980 
#    y -0.032300 1.814820 -0.043570 
#    z 0.068980 -0.043570 1.804390 
# 
# From -- ./inp_files/313075.got.cif
#   From: 2010.05.17/outbox.cif.g08.bks.cpg/sg2_157_cif.got.tgz:313075.got - 2010.06.03 11:33:40.
