data_PCOD9062026
_publ_section_title
;
Structure prediction by ZEFSAII (Michael W. Deem and Ramdas Pophale) SiO2 
 PCOD9062026
Probable space group: P -1
;
_chemical_formula_sum "Si O2"
_cell_formula_units_Z 13
_cell_length_a 12.917611
_cell_length_b 7.238021
_cell_length_c 12.409702
_cell_angle_alpha 58.665618
_cell_angle_beta 34.071023
_cell_angle_gamma 80.098248
_cell_volume 466.992283
_symmetry_space_group_name_H-M "P -1"
_symmetry_group_IT_number 2
_symmetry_cell_setting 'triclinic'
loop_
_space_group_symop_operation_xyz
x,y,z
-x,-y,-z
loop_
_atom_site_type_symbol
_atom_site_label
_atom_site_fract_x
_atom_site_fract_y
_atom_site_fract_z
Si Si1 0.464333 0.434755 0.710560
Si Si2 0.874907 0.745186 0.757912
Si Si3 0.717775 0.029152 0.524790
Si Si4 0.239668 0.079607 0.806967
Si Si5 0.809254 0.590101 0.518656
Si Si6 0.500000 0.000000 0.500000
Si Si7 0.722298 0.262337 0.890307
O O1 0.330096 0.262258 0.777019
O O2 0.547553 0.734216 0.518634
O O3 0.704854 0.501278 0.517140
O O4 0.320912 0.306266 0.978897
O O5 0.777005 0.517134 0.827519
O O6 0.000000 0.000000 0.500000
O O7 0.056976 0.768222 0.673918
O O8 0.729844 0.774220 0.573886
O O9 0.683233 0.110268 0.414259
O O10 0.516330 0.957113 0.799830
O O11 0.287828 0.859668 0.819370
O O12 0.000000 0.000000 0.000000
O O13 0.736351 0.341785 0.729716
O O14 0.072879 0.761016 0.248652
#
# Coordination Sequence:
#
# PCOD9062026 Si02
#       7
#     2   2   2   2   2   1   2
#     4  11  25  46  71 106 145 187 236 302 359 425
#     4  12  24  45  77 106 143 193 241 302 365 424
#     4  12  25  46  69 102 145 185 238 297 353 429
#     4  11  26  49  72 103 145 189 242 298 355 432
#     4  11  23  47  69 101 145 183 236 303 353 425
#     4  12  26  44  72 106 136 192 238 288 364 432
#     4  11  25  45  71 102 140 191 236 293 364 420
#
# _framework density 27.837720999999998
#
# number of rings (size 3 to 8) (size 9 to 14) (size 15 to 20)
#    0.000    0.615    4.615    2.308    4.308    0.000 
#    0.000    5.385    0.000    0.000    0.000    0.000 
#    0.000    0.000    0.000    0.000    0.000    0.000 
#
# Total GULP energy -72717.060566 kJ/mol
# GULP energy per Si atom -5593.620044 kJ/mol
# Density = 2.777436 g / cm^3
# Si number density = 27.837721 Si / 1000 Ang^3
#
#
#
# Elastic Constant Matrix: (Units=GPa)
#
#
# Indices 1 2 3 4 5 6 
#
# 1 188.0276 40.9421 37.5450 0.0445 -32.1856 10.6380
# 2 40.9421 102.0357 40.8555 2.2159 -11.2995 1.1929
# 3 37.5450 40.8555 153.4165 7.4744 -1.8994 -6.5030
# 4 0.0445 2.2159 7.4744 56.5445 -10.8502 -10.8356
# 5 -32.1856 -11.2995 -1.8994 -10.8502 60.8589 4.8848
# 6 10.6380 1.1929 -6.5030 -10.8356 4.8848 48.9193
#
#
#
# Elastic Compliance Matrix: (Units=1/GPa)
#
#
# Indices 1 2 3 4 5 6 
#
# 1 0.006627 -0.001795 -0.001203 0.000531 0.003371 -0.001776
# 2 -0.001795 0.011731 -0.002688 0.000055 0.001184 -0.000359
# 3 -0.001203 -0.002688 0.007610 -0.000880 -0.001156 0.001259
# 4 0.000531 0.000055 -0.000880 0.019152 0.003383 0.003670
# 5 0.003371 0.001184 -0.001156 0.003383 0.019168 -0.002080
# 6 -0.001776 -0.000359 0.001259 0.003670 -0.002080 0.022025
#
#
# Mechanical properties :
#
#
# Convention : Reuss Voigt Hill
#
# Bulk Modulus (GPa) = 68.51050 75.79611 72.15331
# Shear Modulus (GPa) = 48.75650 54.87368 51.81509
#
# Velocity S-wave (km/s) = 4.18958 4.44464 4.31899
# Velocity P-wave (km/s) = 6.93307 7.32302 7.13071
#
# Compressibility (1/GPa) = 0.01459630
#
# Stress axis : x y z
#
# Youngs Moduli (GPa) = 150.90172 85.24406 131.39798
#
# Poissons Ratio (x) = 0.15299 0.15810
# Poissons Ratio (y) = 0.27082 0.35321
# Poissons Ratio (z) = 0.18157 0.22914
#
# Static dielectric constant tensor:
#      x y z
#    x 2.257020 -0.038620 0.127020 
#    y -0.038620 2.307560 0.065860 
#    z 0.127020 0.065860 2.243680 
# 
# From -- ./inp_files/419068.got.cif
#   From: 2010.05.17/outbox.cif.g08.bks.cpg/sg2_210_cif.got.tgz:419068.got - 2010.06.03 11:33:40.
