data_PCOD9062474
_publ_section_title
;
Structure prediction by ZEFSAII (Michael W. Deem and Ramdas Pophale) SiO2 
 PCOD9062474
Probable space group: P -1
;
_chemical_formula_sum "Si O2"
_cell_formula_units_Z 14
_cell_length_a 31.458820
_cell_length_b 5.407840
_cell_length_c 6.595843
_cell_angle_alpha 49.212075
_cell_angle_beta 46.809441
_cell_angle_gamma 51.184725
_cell_volume 585.678213
_symmetry_space_group_name_H-M "P -1"
_symmetry_group_IT_number 2
_symmetry_cell_setting 'triclinic'
loop_
_space_group_symop_operation_xyz
x,y,z
-x,-y,-z
loop_
_atom_site_type_symbol
_atom_site_label
_atom_site_fract_x
_atom_site_fract_y
_atom_site_fract_z
Si Si1 0.119003 0.559634 0.408716
Si Si2 0.513650 0.351623 0.755874
Si Si3 0.322152 0.215017 0.893688
Si Si4 0.792810 0.591444 0.136140
Si Si5 0.396189 0.622441 0.250723
Si Si6 0.222615 0.654056 0.247439
Si Si7 0.956608 0.846166 0.353590
O O1 0.180210 0.436801 0.415174
O O2 0.087673 0.281108 0.585457
O O3 0.075110 0.874396 0.516528
O O4 0.149275 0.643950 0.056616
O O5 0.500000 0.500000 0.500000
O O6 0.582412 0.283672 0.650026
O O7 0.458099 0.599272 0.938668
O O8 0.500000 0.000000 0.000000
O O9 0.267766 0.265680 0.882790
O O10 0.376594 0.292453 0.550542
O O11 0.289991 0.512074 0.004935
O O12 0.343982 0.877215 0.144311
O O13 0.778741 0.402361 0.478870
O O14 0.806048 0.950385 0.943670
O O15 0.000000 0.500000 0.500000
O O16 0.000000 0.000000 0.000000
#
# Coordination Sequence:
#
# PCOD9062474 Si02
#       7
#     2   2   2   2   2   2   2
#     4  11  26  50  74 106 148 190 238 300 356 432
#     4  11  24  41  64  90 128 187 226 281 358 409
#     4  11  24  41  66  99 134 173 228 295 350 423
#     4  11  25  44  71 101 138 186 230 284 365 423
#     4  11  24  42  62  97 136 170 236 287 342 423
#     4  11  25  44  71 101 138 186 230 284 365 423
#     4  12  28  48  76 108 146 190 242 295 356 419
#
# _framework density 23.903911999999998
#
# number of rings (size 3 to 8) (size 9 to 14) (size 15 to 20)
#    0.000    0.857    1.429    4.286    2.000   14.857 
#    0.000    0.000    0.000    0.000    0.000    0.000 
#    0.000    0.000    0.000    0.000    0.000    0.000 
#
# Total GULP energy -78148.293919 kJ/mol
# GULP energy per Si atom -5582.020994 kJ/mol
# Density = 2.384951 g / cm^3
# Si number density = 23.903912 Si / 1000 Ang^3
#
#
#
# Elastic Constant Matrix: (Units=GPa)
#
#
# Indices 1 2 3 4 5 6 
#
# 1 118.0704 5.1679 40.9065 -4.2091 -8.9936 9.1041
# 2 5.1679 67.7068 24.6773 11.0007 13.3241 7.6337
# 3 40.9065 24.6773 147.5824 -3.4797 17.5783 -1.4288
# 4 -4.2091 11.0007 -3.4797 43.7077 -1.1349 3.2211
# 5 -8.9936 13.3241 17.5783 -1.1349 38.9765 -5.9424
# 6 9.1041 7.6337 -1.4288 3.2211 -5.9424 31.9060
#
#
#
# Elastic Compliance Matrix: (Units=1/GPa)
#
#
# Indices 1 2 3 4 5 6 
#
# 1 0.010065 -0.000192 -0.003171 0.001034 0.003479 -0.002425
# 2 -0.000192 0.018175 -0.002420 -0.004569 -0.006073 -0.005072
# 3 -0.003171 -0.002420 0.008512 0.000806 -0.003549 0.001123
# 4 0.001034 -0.004569 0.000806 0.024337 0.001954 -0.001259
# 5 0.003479 -0.006073 -0.003549 0.001954 0.031091 0.005895
# 6 -0.002425 -0.005072 0.001123 -0.001259 0.005895 0.034523
#
#
# Mechanical properties :
#
#
# Convention : Reuss Voigt Hill
#
# Bulk Modulus (GPa) = 39.70162 52.76256 46.23209
# Shear Modulus (GPa) = 34.09144 40.42524 37.25834
#
# Velocity S-wave (km/s) = 3.78059 4.11683 3.95228
# Velocity P-wave (km/s) = 5.97511 6.68718 6.34115
#
# Compressibility (1/GPa) = 0.02518789
#
# Stress axis : x y z
#
# Youngs Moduli (GPa) = 99.34975 55.01951 117.48050
#
# Poissons Ratio (x) = 0.01054 0.37257
# Poissons Ratio (y) = 0.01904 0.28425
# Poissons Ratio (z) = 0.31507 0.13312
#
# Static dielectric constant tensor:
#      x y z
#    x 2.438210 -0.867660 -0.629680 
#    y -0.867660 4.072590 1.481520 
#    z -0.629680 1.481520 2.847960 
# 
# From -- ./inp_files/13072.got.cif
#   From: 2010.05.17/outbox.cif.g08.bks.cpg/sg2_7_cif.got.tgz:13072.got - 2010.06.03 11:33:40.
