data_PCOD9062651
_publ_section_title
;
Structure prediction by ZEFSAII (Michael W. Deem and Ramdas Pophale) SiO2 
 PCOD9062651
Probable space group: P -1
;
_chemical_formula_sum "Si O2"
_cell_formula_units_Z 16
_cell_length_a 9.434472
_cell_length_b 12.466597
_cell_length_c 9.346768
_cell_angle_alpha 127.152316
_cell_angle_beta 115.128943
_cell_angle_gamma 57.156255
_cell_volume 728.359373
_symmetry_space_group_name_H-M "P -1"
_symmetry_group_IT_number 2
_symmetry_cell_setting 'triclinic'
loop_
_space_group_symop_operation_xyz
x,y,z
-x,-y,-z
loop_
_atom_site_type_symbol
_atom_site_label
_atom_site_fract_x
_atom_site_fract_y
_atom_site_fract_z
Si Si1 0.595270 0.106779 0.014212
Si Si2 0.558990 0.317685 0.700851
Si Si3 0.380620 0.644697 0.934313
Si Si4 0.777552 0.832666 0.042606
Si Si5 0.016173 0.315286 0.510776
Si Si6 0.614289 0.895226 0.588145
Si Si7 0.936609 0.174507 0.625645
Si Si8 0.948814 0.390788 0.215976
O O1 0.393669 0.194469 0.026563
O O2 0.605358 0.992680 0.800721
O O3 0.672100 0.219771 0.085205
O O4 0.699026 0.005229 0.106687
O O5 0.489814 0.491288 0.781867
O O6 0.453466 0.232870 0.515472
O O7 0.755326 0.235888 0.676624
O O8 0.530119 0.315934 0.859195
O O9 0.220185 0.625181 0.921439
O O10 0.912297 0.800313 0.202584
O O11 0.885534 0.736031 0.879959
O O12 0.194589 0.181455 0.448988
O O13 0.049187 0.453536 0.697052
O O14 0.916133 0.257414 0.532543
O O15 0.938107 0.372609 0.367726
O O16 0.500000 0.000000 0.500000
O O17 0.000000 0.000000 0.500000
#
# Coordination Sequence:
#
# PCOD9062651 Si02
#       8
#     2   2   2   2   2   2   2   2
#     4  11  25  42  70  99 132 182 227 279 335 404
#     4  11  24  42  66 102 139 174 225 278 335 406
#     4  11  24  43  69 100 133 179 232 275 334 400
#     4  11  25  45  69  98 137 175 228 277 341 403
#     4  11  26  44  70 100 135 182 224 278 344 404
#     4  12  21  43  67  94 137 182 220 273 339 402
#     4  12  27  44  67 104 138 176 227 282 339 399
#     4  11  24  48  70  99 135 180 227 281 339 403
#
# _framework density 21.967177
#
# number of rings (size 3 to 8) (size 9 to 14) (size 15 to 20)
#    0.000    0.750    5.000    2.250    3.500    1.000 
#    0.000    0.625    0.000    0.000    0.000    0.000 
#    0.000    0.000    0.000    0.000    0.000    0.000 
#
# Total GULP energy -89466.584340 kJ/mol
# GULP energy per Si atom -5591.661521 kJ/mol
# Density = 2.191718 g / cm^3
# Si number density = 21.967177 Si / 1000 Ang^3
#
#
#
# Elastic Constant Matrix: (Units=GPa)
#
#
# Indices 1 2 3 4 5 6 
#
# 1 68.9409 7.3113 25.0192 27.4567 -14.3098 -4.1546
# 2 7.3113 62.6876 18.7599 14.7858 -9.7455 15.1692
# 3 25.0192 18.7599 63.0803 19.1624 -2.7653 6.6734
# 4 27.4567 14.7858 19.1624 35.8699 -2.1435 -1.1139
# 5 -14.3098 -9.7455 -2.7653 -2.1435 25.7796 7.1967
# 6 -4.1546 15.1692 6.6734 -1.1139 7.1967 44.6738
#
#
#
# Elastic Compliance Matrix: (Units=1/GPa)
#
#
# Indices 1 2 3 4 5 6 
#
# 1 0.026473 0.005766 -0.005693 -0.018743 0.015138 -0.001551
# 2 0.005766 0.023529 -0.004289 -0.011315 0.013272 -0.009233
# 3 -0.005693 -0.004289 0.021118 -0.005361 -0.002411 -0.001973
# 4 -0.018743 -0.011315 -0.005361 0.049175 -0.012899 0.006204
# 5 0.015138 0.013272 -0.002411 -0.012899 0.054170 -0.011787
# 6 -0.001551 -0.009233 -0.001973 0.006204 -0.011787 0.027723
#
#
# Mechanical properties :
#
#
# Convention : Reuss Voigt Hill
#
# Bulk Modulus (GPa) = 15.95194 32.98771 24.46982
# Shear Modulus (GPa) = 21.59668 30.83922 26.21795
#
# Velocity S-wave (km/s) = 3.13890 3.75090 3.45846
# Velocity P-wave (km/s) = 4.51823 5.81450 5.20686
#
# Compressibility (1/GPa) = 0.06268830
#
# Stress axis : x y z
#
# Youngs Moduli (GPa) = 37.77418 42.50027 47.35300
#
# Poissons Ratio (x) = -0.24505 0.26959
# Poissons Ratio (y) = -0.21780 0.20308
# Poissons Ratio (z) = 0.21506 0.18227
#
# Static dielectric constant tensor:
#      x y z
#    x 1.788930 0.014730 0.024650 
#    y 0.014730 1.813590 -0.036380 
#    z 0.024650 -0.036380 1.833360 
# 
# From -- ./inp_files/190171.got.cif
#   From: 2010.05.17/outbox.cif.g08.bks.cpg/sg2_96_cif.got.tgz:190171.got - 2010.06.03 11:33:40.
