data_PCOD9062244
_publ_section_title
;
Structure prediction by ZEFSAII (Michael W. Deem and Ramdas Pophale) SiO2 
 PCOD9062244
Probable space group: P -1
;
_chemical_formula_sum "Si O2"
_cell_formula_units_Z 14
_cell_length_a 9.316989
_cell_length_b 9.326728
_cell_length_c 11.419354
_cell_angle_alpha 42.835122
_cell_angle_beta 125.032197
_cell_angle_gamma 121.633592
_cell_volume 542.794755
_symmetry_space_group_name_H-M "P -1"
_symmetry_group_IT_number 2
_symmetry_cell_setting 'triclinic'
loop_
_space_group_symop_operation_xyz
x,y,z
-x,-y,-z
loop_
_atom_site_type_symbol
_atom_site_label
_atom_site_fract_x
_atom_site_fract_y
_atom_site_fract_z
Si Si1 0.982424 0.306914 0.015751
Si Si2 0.499874 0.756066 0.860123
Si Si3 0.203202 0.846806 0.212964
Si Si4 0.169777 0.922484 0.568973
Si Si5 0.354827 0.282325 0.271340
Si Si6 0.060277 0.166192 0.687836
Si Si7 0.409103 0.497209 0.586099
O O1 0.190459 0.299890 0.099294
O O2 0.910277 0.075076 0.176357
O O3 0.000000 0.500000 0.000000
O O4 0.873233 0.295174 0.851260
O O5 0.308628 0.811534 0.772689
O O6 0.514773 0.813144 0.694512
O O7 0.667851 0.922988 0.894933
O O8 0.500000 0.500000 0.000000
O O9 0.332285 0.716285 0.419598
O O10 0.035048 0.848828 0.220145
O O11 0.082909 0.776146 0.507154
O O12 0.278462 0.135525 0.431750
O O13 0.000000 0.000000 0.500000
O O14 0.447863 0.500647 0.244844
O O15 0.242972 0.318270 0.650960
O O16 0.500000 0.500000 0.500000
#
# Coordination Sequence:
#
# PCOD9062244 Si02
#       7
#     2   2   2   2   2   2   2
#     4  11  26  49  77 115 160 209 259 335 407 469
#     4  12  27  45  80 122 158 205 264 330 402 472
#     4  12  25  52  78 111 162 204 268 330 397 477
#     4  11  23  48  76 111 159 211 264 325 397 474
#     4  11  24  47  74 106 160 198 265 317 391 465
#     4  11  26  47  80 111 153 210 268 320 397 479
#     4  12  26  47  76 114 151 205 267 331 389 474
#
# _framework density 25.792438000000001
#
# number of rings (size 3 to 8) (size 9 to 14) (size 15 to 20)
#    0.000    0.571    4.286    3.857    2.000    4.571 
#    0.000    1.429    0.000    0.000    0.000    0.000 
#    0.000    0.000    0.000    0.000    0.000    0.000 
#
# Total GULP energy -78188.803078 kJ/mol
# GULP energy per Si atom -5584.914506 kJ/mol
# Density = 2.573373 g / cm^3
# Si number density = 25.792438 Si / 1000 Ang^3
#
#
#
# Elastic Constant Matrix: (Units=GPa)
#
#
# Indices 1 2 3 4 5 6 
#
# 1 168.8745 71.7431 32.8197 -8.4904 2.8553 8.6401
# 2 71.7431 193.0960 43.3352 11.0565 -4.6538 25.9015
# 3 32.8197 43.3352 78.4647 -3.7978 8.9582 10.4863
# 4 -8.4904 11.0565 -3.7978 62.9057 2.7906 -3.6776
# 5 2.8553 -4.6538 8.9582 2.7906 30.3585 -1.3737
# 6 8.6401 25.9015 10.4863 -3.6776 -1.3737 60.2419
#
#
#
# Elastic Compliance Matrix: (Units=1/GPa)
#
#
# Indices 1 2 3 4 5 6 
#
# 1 0.007367 -0.002530 -0.001584 0.001397 -0.000725 0.000376
# 2 -0.002530 0.007279 -0.003017 -0.002041 0.002327 -0.002313
# 3 -0.001584 -0.003017 0.015907 0.001433 -0.005197 -0.001275
# 4 0.001397 -0.002041 0.001433 0.016716 -0.002341 0.001395
# 5 -0.000725 0.002327 -0.005197 -0.002341 0.035143 0.000666
# 6 0.000376 -0.002313 -0.001275 0.001395 0.000666 0.017863
#
#
# Mechanical properties :
#
#
# Convention : Reuss Voigt Hill
#
# Bulk Modulus (GPa) = 61.38507 81.80346 71.59427
# Shear Modulus (GPa) = 41.67759 50.20371 45.94065
#
# Velocity S-wave (km/s) = 4.02417 4.41665 4.22497
# Velocity P-wave (km/s) = 6.74116 7.60223 7.18461
#
# Compressibility (1/GPa) = 0.01629061
#
# Stress axis : x y z
#
# Youngs Moduli (GPa) = 135.73291 137.38022 62.86589
#
# Poissons Ratio (x) = 0.34752 0.09960
# Poissons Ratio (y) = 0.34335 0.18969
# Poissons Ratio (z) = 0.21505 0.41454
#
# Static dielectric constant tensor:
#      x y z
#    x 2.115440 -0.007700 0.002310 
#    y -0.007700 2.118710 0.027100 
#    z 0.002310 0.027100 2.159240 
# 
# From -- ./inp_files/381148.got.cif
#   From: 2010.05.17/outbox.cif.g08.bks.cpg/sg2_191_cif.got.tgz:381148.got - 2010.06.03 11:33:40.
