data_PCOD9062874
_publ_section_title
;
Structure prediction by ZEFSAII (Michael W. Deem and Ramdas Pophale) SiO2 
 PCOD9062874
Probable space group: P -1
;
_chemical_formula_sum "Si O2"
_cell_formula_units_Z 15
_cell_length_a 11.451593
_cell_length_b 15.999998
_cell_length_c 9.083037
_cell_angle_alpha 128.222808
_cell_angle_beta 107.441151
_cell_angle_gamma 31.939949
_cell_volume 581.206767
_symmetry_space_group_name_H-M "P -1"
_symmetry_group_IT_number 2
_symmetry_cell_setting 'triclinic'
loop_
_space_group_symop_operation_xyz
x,y,z
-x,-y,-z
loop_
_atom_site_type_symbol
_atom_site_label
_atom_site_fract_x
_atom_site_fract_y
_atom_site_fract_z
Si Si1 0.752259 0.857216 0.861331
Si Si2 0.000000 0.500000 0.000000
Si Si3 0.666975 0.621553 0.884076
Si Si4 0.358759 0.178178 0.517474
Si Si5 0.814922 0.034935 0.230067
Si Si6 0.081596 0.033489 0.214005
Si Si7 0.903456 0.859021 0.351011
Si Si8 0.251745 0.523715 0.570010
O O1 0.741088 0.817594 0.648871
O O2 0.075013 0.601010 0.710442
O O3 0.500000 0.000000 0.000000
O O4 0.731301 0.995754 0.060925
O O5 0.868460 0.595247 0.223629
O O6 0.293429 0.287946 0.958965
O O7 0.730669 0.544630 0.658370
O O8 0.921741 0.382091 0.816186
O O9 0.386279 0.796165 0.020467
O O10 0.500000 0.000000 0.500000
O O11 0.600678 0.064062 0.429404
O O12 0.556434 0.294334 0.477220
O O13 0.962750 0.008552 0.160906
O O14 0.988593 0.858530 0.239168
O O15 0.077696 0.089497 0.436283
O O16 0.892294 0.255328 0.287543
#
# Coordination Sequence:
#
# PCOD9062874 Si02
#       8
#     2   1   2   2   2   2   2   2
#     4  12  27  47  71 112 158 193 250 311 388 454
#     4  12  22  40  82 108 140 200 254 318 362 436
#     4  11  24  42  77 106 142 195 257 310 366 449
#     4  12  23  45  75 109 150 195 261 304 372 467
#     4  12  28  47  73 107 159 197 243 325 388 438
#     4  11  25  49  76 107 143 203 269 301 366 461
#     4  11  24  45  70 111 146 193 247 315 379 451
#     4  11  26  47  73 105 147 201 251 308 372 455
#
# _framework density 25.808373
#
# number of rings (size 3 to 8) (size 9 to 14) (size 15 to 20)
#    0.000    0.533    5.333    2.400    1.867    6.400 
#    2.400    0.000    0.000    0.000    0.000    0.000 
#    0.000    0.000    0.000    0.000    0.000    0.000 
#
# Total GULP energy -83582.829399 kJ/mol
# GULP energy per Si atom -5572.188627 kJ/mol
# Density = 2.574963 g / cm^3
# Si number density = 25.808373 Si / 1000 Ang^3
#
#
#
# Elastic Constant Matrix: (Units=GPa)
#
#
# Indices 1 2 3 4 5 6 
#
# 1 87.9438 23.6634 39.2574 10.6156 -29.0922 -12.1909
# 2 23.6634 66.3584 36.2360 14.6207 -5.8749 2.6169
# 3 39.2574 36.2360 192.1250 9.9228 -13.3125 -8.1402
# 4 10.6156 14.6207 9.9228 49.6687 -19.4196 -14.6024
# 5 -29.0922 -5.8749 -13.3125 -19.4196 49.0493 -6.6297
# 6 -12.1909 2.6169 -8.1402 -14.6024 -6.6297 48.3987
#
#
#
# Elastic Compliance Matrix: (Units=1/GPa)
#
#
# Indices 1 2 3 4 5 6 
#
# 1 0.018614 -0.006156 -0.001671 0.005797 0.013267 0.008307
# 2 -0.006156 0.020402 -0.002861 -0.008476 -0.006224 -0.006545
# 3 -0.001671 -0.002861 0.006149 0.000541 0.000688 0.001026
# 4 0.005797 -0.008476 0.000541 0.032138 0.017195 0.014061
# 5 0.013267 -0.006224 0.000688 0.017195 0.036394 0.013967
# 6 0.008307 -0.006545 0.001026 0.014061 0.013967 0.029436
#
#
# Mechanical properties :
#
#
# Convention : Reuss Voigt Hill
#
# Bulk Modulus (GPa) = 42.03416 60.52674 51.28045
# Shear Modulus (GPa) = 28.99627 45.90805 37.45216
#
# Velocity S-wave (km/s) = 3.35553 4.22216 3.81355
# Velocity P-wave (km/s) = 5.59778 6.87548 6.26926
#
# Compressibility (1/GPa) = 0.02379018
#
# Stress axis : x y z
#
# Youngs Moduli (GPa) = 53.72437 49.01587 162.62626
#
# Poissons Ratio (x) = 0.30172 0.27167
# Poissons Ratio (y) = 0.33070 0.46526
# Poissons Ratio (z) = 0.08975 0.14023
#
# Static dielectric constant tensor:
#      x y z
#    x 1.801990 0.183290 -0.308260 
#    y 0.183290 2.351030 -0.086890 
#    z -0.308260 -0.086890 2.141990 
# 
# From -- ./inp_files/279933.got.cif
#   From: 2010.05.17/outbox.cif.g08.bks.cpg/sg2_140_cif.got.tgz:279933.got - 2010.06.03 11:33:40.
