data_PCOD9062444
_publ_section_title
;
Structure prediction by ZEFSAII (Michael W. Deem and Ramdas Pophale) SiO2 
 PCOD9062444
Probable space group: P -1
;
_chemical_formula_sum "Si O2"
_cell_formula_units_Z 16
_cell_length_a 16.538132
_cell_length_b 5.285687
_cell_length_c 9.111671
_cell_angle_alpha 81.303023
_cell_angle_beta 54.715312
_cell_angle_gamma 75.247678
_cell_volume 628.735559
_symmetry_space_group_name_H-M "P -1"
_symmetry_group_IT_number 2
_symmetry_cell_setting 'triclinic'
loop_
_space_group_symop_operation_xyz
x,y,z
-x,-y,-z
loop_
_atom_site_type_symbol
_atom_site_label
_atom_site_fract_x
_atom_site_fract_y
_atom_site_fract_z
Si Si1 0.770346 0.668425 0.090555
Si Si2 0.335737 0.046361 0.095724
Si Si3 0.979306 0.693564 0.368740
Si Si4 0.168057 0.893890 0.831140
Si Si5 0.542220 0.700045 0.836152
Si Si6 0.026178 0.767301 0.749084
Si Si7 0.782957 0.123974 0.529886
Si Si8 0.437710 0.294710 0.519987
O O1 0.800680 0.355599 0.076791
O O2 0.666797 0.701147 0.288693
O O3 0.837990 0.835628 0.099413
O O4 0.743987 0.804944 0.949710
O O5 0.368331 0.221143 0.173816
O O6 0.292211 0.841176 0.259444
O O7 0.441349 0.932574 0.912480
O O8 0.012728 0.495059 0.214799
O O9 0.861994 0.843823 0.481837
O O10 0.000000 0.500000 0.500000
O O11 0.028553 0.953873 0.287891
O O12 0.068941 0.845654 0.851977
O O13 0.247508 0.870627 0.611137
O O14 0.577234 0.631236 0.641887
O O15 0.500000 0.500000 0.000000
O O16 0.136514 0.689978 0.558301
O O17 0.500000 0.500000 0.500000
O O18 0.500000 0.000000 0.500000
#
# Coordination Sequence:
#
# PCOD9062444 Si02
#       8
#     2   2   2   2   2   2   2   2
#     4  12  22  38  58  80 109 148 201 243 289 346
#     4  11  24  41  55  88 114 157 192 253 303 358
#     4   9  16  31  57  93 122 147 185 240 284 340
#     4   9  21  37  57  81 110 152 188 238 280 340
#     4  11  26  40  60  79 119 155 198 250 314 349
#     4   8  18  32  55  85 117 149 189 228 288 333
#     4   8  21  35  59  83 120 150 195 233 298 339
#     4  12  25  42  59  81 107 148 202 246 298 353
#
# _framework density 25.447899
#
# number of rings (size 3 to 8) (size 9 to 14) (size 15 to 20)
#    1.500    0.250    1.250    4.125    5.250    1.000 
#    0.000    0.000    0.000    0.000    0.000   12.250 
#    0.000    0.000    0.000    0.000    0.000    0.000 
#
# Total GULP energy -89296.068976 kJ/mol
# GULP energy per Si atom -5581.004311 kJ/mol
# Density = 2.538998 g / cm^3
# Si number density = 25.447899 Si / 1000 Ang^3
#
#
#
# Elastic Constant Matrix: (Units=GPa)
#
#
# Indices 1 2 3 4 5 6 
#
# 1 59.1719 10.3403 22.8751 -6.1259 14.1107 6.9250
# 2 10.3403 92.4339 -2.9361 1.9102 1.8597 8.0472
# 3 22.8751 -2.9361 130.8874 -4.0309 4.1981 1.5821
# 4 -6.1259 1.9102 -4.0309 44.3083 -6.5396 6.8253
# 5 14.1107 1.8597 4.1981 -6.5396 41.3988 -5.9729
# 6 6.9250 8.0472 1.5821 6.8253 -5.9729 27.0461
#
#
#
# Elastic Compliance Matrix: (Units=1/GPa)
#
#
# Indices 1 2 3 4 5 6 
#
# 1 0.021408 -0.001791 -0.003373 0.002720 -0.007467 -0.007087
# 2 -0.001791 0.011311 0.000608 -0.000287 -0.000432 -0.002965
# 3 -0.003373 0.000608 0.008238 0.000278 0.000361 0.000211
# 4 0.002720 -0.000287 0.000278 0.024247 0.001978 -0.006309
# 5 -0.007467 -0.000432 0.000361 0.001978 0.028111 0.007728
# 6 -0.007087 -0.002965 0.000211 -0.006309 0.007728 0.042957
#
#
# Mechanical properties :
#
#
# Convention : Reuss Voigt Hill
#
# Bulk Modulus (GPa) = 31.40234 38.11687 34.75961
# Shear Modulus (GPa) = 32.05145 39.36491 35.70818
#
# Velocity S-wave (km/s) = 3.55278 3.93731 3.74998
# Velocity P-wave (km/s) = 5.40336 5.97334 5.69549
#
# Compressibility (1/GPa) = 0.03184476
#
# Stress axis : x y z
#
# Youngs Moduli (GPa) = 46.71048 88.40948 121.39361
#
# Poissons Ratio (x) = 0.15834 0.40943
# Poissons Ratio (y) = 0.08366 -0.07376
# Poissons Ratio (z) = 0.15754 -0.05372
#
# Static dielectric constant tensor:
#      x y z
#    x 1.955740 -0.061000 0.038330 
#    y -0.061000 2.005240 0.047620 
#    z 0.038330 0.047620 2.040930 
# 
# From -- ./inp_files/322472.got.cif
#   From: 2010.05.17/outbox.cif.g08.bks.cpg/sg2_162_cif.got.tgz:322472.got - 2010.06.03 11:33:40.
