data_PCOD9062386
_publ_section_title
;
Structure prediction by ZEFSAII (Michael W. Deem and Ramdas Pophale) SiO2 
 PCOD9062386
Probable space group: P -1
;
_chemical_formula_sum "Si O2"
_cell_formula_units_Z 12
_cell_length_a 4.845954
_cell_length_b 10.511061
_cell_length_c 15.988401
_cell_angle_alpha 57.949372
_cell_angle_beta 111.955966
_cell_angle_gamma 138.314412
_cell_volume 458.687793
_symmetry_space_group_name_H-M "P -1"
_symmetry_group_IT_number 2
_symmetry_cell_setting 'triclinic'
loop_
_space_group_symop_operation_xyz
x,y,z
-x,-y,-z
loop_
_atom_site_type_symbol
_atom_site_label
_atom_site_fract_x
_atom_site_fract_y
_atom_site_fract_z
Si Si1 0.439364 0.695024 0.939196
Si Si2 0.875590 0.823456 0.369174
Si Si3 0.976058 0.604985 0.329591
Si Si4 0.065631 0.200233 0.434899
Si Si5 0.337806 0.436467 0.863532
Si Si6 0.168227 0.834701 0.751167
O O1 0.444950 0.596586 0.890675
O O2 0.453399 0.867764 0.845769
O O3 0.751102 0.742988 0.028791
O O4 0.000000 0.500000 0.000000
O O5 0.029982 0.781246 0.323280
O O6 0.021399 0.793946 0.480924
O O7 0.371271 0.641721 0.380563
O O8 0.937882 0.026231 0.298130
O O9 0.537638 0.392303 0.390002
O O10 0.979081 0.628808 0.221423
O O11 0.766765 0.163084 0.342285
O O12 0.000000 0.000000 0.500000
O O13 0.762068 0.586636 0.806036
#
# Coordination Sequence:
#
# PCOD9062386 Si02
#       6
#     2   2   2   2   2   2
#     4   9  18  36  65  87 114 152 214 255 297 351
#     4  11  24  41  59  93 129 165 195 250 306 362
#     4  11  24  40  63  89 130 160 199 247 314 357
#     4   9  20  42  62  92 118 166 209 247 290 360
#     4   9  20  37  63  89 115 160 208 252 301 360
#     4   9  20  38  62  87 120 162 208 250 293 360
#
# _framework density 26.161587999999998
#
# number of rings (size 3 to 8) (size 9 to 14) (size 15 to 20)
#    0.000    2.333    0.000    1.000    9.333    0.000 
#    3.000    5.000    0.000    0.000    0.000    0.000 
#    0.000    0.000    0.000    0.000    0.000    0.000 
#
# Total GULP energy -67031.789438 kJ/mol
# GULP energy per Si atom -5585.982453 kJ/mol
# Density = 2.610204 g / cm^3
# Si number density = 26.161588 Si / 1000 Ang^3
#
#
#
# Elastic Constant Matrix: (Units=GPa)
#
#
# Indices 1 2 3 4 5 6 
#
# 1 87.6334 -1.0928 47.0284 1.3539 0.6332 -16.1466
# 2 -1.0928 59.0500 54.8608 -2.7328 9.8089 -5.1377
# 3 47.0284 54.8608 249.8751 4.4672 4.5759 -23.3459
# 4 1.3539 -2.7328 4.4672 37.7413 -6.7367 -5.9700
# 5 0.6332 9.8089 4.5759 -6.7367 43.3215 -8.3154
# 6 -16.1466 -5.1377 -23.3459 -5.9700 -8.3154 28.8733
#
#
#
# Elastic Compliance Matrix: (Units=1/GPa)
#
#
# Indices 1 2 3 4 5 6 
#
# 1 0.014188 0.003396 -0.002822 0.001286 0.000819 0.006758
# 2 0.003396 0.023031 -0.005593 0.001520 -0.004333 0.000541
# 3 -0.002822 -0.005593 0.005981 -0.000424 0.001088 0.002488
# 4 0.001286 0.001520 -0.000424 0.028954 0.005777 0.008297
# 5 0.000819 -0.004333 0.001088 0.005777 0.026647 0.009435
# 6 0.006758 0.000541 0.002488 0.008297 0.009435 0.044954
#
#
# Mechanical properties :
#
#
# Convention : Reuss Voigt Hill
#
# Bulk Modulus (GPa) = 30.15539 66.46126 48.30832
# Shear Modulus (GPa) = 30.33110 41.70471 36.01791
#
# Velocity S-wave (km/s) = 3.40865 3.99697 3.71448
# Velocity P-wave (km/s) = 5.20034 6.83815 6.07470
#
# Compressibility (1/GPa) = 0.03316157
#
# Stress axis : x y z
#
# Youngs Moduli (GPa) = 70.48429 43.41955 167.18776
#
# Poissons Ratio (x) = -0.14746 0.47188
# Poissons Ratio (y) = -0.23938 0.93508
# Poissons Ratio (z) = 0.19894 0.24284
#
# Static dielectric constant tensor:
#      x y z
#    x 2.165640 0.074110 -0.040980 
#    y 0.074110 2.194510 0.005470 
#    z -0.040980 0.005470 2.177540 
# 
# From -- ./inp_files/18812.got.cif
#   From: 2010.05.17/outbox.cif.g08.bks.cpg/sg2_10_cif.got.tgz:18812.got - 2010.06.03 11:33:40.
