data_PCOD9062268
_publ_section_title
;
Structure prediction by ZEFSAII (Michael W. Deem and Ramdas Pophale) SiO2 
 PCOD9062268
Probable space group: P -1
;
_chemical_formula_sum "Si O2"
_cell_formula_units_Z 16
_cell_length_a 20.970082
_cell_length_b 6.524011
_cell_length_c 10.960714
_cell_angle_alpha 81.718937
_cell_angle_beta 30.870600
_cell_angle_gamma 71.561248
_cell_volume 704.442756
_symmetry_space_group_name_H-M "P -1"
_symmetry_group_IT_number 2
_symmetry_cell_setting 'triclinic'
loop_
_space_group_symop_operation_xyz
x,y,z
-x,-y,-z
loop_
_atom_site_type_symbol
_atom_site_label
_atom_site_fract_x
_atom_site_fract_y
_atom_site_fract_z
Si Si1 0.842462 0.074867 0.545980
Si Si2 0.465844 0.965616 0.199754
Si Si3 0.018044 0.292474 0.133006
Si Si4 0.152755 0.197095 0.681168
Si Si5 0.553832 0.180887 0.271784
Si Si6 0.152469 0.337971 0.282353
Si Si7 0.652875 0.481239 0.937591
Si Si8 0.711190 0.744796 0.187022
O O1 0.706311 0.297393 0.758467
O O2 0.964981 0.159235 0.328562
O O3 0.852754 0.935729 0.419176
O O4 0.846078 0.905304 0.663483
O O5 0.309011 0.099794 0.467934
O O6 0.537177 0.049805 0.186115
O O7 0.516488 0.697133 0.141334
O O8 0.500000 0.000000 0.000000
O O9 0.905999 0.537539 0.272037
O O10 0.061366 0.169180 0.943223
O O11 0.154819 0.313326 0.950718
O O12 0.403604 0.318177 0.555943
O O13 0.633699 0.008701 0.260961
O O14 0.633682 0.334621 0.092225
O O15 0.230913 0.420753 0.247535
O O16 0.000000 0.500000 0.500000
O O17 0.234219 0.348207 0.026959
#
# Coordination Sequence:
#
# PCOD9062268 Si02
#       8
#     2   2   2   2   2   2   2   2
#     4  12  24  45  70 105 138 184 239 288 352 419
#     4  12  24  46  74 104 145 184 236 293 347 424
#     4  11  25  46  76 101 143 191 226 301 357 415
#     4  11  25  47  70 107 143 179 244 291 355 422
#     4  11  25  46  72 103 142 187 234 291 354 421
#     4  12  26  44  69 105 142 182 235 289 344 425
#     4  12  25  45  71 104 140 187 233 289 356 407
#     4  11  23  49  70 100 146 180 235 293 349 422
#
# _framework density 22.712989
#
# number of rings (size 3 to 8) (size 9 to 14) (size 15 to 20)
#    0.000    0.500    3.750    4.875    1.750    4.500 
#    4.500    0.000    0.000    0.000    0.000    0.000 
#    0.000    0.000    0.000    0.000    0.000    0.000 
#
# Total GULP energy -89384.421314 kJ/mol
# GULP energy per Si atom -5586.526332 kJ/mol
# Density = 2.266129 g / cm^3
# Si number density = 22.712989 Si / 1000 Ang^3
#
#
#
# Elastic Constant Matrix: (Units=GPa)
#
#
# Indices 1 2 3 4 5 6 
#
# 1 43.1237 15.0213 22.7082 21.7314 2.2666 -6.0871
# 2 15.0213 101.0068 58.4525 13.4103 -10.7097 -6.9550
# 3 22.7082 58.4525 157.0020 14.5505 2.0960 4.7038
# 4 21.7314 13.4103 14.5505 48.0455 -6.1092 -0.3073
# 5 2.2666 -10.7097 2.0960 -6.1092 51.6158 9.3289
# 6 -6.0871 -6.9550 4.7038 -0.3073 9.3289 22.5267
#
#
#
# Elastic Compliance Matrix: (Units=1/GPa)
#
#
# Indices 1 2 3 4 5 6 
#
# 1 0.035011 -0.000855 -0.003631 -0.015124 -0.005534 0.012040
# 2 -0.000855 0.013613 -0.004946 -0.001618 0.002130 0.004100
# 3 -0.003631 -0.004946 0.008842 0.000262 -0.000442 -0.004168
# 4 -0.015124 -0.001618 0.000262 0.028601 0.004833 -0.006252
# 5 -0.005534 0.002130 -0.000442 0.004833 0.022452 -0.009977
# 6 0.012040 0.004100 -0.004168 -0.006252 -0.009977 0.053828
#
#
# Mechanical properties :
#
#
# Convention : Reuss Voigt Hill
#
# Bulk Modulus (GPa) = 25.90527 54.83294 40.36911
# Shear Modulus (GPa) = 25.76300 38.10098 31.93199
#
# Velocity S-wave (km/s) = 3.37157 4.10017 3.75359
# Velocity P-wave (km/s) = 5.15625 6.82710 6.04963
#
# Compressibility (1/GPa) = 0.03860218
#
# Stress axis : x y z
#
# Youngs Moduli (GPa) = 28.56286 73.46173 113.09373
#
# Poissons Ratio (x) = 0.06284 0.41059
# Poissons Ratio (y) = 0.02443 0.55932
# Poissons Ratio (z) = 0.10370 0.36331
#
# Static dielectric constant tensor:
#      x y z
#    x 1.938740 0.002470 0.035400 
#    y 0.002470 1.824780 0.007470 
#    z 0.035400 0.007470 1.865110 
# 
# From -- ./inp_files/434183.got.cif
#   From: 2010.05.17/outbox.cif.g08.bks.cpg/sg2_218_cif.got.tgz:434183.got - 2010.06.03 11:33:40.
