data_PCOD9062956
_publ_section_title
;
Structure prediction by ZEFSAII (Michael W. Deem and Ramdas Pophale) SiO2 
 PCOD9062956
Probable space group: P -1
;
_chemical_formula_sum "Si O2"
_cell_formula_units_Z 14
_cell_length_a 5.436291
_cell_length_b 17.893423
_cell_length_c 7.952524
_cell_angle_alpha 117.840910
_cell_angle_beta 59.375431
_cell_angle_gamma 112.346417
_cell_volume 578.239001
_symmetry_space_group_name_H-M "P -1"
_symmetry_group_IT_number 2
_symmetry_cell_setting 'triclinic'
loop_
_space_group_symop_operation_xyz
x,y,z
-x,-y,-z
loop_
_atom_site_type_symbol
_atom_site_label
_atom_site_fract_x
_atom_site_fract_y
_atom_site_fract_z
Si Si1 0.848763 0.881940 0.570641
Si Si2 0.142167 0.318983 0.137878
Si Si3 0.472153 0.703072 0.584965
Si Si4 0.623241 0.413906 0.836515
Si Si5 0.212042 0.429027 0.526585
Si Si6 0.721196 0.069384 0.822146
Si Si7 0.900358 0.871870 0.919090
O O1 0.594353 0.798372 0.578749
O O2 0.068960 0.878157 0.337035
O O3 0.723489 0.969068 0.682748
O O4 0.003677 0.885172 0.703377
O O5 0.146046 0.408324 0.333008
O O6 0.795970 0.299272 0.195002
O O7 0.416434 0.343910 0.947882
O O8 0.171273 0.229040 0.118780
O O9 0.389120 0.636802 0.389867
O O10 0.723874 0.663149 0.538730
O O11 0.970928 0.445206 0.758752
O O12 0.500000 0.500000 0.000000
O O13 0.500000 0.500000 0.500000
O O14 0.401470 0.091597 0.939289
O O15 0.875276 0.088521 0.971229
#
# Coordination Sequence:
#
# PCOD9062956 Si02
#       7
#     2   2   2   2   2   2   2
#     4  11  25  48  73 106 155 196 250 318 378 441
#     4  11  25  42  69  99 141 186 241 303 367 447
#     4  11  24  44  67  98 140 187 237 301 373 441
#     4  11  25  44  69 103 137 187 243 308 371 453
#     4  11  24  43  67  99 136 180 230 294 374 440
#     4  11  28  45  75 113 148 206 256 313 377 464
#     4  12  25  47  74 111 151 200 259 307 383 449
#
# _framework density 24.21144
#
# number of rings (size 3 to 8) (size 9 to 14) (size 15 to 20)
#    0.000    0.857    1.429    4.286    2.000   11.429 
#    0.000    0.000    0.000    0.000    0.000    0.000 
#    0.000    0.000    0.000    0.000    0.000    0.000 
#
# Total GULP energy -78167.116329 kJ/mol
# GULP energy per Si atom -5583.365452 kJ/mol
# Density = 2.415633 g / cm^3
# Si number density = 24.211440 Si / 1000 Ang^3
#
#
#
# Elastic Constant Matrix: (Units=GPa)
#
#
# Indices 1 2 3 4 5 6 
#
# 1 76.5094 11.6859 49.6191 -0.9462 -24.9457 0.0004
# 2 11.6859 107.7143 34.7008 -4.3626 -19.7802 7.7913
# 3 49.6191 34.7008 127.0983 -23.2175 -25.7376 5.7668
# 4 -0.9462 -4.3626 -23.2175 58.4723 4.5031 0.1387
# 5 -24.9457 -19.7802 -25.7376 4.5031 44.8549 4.3185
# 6 0.0004 7.7913 5.7668 0.1387 4.3185 34.9426
#
#
#
# Elastic Compliance Matrix: (Units=1/GPa)
#
#
# Indices 1 2 3 4 5 6 
#
# 1 0.020067 0.001491 -0.007163 -0.003026 0.008023 -0.000130
# 2 0.001491 0.010956 -0.002660 -0.000550 0.004435 -0.002550
# 3 -0.007163 -0.002660 0.012676 0.004583 0.001825 -0.001743
# 4 -0.003026 -0.000550 0.004583 0.018921 -0.001141 -0.000568
# 5 0.008023 0.004435 0.001825 -0.001141 0.030358 -0.005038
# 6 -0.000130 -0.002550 -0.001743 -0.000568 -0.005038 0.030099
#
#
# Mechanical properties :
#
#
# Convention : Reuss Voigt Hill
#
# Bulk Modulus (GPa) = 36.99020 55.92596 46.45808
# Shear Modulus (GPa) = 33.61273 42.00837 37.81055
#
# Velocity S-wave (km/s) = 3.73003 4.16993 3.95610
# Velocity P-wave (km/s) = 5.81911 6.80687 6.33228
#
# Compressibility (1/GPa) = 0.02703419
#
# Stress axis : x y z
#
# Youngs Moduli (GPa) = 49.83361 91.27821 78.88723
#
# Poissons Ratio (x) = -0.13608 0.56508
# Poissons Ratio (y) = -0.07430 0.20983
# Poissons Ratio (z) = 0.35697 0.24279
#
# Static dielectric constant tensor:
#      x y z
#    x 2.456800 0.011690 0.057060 
#    y 0.011690 1.944810 -0.006860 
#    z 0.057060 -0.006860 1.968210 
# 
# From -- ./inp_files/139291.got.cif
#   From: 2010.05.17/outbox.cif.g08.bks.cpg/sg2_70_cif.got.tgz:139291.got - 2010.06.03 11:33:40.
