data_PCOD9062469
_publ_section_title
;
Structure prediction by ZEFSAII (Michael W. Deem and Ramdas Pophale) SiO2 
 PCOD9062469
Probable space group: P -1
;
_chemical_formula_sum "Si O2"
_cell_formula_units_Z 16
_cell_length_a 13.625683
_cell_length_b 12.118470
_cell_length_c 9.243063
_cell_angle_alpha 112.879292
_cell_angle_beta 108.531648
_cell_angle_gamma 126.785314
_cell_volume 749.649194
_symmetry_space_group_name_H-M "P -1"
_symmetry_group_IT_number 2
_symmetry_cell_setting 'triclinic'
loop_
_space_group_symop_operation_xyz
x,y,z
-x,-y,-z
loop_
_atom_site_type_symbol
_atom_site_label
_atom_site_fract_x
_atom_site_fract_y
_atom_site_fract_z
Si Si1 0.204374 0.661854 0.630790
Si Si2 0.468288 0.355656 0.057276
Si Si3 0.808028 0.834626 0.411794
Si Si4 0.538244 0.178273 0.618984
Si Si5 0.692875 0.689000 0.767904
Si Si6 0.206618 0.011201 0.242064
Si Si7 0.845993 0.569878 0.761852
Si Si8 0.490152 0.121109 0.901143
O O1 0.192946 0.533556 0.459567
O O2 0.000000 0.500000 0.500000
O O3 0.312338 0.866201 0.693322
O O4 0.334378 0.772014 0.887833
O O5 0.684096 0.598769 0.273035
O O6 0.361843 0.341939 0.108258
O O7 0.347124 0.249042 0.801208
O O8 0.453443 0.204623 0.020693
O O9 0.845749 0.950373 0.630115
O O10 0.000000 0.000000 0.500000
O O11 0.727173 0.393087 0.740030
O O12 0.535513 0.202170 0.800541
O O13 0.500000 0.000000 0.500000
O O14 0.389940 0.117870 0.432601
O O15 0.500000 0.500000 0.500000
O O16 0.793616 0.660289 0.777334
O O17 0.783633 0.892386 0.843144
O O18 0.056605 0.768699 0.010219
#
# Coordination Sequence:
#
# PCOD9062469 Si02
#       8
#     2   2   2   2   2   2   2   2
#     4  11  28  48  71 102 138 185 236 288 351 415
#     4  11  24  43  68  98 139 178 225 286 344 410
#     4  11  24  41  64 102 138 177 222 278 352 415
#     4  12  26  48  72 102 143 190 238 287 349 419
#     4  12  23  46  73 100 142 188 237 290 351 412
#     4  12  27  45  72 105 144 185 237 292 353 417
#     4  12  27  46  73 106 142 186 240 292 349 421
#     4  11  26  48  72  99 139 185 233 286 351 415
#
# _framework density 21.343315
#
# number of rings (size 3 to 8) (size 9 to 14) (size 15 to 20)
#    0.000    0.500    5.000    1.875    7.000    2.500 
#    0.000    0.000    0.000    0.000    0.000    0.000 
#    0.000    0.000    0.000    0.000    0.000    0.000 
#
# Total GULP energy -89409.312075 kJ/mol
# GULP energy per Si atom -5588.082005 kJ/mol
# Density = 2.129474 g / cm^3
# Si number density = 21.343315 Si / 1000 Ang^3
#
#
#
# Elastic Constant Matrix: (Units=GPa)
#
#
# Indices 1 2 3 4 5 6 
#
# 1 79.7870 29.7996 9.8015 17.3424 -11.9371 6.1973
# 2 29.7996 113.0599 37.9165 16.7097 4.2189 9.8163
# 3 9.8015 37.9165 95.0744 22.9534 -3.0244 16.9526
# 4 17.3424 16.7097 22.9534 38.2162 5.8205 -0.6057
# 5 -11.9371 4.2189 -3.0244 5.8205 22.0324 2.1754
# 6 6.1973 9.8163 16.9526 -0.6057 2.1754 33.3398
#
#
#
# Elastic Compliance Matrix: (Units=1/GPa)
#
#
# Indices 1 2 3 4 5 6 
#
# 1 0.019046 -0.004831 0.004200 -0.011485 0.015394 -0.005467
# 2 -0.004831 0.011747 -0.004550 0.000656 -0.005678 0.000135
# 3 0.004200 -0.004550 0.016475 -0.011359 0.009262 -0.008629
# 4 -0.011485 0.000656 -0.011359 0.041073 -0.019721 0.009751
# 5 0.015394 -0.005678 0.009262 -0.019721 0.062316 -0.010324
# 6 -0.005467 0.000135 -0.008629 0.009751 -0.010324 0.036209
#
#
# Mechanical properties :
#
#
# Convention : Reuss Voigt Hill
#
# Bulk Modulus (GPa) = 27.09486 49.21740 38.15613
# Shear Modulus (GPa) = 23.86294 32.74460 28.30377
#
# Velocity S-wave (km/s) = 3.34736 3.92112 3.64554
# Velocity P-wave (km/s) = 5.25947 6.60380 5.96960
#
# Compressibility (1/GPa) = 0.03690736
#
# Stress axis : x y z
#
# Youngs Moduli (GPa) = 52.50494 85.12561 60.69675
#
# Poissons Ratio (x) = 0.41125 -0.25495
# Poissons Ratio (y) = 0.25365 0.27616
# Poissons Ratio (z) = -0.22054 0.38731
#
# Static dielectric constant tensor:
#      x y z
#    x 1.785550 -0.071030 0.009330 
#    y -0.071030 1.815240 -0.044780 
#    z 0.009330 -0.044780 1.847500 
# 
# From -- ./inp_files/308136.got.cif
#   From: 2010.05.17/outbox.cif.g08.bks.cpg/sg2_155_cif.got.tgz:308136.got - 2010.06.03 11:33:40.
