data_PCOD9062681
_publ_section_title
;
Structure prediction by ZEFSAII (Michael W. Deem and Ramdas Pophale) SiO2 
 PCOD9062681
Probable space group: P -1
;
_chemical_formula_sum "Si O2"
_cell_formula_units_Z 16
_cell_length_a 25.671136
_cell_length_b 6.029067
_cell_length_c 9.155517
_cell_angle_alpha 96.614536
_cell_angle_beta 28.027114
_cell_angle_gamma 100.563762
_cell_volume 651.215575
_symmetry_space_group_name_H-M "P -1"
_symmetry_group_IT_number 2
_symmetry_cell_setting 'triclinic'
loop_
_space_group_symop_operation_xyz
x,y,z
-x,-y,-z
loop_
_atom_site_type_symbol
_atom_site_label
_atom_site_fract_x
_atom_site_fract_y
_atom_site_fract_z
Si Si1 0.546647 0.692979 0.273705
Si Si2 0.703926 0.373801 0.793906
Si Si3 0.861149 0.290013 0.152031
Si Si4 0.490544 0.017498 0.199582
Si Si5 0.734704 0.079293 0.934695
Si Si6 0.249536 0.070885 0.814926
Si Si7 0.044843 0.038682 0.726489
Si Si8 0.920765 0.637742 0.796295
O O1 0.500000 0.500000 0.500000
O O2 0.475929 0.793493 0.326121
O O3 0.641896 0.584140 0.946044
O O4 0.614796 0.912283 0.205274
O O5 0.812871 0.364072 0.427392
O O6 0.730275 0.318907 0.890621
O O7 0.608025 0.163753 0.969091
O O8 0.790111 0.055559 0.247708
O O9 0.849000 0.477577 0.079261
O O10 0.990383 0.255133 0.831893
O O11 0.383275 0.144742 0.489822
O O12 0.500000 0.000000 0.000000
O O13 0.823647 0.959180 0.615342
O O14 0.772092 0.102475 0.010122
O O15 0.169303 0.249653 0.061546
O O16 0.993583 0.837042 0.727548
O O17 0.000000 0.000000 0.000000
O O18 0.000000 0.500000 0.500000
#
# Coordination Sequence:
#
# PCOD9062681 Si02
#       8
#     2   2   2   2   2   2   2   2
#     4  11  26  44  69 102 140 177 236 289 345 416
#     4  11  24  42  68 100 136 179 230 290 342 411
#     4  11  24  42  68 100 136 179 230 290 342 411
#     4  11  24  44  69 100 140 184 228 287 354 414
#     4  11  24  44  70  96 138 180 229 278 357 409
#     4  11  24  44  70  96 138 180 229 278 357 409
#     4  11  24  44  69 100 140 184 228 287 354 414
#     4  11  26  44  69 102 140 177 236 289 345 416
#
# _framework density 24.569438999999999
#
# number of rings (size 3 to 8) (size 9 to 14) (size 15 to 20)
#    0.000    1.000    2.500    3.000    3.500   10.000 
#    0.000    0.000    0.000    0.000    0.000    0.000 
#    0.000    0.000    0.000    0.000    0.000    0.000 
#
# Total GULP energy -89406.586406 kJ/mol
# GULP energy per Si atom -5587.911650 kJ/mol
# Density = 2.451352 g / cm^3
# Si number density = 24.569439 Si / 1000 Ang^3
#
#
#
# Elastic Constant Matrix: (Units=GPa)
#
#
# Indices 1 2 3 4 5 6 
#
# 1 100.7754 36.1694 36.1497 10.5068 10.2906 -27.4580
# 2 36.1694 77.0074 33.2221 16.9628 -2.9186 -19.1664
# 3 36.1497 33.2221 129.8293 28.8761 -7.0879 -5.0970
# 4 10.5068 16.9628 28.8761 43.5730 -3.3039 -8.3586
# 5 10.2906 -2.9186 -7.0879 -3.3039 43.7685 6.1470
# 6 -27.4580 -19.1664 -5.0970 -8.3586 6.1470 36.7184
#
#
#
# Elastic Compliance Matrix: (Units=1/GPa)
#
#
# Indices 1 2 3 4 5 6 
#
# 1 0.016052 -0.003808 -0.003787 0.001755 -0.006040 0.010901
# 2 -0.003808 0.017949 -0.002551 -0.003310 0.000685 0.005299
# 3 -0.003787 -0.002551 0.010674 -0.005821 0.002634 -0.004448
# 4 0.001755 -0.003310 -0.005821 0.028684 -0.000160 0.005333
# 5 -0.006040 0.000685 0.002634 -0.000160 0.025874 -0.008161
# 6 0.010901 0.005299 -0.004448 0.005333 -0.008161 0.040115
#
#
# Mechanical properties :
#
#
# Convention : Reuss Voigt Hill
#
# Bulk Modulus (GPa) = 41.01337 57.63275 49.32306
# Shear Modulus (GPa) = 29.80320 38.28335 34.04328
#
# Velocity S-wave (km/s) = 3.48662 3.95165 3.72640
# Velocity P-wave (km/s) = 5.73914 6.65798 6.21556
#
# Compressibility (1/GPa) = 0.02438229
#
# Stress axis : x y z
#
# Youngs Moduli (GPa) = 62.29631 55.71382 93.68996
#
# Poissons Ratio (x) = 0.21216 0.35483
# Poissons Ratio (y) = 0.23722 0.23900
# Poissons Ratio (z) = 0.23593 0.14213
#
# Static dielectric constant tensor:
#      x y z
#    x 1.983700 -0.019510 -0.013680 
#    y -0.019510 1.977190 -0.021860 
#    z -0.013680 -0.021860 1.961050 
# 
# From -- ./inp_files/38763.got.cif
#   From: 2010.05.17/outbox.cif.g08.bks.cpg/sg2_20_cif.got.tgz:38763.got - 2010.06.03 11:33:40.
