data_PCOD9062818
_publ_section_title
;
Structure prediction by ZEFSAII (Michael W. Deem and Ramdas Pophale) SiO2 
 PCOD9062818
Probable space group: P -1
;
_chemical_formula_sum "Si O2"
_cell_formula_units_Z 16
_cell_length_a 9.026049
_cell_length_b 18.829590
_cell_length_c 9.204278
_cell_angle_alpha 133.811890
_cell_angle_beta 53.050987
_cell_angle_gamma 146.048396
_cell_volume 629.052374
_symmetry_space_group_name_H-M "P -1"
_symmetry_group_IT_number 2
_symmetry_cell_setting 'triclinic'
loop_
_space_group_symop_operation_xyz
x,y,z
-x,-y,-z
loop_
_atom_site_type_symbol
_atom_site_label
_atom_site_fract_x
_atom_site_fract_y
_atom_site_fract_z
Si Si1 0.320761 0.887035 0.812064
Si Si2 0.185491 0.663689 0.750658
Si Si3 0.604704 0.568336 0.324859
Si Si4 0.864239 0.263173 0.822234
Si Si5 0.393270 0.631084 0.324995
Si Si6 0.807570 0.736371 0.734247
Si Si7 0.585140 0.812580 0.181486
Si Si8 0.158052 0.975714 0.460969
O O1 0.126146 0.738690 0.800266
O O2 0.543324 0.918403 0.629040
O O3 0.114587 0.860566 0.785096
O O4 0.500000 0.000000 0.000000
O O5 0.399195 0.693022 0.563176
O O6 0.922866 0.499502 0.695807
O O7 0.263568 0.732935 0.958536
O O8 0.525854 0.582640 0.236006
O O9 0.734326 0.690416 0.543423
O O10 0.345929 0.418079 0.329034
O O11 0.846927 0.585490 0.175099
O O12 0.662142 0.210643 0.739669
O O13 0.913306 0.167003 0.696863
O O14 0.524459 0.722616 0.232425
O O15 0.664375 0.773635 0.947414
O O16 0.825274 0.974596 0.317189
O O17 0.000000 0.000000 0.500000
#
# Coordination Sequence:
#
# PCOD9062818 Si02
#       8
#     2   2   2   2   2   2   2   2
#     4  12  23  46  76 107 146 191 246 304 365 437
#     4  11  24  42  72 106 143 185 249 295 369 424
#     4  11  25  46  73 107 152 187 247 301 368 431
#     4  12  27  46  71 107 147 196 241 302 364 437
#     4  11  24  42  73 107 146 192 240 302 362 436
#     4  11  26  46  75 109 149 194 241 308 365 431
#     4  12  26  46  70 106 150 195 245 297 368 434
#     4  12  26  47  75 104 144 192 248 302 361 438
#
# _framework density 25.435085999999998
#
# number of rings (size 3 to 8) (size 9 to 14) (size 15 to 20)
#    0.000    0.500    3.750    4.125    1.750    4.000 
#    0.000    1.250    0.000    0.000    0.000    0.000 
#    0.000    0.000    0.000    0.000    0.000    0.000 
#
# Total GULP energy -89302.965448 kJ/mol
# GULP energy per Si atom -5581.435341 kJ/mol
# Density = 2.537719 g / cm^3
# Si number density = 25.435086 Si / 1000 Ang^3
#
#
#
# Elastic Constant Matrix: (Units=GPa)
#
#
# Indices 1 2 3 4 5 6 
#
# 1 164.7016 24.6267 33.3218 -2.1089 11.2988 22.4079
# 2 24.6267 75.2277 11.7832 -4.2704 -1.3498 11.1455
# 3 33.3218 11.7832 152.0601 -4.6837 4.7959 2.2591
# 4 -2.1089 -4.2704 -4.6837 34.5558 -0.9570 3.5196
# 5 11.2988 -1.3498 4.7959 -0.9570 20.1896 -7.0518
# 6 22.4079 11.1455 2.2591 3.5196 -7.0518 25.4442
#
#
#
# Elastic Compliance Matrix: (Units=1/GPa)
#
#
# Indices 1 2 3 4 5 6 
#
# 1 0.008237 -0.001279 -0.001317 0.000852 -0.007397 -0.008745
# 2 -0.001279 0.014777 -0.000714 0.002221 0.000029 -0.005582
# 3 -0.001317 -0.000714 0.006957 0.000697 -0.000737 0.000554
# 4 0.000852 0.002221 0.000697 0.029964 -0.001268 -0.006281
# 5 -0.007397 0.000029 -0.000737 -0.001268 0.062159 0.023969
# 6 -0.008745 -0.005582 0.000554 -0.006281 0.023969 0.056911
#
#
# Mechanical properties :
#
#
# Convention : Reuss Voigt Hill
#
# Bulk Modulus (GPa) = 42.82423 59.05031 50.93727
# Shear Modulus (GPa) = 25.85197 37.52177 31.68687
#
# Velocity S-wave (km/s) = 3.19155 3.84500 3.53341
# Velocity P-wave (km/s) = 5.51856 6.55580 6.05941
#
# Compressibility (1/GPa) = 0.02335127
#
# Stress axis : x y z
#
# Youngs Moduli (GPa) = 121.39908 67.67167 143.74636
#
# Poissons Ratio (x) = 0.08656 0.18924
# Poissons Ratio (y) = 0.15528 0.10269
# Poissons Ratio (z) = 0.15982 0.04834
#
# Static dielectric constant tensor:
#      x y z
#    x 2.011780 -0.060810 -0.032020 
#    y -0.060810 2.085320 0.104710 
#    z -0.032020 0.104710 2.093420 
# 
# From -- ./inp_files/224026.got.cif
#   From: 2010.05.17/outbox.cif.g08.bks.cpg/sg2_113_cif.got.tgz:224026.got - 2010.06.03 11:33:40.
