data_PCOD9062580
_publ_section_title
;
Structure prediction by ZEFSAII (Michael W. Deem and Ramdas Pophale) SiO2 
 PCOD9062580
Probable space group: P -1
;
_chemical_formula_sum "Si O2"
_cell_formula_units_Z 16
_cell_length_a 9.122078
_cell_length_b 16.453522
_cell_length_c 6.423236
_cell_angle_alpha 73.036024
_cell_angle_beta 88.701757
_cell_angle_gamma 50.749916
_cell_volume 696.802848
_symmetry_space_group_name_H-M "P -1"
_symmetry_group_IT_number 2
_symmetry_cell_setting 'triclinic'
loop_
_space_group_symop_operation_xyz
x,y,z
-x,-y,-z
loop_
_atom_site_type_symbol
_atom_site_label
_atom_site_fract_x
_atom_site_fract_y
_atom_site_fract_z
Si Si1 0.590638 0.750002 0.505101
Si Si2 0.715401 0.527167 0.455675
Si Si3 0.003650 0.759477 0.856301
Si Si4 0.383063 0.585107 0.129046
Si Si5 0.672628 0.908550 0.414395
Si Si6 0.877991 0.919524 0.082104
Si Si7 0.142600 0.920911 0.364743
Si Si8 0.966242 0.598105 0.809336
O O1 0.676024 0.636879 0.461740
O O2 0.627243 0.833915 0.369038
O O3 0.363834 0.822209 0.497428
O O4 0.734666 0.696910 0.735496
O O5 0.538595 0.576733 0.266864
O O6 0.699102 0.458241 0.681062
O O7 0.916973 0.444799 0.381242
O O8 0.869404 0.833197 0.607560
O O9 0.044701 0.645864 0.903600
O O10 0.899808 0.825060 0.022162
O O11 0.221327 0.708646 0.937410
O O12 0.500000 0.500000 0.000000
O O13 0.698812 0.972424 0.198369
O O14 0.500000 0.000000 0.500000
O O15 0.055767 0.877897 0.258658
O O16 0.855832 0.999932 0.851232
O O17 0.000000 0.000000 0.500000
O O18 0.000000 0.500000 0.000000
#
# Coordination Sequence:
#
# PCOD9062580 Si02
#       8
#     2   2   2   2   2   2   2   2
#     4  11  25  44  74 100 141 189 232 289 356 419
#     4  11  25  45  70 104 145 186 239 291 348 421
#     4  11  24  41  71 101 135 189 229 279 351 413
#     4  11  24  44  71 100 145 184 236 290 345 411
#     4  11  26  48  69 105 145 180 234 295 353 424
#     4  11  25  45  75 102 142 182 235 291 352 418
#     4  11  25  50  73 106 143 181 237 300 351 421
#     4  11  25  46  67 103 150 185 233 291 345 422
#
# _framework density 22.962018
#
# number of rings (size 3 to 8) (size 9 to 14) (size 15 to 20)
#    0.000    1.000    1.250    4.125    5.250    4.000 
#    6.750    0.000    0.000    0.000    0.000    0.000 
#    0.000    0.000    0.000    0.000    0.000    0.000 
#
# Total GULP energy -89311.307432 kJ/mol
# GULP energy per Si atom -5581.956714 kJ/mol
# Density = 2.290976 g / cm^3
# Si number density = 22.962018 Si / 1000 Ang^3
#
#
#
# Elastic Constant Matrix: (Units=GPa)
#
#
# Indices 1 2 3 4 5 6 
#
# 1 100.5169 39.9573 55.3716 2.1949 -7.1439 -7.6788
# 2 39.9573 73.0161 19.6568 10.8740 -3.3503 -12.8715
# 3 55.3716 19.6568 77.7938 6.4430 -6.5502 -14.4650
# 4 2.1949 10.8740 6.4430 39.9583 -5.5581 13.2909
# 5 -7.1439 -3.3503 -6.5502 -5.5581 50.6317 0.8774
# 6 -7.6788 -12.8715 -14.4650 13.2909 0.8774 45.2516
#
#
#
# Elastic Compliance Matrix: (Units=1/GPa)
#
#
# Indices 1 2 3 4 5 6 
#
# 1 0.020836 -0.009372 -0.013779 0.005522 0.001233 -0.005181
# 2 -0.009372 0.020447 0.003602 -0.008311 -0.000551 0.007829
# 3 -0.013779 0.003602 0.023899 -0.006770 0.000499 0.008304
# 4 0.005522 -0.008311 -0.006770 0.032956 0.003202 -0.013332
# 5 0.001233 -0.000551 0.000499 0.003202 0.020323 -0.001123
# 6 -0.005181 0.007829 0.008304 -0.013332 -0.001123 0.030039
#
#
# Mechanical properties :
#
#
# Convention : Reuss Voigt Hill
#
# Bulk Modulus (GPa) = 38.33895 53.47761 45.90828
# Shear Modulus (GPa) = 25.47212 36.25773 30.86492
#
# Velocity S-wave (km/s) = 3.33425 3.97801 3.67027
# Velocity P-wave (km/s) = 5.61746 6.66630 6.16423
#
# Compressibility (1/GPa) = 0.02608314
#
# Stress axis : x y z
#
# Youngs Moduli (GPa) = 47.99420 48.90671 41.84292
#
# Poissons Ratio (x) = 0.45834 0.57656
# Poissons Ratio (y) = 0.44979 -0.15070
# Poissons Ratio (z) = 0.66132 -0.17614
#
# Static dielectric constant tensor:
#      x y z
#    x 3.178720 0.637430 0.024880 
#    y 0.637430 2.181900 -0.017260 
#    z 0.024880 -0.017260 1.859250 
# 
# From -- ./inp_files/47449.got.cif
#   From: 2010.05.17/outbox.cif.g08.bks.cpg/sg2_24_cif.got.tgz:47449.got - 2010.06.03 11:33:40.
