data_PCOD9062085
_publ_section_title
;
Structure prediction by ZEFSAII (Michael W. Deem and Ramdas Pophale) SiO2 
 PCOD9062085
Probable space group: P -1
;
_chemical_formula_sum "Si O2"
_cell_formula_units_Z 14
_cell_length_a 18.264063
_cell_length_b 24.408987
_cell_length_c 6.248546
_cell_angle_alpha 56.592903
_cell_angle_beta 131.420713
_cell_angle_gamma 162.334234
_cell_volume 593.643352
_symmetry_space_group_name_H-M "P -1"
_symmetry_group_IT_number 2
_symmetry_cell_setting 'triclinic'
loop_
_space_group_symop_operation_xyz
x,y,z
-x,-y,-z
loop_
_atom_site_type_symbol
_atom_site_label
_atom_site_fract_x
_atom_site_fract_y
_atom_site_fract_z
Si Si1 0.335889 0.462187 0.708003
Si Si2 0.399910 0.626833 0.734566
Si Si3 0.026124 0.321670 0.027626
Si Si4 0.739846 0.263531 0.776823
Si Si5 0.678038 0.319225 0.895183
Si Si6 0.161803 0.899451 0.192631
Si Si7 0.826760 0.953366 0.187046
O O1 0.484000 0.615078 0.792241
O O2 0.275000 0.445222 0.384610
O O3 0.019537 0.251709 0.650807
O O4 0.500000 0.500000 0.000000
O O5 0.278735 0.600258 0.383850
O O6 0.663619 0.827756 0.928789
O O7 0.176246 0.462549 0.836438
O O8 0.833788 0.247537 0.962238
O O9 0.855270 0.157568 0.924398
O O10 0.640297 0.226696 0.897189
O O11 0.483731 0.114284 0.436442
O O12 0.031650 0.489753 0.818846
O O13 0.408137 0.173241 0.819442
O O14 0.016902 0.878835 0.914824
O O15 0.000000 0.000000 0.500000
#
# Coordination Sequence:
#
# PCOD9062085 Si02
#       7
#     2   2   2   2   2   2   2
#     4  11  27  47  72  99 144 188 241 286 347 419
#     4  11  23  47  72 103 136 187 236 280 361 410
#     4  11  25  47  71 103 142 189 229 288 363 411
#     4  11  23  47  72 103 147 181 237 292 348 425
#     4  11  25  45  72 109 139 186 232 295 352 413
#     4  11  28  43  69 112 136 186 234 294 350 413
#     4  12  28  46  73 105 144 182 239 290 354 416
#
# _framework density 23.583182999999998
#
# number of rings (size 3 to 8) (size 9 to 14) (size 15 to 20)
#    0.000    0.857    4.286    0.429    8.000    5.714 
#    0.000    0.000    0.000    0.000    0.000    0.000 
#    0.000    0.000    0.000    0.000    0.000    0.000 
#
# Total GULP energy -78335.213107 kJ/mol
# GULP energy per Si atom -5595.372365 kJ/mol
# Density = 2.352951 g / cm^3
# Si number density = 23.583183 Si / 1000 Ang^3
#
#
#
# Elastic Constant Matrix: (Units=GPa)
#
#
# Indices 1 2 3 4 5 6 
#
# 1 125.4253 26.8486 50.4494 25.7693 -12.0947 -41.0646
# 2 26.8486 58.1948 16.9445 -10.7931 -13.8106 -13.4387
# 3 50.4494 16.9445 111.2559 -3.3250 -3.2220 -10.5197
# 4 25.7693 -10.7931 -3.3250 37.5720 -4.0557 -4.2013
# 5 -12.0947 -13.8106 -3.2220 -4.0557 37.5350 1.7900
# 6 -41.0646 -13.4387 -10.5197 -4.2013 1.7900 47.1465
#
#
#
# Elastic Compliance Matrix: (Units=1/GPa)
#
#
# Indices 1 2 3 4 5 6 
#
# 1 0.018987 -0.006333 -0.006906 -0.014002 0.001115 0.011902
# 2 -0.006333 0.025046 -0.000091 0.012710 0.008425 0.002416
# 3 -0.006906 -0.000091 0.012010 0.005399 -0.000508 -0.002861
# 4 -0.014002 0.012710 0.005399 0.040465 0.005189 -0.003959
# 5 0.001115 0.008425 -0.000508 0.005189 0.030496 0.002564
# 6 0.011902 0.002416 -0.002861 -0.003959 0.002564 0.031177
#
#
# Mechanical properties :
#
#
# Convention : Reuss Voigt Hill
#
# Bulk Modulus (GPa) = 34.03216 53.70679 43.86948
# Shear Modulus (GPa) = 25.68904 37.82628 31.75766
#
# Velocity S-wave (km/s) = 3.30403 4.00928 3.67362
# Velocity P-wave (km/s) = 5.38679 6.65246 6.05280
#
# Compressibility (1/GPa) = 0.02938397
#
# Stress axis : x y z
#
# Youngs Moduli (GPa) = 52.66700 39.92595 83.26511
#
# Poissons Ratio (x) = 0.25285 0.57504
# Poissons Ratio (y) = 0.33354 0.00755
# Poissons Ratio (z) = 0.36373 0.00362
#
# Static dielectric constant tensor:
#      x y z
#    x 1.901480 0.029510 0.009450 
#    y 0.029510 1.940020 -0.006570 
#    z 0.009450 -0.006570 1.875730 
# 
# From -- ./inp_files/38799.got.cif
#   From: 2010.05.17/outbox.cif.g08.bks.cpg/sg2_20_cif.got.tgz:38799.got - 2010.06.03 11:33:40.
