data_PCOD9062793
_publ_section_title
;
Structure prediction by ZEFSAII (Michael W. Deem and Ramdas Pophale) SiO2 
 PCOD9062793
Probable space group: P -1
;
_chemical_formula_sum "Si O2"
_cell_formula_units_Z 14
_cell_length_a 21.403825
_cell_length_b 15.136986
_cell_length_c 14.630594
_cell_angle_alpha 35.975868
_cell_angle_beta 152.980821
_cell_angle_gamma 162.657022
_cell_volume 611.646657
_symmetry_space_group_name_H-M "P -1"
_symmetry_group_IT_number 2
_symmetry_cell_setting 'triclinic'
loop_
_space_group_symop_operation_xyz
x,y,z
-x,-y,-z
loop_
_atom_site_type_symbol
_atom_site_label
_atom_site_fract_x
_atom_site_fract_y
_atom_site_fract_z
Si Si1 0.030233 0.185187 0.506381
Si Si2 0.531989 0.167250 0.968454
Si Si3 0.585206 0.536368 0.475251
Si Si4 0.676692 0.251692 0.293829
Si Si5 0.077431 0.214782 0.010024
Si Si6 0.740150 0.626855 0.160955
Si Si7 0.451476 0.185755 0.458770
O O1 0.078727 0.261300 0.612403
O O2 0.310915 0.502233 0.553211
O O3 0.911799 0.900258 0.583493
O O4 0.760062 0.021451 0.261687
O O5 0.568939 0.158096 0.128906
O O6 0.817066 0.537103 0.005557
O O7 0.500000 0.000000 0.000000
O O8 0.500000 0.500000 0.500000
O O9 0.512923 0.298796 0.548435
O O10 0.391593 0.439328 0.227491
O O11 0.651436 0.394488 0.183791
O O12 0.000000 0.500000 0.500000
O O13 0.521644 0.968459 0.382971
O O14 0.863318 0.068983 0.775109
O O15 0.911753 0.917991 0.086773
O O16 0.500000 0.500000 0.000000
#
# Coordination Sequence:
#
# PCOD9062793 Si02
#       7
#     2   2   2   2   2   2   2
#     4  11  26  44  70 109 146 186 239 304 366 425
#     4  11  27  46  72 105 148 188 242 305 370 429
#     4  11  24  42  71 105 143 192 242 296 355 434
#     4  12  27  46  74 108 145 193 249 302 358 437
#     4  11  24  43  72 102 136 197 242 288 353 440
#     4  12  26  45  74 108 146 190 246 300 361 440
#     4  12  26  45  72 106 147 188 243 301 366 428
#
# _framework density 22.889030999999999
#
# number of rings (size 3 to 8) (size 9 to 14) (size 15 to 20)
#    0.000    0.571    4.286    2.571    8.000    3.429 
#    0.000    0.000    0.000    0.000    0.000    0.000 
#    0.000    0.000    0.000    0.000    0.000    0.000 
#
# Total GULP energy -78093.833539 kJ/mol
# GULP energy per Si atom -5578.130967 kJ/mol
# Density = 2.283693 g / cm^3
# Si number density = 22.889031 Si / 1000 Ang^3
#
#
#
# Elastic Constant Matrix: (Units=GPa)
#
#
# Indices 1 2 3 4 5 6 
#
# 1 120.6464 83.0969 48.4670 -7.0684 -6.6945 -37.0763
# 2 83.0969 185.6846 37.9269 -11.3111 7.2933 -25.9876
# 3 48.4670 37.9269 114.4694 1.2466 -22.6017 -8.0595
# 4 -7.0684 -11.3111 1.2466 34.2994 -0.8857 -4.6049
# 5 -6.6945 7.2933 -22.6017 -0.8857 38.4567 3.8323
# 6 -37.0763 -25.9876 -8.0595 -4.6049 3.8323 45.4877
#
#
#
# Elastic Compliance Matrix: (Units=1/GPa)
#
#
# Indices 1 2 3 4 5 6 
#
# 1 0.017158 -0.004984 -0.004888 0.003498 0.000082 0.010619
# 2 -0.004984 0.008213 -0.001196 0.001759 -0.003173 0.000863
# 3 -0.004888 -0.001196 0.012360 -0.002112 0.006918 -0.003274
# 4 0.003498 0.001759 -0.002112 0.031414 -0.000914 0.006739
# 5 0.000082 -0.003173 0.006918 -0.000914 0.030985 -0.003224
# 6 0.010619 0.000863 -0.003274 0.006739 -0.003224 0.031506
#
#
# Mechanical properties :
#
#
# Convention : Reuss Voigt Hill
#
# Bulk Modulus (GPa) = 64.12091 84.42023 74.27057
# Shear Modulus (GPa) = 31.45267 40.40274 35.92770
#
# Velocity S-wave (km/s) = 3.71096 4.20594 3.96618
# Velocity P-wave (km/s) = 6.81441 7.78132 7.31386
#
# Compressibility (1/GPa) = 0.01559554
#
# Stress axis : x y z
#
# Youngs Moduli (GPa) = 58.28252 121.76183 80.90599
#
# Poissons Ratio (x) = 0.60687 0.39544
# Poissons Ratio (y) = 0.29048 0.09675
# Poissons Ratio (z) = 0.28486 0.14560
#
# Static dielectric constant tensor:
#      x y z
#    x 1.916030 -0.018720 -0.055710 
#    y -0.018720 1.965050 -0.043170 
#    z -0.055710 -0.043170 1.625030 
# 
# From -- ./inp_files/541245.got.cif
#   From: 2010.05.17/outbox.cif.g08.bks.cpg/sg2_271_cif.got.tgz:541245.got - 2010.06.03 11:33:40.
