data_PCOD9062916
_publ_section_title
;
Structure prediction by ZEFSAII (Michael W. Deem and Ramdas Pophale) SiO2 
 PCOD9062916
Probable space group: P -1
;
_chemical_formula_sum "Si O2"
_cell_formula_units_Z 16
_cell_length_a 8.956428
_cell_length_b 15.829624
_cell_length_c 19.183273
_cell_angle_alpha 21.262898
_cell_angle_beta 46.613802
_cell_angle_gamma 45.917478
_cell_volume 700.692443
_symmetry_space_group_name_H-M "P -1"
_symmetry_group_IT_number 2
_symmetry_cell_setting 'triclinic'
loop_
_space_group_symop_operation_xyz
x,y,z
-x,-y,-z
loop_
_atom_site_type_symbol
_atom_site_label
_atom_site_fract_x
_atom_site_fract_y
_atom_site_fract_z
Si Si1 0.487639 0.635652 0.973262
Si Si2 0.778509 0.863629 0.332547
Si Si3 0.482741 0.310775 0.570763
Si Si4 0.656739 0.761793 0.605774
Si Si5 0.436319 0.084097 0.035982
Si Si6 0.053529 0.755908 0.577445
Si Si7 0.943267 0.705037 0.803073
Si Si8 0.253308 0.798032 0.237120
O O1 0.697238 0.735829 0.840765
O O2 0.290837 0.851582 0.869961
O O3 0.500000 0.500000 0.000000
O O4 0.466683 0.449822 0.183021
O O5 0.631422 0.762669 0.404007
O O6 0.729487 0.795489 0.478922
O O7 0.022463 0.784572 0.297756
O O8 0.483670 0.095819 0.789841
O O9 0.720951 0.327294 0.465479
O O10 0.354293 0.575469 0.425531
O O11 0.860896 0.704097 0.634664
O O12 0.500000 0.000000 0.500000
O O13 0.208465 0.031732 0.128658
O O14 0.500000 0.000000 0.000000
O O15 0.597293 0.257560 0.840269
O O16 0.061059 0.644502 0.738284
O O17 0.015815 0.042895 0.378011
O O18 0.000000 0.500000 0.000000
#
# Coordination Sequence:
#
# PCOD9062916 Si02
#       8
#     2   2   2   2   2   2   2   2
#     4  12  24  45  64  97 137 181 221 279 331 399
#     4  12  26  42  68 101 135 177 230 279 341 399
#     4  12  23  42  70  98 139 171 231 281 335 403
#     4  12  25  43  70  95 139 181 226 272 343 407
#     4   8  22  44  67  93 131 170 228 275 337 404
#     4  11  25  41  66 100 130 180 224 276 334 402
#     4  11  24  43  66  94 136 173 227 276 333 395
#     4   9  23  44  69  96 132 175 224 275 344 400
#
# _framework density 22.834555000000002
#
# number of rings (size 3 to 8) (size 9 to 14) (size 15 to 20)
#    0.750    0.250    3.750    2.250    3.500    5.500 
#    0.000    0.000    0.000    0.000    0.000    0.000 
#    0.000    0.000    0.000    0.000    0.000    0.000 
#
# Total GULP energy -89077.546481 kJ/mol
# GULP energy per Si atom -5567.346655 kJ/mol
# Density = 2.278258 g / cm^3
# Si number density = 22.834555 Si / 1000 Ang^3
#
#
#
# Elastic Constant Matrix: (Units=GPa)
#
#
# Indices 1 2 3 4 5 6 
#
# 1 82.4477 22.2386 6.3472 16.0261 5.6362 -0.3286
# 2 22.2386 55.3141 12.2647 5.1763 4.2607 -10.7253
# 3 6.3472 12.2647 104.9297 18.2979 18.2819 10.1811
# 4 16.0261 5.1763 18.2979 24.5330 4.2388 -2.8073
# 5 5.6362 4.2607 18.2819 4.2388 41.3719 4.1133
# 6 -0.3286 -10.7253 10.1811 -2.8073 4.1133 33.2328
#
#
#
# Elastic Compliance Matrix: (Units=1/GPa)
#
#
# Indices 1 2 3 4 5 6 
#
# 1 0.015857 -0.006421 0.002188 -0.010846 -0.001019 -0.003376
# 2 -0.006421 0.022939 -0.003503 0.003175 -0.001142 0.008822
# 3 0.002188 -0.003503 0.012803 -0.010162 -0.004017 -0.005392
# 4 -0.010846 0.003175 -0.010162 0.055939 -0.000973 0.008876
# 5 -0.001019 -0.001142 -0.004017 -0.000973 0.026552 -0.002516
# 6 -0.003376 0.008822 -0.005392 0.008876 -0.002516 0.035618
#
#
# Mechanical properties :
#
#
# Convention : Reuss Voigt Hill
#
# Bulk Modulus (GPa) = 27.68265 36.04361 31.86313
# Shear Modulus (GPa) = 25.35202 33.28360 29.31781
#
# Velocity S-wave (km/s) = 3.33565 3.82199 3.58707
# Velocity P-wave (km/s) = 5.19470 5.94102 5.58035
#
# Compressibility (1/GPa) = 0.03612370
#
# Stress axis : x y z
#
# Youngs Moduli (GPa) = 63.06421 43.59477 78.10974
#
# Poissons Ratio (x) = 0.27994 -0.17088
# Poissons Ratio (y) = 0.40496 0.27365
# Poissons Ratio (z) = -0.13797 0.15273
#
# Static dielectric constant tensor:
#      x y z
#    x 1.709450 0.160470 0.050740 
#    y 0.160470 1.770300 -0.018230 
#    z 0.050740 -0.018230 1.687740 
# 
# From -- ./inp_files/591167.got.cif
#   From: 2010.05.17/outbox.cif.g08.bks.cpg/sg2_296_cif.got.tgz:591167.got - 2010.06.03 11:33:40.
