data_PCOD9062428
_publ_section_title
;
Structure prediction by ZEFSAII (Michael W. Deem and Ramdas Pophale) SiO2 
 PCOD9062428
Probable space group: P -1
;
_chemical_formula_sum "Si O2"
_cell_formula_units_Z 16
_cell_length_a 11.181080
_cell_length_b 10.463343
_cell_length_c 9.467034
_cell_angle_alpha 52.699083
_cell_angle_beta 116.470482
_cell_angle_gamma 126.039523
_cell_volume 705.523820
_symmetry_space_group_name_H-M "P -1"
_symmetry_group_IT_number 2
_symmetry_cell_setting 'triclinic'
loop_
_space_group_symop_operation_xyz
x,y,z
-x,-y,-z
loop_
_atom_site_type_symbol
_atom_site_label
_atom_site_fract_x
_atom_site_fract_y
_atom_site_fract_z
Si Si1 0.614535 0.895896 0.739393
Si Si2 0.818748 0.769636 0.117710
Si Si3 0.566228 0.429677 0.354105
Si Si4 0.655243 0.450163 0.683500
Si Si5 0.001453 0.872810 0.884668
Si Si6 0.681060 0.086572 0.368947
Si Si7 0.166034 0.150174 0.451110
Si Si8 0.845679 0.323388 0.055620
O O1 0.526841 0.723585 0.704993
O O2 0.483317 0.926747 0.725236
O O3 0.698068 0.060607 0.562940
O O4 0.720022 0.854446 0.928676
O O5 0.708433 0.579732 0.249394
O O6 0.936705 0.769347 0.065074
O O7 0.919125 0.915601 0.187083
O O8 0.609902 0.359714 0.567245
O O9 0.471666 0.525665 0.309296
O O10 0.775088 0.657307 0.575278
O O11 0.722655 0.354007 0.884835
O O12 0.858018 0.813223 0.748989
O O13 0.120908 0.825437 0.904385
O O14 0.717835 0.932749 0.422027
O O15 0.795451 0.264873 0.228795
O O16 0.000000 0.000000 0.500000
O O17 0.000000 0.500000 0.000000
#
# Coordination Sequence:
#
# PCOD9062428 Si02
#       8
#     2   2   2   2   2   2   2   2
#     4  11  24  43  67  98 135 173 216 275 328 387
#     4  11  24  43  67  98 131 176 220 267 331 389
#     4  11  24  43  70  93 134 171 221 272 327 391
#     4  11  24  43  65 100 126 169 224 263 331 389
#     4  11  24  41  66  96 133 169 224 260 327 394
#     4  11  24  40  70  99 129 174 222 265 334 385
#     4  12  20  43  70  90 133 172 213 270 322 389
#     4  12  25  42  67  99 133 173 219 272 325 388
#
# _framework density 22.678184999999999
#
# number of rings (size 3 to 8) (size 9 to 14) (size 15 to 20)
#    0.000    0.750    5.000    1.875    1.750    2.000 
#    0.000    2.500    0.000    0.000    0.000    0.000 
#    0.000    0.000    0.000    0.000    0.000    0.000 
#
# Total GULP energy -89428.493373 kJ/mol
# GULP energy per Si atom -5589.280836 kJ/mol
# Density = 2.262657 g / cm^3
# Si number density = 22.678185 Si / 1000 Ang^3
#
#
#
# Elastic Constant Matrix: (Units=GPa)
#
#
# Indices 1 2 3 4 5 6 
#
# 1 104.7802 17.5330 21.8033 -14.2714 -15.3696 2.9195
# 2 17.5330 83.7124 21.0860 6.3191 -18.0626 13.1722
# 3 21.8033 21.0860 77.8415 -6.5179 -4.4256 4.1327
# 4 -14.2714 6.3191 -6.5179 32.6039 17.5639 -10.1314
# 5 -15.3696 -18.0626 -4.4256 17.5639 41.5042 -11.5431
# 6 2.9195 13.1722 4.1327 -10.1314 -11.5431 27.8654
#
#
#
# Elastic Compliance Matrix: (Units=1/GPa)
#
#
# Indices 1 2 3 4 5 6 
#
# 1 0.011193 -0.002224 -0.002175 0.004836 0.001632 0.002635
# 2 -0.002224 0.017914 -0.004334 -0.013160 0.009762 -0.008333
# 3 -0.002175 -0.004334 0.014820 0.004581 -0.002899 0.000544
# 4 0.004836 -0.013160 0.004581 0.052546 -0.021441 0.015258
# 5 0.001632 0.009762 -0.002899 -0.021441 0.038802 0.003922
# 6 0.002635 -0.008333 0.000544 0.015258 0.003922 0.046642
#
#
# Mechanical properties :
#
#
# Convention : Reuss Voigt Hill
#
# Bulk Modulus (GPa) = 37.79202 43.01986 40.40594
# Shear Modulus (GPa) = 24.01496 34.12217 29.06857
#
# Velocity S-wave (km/s) = 3.25767 3.88316 3.58409
# Velocity P-wave (km/s) = 5.55433 6.25429 5.91467
#
# Compressibility (1/GPa) = 0.02646061
#
# Stress axis : x y z
#
# Youngs Moduli (GPa) = 89.34114 55.82140 67.47720
#
# Poissons Ratio (x) = 0.12415 0.14676
# Poissons Ratio (y) = 0.19870 0.29246
# Poissons Ratio (z) = 0.19431 0.24194
#
# Static dielectric constant tensor:
#      x y z
#    x 1.878780 -0.029870 -0.015770 
#    y -0.029870 1.900750 -0.012220 
#    z -0.015770 -0.012220 1.880400 
# 
# From -- ./inp_files/261750.got.cif
#   From: 2010.05.17/outbox.cif.g08.bks.cpg/sg2_131_cif.got.tgz:261750.got - 2010.06.03 11:33:40.
