data_PCOD9062237
_publ_section_title
;
Structure prediction by ZEFSAII (Michael W. Deem and Ramdas Pophale) SiO2 
 PCOD9062237
Probable space group: P -1
;
_chemical_formula_sum "Si O2"
_cell_formula_units_Z 14
_cell_length_a 10.802992
_cell_length_b 4.944786
_cell_length_c 19.137292
_cell_angle_alpha 76.991258
_cell_angle_beta 31.783401
_cell_angle_gamma 85.168805
_cell_volume 513.071334
_symmetry_space_group_name_H-M "P -1"
_symmetry_group_IT_number 2
_symmetry_cell_setting 'triclinic'
loop_
_space_group_symop_operation_xyz
x,y,z
-x,-y,-z
loop_
_atom_site_type_symbol
_atom_site_label
_atom_site_fract_x
_atom_site_fract_y
_atom_site_fract_z
Si Si1 0.086740 0.267919 0.022173
Si Si2 0.105197 0.455416 0.724840
Si Si3 0.158990 0.269452 0.446005
Si Si4 0.769426 0.947931 0.425406
Si Si5 0.603998 0.831993 0.317429
Si Si6 0.487555 0.966597 0.788337
Si Si7 0.385172 0.640572 0.982490
O O1 0.840628 0.074167 0.178459
O O2 0.250609 0.428356 0.997842
O O3 0.000000 0.500000 0.000000
O O4 0.237894 0.062507 0.922831
O O5 0.074739 0.764154 0.698846
O O6 0.222386 0.303064 0.616929
O O7 0.289109 0.442782 0.700710
O O8 0.844419 0.267224 0.878045
O O9 0.419625 0.290258 0.282472
O O10 0.000000 0.500000 0.500000
O O11 0.155473 0.180923 0.532385
O O12 0.000000 0.000000 0.500000
O O13 0.540084 0.066900 0.555575
O O14 0.451484 0.812105 0.320196
O O15 0.554711 0.888632 0.840700
O O16 0.500000 0.500000 0.000000
#
# Coordination Sequence:
#
# PCOD9062237 Si02
#       7
#     2   2   2   2   2   2   2
#     4  12  24  46  80 111 154 201 257 324 389 463
#     4  12  25  48  73 110 155 202 246 317 392 465
#     4  11  27  48  77 105 150 206 261 317 379 464
#     4  11  27  45  74 112 152 198 254 318 388 458
#     4  11  23  48  75 113 146 195 259 319 387 457
#     4  11  26  47  74 112 145 201 260 322 379 461
#     4  12  29  46  72 108 154 200 258 315 387 458
#
# _framework density 27.286656000000001
#
# number of rings (size 3 to 8) (size 9 to 14) (size 15 to 20)
#    0.000    0.571    2.857    3.857    6.000    4.000 
#    0.000    0.000    0.000    0.000    0.000    0.000 
#    0.000    0.000    0.000    0.000    0.000    0.000 
#
# Total GULP energy -78163.440364 kJ/mol
# GULP energy per Si atom -5583.102883 kJ/mol
# Density = 2.722455 g / cm^3
# Si number density = 27.286656 Si / 1000 Ang^3
#
#
#
# Elastic Constant Matrix: (Units=GPa)
#
#
# Indices 1 2 3 4 5 6 
#
# 1 164.2398 70.5575 44.7707 11.2032 24.8115 -47.4729
# 2 70.5575 204.7517 50.6543 28.0370 15.2770 -33.7471
# 3 44.7707 50.6543 142.5647 19.8916 14.7594 -6.8681
# 4 11.2032 28.0370 19.8916 57.8514 -9.9944 3.5107
# 5 24.8115 15.2770 14.7594 -9.9944 43.1052 -7.1575
# 6 -47.4729 -33.7471 -6.8681 3.5107 -7.1575 67.9406
#
#
#
# Elastic Compliance Matrix: (Units=1/GPa)
#
#
# Indices 1 2 3 4 5 6 
#
# 1 0.009367 -0.001467 -0.001552 -0.001552 -0.003814 0.005338
# 2 -0.001467 0.006524 -0.001223 -0.002819 -0.001355 0.002095
# 3 -0.001552 -0.001223 0.008453 -0.002347 -0.002271 -0.000955
# 4 -0.001552 -0.002819 -0.002347 0.021171 0.007095 -0.003068
# 5 -0.003814 -0.001355 -0.002271 0.007095 0.028136 -0.000970
# 6 0.005338 0.002095 -0.000955 -0.003068 -0.000970 0.019449
#
#
# Mechanical properties :
#
#
# Convention : Reuss Voigt Hill
#
# Bulk Modulus (GPa) = 63.04991 93.72460 78.38726
# Shear Modulus (GPa) = 46.78552 56.81768 51.80160
#
# Velocity S-wave (km/s) = 4.14526 4.56812 4.36182
# Velocity P-wave (km/s) = 6.78731 7.88963 7.35914
#
# Compressibility (1/GPa) = 0.01586045
#
# Stress axis : x y z
#
# Youngs Moduli (GPa) = 106.76010 153.27101 118.30412
#
# Poissons Ratio (x) = 0.22485 0.18357
# Poissons Ratio (y) = 0.15662 0.14469
# Poissons Ratio (z) = 0.16566 0.18745
#
# Static dielectric constant tensor:
#      x y z
#    x 1.976960 -0.231910 -0.334620 
#    y -0.231910 1.987480 -0.396040 
#    z -0.334620 -0.396040 1.990600 
# 
# From -- ./inp_files/592271.got.cif
#   From: 2010.05.17/outbox.cif.g08.bks.cpg/sg2_297_cif.got.tgz:592271.got - 2010.06.03 11:33:40.
