data_PCOD9062988
_publ_section_title
;
Structure prediction by ZEFSAII (Michael W. Deem and Ramdas Pophale) SiO2 
 PCOD9062988
Probable space group: P -1
;
_chemical_formula_sum "Si O2"
_cell_formula_units_Z 16
_cell_length_a 9.553414
_cell_length_b 5.188228
_cell_length_c 27.681837
_cell_angle_alpha 96.130138
_cell_angle_beta 152.225609
_cell_angle_gamma 83.526649
_cell_volume 635.217431
_symmetry_space_group_name_H-M "P -1"
_symmetry_group_IT_number 2
_symmetry_cell_setting 'triclinic'
loop_
_space_group_symop_operation_xyz
x,y,z
-x,-y,-z
loop_
_atom_site_type_symbol
_atom_site_label
_atom_site_fract_x
_atom_site_fract_y
_atom_site_fract_z
Si Si1 0.954558 0.001888 0.676251
Si Si2 0.523115 0.695330 0.863034
Si Si3 0.012354 0.610103 0.837185
Si Si4 0.340889 0.451212 0.372333
Si Si5 0.986217 0.274815 0.529204
Si Si6 0.900045 0.893794 0.900451
Si Si7 0.372994 0.227629 0.005740
Si Si8 0.336900 0.261149 0.727090
O O1 0.754050 0.252430 0.637183
O O2 0.080817 0.069833 0.663572
O O3 0.774744 0.747016 0.626657
O O4 0.277025 0.935088 0.799873
O O5 0.592714 0.572974 0.934157
O O6 0.344730 0.505889 0.769641
O O7 0.817470 0.763782 0.923364
O O8 0.291880 0.793997 0.913468
O O9 0.826245 0.586848 0.731135
O O10 0.169265 0.351946 0.903497
O O11 0.824607 0.720459 0.827498
O O12 0.682959 0.354775 0.467175
O O13 0.000000 0.500000 0.500000
O O14 0.265039 0.301380 0.650651
O O15 0.000000 0.000000 0.500000
O O16 0.663652 0.132963 0.830931
O O17 0.217819 0.006278 0.985191
#
# Coordination Sequence:
#
# PCOD9062988 Si02
#       8
#     2   2   2   2   2   2   2   2
#     4  11  24  47  76 106 148 192 248 299 371 432
#     4  11  24  48  69 107 152 196 250 307 365 444
#     4  11  25  42  69 104 151 190 257 304 373 439
#     4  12  26  48  76 110 148 198 239 313 368 437
#     4  12  30  50  79 114 151 192 246 301 376 452
#     4  11  25  40  72 101 149 199 244 313 372 435
#     4  11  24  43  68 104 145 199 258 302 374 435
#     4  11  26  48  76 104 152 190 249 305 371 443
#
# _framework density 25.188226
#
# number of rings (size 3 to 8) (size 9 to 14) (size 15 to 20)
#    0.000    0.750    2.500    3.000    8.750    7.000 
#    0.000    0.000    0.000    0.000    0.000    0.000 
#    0.000    0.000    0.000    0.000    0.000    0.000 
#
# Total GULP energy -89447.269384 kJ/mol
# GULP energy per Si atom -5590.454336 kJ/mol
# Density = 2.513090 g / cm^3
# Si number density = 25.188226 Si / 1000 Ang^3
#
#
#
# Elastic Constant Matrix: (Units=GPa)
#
#
# Indices 1 2 3 4 5 6 
#
# 1 117.5820 31.1302 2.9338 -3.1898 13.0070 12.6333
# 2 31.1302 138.2886 15.8571 -15.1290 8.8145 -1.9803
# 3 2.9338 15.8571 66.3318 -9.6494 -3.4536 2.4132
# 4 -3.1898 -15.1290 -9.6494 24.1411 5.8523 6.7466
# 5 13.0070 8.8145 -3.4536 5.8523 50.1629 -6.4920
# 6 12.6333 -1.9803 2.4132 6.7466 -6.4920 53.5303
#
#
#
# Elastic Compliance Matrix: (Units=1/GPa)
#
#
# Indices 1 2 3 4 5 6 
#
# 1 0.009656 -0.001887 0.000228 0.001655 -0.002725 -0.002898
# 2 -0.001887 0.008451 -0.001306 0.004929 -0.001662 -0.000006
# 3 0.000228 -0.001306 0.016340 0.006086 0.000383 -0.001559
# 4 0.001655 0.004929 0.006086 0.051282 -0.007882 -0.007902
# 5 -0.002725 -0.001662 0.000383 -0.007882 0.022433 0.004278
# 6 -0.002898 -0.000006 -0.001559 -0.007902 0.004278 0.020950
#
#
# Mechanical properties :
#
#
# Convention : Reuss Voigt Hill
#
# Bulk Modulus (GPa) = 35.06548 46.89385 40.97966
# Shear Modulus (GPa) = 34.59086 43.71896 39.15491
#
# Velocity S-wave (km/s) = 3.70982 4.17068 3.94698
# Velocity P-wave (km/s) = 5.68348 6.46920 6.08903
#
# Compressibility (1/GPa) = 0.02851808
#
# Stress axis : x y z
#
# Youngs Moduli (GPa) = 103.56062 118.33215 61.20022
#
# Poissons Ratio (x) = 0.22325 -0.01397
# Poissons Ratio (y) = 0.19538 0.07993
# Poissons Ratio (z) = -0.02364 0.15454
#
# Static dielectric constant tensor:
#      x y z
#    x 2.000230 -0.055000 -0.008220 
#    y -0.055000 2.106290 0.081780 
#    z -0.008220 0.081780 2.049110 
# 
# From -- ./inp_files/616344.got.cif
#   From: 2010.05.17/outbox.cif.g08.bks.cpg/sg2_309_cif.got.tgz:616344.got - 2010.06.03 11:33:40.
