data_PCOD9062986
_publ_section_title
;
Structure prediction by ZEFSAII (Michael W. Deem and Ramdas Pophale) SiO2 
 PCOD9062986
Probable space group: P -1
;
_chemical_formula_sum "Si O2"
_cell_formula_units_Z 16
_cell_length_a 5.419046
_cell_length_b 5.869065
_cell_length_c 27.552449
_cell_angle_alpha 50.036832
_cell_angle_beta 94.170876
_cell_angle_gamma 101.435283
_cell_volume 656.571040
_symmetry_space_group_name_H-M "P -1"
_symmetry_group_IT_number 2
_symmetry_cell_setting 'triclinic'
loop_
_space_group_symop_operation_xyz
x,y,z
-x,-y,-z
loop_
_atom_site_type_symbol
_atom_site_label
_atom_site_fract_x
_atom_site_fract_y
_atom_site_fract_z
Si Si1 0.145979 0.728293 0.033247
Si Si2 0.779955 0.511918 0.201877
Si Si3 0.540841 0.777995 0.676627
Si Si4 0.572657 0.638010 0.863458
Si Si5 0.308124 0.832660 0.916319
Si Si6 0.927897 0.361007 0.632585
Si Si7 0.534066 0.274434 0.425474
Si Si8 0.821323 0.271661 0.749893
O O1 0.300728 0.652273 0.092474
O O2 0.943568 0.418828 0.063660
O O3 0.317536 0.822579 0.975652
O O4 0.000000 0.000000 0.000000
O O5 0.633156 0.267995 0.271839
O O6 0.694048 0.397537 0.162968
O O7 0.056375 0.588872 0.217345
O O8 0.707246 0.845121 0.152075
O O9 0.451533 0.854466 0.611661
O O10 0.590370 0.438309 0.716517
O O11 0.791714 0.027849 0.658000
O O12 0.532354 0.723150 0.906617
O O13 0.749093 0.915043 0.802178
O O14 0.709582 0.563386 0.596015
O O15 0.982074 0.347784 0.693011
O O16 0.196321 0.498141 0.593412
O O17 0.500000 0.000000 0.500000
#
# Coordination Sequence:
#
# PCOD9062986 Si02
#       8
#     2   2   2   2   2   2   2   2
#     4  11  26  47  68  98 135 186 235 297 362 444
#     4  12  24  41  71 104 132 184 233 296 367 439
#     4  11  25  42  72 106 144 188 239 302 361 428
#     4  12  25  44  73  99 134 185 234 297 372 435
#     4  11  25  45  68  99 138 177 236 299 360 443
#     4  11  25  45  74 109 148 194 245 304 360 433
#     4  11  26  47  73 108 155 200 247 297 356 434
#     4  11  24  43  68 104 142 178 236 299 364 433
#
# _framework density 24.369035
#
# number of rings (size 3 to 8) (size 9 to 14) (size 15 to 20)
#    0.000    0.750    5.000    1.500    1.750    8.000 
#    0.000    0.000    0.000    0.000    0.000    0.000 
#    0.000    0.000    0.000    0.000    0.000    0.000 
#
# Total GULP energy -89455.954169 kJ/mol
# GULP energy per Si atom -5590.997136 kJ/mol
# Density = 2.431357 g / cm^3
# Si number density = 24.369035 Si / 1000 Ang^3
#
#
#
# Elastic Constant Matrix: (Units=GPa)
#
#
# Indices 1 2 3 4 5 6 
#
# 1 87.1565 13.2658 59.6628 -11.2466 0.8107 11.9268
# 2 13.2658 67.4537 49.5156 -3.9092 0.6336 13.2235
# 3 59.6628 49.5156 188.5408 -2.7453 2.4768 2.9242
# 4 -11.2466 -3.9092 -2.7453 33.5285 6.3422 -5.5151
# 5 0.8107 0.6336 2.4768 6.3422 40.0750 -6.0729
# 6 11.9268 13.2235 2.9242 -5.5151 -6.0729 36.5357
#
#
#
# Elastic Compliance Matrix: (Units=1/GPa)
#
#
# Indices 1 2 3 4 5 6 
#
# 1 0.016277 0.002184 -0.005555 0.004697 -0.001553 -0.005209
# 2 0.002184 0.020290 -0.005860 0.001639 -0.001410 -0.007575
# 3 -0.005555 -0.005860 0.008527 -0.001408 0.000371 0.003101
# 4 0.004697 0.001639 -0.001408 0.032751 -0.004896 0.002116
# 5 -0.001553 -0.001410 0.000371 -0.004896 0.026463 0.004647
# 6 -0.005209 -0.007575 0.003101 0.002116 0.004647 0.032656
#
#
# Mechanical properties :
#
#
# Convention : Reuss Voigt Hill
#
# Bulk Modulus (GPa) = 37.54686 65.33771 51.44229
# Shear Modulus (GPa) = 30.43147 36.74163 33.58655
#
# Velocity S-wave (km/s) = 3.53764 3.88715 3.71650
# Velocity P-wave (km/s) = 5.66812 6.85686 6.29063
#
# Compressibility (1/GPa) = 0.02663339
#
# Stress axis : x y z
#
# Youngs Moduli (GPa) = 61.43636 49.28461 117.27106
#
# Poissons Ratio (x) = -0.10766 0.65143
# Poissons Ratio (y) = -0.13420 0.68722
# Poissons Ratio (z) = 0.34127 0.28881
#
# Static dielectric constant tensor:
#      x y z
#    x 1.990200 0.002680 0.017970 
#    y 0.002680 2.008760 0.016060 
#    z 0.017970 0.016060 1.905250 
# 
# From -- ./inp_files/12749.got.cif
#   From: 2010.05.17/outbox.cif.g08.bks.cpg/sg2_7_cif.got.tgz:12749.got - 2010.06.03 11:33:40.
