data_PCOD9062058
_publ_section_title
;
Structure prediction by ZEFSAII (Michael W. Deem and Ramdas Pophale) SiO2 
 PCOD9062058
Probable space group: P -1
;
_chemical_formula_sum "Si O2"
_cell_formula_units_Z 16
_cell_length_a 11.626952
_cell_length_b 9.587654
_cell_length_c 9.310450
_cell_angle_alpha 45.015783
_cell_angle_beta 101.220316
_cell_angle_gamma 95.486662
_cell_volume 718.748936
_symmetry_space_group_name_H-M "P -1"
_symmetry_group_IT_number 2
_symmetry_cell_setting 'triclinic'
loop_
_space_group_symop_operation_xyz
x,y,z
-x,-y,-z
loop_
_atom_site_type_symbol
_atom_site_label
_atom_site_fract_x
_atom_site_fract_y
_atom_site_fract_z
Si Si1 0.605366 0.725626 0.830949
Si Si2 0.762758 0.693684 0.175178
Si Si3 0.343836 0.697598 0.886192
Si Si4 0.016956 0.622553 0.143955
Si Si5 0.241840 0.961984 0.437921
Si Si6 0.969401 0.788037 0.705788
Si Si7 0.226244 0.703406 0.352995
Si Si8 0.367497 0.930790 0.012299
O O1 0.467534 0.707945 0.826557
O O2 0.635098 0.940278 0.627619
O O3 0.667168 0.701297 0.019345
O O4 0.660510 0.530784 0.905103
O O5 0.751142 0.500884 0.408944
O O6 0.892197 0.684956 0.142517
O O7 0.727838 0.887608 0.117612
O O8 0.248405 0.790899 0.683585
O O9 0.346501 0.832917 0.926387
O O10 0.018597 0.388939 0.276374
O O11 0.120373 0.677394 0.235382
O O12 0.031174 0.722797 0.918086
O O13 0.197888 0.868713 0.347968
O O14 0.164145 0.156077 0.322459
O O15 0.000000 0.000000 0.500000
O O16 0.338401 0.774170 0.242536
O O17 0.500000 0.000000 0.000000
#
# Coordination Sequence:
#
# PCOD9062058 Si02
#       8
#     2   2   2   2   2   2   2   2
#     4  11  23  47  71 100 139 190 226 292 346 425
#     4  12  24  48  70 100 148 184 237 291 354 420
#     4  11  26  43  73 102 140 181 238 283 357 421
#     4  11  27  47  71 105 143 190 240 293 355 421
#     4  12  24  45  72 101 138 185 235 286 350 420
#     4  11  26  44  71 103 145 181 238 296 352 416
#     4  12  27  44  75 105 144 190 236 290 355 423
#     4  12  27  47  70 109 144 181 236 298 355 422
#
# _framework density 22.260902999999999
#
# number of rings (size 3 to 8) (size 9 to 14) (size 15 to 20)
#    0.000    0.500    5.000    1.500    5.250    2.500 
#    0.000    0.000    0.000    0.000    0.000    0.000 
#    0.000    0.000    0.000    0.000    0.000    0.000 
#
# Total GULP energy -89502.567025 kJ/mol
# GULP energy per Si atom -5593.910439 kJ/mol
# Density = 2.221024 g / cm^3
# Si number density = 22.260903 Si / 1000 Ang^3
#
#
#
# Elastic Constant Matrix: (Units=GPa)
#
#
# Indices 1 2 3 4 5 6 
#
# 1 74.7431 45.9382 46.0443 1.8629 -8.1414 7.9506
# 2 45.9382 188.9522 46.5554 -13.5886 7.3904 -11.8081
# 3 46.0443 46.5554 109.3886 -16.5463 -14.2179 3.6251
# 4 1.8629 -13.5886 -16.5463 33.3218 6.7026 1.2348
# 5 -8.1414 7.3904 -14.2179 6.7026 38.0221 -7.4489
# 6 7.9506 -11.8081 3.6251 1.2348 -7.4489 33.1508
#
#
#
# Elastic Compliance Matrix: (Units=1/GPa)
#
#
# Indices 1 2 3 4 5 6 
#
# 1 0.021994 -0.004335 -0.007985 -0.007355 0.002878 -0.005025
# 2 -0.004335 0.007156 -0.001221 0.002989 -0.002715 0.003001
# 3 -0.007985 -0.001221 0.014361 0.006503 0.002810 0.000299
# 4 -0.007355 0.002989 0.006503 0.036144 -0.006218 -0.000626
# 5 0.002878 -0.002715 0.002810 -0.006218 0.030599 0.005142
# 6 -0.005025 0.003001 0.000299 -0.000626 0.005142 0.033585
#
#
# Mechanical properties :
#
#
# Convention : Reuss Voigt Hill
#
# Bulk Modulus (GPa) = 60.86602 72.23994 66.55298
# Shear Modulus (GPa) = 28.34512 36.53533 32.44022
#
# Velocity S-wave (km/s) = 3.57222 4.05561 3.82157
# Velocity P-wave (km/s) = 6.66452 7.37920 7.03095
#
# Compressibility (1/GPa) = 0.01642953
#
# Stress axis : x y z
#
# Youngs Moduli (GPa) = 45.46706 139.74595 69.63213
#
# Poissons Ratio (x) = 0.60587 0.55598
# Poissons Ratio (y) = 0.19712 0.08500
# Poissons Ratio (z) = 0.36303 0.17059
#
# Static dielectric constant tensor:
#      x y z
#    x 1.886010 -0.017680 -0.044150 
#    y -0.017680 1.812520 -0.025270 
#    z -0.044150 -0.025270 1.816070 
# 
# From -- ./inp_files/207175.got.cif
#   From: 2010.05.17/outbox.cif.g08.bks.cpg/sg2_104_cif.got.tgz:207175.got - 2010.06.03 11:33:40.
