data_PCOD9062402
_publ_section_title
;
Structure prediction by ZEFSAII (Michael W. Deem and Ramdas Pophale) SiO2 
 PCOD9062402
Probable space group: P -1
;
_chemical_formula_sum "Si O2"
_cell_formula_units_Z 16
_cell_length_a 18.126056
_cell_length_b 9.047425
_cell_length_c 5.546056
_cell_angle_alpha 97.033829
_cell_angle_beta 124.669823
_cell_angle_gamma 63.127604
_cell_volume 655.916176
_symmetry_space_group_name_H-M "P -1"
_symmetry_group_IT_number 2
_symmetry_cell_setting 'triclinic'
loop_
_space_group_symop_operation_xyz
x,y,z
-x,-y,-z
loop_
_atom_site_type_symbol
_atom_site_label
_atom_site_fract_x
_atom_site_fract_y
_atom_site_fract_z
Si Si1 0.231760 0.694721 0.448108
Si Si2 0.311207 0.172311 0.243254
Si Si3 0.422908 0.505394 0.060601
Si Si4 0.064212 0.349576 0.405643
Si Si5 0.683677 0.177831 0.763259
Si Si6 0.411059 0.183975 0.927212
Si Si7 0.140128 0.469410 0.164868
Si Si8 0.896469 0.014924 0.419891
O O1 0.306268 0.577370 0.768776
O O2 0.297415 0.766973 0.450017
O O3 0.200324 0.571942 0.225021
O O4 0.132559 0.854536 0.388012
O O5 0.355510 0.229125 0.568926
O O6 0.191022 0.302579 0.061176
O O7 0.336473 0.980860 0.301182
O O8 0.350143 0.177092 0.049203
O O9 0.452401 0.311782 0.116439
O O10 0.500000 0.500000 0.000000
O O11 0.403857 0.651430 0.246701
O O12 0.144594 0.392189 0.424421
O O13 0.000000 0.500000 0.500000
O O14 0.095351 0.162976 0.518282
O O15 0.975916 0.389626 0.050346
O O16 0.795294 0.106562 0.083757
O O17 0.500000 0.000000 0.000000
O O18 0.000000 0.000000 0.500000
#
# Coordination Sequence:
#
# PCOD9062402 Si02
#       8
#     2   2   2   2   2   2   2   2
#     4  11  24  44  67  98 139 182 238 291 369 425
#     4  12  27  47  78 106 151 189 245 300 365 440
#     4  11  26  47  73 103 141 189 240 299 362 438
#     4  11  24  40  66  97 139 183 243 296 359 431
#     4  11  26  43  72 103 141 192 237 304 363 436
#     4  12  28  50  76 111 145 191 240 305 370 435
#     4  11  24  42  67 100 137 193 235 300 359 433
#     4  11  24  41  66  99 139 185 238 302 358 436
#
# _framework density 24.393360000000001
#
# number of rings (size 3 to 8) (size 9 to 14) (size 15 to 20)
#    0.000    0.750    1.250    4.875    8.750    6.500 
#    0.000    0.000    0.000    0.000    0.000    0.000 
#    0.000    0.000    0.000    0.000    0.000    0.000 
#
# Total GULP energy -89351.919168 kJ/mol
# GULP energy per Si atom -5584.494948 kJ/mol
# Density = 2.433784 g / cm^3
# Si number density = 24.393360 Si / 1000 Ang^3
#
#
#
# Elastic Constant Matrix: (Units=GPa)
#
#
# Indices 1 2 3 4 5 6 
#
# 1 135.7879 60.6303 2.9922 8.7328 -24.3603 -18.0074
# 2 60.6303 208.1250 24.3805 4.2274 -4.9349 -9.3336
# 3 2.9922 24.3805 64.1829 -3.5334 3.2572 -1.4386
# 4 8.7328 4.2274 -3.5334 42.4410 -4.9802 3.2057
# 5 -24.3603 -4.9349 3.2572 -4.9802 32.2556 6.9528
# 6 -18.0074 -9.3336 -1.4386 3.2057 6.9528 56.1558
#
#
#
# Elastic Compliance Matrix: (Units=1/GPa)
#
#
# Indices 1 2 3 4 5 6 
#
# 1 0.010086 -0.002690 0.000200 -0.001175 0.006563 0.002047
# 2 -0.002690 0.005820 -0.002047 -0.000332 -0.001029 0.000198
# 3 0.000200 -0.002047 0.016513 0.001318 -0.001687 0.000280
# 4 -0.001175 -0.000332 0.001318 0.024485 0.003181 -0.002190
# 5 0.006563 -0.001029 -0.001687 0.003181 0.037084 -0.002883
# 6 0.002047 0.000198 0.000280 -0.002190 -0.002883 0.018986
#
#
# Mechanical properties :
#
#
# Convention : Reuss Voigt Hill
#
# Bulk Modulus (GPa) = 42.83789 64.90019 53.86904
# Shear Modulus (GPa) = 38.51207 47.51000 43.01103
#
# Velocity S-wave (km/s) = 3.97771 4.41802 4.20364
# Velocity P-wave (km/s) = 6.22059 7.25869 6.75960
#
# Compressibility (1/GPa) = 0.02334382
#
# Stress axis : x y z
#
# Youngs Moduli (GPa) = 99.15177 171.83476 60.55787
#
# Poissons Ratio (x) = 0.46228 -0.01210
# Poissons Ratio (y) = 0.26674 0.12395
# Poissons Ratio (z) = -0.01982 0.35171
#
# Static dielectric constant tensor:
#      x y z
#    x 1.898340 0.014720 0.023540 
#    y 0.014720 1.858310 0.012200 
#    z 0.023540 0.012200 2.165200 
# 
# From -- ./inp_files/56925.got.cif
#   From: 2010.05.17/outbox.cif.g08.bks.cpg/sg2_29_cif.got.tgz:56925.got - 2010.06.03 11:33:40.
