data_PCOD9062359
_publ_section_title
;
Structure prediction by ZEFSAII (Michael W. Deem and Ramdas Pophale) SiO2 
 PCOD9062359
Probable space group: P -1
;
_chemical_formula_sum "Si O2"
_cell_formula_units_Z 12
_cell_length_a 14.235209
_cell_length_b 10.348119
_cell_length_c 8.992861
_cell_angle_alpha 112.604690
_cell_angle_beta 135.737531
_cell_angle_gamma 39.180119
_cell_volume 538.532338
_symmetry_space_group_name_H-M "P -1"
_symmetry_group_IT_number 2
_symmetry_cell_setting 'triclinic'
loop_
_space_group_symop_operation_xyz
x,y,z
-x,-y,-z
loop_
_atom_site_type_symbol
_atom_site_label
_atom_site_fract_x
_atom_site_fract_y
_atom_site_fract_z
Si Si1 0.131724 0.557063 0.057136
Si Si2 0.627672 0.028437 0.083412
Si Si3 0.328690 0.154214 0.248150
Si Si4 0.336461 0.528285 0.019452
Si Si5 0.977707 0.901149 0.559546
Si Si6 0.802011 0.199045 0.758153
O O1 0.319887 0.309479 0.222740
O O2 0.143348 0.697402 0.211379
O O3 0.166486 0.566483 0.929621
O O4 0.904092 0.673522 0.869673
O O5 0.478666 0.731656 0.916949
O O6 0.865373 0.854805 0.342564
O O7 0.640864 0.984300 0.905396
O O8 0.500000 0.000000 0.000000
O O9 0.500000 0.000000 0.500000
O O10 0.375651 0.612855 0.234687
O O11 0.209630 0.691255 0.806852
O O12 0.814961 0.077826 0.587557
O O13 0.000000 0.000000 0.500000
O O14 0.000000 0.000000 0.000000
#
# Coordination Sequence:
#
# PCOD9062359 Si02
#       6
#     2   2   2   2   2   2
#     4   9  20  42  63  92 124 169 214 252 322 381
#     4  12  25  42  64 101 128 164 222 265 314 384
#     4  11  24  39  65  91 129 169 213 265 316 380
#     4   9  22  42  68  92 129 171 211 262 321 382
#     4  11  24  41  67  97 132 168 209 270 321 371
#     4   8  17  39  63  86 122 169 203 249 315 376
#
# _framework density 22.282783999999999
#
# number of rings (size 3 to 8) (size 9 to 14) (size 15 to 20)
#    1.000    1.000    1.667    1.000    2.333    6.000 
#    0.000    1.667    0.000    0.000    0.000    0.000 
#    0.000    0.000    0.000    0.000    0.000    0.000 
#
# Total GULP energy -66822.711647 kJ/mol
# GULP energy per Si atom -5568.559304 kJ/mol
# Density = 2.223207 g / cm^3
# Si number density = 22.282784 Si / 1000 Ang^3
#
#
#
# Elastic Constant Matrix: (Units=GPa)
#
#
# Indices 1 2 3 4 5 6 
#
# 1 60.2325 -6.5932 31.1397 -7.4528 -13.5298 7.7383
# 2 -6.5932 103.4038 36.8706 -8.2288 -16.4461 -2.2967
# 3 31.1397 36.8706 136.9832 2.7940 -21.2465 6.2132
# 4 -7.4528 -8.2288 2.7940 38.2462 1.7818 -7.9405
# 5 -13.5298 -16.4461 -21.2465 1.7818 33.0758 2.7201
# 6 7.7383 -2.2967 6.2132 -7.9405 2.7201 26.2015
#
#
#
# Elastic Compliance Matrix: (Units=1/GPa)
#
#
# Indices 1 2 3 4 5 6 
#
# 1 0.022852 0.004891 -0.005046 0.004502 0.008679 -0.004660
# 2 0.004891 0.012538 -0.003764 0.003910 0.005511 0.001160
# 3 -0.005046 -0.003764 0.010092 -0.003186 0.002925 -0.002502
# 4 0.004502 0.003910 -0.003186 0.029977 -0.000609 0.008917
# 5 0.008679 0.005511 0.002925 -0.000609 0.039012 -0.007008
# 6 -0.004660 0.001160 -0.002502 0.008917 -0.007008 0.043667
#
#
# Mechanical properties :
#
#
# Convention : Reuss Voigt Hill
#
# Bulk Modulus (GPa) = 26.56363 47.05042 36.80702
# Shear Modulus (GPa) = 28.00735 35.45152 31.72943
#
# Velocity S-wave (km/s) = 3.54913 3.99304 3.77761
# Velocity P-wave (km/s) = 5.36117 6.51307 5.96499
#
# Compressibility (1/GPa) = 0.03764546
#
# Stress axis : x y z
#
# Youngs Moduli (GPa) = 43.76038 79.75498 99.08351
#
# Poissons Ratio (x) = -0.39011 0.49993
# Poissons Ratio (y) = -0.21405 0.37298
# Poissons Ratio (z) = 0.22080 0.30023
#
# Static dielectric constant tensor:
#      x y z
#    x 1.825330 -0.036000 0.033230 
#    y -0.036000 1.894370 0.039660 
#    z 0.033230 0.039660 1.772090 
# 
# From -- ./inp_files/333558.got.cif
#   From: 2010.05.17/outbox.cif.g08.bks.cpg/sg2_167_cif.got.tgz:333558.got - 2010.06.03 11:33:40.
