data_PCOD9062440
_publ_section_title
;
Structure prediction by ZEFSAII (Michael W. Deem and Ramdas Pophale) SiO2 
 PCOD9062440
Probable space group: P -1
;
_chemical_formula_sum "Si O2"
_cell_formula_units_Z 16
_cell_length_a 10.507126
_cell_length_b 13.848161
_cell_length_c 13.033867
_cell_angle_alpha 31.950740
_cell_angle_beta 134.734403
_cell_angle_gamma 115.753755
_cell_volume 642.712256
_symmetry_space_group_name_H-M "P -1"
_symmetry_group_IT_number 2
_symmetry_cell_setting 'triclinic'
loop_
_space_group_symop_operation_xyz
x,y,z
-x,-y,-z
loop_
_atom_site_type_symbol
_atom_site_label
_atom_site_fract_x
_atom_site_fract_y
_atom_site_fract_z
Si Si1 0.966873 0.501353 0.102627
Si Si2 0.460991 0.160935 0.423036
Si Si3 0.286722 0.359247 0.756961
Si Si4 0.813337 0.209303 0.675845
Si Si5 0.927686 0.949681 0.357997
Si Si6 0.652579 0.595719 0.487959
Si Si7 0.675733 0.061244 0.909454
Si Si8 0.681516 0.087096 0.297602
O O1 0.017591 0.279852 0.373251
O O2 0.140090 0.544842 0.213425
O O3 0.743765 0.640199 0.887225
O O4 0.000000 0.500000 0.000000
O O5 0.661351 0.190171 0.524512
O O6 0.500000 0.000000 0.500000
O O7 0.402918 0.072173 0.572827
O O8 0.149566 0.591880 0.501451
O O9 0.315049 0.376271 0.636923
O O10 0.267014 0.147834 0.931872
O O11 0.486818 0.299181 0.992437
O O12 0.690852 0.228907 0.693007
O O13 0.000000 0.000000 0.000000
O O14 0.829034 0.007089 0.139690
O O15 0.136599 0.961253 0.478343
O O16 0.777839 0.073718 0.252173
O O17 0.500000 0.500000 0.500000
O O18 0.544140 0.821849 0.272230
#
# Coordination Sequence:
#
# PCOD9062440 Si02
#       8
#     2   2   2   2   2   2   2   2
#     4  12  25  44  70 105 149 193 249 308 374 442
#     4  12  29  50  74 105 155 201 250 307 378 459
#     4  12  24  46  73 103 147 185 245 308 376 434
#     4  12  30  51  75 103 148 204 255 307 372 457
#     4  11  24  40  74 109 147 189 244 311 378 438
#     4  12  25  38  75 113 147 191 241 309 383 442
#     4  12  24  46  73 114 148 187 252 314 376 443
#     4  11  24  44  71 108 148 192 240 312 376 446
#
# _framework density 24.894501000000002
#
# number of rings (size 3 to 8) (size 9 to 14) (size 15 to 20)
#    0.000    0.250    6.250    2.625    7.000    0.500 
#    2.250    1.250    0.000    0.000    0.000    0.000 
#    0.000    0.000    0.000    0.000    0.000    0.000 
#
# Total GULP energy -89413.456580 kJ/mol
# GULP energy per Si atom -5588.341036 kJ/mol
# Density = 2.483784 g / cm^3
# Si number density = 24.894501 Si / 1000 Ang^3
#
#
#
# Elastic Constant Matrix: (Units=GPa)
#
#
# Indices 1 2 3 4 5 6 
#
# 1 19.9525 18.1448 -9.0053 -1.5996 5.5556 3.5901
# 2 18.1448 119.2190 53.9819 5.2673 13.6997 19.7585
# 3 -9.0053 53.9819 153.8688 4.7767 33.1238 -1.5071
# 4 -1.5996 5.2673 4.7767 50.8799 -3.5551 -0.7473
# 5 5.5556 13.6997 33.1238 -3.5551 52.6865 -5.3117
# 6 3.5901 19.7585 -1.5071 -0.7473 -5.3117 32.6564
#
#
#
# Elastic Compliance Matrix: (Units=1/GPa)
#
#
# Indices 1 2 3 4 5 6 
#
# 1 0.072624 -0.015283 0.011929 0.001975 -0.011044 0.000062
# 2 -0.015283 0.014756 -0.006288 -0.001465 0.000880 -0.007428
# 3 0.011929 -0.006288 0.010775 -0.000392 -0.006225 0.001969
# 4 0.001975 -0.001465 -0.000392 0.020059 0.001916 0.001422
# 5 -0.011044 0.000880 -0.006225 0.001916 0.024403 0.004407
# 6 0.000062 -0.007428 0.001969 0.001422 0.004407 0.035950
#
#
# Mechanical properties :
#
#
# Convention : Reuss Voigt Hill
#
# Bulk Modulus (GPa) = 12.67910 46.58701 29.63305
# Shear Modulus (GPa) = 22.30744 42.57249 32.43997
#
# Velocity S-wave (km/s) = 2.99671 4.13984 3.61376
# Velocity P-wave (km/s) = 4.13254 6.45023 5.41679
#
# Compressibility (1/GPa) = 0.07886996
#
# Stress axis : x y z
#
# Youngs Moduli (GPa) = 13.76963 67.76969 92.81034
#
# Poissons Ratio (x) = 1.03572 -1.10712
# Poissons Ratio (y) = 0.21044 0.58359
# Poissons Ratio (z) = -0.16426 0.42613
#
# Static dielectric constant tensor:
#      x y z
#    x 1.960850 -0.005490 -0.053960 
#    y -0.005490 2.039590 -0.222590 
#    z -0.053960 -0.222590 1.975910 
# 
# From -- ./inp_files/522218.got.cif
#   From: 2010.05.17/outbox.cif.g08.bks.cpg/sg2_262_cif.got.tgz:522218.got - 2010.06.03 11:33:40.
