data_PCOD9062929
_publ_section_title
;
Structure prediction by ZEFSAII (Michael W. Deem and Ramdas Pophale) SiO2 
 PCOD9062929
Probable space group: P -1
;
_chemical_formula_sum "Si O2"
_cell_formula_units_Z 16
_cell_length_a 13.021257
_cell_length_b 14.907161
_cell_length_c 10.707845
_cell_angle_alpha 51.970348
_cell_angle_beta 52.186486
_cell_angle_gamma 27.750961
_cell_volume 749.165095
_symmetry_space_group_name_H-M "P -1"
_symmetry_group_IT_number 2
_symmetry_cell_setting 'triclinic'
loop_
_space_group_symop_operation_xyz
x,y,z
-x,-y,-z
loop_
_atom_site_type_symbol
_atom_site_label
_atom_site_fract_x
_atom_site_fract_y
_atom_site_fract_z
Si Si1 0.350562 0.178272 0.622061
Si Si2 0.040597 0.501084 0.176338
Si Si3 0.959034 0.068452 0.761200
Si Si4 0.251811 0.981677 0.415641
Si Si5 0.282812 0.732618 0.978300
Si Si6 0.446646 0.665770 0.354456
Si Si7 0.503146 0.170745 0.253750
Si Si8 0.944111 0.363607 0.179754
O O1 0.126817 0.377193 0.687028
O O2 0.398498 0.214110 0.429414
O O3 0.562960 0.056507 0.656026
O O4 0.350234 0.044318 0.707483
O O5 0.294418 0.329839 0.179391
O O6 0.008763 0.410244 0.196569
O O7 0.979777 0.646425 0.002577
O O8 0.756741 0.182277 0.722030
O O9 0.122332 0.034018 0.591016
O O10 0.848347 0.202491 0.852295
O O11 0.110219 0.857138 0.883882
O O12 0.066879 0.161729 0.303826
O O13 0.378708 0.787272 0.421752
O O14 0.364389 0.805694 0.864394
O O15 0.500000 0.500000 0.000000
O O16 0.500000 0.500000 0.500000
O O17 0.676225 0.546362 0.225583
#
# Coordination Sequence:
#
# PCOD9062929 Si02
#       8
#     2   2   2   2   2   2   2   2
#     4  11  24  44  72  97 135 180 230 289 341 402
#     4  11  24  43  67 101 135 176 225 283 345 406
#     4  11  26  45  70 106 137 181 239 278 344 414
#     4  12  24  46  72  95 142 183 230 286 348 410
#     4  11  27  47  73 103 143 184 224 293 347 412
#     4  12  26  43  71 101 136 185 230 282 341 413
#     4  11  24  45  69 102 132 177 234 280 345 413
#     4  11  25  42  68 101 137 179 228 281 342 417
#
# _framework density 21.357108
#
# number of rings (size 3 to 8) (size 9 to 14) (size 15 to 20)
#    0.000    0.750    5.000    1.500    1.750    6.500 
#    0.000    0.000    0.000    0.000    0.000    0.000 
#    0.000    0.000    0.000    0.000    0.000    0.000 
#
# Total GULP energy -89525.591798 kJ/mol
# GULP energy per Si atom -5595.349487 kJ/mol
# Density = 2.130850 g / cm^3
# Si number density = 21.357108 Si / 1000 Ang^3
#
#
#
# Elastic Constant Matrix: (Units=GPa)
#
#
# Indices 1 2 3 4 5 6 
#
# 1 76.8937 20.0700 19.5363 -6.7214 -7.6603 -9.7908
# 2 20.0700 81.0821 17.1577 -12.0871 -3.8207 2.2342
# 3 19.5363 17.1577 54.2974 -7.7764 -2.6496 20.4059
# 4 -6.7214 -12.0871 -7.7764 28.6446 -8.4076 4.8656
# 5 -7.6603 -3.8207 -2.6496 -8.4076 23.6262 -1.7002
# 6 -9.7908 2.2342 20.4059 4.8656 -1.7002 39.8984
#
#
#
# Elastic Compliance Matrix: (Units=1/GPa)
#
#
# Indices 1 2 3 4 5 6 
#
# 1 0.017533 -0.002412 -0.008526 0.000812 0.005270 0.008924
# 2 -0.002412 0.014519 -0.002402 0.006033 0.003388 -0.000768
# 3 -0.008526 -0.002402 0.030672 0.009126 0.002191 -0.018665
# 4 0.000812 0.006033 0.009126 0.047170 0.018345 -0.009777
# 5 0.005270 0.003388 0.002191 0.018345 0.051352 -0.000066
# 6 0.008924 -0.000768 -0.018665 -0.009777 -0.000066 0.038032
#
#
# Mechanical properties :
#
#
# Convention : Reuss Voigt Hill
#
# Bulk Modulus (GPa) = 27.74459 36.20015 31.97237
# Shear Modulus (GPa) = 21.01078 28.80112 24.90595
#
# Velocity S-wave (km/s) = 3.13994 3.67624 3.41862
# Velocity P-wave (km/s) = 5.11513 5.91662 5.53042
#
# Compressibility (1/GPa) = 0.03604306
#
# Stress axis : x y z
#
# Youngs Moduli (GPa) = 57.03484 68.87654 32.60264
#
# Poissons Ratio (x) = 0.16614 0.27799
# Poissons Ratio (y) = 0.13757 0.07831
# Poissons Ratio (z) = 0.48631 0.16544
#
# Static dielectric constant tensor:
#      x y z
#    x 1.777110 -0.023340 0.001620 
#    y -0.023340 1.747800 -0.013400 
#    z 0.001620 -0.013400 1.761720 
# 
# From -- ./inp_files/456945.got.cif
#   From: 2010.05.17/outbox.cif.g08.bks.cpg/sg2_229_cif.got.tgz:456945.got - 2010.06.03 11:33:40.
