data_PCOD9062558
_publ_section_title
;
Structure prediction by ZEFSAII (Michael W. Deem and Ramdas Pophale) SiO2 
 PCOD9062558
Probable space group: P -1
;
_chemical_formula_sum "Si O2"
_cell_formula_units_Z 16
_cell_length_a 11.742899
_cell_length_b 9.498198
_cell_length_c 12.513636
_cell_angle_alpha 98.807340
_cell_angle_beta 120.180671
_cell_angle_gamma 128.032407
_cell_volume 697.003153
_symmetry_space_group_name_H-M "P -1"
_symmetry_group_IT_number 2
_symmetry_cell_setting 'triclinic'
loop_
_space_group_symop_operation_xyz
x,y,z
-x,-y,-z
loop_
_atom_site_type_symbol
_atom_site_label
_atom_site_fract_x
_atom_site_fract_y
_atom_site_fract_z
Si Si1 0.489316 0.028028 0.372844
Si Si2 0.867994 0.475624 0.845881
Si Si3 0.992515 0.125538 0.666483
Si Si4 0.736489 0.653669 0.870056
Si Si5 0.712573 0.852946 0.287517
Si Si6 0.211444 0.076916 0.245221
Si Si7 0.162771 0.593986 0.839154
Si Si8 0.621900 0.086723 0.224150
O O1 0.658800 0.185022 0.371665
O O2 0.500000 0.000000 0.500000
O O3 0.381049 0.780972 0.262991
O O4 0.320118 0.014273 0.278029
O O5 0.864609 0.640255 0.864001
O O6 0.942791 0.481103 0.767670
O O7 0.000000 0.500000 0.000000
O O8 0.181107 0.171976 0.742716
O O9 0.098770 0.369609 0.785912
O O10 0.793418 0.903471 0.628032
O O11 0.875333 0.031798 0.484977
O O12 0.522710 0.414447 0.808508
O O13 0.672173 0.718836 0.762412
O O14 0.945774 0.872421 0.071655
O O15 0.694775 0.987392 0.235870
O O16 0.244426 0.700643 0.772111
O O17 0.359184 0.839553 0.033810
#
# Coordination Sequence:
#
# PCOD9062558 Si02
#       8
#     2   2   2   2   2   2   2   2
#     4  12  24  44  68  99 132 179 223 274 337 403
#     4  12  20  42  68  95 134 173 223 278 327 395
#     4  11  25  45  63  93 138 178 216 272 337 401
#     4  11  24  41  69  98 132 172 223 281 329 397
#     4  11  25  45  63  93 138 178 216 272 337 401
#     4  11  24  42  67 100 130 174 225 274 334 396
#     4  11  24  41  69  98 132 172 223 281 329 397
#     4  11  24  42  67 100 130 174 225 274 334 396
#
# _framework density 22.955418000000002
#
# number of rings (size 3 to 8) (size 9 to 14) (size 15 to 20)
#    0.000    0.750    5.000    1.500    3.500    3.000 
#    0.000    0.000    0.000    0.000    0.000    0.000 
#    0.000    0.000    0.000    0.000    0.000    0.000 
#
# Total GULP energy -89085.555915 kJ/mol
# GULP energy per Si atom -5567.847245 kJ/mol
# Density = 2.290317 g / cm^3
# Si number density = 22.955418 Si / 1000 Ang^3
#
#
#
# Elastic Constant Matrix: (Units=GPa)
#
#
# Indices 1 2 3 4 5 6 
#
# 1 104.1010 8.3013 3.6971 -9.0764 -7.4988 1.5882
# 2 8.3013 79.2193 22.6669 -25.5984 -1.8832 -2.0852
# 3 3.6971 22.6669 20.9420 -13.7274 -7.0836 2.0888
# 4 -9.0764 -25.5984 -13.7274 33.5799 7.0897 -1.5975
# 5 -7.4988 -1.8832 -7.0836 7.0897 32.9046 -11.8227
# 6 1.5882 -2.0852 2.0888 -1.5975 -11.8227 35.9042
#
#
#
# Elastic Compliance Matrix: (Units=1/GPa)
#
#
# Indices 1 2 3 4 5 6 
#
# 1 0.009955 -0.000536 0.000972 0.002258 0.002050 0.000247
# 2 -0.000536 0.020723 -0.017795 0.009352 -0.004332 0.001252
# 3 0.000972 -0.017795 0.083002 0.017861 0.012915 -0.000858
# 4 0.002258 0.009352 0.017861 0.045881 -0.005071 -0.000224
# 5 0.002050 -0.004332 0.012915 -0.005071 0.038573 0.011382
# 6 0.000247 0.001252 -0.000858 -0.000224 0.011382 0.031702
#
#
# Mechanical properties :
#
#
# Convention : Reuss Voigt Hill
#
# Bulk Modulus (GPa) = 12.66448 30.39919 21.53184
# Shear Modulus (GPa) = 17.18952 31.78421 24.48686
#
# Velocity S-wave (km/s) = 2.73943 3.72507 3.26960
# Velocity P-wave (km/s) = 3.94144 5.63675 4.86353
#
# Compressibility (1/GPa) = 0.07896097
#
# Stress axis : x y z
#
# Youngs Moduli (GPa) = 100.45134 48.25544 12.04788
#
# Poissons Ratio (x) = 0.02588 -0.01171
# Poissons Ratio (y) = 0.05387 0.21440
# Poissons Ratio (z) = -0.09763 0.85872
#
# Static dielectric constant tensor:
#      x y z
#    x 1.877160 0.228730 -0.099950 
#    y 0.228730 2.579550 -0.410820 
#    z -0.099950 -0.410820 2.321950 
# 
# From -- ./inp_files/298762.got.cif
#   From: 2010.05.17/outbox.cif.g08.bks.cpg/sg2_150_cif.got.tgz:298762.got - 2010.06.03 11:33:40.
