data_PCOD9062282
_publ_section_title
;
Structure prediction by ZEFSAII (Michael W. Deem and Ramdas Pophale) SiO2 
 PCOD9062282
Probable space group: P -1
;
_chemical_formula_sum "Si O2"
_cell_formula_units_Z 14
_cell_length_a 5.630112
_cell_length_b 7.207320
_cell_length_c 16.834213
_cell_angle_alpha 60.169727
_cell_angle_beta 60.084540
_cell_angle_gamma 79.584126
_cell_volume 511.574041
_symmetry_space_group_name_H-M "P -1"
_symmetry_group_IT_number 2
_symmetry_cell_setting 'triclinic'
loop_
_space_group_symop_operation_xyz
x,y,z
-x,-y,-z
loop_
_atom_site_type_symbol
_atom_site_label
_atom_site_fract_x
_atom_site_fract_y
_atom_site_fract_z
Si Si1 0.865880 0.352777 0.235117
Si Si2 0.258698 0.930173 0.822537
Si Si3 0.593423 0.867461 0.088282
Si Si4 0.286900 0.572187 0.317428
Si Si5 0.511928 0.279301 0.590943
Si Si6 0.865328 0.170542 0.434150
Si Si7 0.548165 0.528574 0.893669
O O1 0.921504 0.239992 0.165549
O O2 0.574254 0.451691 0.283531
O O3 0.878203 0.170866 0.338611
O O4 0.136799 0.516180 0.166137
O O5 0.508011 0.773489 0.823895
O O6 0.210515 0.007705 0.904224
O O7 0.657418 0.221599 0.792676
O O8 0.658482 0.643011 0.083504
O O9 0.500000 0.500000 0.000000
O O10 0.500000 0.000000 0.000000
O O11 0.259620 0.658363 0.392488
O O12 0.035236 0.401858 0.375266
O O13 0.500000 0.500000 0.500000
O O14 0.573688 0.147372 0.530862
O O15 0.693214 0.862593 0.286590
O O16 0.000000 0.000000 0.500000
#
# Coordination Sequence:
#
# PCOD9062282 Si02
#       7
#     2   2   2   2   2   2   2
#     4  12  24  46  74 104 145 193 247 306 362 450
#     4  11  26  47  73 110 145 192 249 301 373 446
#     4  11  23  49  74 102 147 190 242 309 374 444
#     4  11  24  46  70 104 150 187 253 302 364 443
#     4  11  24  44  70 110 145 194 250 302 360 444
#     4  12  25  43  74 104 149 202 241 303 375 438
#     4  12  25  50  75 104 149 190 247 316 378 437
#
# _framework density 27.366516000000001
#
# number of rings (size 3 to 8) (size 9 to 14) (size 15 to 20)
#    0.000    0.571    5.714    2.143    2.000    1.714 
#   10.286    1.429    0.000    0.000    0.000    0.000 
#    0.000    0.000    0.000    0.000    0.000    0.000 
#
# Total GULP energy -78019.604253 kJ/mol
# GULP energy per Si atom -5572.828875 kJ/mol
# Density = 2.730423 g / cm^3
# Si number density = 27.366516 Si / 1000 Ang^3
#
#
#
# Elastic Constant Matrix: (Units=GPa)
#
#
# Indices 1 2 3 4 5 6 
#
# 1 63.7298 16.9884 37.3074 6.7131 -7.3287 12.7902
# 2 16.9884 118.4113 39.0622 1.5340 10.6541 13.9956
# 3 37.3074 39.0622 218.3061 4.9817 32.7064 -4.8782
# 4 6.7131 1.5340 4.9817 68.0894 3.1330 21.9205
# 5 -7.3287 10.6541 32.7064 3.1330 45.6048 7.4631
# 6 12.7902 13.9956 -4.8782 21.9205 7.4631 52.5033
#
#
#
# Elastic Compliance Matrix: (Units=1/GPa)
#
#
# Indices 1 2 3 4 5 6 
#
# 1 0.021028 -0.001454 -0.004689 -0.000040 0.008117 -0.006308
# 2 -0.001454 0.009488 -0.001357 0.000890 -0.001127 -0.002512
# 3 -0.004689 -0.001357 0.006556 -0.000769 -0.005614 0.003232
# 4 -0.000040 0.000890 -0.000769 0.017125 0.000389 -0.007504
# 5 0.008117 -0.001127 -0.005614 0.000389 0.028545 -0.006418
# 6 -0.006308 -0.002512 0.003232 -0.007504 -0.006418 0.025598
#
#
# Mechanical properties :
#
#
# Convention : Reuss Voigt Hill
#
# Bulk Modulus (GPa) = 45.30850 65.24034 55.27442
# Shear Modulus (GPa) = 38.25627 53.71209 45.98418
#
# Velocity S-wave (km/s) = 3.74294 4.43504 4.10360
# Velocity P-wave (km/s) = 5.93899 7.07936 6.53410
#
# Compressibility (1/GPa) = 0.02207091
#
# Stress axis : x y z
#
# Youngs Moduli (GPa) = 47.55650 105.39427 152.53618
#
# Poissons Ratio (x) = 0.15326 0.71531
# Poissons Ratio (y) = 0.06915 0.20696
# Poissons Ratio (z) = 0.22301 0.14300
#
# Static dielectric constant tensor:
#      x y z
#    x 2.514720 -0.173410 0.074100 
#    y -0.173410 2.286780 -0.003060 
#    z 0.074100 -0.003060 2.079880 
# 
# From -- ./inp_files/545956.got.cif
#   From: 2010.05.17/outbox.cif.g08.bks.cpg/sg2_273_cif.got.tgz:545956.got - 2010.06.03 11:33:40.
