data_PCOD9062571
_publ_section_title
;
Structure prediction by ZEFSAII (Michael W. Deem and Ramdas Pophale) SiO2 
 PCOD9062571
Probable space group: P -1
;
_chemical_formula_sum "Si O2"
_cell_formula_units_Z 16
_cell_length_a 17.199075
_cell_length_b 9.136924
_cell_length_c 5.850883
_cell_angle_alpha 46.129594
_cell_angle_beta 96.055686
_cell_angle_gamma 95.797430
_cell_volume 658.639362
_symmetry_space_group_name_H-M "P -1"
_symmetry_group_IT_number 2
_symmetry_cell_setting 'triclinic'
loop_
_space_group_symop_operation_xyz
x,y,z
-x,-y,-z
loop_
_atom_site_type_symbol
_atom_site_label
_atom_site_fract_x
_atom_site_fract_y
_atom_site_fract_z
Si Si1 0.542716 0.994625 0.270531
Si Si2 0.794186 0.007121 0.235891
Si Si3 0.255028 0.655169 0.651829
Si Si4 0.669334 0.309636 0.787818
Si Si5 0.841391 0.706519 0.233164
Si Si6 0.109583 0.936548 0.421024
Si Si7 0.328280 0.325567 0.349395
Si Si8 0.983495 0.599735 0.638583
O O1 0.592661 0.791375 0.523400
O O2 0.500000 0.000000 0.500000
O O3 0.500000 0.000000 0.000000
O O4 0.603446 0.187125 0.042267
O O5 0.792310 0.886624 0.128636
O O6 0.739377 0.846500 0.533219
O O7 0.880418 0.043099 0.324659
O O8 0.751965 0.217051 0.983260
O O9 0.325041 0.749442 0.413677
O O10 0.202628 0.483479 0.686266
O O11 0.189650 0.814734 0.527169
O O12 0.301970 0.518516 0.989735
O O13 0.665397 0.552259 0.540615
O O14 0.891894 0.634778 0.541306
O O15 0.891967 0.836706 0.923964
O O16 0.038237 0.802722 0.448526
O O17 0.000000 0.500000 0.500000
O O18 0.000000 0.500000 0.000000
#
# Coordination Sequence:
#
# PCOD9062571 Si02
#       8
#     2   2   2   2   2   2   2   2
#     4  11  30  52  74 109 156 197 242 291 354 449
#     4  11  24  41  70 109 140 188 244 314 364 441
#     4  12  24  43  76 110 144 186 254 314 366 436
#     4  11  25  44  75 108 146 189 243 298 369 431
#     4  12  26  45  72 101 150 194 249 311 386 429
#     4  12  26  45  72 101 150 194 249 311 386 429
#     4  11  25  44  75 108 146 189 243 298 369 431
#     4  12  31  49  72 103 148 204 260 306 373 460
#
# _framework density 24.292504999999998
#
# number of rings (size 3 to 8) (size 9 to 14) (size 15 to 20)
#    0.000    0.500    6.250    0.375   10.500    1.500 
#    0.000    0.000    0.000    0.000    0.000    0.000 
#    0.000    0.000    0.000    0.000    0.000    0.000 
#
# Total GULP energy -89134.296213 kJ/mol
# GULP energy per Si atom -5570.893513 kJ/mol
# Density = 2.423721 g / cm^3
# Si number density = 24.292505 Si / 1000 Ang^3
#
#
#
# Elastic Constant Matrix: (Units=GPa)
#
#
# Indices 1 2 3 4 5 6 
#
# 1 60.4087 33.1584 28.2611 3.0139 12.3385 -7.2736
# 2 33.1584 125.3649 18.2807 -7.7167 10.0286 -1.4292
# 3 28.2611 18.2807 115.4930 0.8279 12.6196 -2.7435
# 4 3.0139 -7.7167 0.8279 30.3994 1.9438 8.4367
# 5 12.3385 10.0286 12.6196 1.9438 42.5762 -2.9145
# 6 -7.2736 -1.4292 -2.7435 8.4367 -2.9145 44.0668
#
#
#
# Elastic Compliance Matrix: (Units=1/GPa)
#
#
# Indices 1 2 3 4 5 6 
#
# 1 0.022927 -0.005379 -0.004235 -0.004384 -0.003652 0.003944
# 2 -0.005379 0.009694 -0.000173 0.003418 -0.000918 -0.001299
# 3 -0.004235 -0.000173 0.009899 0.000286 -0.001697 -0.000255
# 4 -0.004384 0.003418 0.000286 0.036440 -0.001809 -0.007691
# 5 -0.003652 -0.000918 -0.001697 -0.001809 0.025436 0.001291
# 6 0.003944 -0.001299 -0.000255 -0.007691 0.001291 0.024844
#
#
# Mechanical properties :
#
#
# Convention : Reuss Voigt Hill
#
# Bulk Modulus (GPa) = 43.58024 51.18524 47.38274
# Shear Modulus (GPa) = 31.95637 38.17958 35.06798
#
# Velocity S-wave (km/s) = 3.63089 3.96872 3.80356
# Velocity P-wave (km/s) = 5.96293 6.48977 6.23192
#
# Compressibility (1/GPa) = 0.02294618
#
# Stress axis : x y z
#
# Youngs Moduli (GPa) = 43.61599 103.15856 101.01577
#
# Poissons Ratio (x) = 0.55494 0.42777
# Poissons Ratio (y) = 0.23463 0.01748
# Poissons Ratio (z) = 0.18470 0.01785
#
# Static dielectric constant tensor:
#      x y z
#    x 2.008440 -0.065290 -0.050450 
#    y -0.065290 2.106990 0.199490 
#    z -0.050450 0.199490 2.138170 
# 
# From -- ./inp_files/13708.got.cif
#   From: 2010.05.17/outbox.cif.g08.bks.cpg/sg2_7_cif.got.tgz:13708.got - 2010.06.03 11:33:40.
