data_PCOD9062814
_publ_section_title
;
Structure prediction by ZEFSAII (Michael W. Deem and Ramdas Pophale) SiO2 
 PCOD9062814
Probable space group: P -1
;
_chemical_formula_sum "Si O2"
_cell_formula_units_Z 15
_cell_length_a 7.899194
_cell_length_b 15.552629
_cell_length_c 9.376085
_cell_angle_alpha 37.951643
_cell_angle_beta 92.358410
_cell_angle_gamma 81.429901
_cell_volume 676.233766
_symmetry_space_group_name_H-M "P -1"
_symmetry_group_IT_number 2
_symmetry_cell_setting 'triclinic'
loop_
_space_group_symop_operation_xyz
x,y,z
-x,-y,-z
loop_
_atom_site_type_symbol
_atom_site_label
_atom_site_fract_x
_atom_site_fract_y
_atom_site_fract_z
Si Si1 0.160005 0.405567 0.933243
Si Si2 0.361444 0.517280 0.343083
Si Si3 0.627380 0.778312 0.394799
Si Si4 0.000000 0.500000 0.500000
Si Si5 0.859399 0.040503 0.570149
Si Si6 0.643425 0.922603 0.908406
Si Si7 0.009681 0.287082 0.332054
Si Si8 0.543865 0.222600 0.137467
O O1 0.128012 0.429286 0.734222
O O2 0.110148 0.565525 0.792818
O O3 0.040299 0.322899 0.121887
O O4 0.362496 0.314473 0.084689
O O5 0.500000 0.500000 0.500000
O O6 0.416175 0.373544 0.432343
O O7 0.170169 0.524847 0.387379
O O8 0.361694 0.662522 0.069077
O O9 0.798515 0.754140 0.532204
O O10 0.462703 0.911286 0.267879
O O11 0.682178 0.826779 0.178055
O O12 0.671926 0.112485 0.393183
O O13 0.921444 0.158278 0.509237
O O14 0.819986 0.920631 0.829752
O O15 0.000000 0.000000 0.500000
O O16 0.514359 0.863316 0.881700
#
# Coordination Sequence:
#
# PCOD9062814 Si02
#       8
#     2   2   2   1   2   2   2   2
#     4  11  24  42  72 105 153 183 243 310 377 426
#     4  12  24  43  75 110 146 190 252 303 374 432
#     4  11  24  47  70 105 148 189 247 308 370 447
#     4  12  22  44  68 110 152 188 234 306 364 456
#     4  12  27  46  71 103 149 201 252 301 378 452
#     4  11  25  45  73 101 146 198 248 304 367 452
#     4  11  25  45  68 110 148 192 237 319 371 436
#     4  12  25  46  74 107 140 201 249 305 369 449
#
# _framework density 22.181676
#
# number of rings (size 3 to 8) (size 9 to 14) (size 15 to 20)
#    0.000    0.533    4.000    3.600    3.733    2.133 
#    0.000    0.000    0.000    0.000    0.000    0.000 
#    0.000    0.000    0.000    0.000    0.000    0.000 
#
# Total GULP energy -83757.565545 kJ/mol
# GULP energy per Si atom -5583.837703 kJ/mol
# Density = 2.213119 g / cm^3
# Si number density = 22.181676 Si / 1000 Ang^3
#
#
#
# Elastic Constant Matrix: (Units=GPa)
#
#
# Indices 1 2 3 4 5 6 
#
# 1 83.3307 26.3813 8.2852 -7.3312 -4.1361 -8.1938
# 2 26.3813 71.9518 37.9668 -2.6282 -20.6158 8.1309
# 3 8.2852 37.9668 70.9723 14.6070 -23.8799 0.3820
# 4 -7.3312 -2.6282 14.6070 33.2299 12.1391 -3.2830
# 5 -4.1361 -20.6158 -23.8799 12.1391 45.5105 2.3071
# 6 -8.1938 8.1309 0.3820 -3.2830 2.3071 40.8553
#
#
#
# Elastic Compliance Matrix: (Units=1/GPa)
#
#
# Indices 1 2 3 4 5 6 
#
# 1 0.014831 -0.006625 -0.000220 0.004497 -0.003213 0.004838
# 2 -0.006625 0.024399 -0.011841 0.003795 0.003528 -0.005968
# 3 -0.000220 -0.011841 0.029743 -0.019770 0.015518 -0.000431
# 4 0.004497 0.003795 -0.019770 0.048447 -0.021444 0.005435
# 5 -0.003213 0.003528 0.015518 -0.021444 0.037411 -0.005327
# 6 0.004838 -0.005968 -0.000431 0.005435 -0.005327 0.027376
#
#
# Mechanical properties :
#
#
# Convention : Reuss Voigt Hill
#
# Bulk Modulus (GPa) = 31.64419 41.28016 36.46218
# Shear Modulus (GPa) = 21.72843 34.16056 27.94450
#
# Velocity S-wave (km/s) = 3.13320 3.92859 3.55322
# Velocity P-wave (km/s) = 5.23318 6.26329 5.77126
#
# Compressibility (1/GPa) = 0.03160137
#
# Stress axis : x y z
#
# Youngs Moduli (GPa) = 67.42419 40.98489 33.62183
#
# Poissons Ratio (x) = 0.27153 0.00740
# Poissons Ratio (y) = 0.44669 0.39811
# Poissons Ratio (z) = 0.01483 0.48530
#
# Static dielectric constant tensor:
#      x y z
#    x 1.773450 -0.031120 -0.009150 
#    y -0.031120 1.838380 -0.018270 
#    z -0.009150 -0.018270 1.814190 
# 
# From -- ./inp_files/205223.got.cif
#   From: 2010.05.17/outbox.cif.g08.bks.cpg/sg2_103_cif.got.tgz:205223.got - 2010.06.03 11:33:40.
