data_PCOD9062745
_publ_section_title
;
Structure prediction by ZEFSAII (Michael W. Deem and Ramdas Pophale) SiO2 
 PCOD9062745
Probable space group: P -1
;
_chemical_formula_sum "Si O2"
_cell_formula_units_Z 16
_cell_length_a 9.098822
_cell_length_b 9.933157
_cell_length_c 7.901107
_cell_angle_alpha 121.313390
_cell_angle_beta 87.826114
_cell_angle_gamma 84.322604
_cell_volume 603.729611
_symmetry_space_group_name_H-M "P -1"
_symmetry_group_IT_number 2
_symmetry_cell_setting 'triclinic'
loop_
_space_group_symop_operation_xyz
x,y,z
-x,-y,-z
loop_
_atom_site_type_symbol
_atom_site_label
_atom_site_fract_x
_atom_site_fract_y
_atom_site_fract_z
Si Si1 0.402160 0.567492 0.249242
Si Si2 0.868175 0.703569 0.713385
Si Si3 0.282585 0.521008 0.680399
Si Si4 0.940636 0.297972 0.973862
Si Si5 0.190496 0.112002 0.654970
Si Si6 0.741684 0.020598 0.813680
Si Si7 0.177429 0.778121 0.606826
Si Si8 0.546275 0.755865 0.084960
O O1 0.551685 0.563173 0.351521
O O2 0.254622 0.675760 0.383559
O O3 0.444881 0.652565 0.133095
O O4 0.377938 0.383566 0.130249
O O5 0.800205 0.580703 0.514824
O O6 0.939584 0.662564 0.866107
O O7 0.013452 0.746608 0.635095
O O8 0.763823 0.871381 0.839664
O O9 0.192268 0.557799 0.885440
O O10 0.277308 0.693060 0.701321
O O11 0.861260 0.141914 0.914768
O O12 0.042337 0.240332 0.769716
O O13 0.333511 0.182528 0.761557
O O14 0.224733 0.049293 0.423217
O O15 0.176482 0.960536 0.677222
O O16 0.573672 0.105959 0.889525
#
# Coordination Sequence:
#
# PCOD9062745 Si02
#       8
#     2   2   2   2   2   2   2   2
#     4  11  24  47  67  98 135 181 222 279 331 404
#     4  11  26  44  73 100 137 176 224 282 335 398
#     4  11  25  46  70  98 135 184 220 277 340 397
#     4  11  24  45  67 100 137 175 225 277 334 399
#     4  12  26  42  71 102 137 178 224 279 335 400
#     4  12  23  47  68  98 138 179 224 278 338 393
#     4  11  24  42  69  99 138 171 225 278 333 397
#     4  11  26  44  69  96 138 177 226 276 338 395
#
# _framework density 26.501930000000002
#
# number of rings (size 3 to 8) (size 9 to 14) (size 15 to 20)
#    0.000    0.750    3.750    3.750    7.000    0.000 
#    0.000    2.500    0.000    0.000    0.000    0.000 
#    0.000    0.000    0.000    0.000    0.000    0.000 
#
# Total GULP energy -89603.407633 kJ/mol
# GULP energy per Si atom -5600.212977 kJ/mol
# Density = 2.644161 g / cm^3
# Si number density = 26.501930 Si / 1000 Ang^3
#
#
#
# Elastic Constant Matrix: (Units=GPa)
#
#
# Indices 1 2 3 4 5 6 
#
# 1 112.6999 18.1659 47.9070 14.2753 8.5486 -27.7585
# 2 18.1659 72.4600 -9.8708 7.4556 -1.3344 -15.3850
# 3 47.9070 -9.8708 136.2726 25.6672 4.5661 -1.9555
# 4 14.2753 7.4556 25.6672 21.3905 -6.2046 -1.1641
# 5 8.5486 -1.3344 4.5661 -6.2046 57.9139 5.6593
# 6 -27.7585 -15.3850 -1.9555 -1.1641 5.6593 43.9457
#
#
#
# Elastic Compliance Matrix: (Units=1/GPa)
#
#
# Indices 1 2 3 4 5 6 
#
# 1 0.013554 -0.001859 -0.003907 -0.004132 -0.002961 0.008009
# 2 -0.001859 0.016677 0.003663 -0.009018 -0.001058 0.004725
# 3 -0.003907 0.003663 0.011446 -0.012896 -0.001543 -0.000819
# 4 -0.004132 -0.009018 -0.012896 0.070581 0.009538 -0.005699
# 5 -0.002961 -0.001058 -0.001543 0.009538 0.019267 -0.004538
# 6 0.008009 0.004725 -0.000819 -0.005699 -0.004538 0.029865
#
#
# Mechanical properties :
#
#
# Convention : Reuss Voigt Hill
#
# Bulk Modulus (GPa) = 26.68703 48.20405 37.44554
# Shear Modulus (GPa) = 28.07611 42.33207 35.20409
#
# Velocity S-wave (km/s) = 3.25837 4.00098 3.64862
# Velocity P-wave (km/s) = 4.92419 6.29064 5.64889
#
# Compressibility (1/GPa) = 0.03747139
#
# Stress axis : x y z
#
# Youngs Moduli (GPa) = 73.77720 59.96146 87.36568
#
# Poissons Ratio (x) = 0.11149 0.34137
# Poissons Ratio (y) = 0.13717 -0.32005
# Poissons Ratio (z) = 0.28827 -0.21966
#
# Static dielectric constant tensor:
#      x y z
#    x 2.066130 0.008720 -0.108530 
#    y 0.008720 2.098000 -0.015050 
#    z -0.108530 -0.015050 2.189080 
# 
# From -- ./inp_files/190889.got.cif
#   From: 2010.05.17/outbox.cif.g08.bks.cpg/sg2_96_cif.got.tgz:190889.got - 2010.06.03 11:33:40.
