data_PCOD9062330
_publ_section_title
;
Structure prediction by ZEFSAII (Michael W. Deem and Ramdas Pophale) SiO2 
 PCOD9062330
Probable space group: P -1
;
_chemical_formula_sum "Si O2"
_cell_formula_units_Z 12
_cell_length_a 10.363355
_cell_length_b 12.789386
_cell_length_c 9.424324
_cell_angle_alpha 71.228681
_cell_angle_beta 70.594112
_cell_angle_gamma 134.864412
_cell_volume 463.307510
_symmetry_space_group_name_H-M "P -1"
_symmetry_group_IT_number 2
_symmetry_cell_setting 'triclinic'
loop_
_space_group_symop_operation_xyz
x,y,z
-x,-y,-z
loop_
_atom_site_type_symbol
_atom_site_label
_atom_site_fract_x
_atom_site_fract_y
_atom_site_fract_z
Si Si1 0.850004 0.276353 0.596364
Si Si2 0.964981 0.275947 0.258780
Si Si3 0.314946 0.666390 0.730910
Si Si4 0.861497 0.875634 0.447228
Si Si5 0.114786 0.791877 0.089777
Si Si6 0.252404 0.309102 0.937144
O O1 0.024284 0.352538 0.363900
O O2 0.000000 0.500000 0.500000
O O3 0.478615 0.035474 0.792648
O O4 0.845931 0.184826 0.765968
O O5 0.177678 0.331218 0.093671
O O6 0.585868 0.960051 0.519010
O O7 0.083088 0.466565 0.038099
O O8 0.577845 0.758240 0.584685
O O9 0.096417 0.471765 0.761225
O O10 0.361378 0.397627 0.365015
O O11 0.120392 0.093842 0.132589
O O12 0.000000 0.000000 0.500000
O O13 0.957359 0.782955 0.071252
#
# Coordination Sequence:
#
# PCOD9062330 Si02
#       6
#     2   2   2   2   2   2
#     4  11  24  34  52  75 108 144 188 220 250 304
#     4   9  20  36  52  75 104 141 178 215 262 302
#     4   9  20  36  56  76 105 138 174 213 269 313
#     4   9  16  30  55  85 104 123 166 221 265 312
#     4   9  22  37  48  77 108 139 184 217 259 308
#     4   9  19  34  54  77 106 137 170 211 266 313
#
# _framework density 25.900724
#
# number of rings (size 3 to 8) (size 9 to 14) (size 15 to 20)
#    0.000    3.000    0.000    0.500   14.000    3.333 
#    0.000    0.000    0.000    0.000    0.000   65.333 
#    0.000    0.000    0.000    0.000    0.000    0.000 
#
# Total GULP energy -67031.205773 kJ/mol
# GULP energy per Si atom -5585.933814 kJ/mol
# Density = 2.584177 g / cm^3
# Si number density = 25.900724 Si / 1000 Ang^3
#
#
#
# Elastic Constant Matrix: (Units=GPa)
#
#
# Indices 1 2 3 4 5 6 
#
# 1 62.2184 24.0200 32.4457 -10.9856 13.9281 9.5824
# 2 24.0200 75.2511 21.6444 -7.5893 -6.3260 13.5474
# 3 32.4457 21.6444 153.7671 -27.5193 29.7764 -2.0591
# 4 -10.9856 -7.5893 -27.5193 61.1225 4.4845 -0.8796
# 5 13.9281 -6.3260 29.7764 4.4845 30.8886 3.5305
# 6 9.5824 13.5474 -2.0591 -0.8796 3.5305 33.7459
#
#
#
# Elastic Compliance Matrix: (Units=1/GPa)
#
#
# Indices 1 2 3 4 5 6 
#
# 1 0.022823 -0.007080 -0.001122 0.003480 -0.010881 -0.002478
# 2 -0.007080 0.018724 -0.003794 -0.001617 0.011720 -0.007006
# 3 -0.001122 -0.003794 0.010427 0.004918 -0.011471 0.003807
# 4 0.003480 -0.001617 0.004918 0.019731 -0.009676 0.001487
# 5 -0.010881 0.011720 -0.011471 -0.009676 0.053073 -0.008120
# 6 -0.002478 -0.007006 0.003807 0.001487 -0.008120 0.034270
#
#
# Mechanical properties :
#
#
# Convention : Reuss Voigt Hill
#
# Bulk Modulus (GPa) = 35.73982 49.71742 42.72862
# Shear Modulus (GPa) = 25.99196 39.35983 32.67590
#
# Velocity S-wave (km/s) = 3.17128 3.90249 3.55573
# Velocity P-wave (km/s) = 5.21901 6.28832 5.77845
#
# Compressibility (1/GPa) = 0.02798000
#
# Stress axis : x y z
#
# Youngs Moduli (GPa) = 43.81554 53.40838 95.90632
#
# Poissons Ratio (x) = 0.37812 0.10765
# Poissons Ratio (y) = 0.31021 0.36391
# Poissons Ratio (z) = 0.04918 0.20265
#
# Static dielectric constant tensor:
#      x y z
#    x 2.877110 -0.444330 0.095960 
#    y -0.444330 2.261730 -0.049080 
#    z 0.095960 -0.049080 2.134090 
# 
# From -- ./inp_files/264716.got.cif
#   From: 2010.05.17/outbox.cif.g08.bks.cpg/sg2_133_cif.got.tgz:264716.got - 2010.06.03 11:33:40.
