data_PCOD9062608
_publ_section_title
;
Structure prediction by ZEFSAII (Michael W. Deem and Ramdas Pophale) SiO2 
 PCOD9062608
Probable space group: P -1
;
_chemical_formula_sum "Si O2"
_cell_formula_units_Z 12
_cell_length_a 9.562964
_cell_length_b 12.674471
_cell_length_c 9.836842
_cell_angle_alpha 135.869898
_cell_angle_beta 137.959187
_cell_angle_gamma 68.393965
_cell_volume 520.036075
_symmetry_space_group_name_H-M "P -1"
_symmetry_group_IT_number 2
_symmetry_cell_setting 'triclinic'
loop_
_space_group_symop_operation_xyz
x,y,z
-x,-y,-z
loop_
_atom_site_type_symbol
_atom_site_label
_atom_site_fract_x
_atom_site_fract_y
_atom_site_fract_z
Si Si1 0.695595 0.442134 0.139964
Si Si2 0.563477 0.066628 0.758761
Si Si3 0.774816 0.375178 0.655158
Si Si4 0.303848 0.155195 0.176876
Si Si5 0.111295 0.410513 0.303223
Si Si6 0.220671 0.968892 0.668289
O O1 0.809103 0.555716 0.453474
O O2 0.879306 0.442762 0.160962
O O3 0.500000 0.500000 0.000000
O O4 0.627277 0.258730 0.975473
O O5 0.500000 0.000000 0.500000
O O6 0.732910 0.984696 0.867250
O O7 0.370704 0.007736 0.678046
O O8 0.544381 0.301380 0.506989
O O9 0.729365 0.465460 0.573771
O O10 0.829282 0.217698 0.505613
O O11 0.000000 0.500000 0.000000
O O12 0.112896 0.233489 0.106623
O O13 0.323354 0.079288 0.974727
O O14 0.000000 0.000000 0.500000
#
# Coordination Sequence:
#
# PCOD9062608 Si02
#       6
#     2   2   2   2   2   2
#     4  11  26  45  69 101 146 184 237 291 368 426
#     4  11  25  44  71 100 144 188 233 294 357 428
#     4  11  24  41  73 103 140 183 239 294 358 419
#     4  11  24  47  72 103 146 186 243 298 357 428
#     4  11  25  43  71 104 137 187 235 300 355 427
#     4  11  25  44  71 105 142 191 242 294 358 426
#
# _framework density 23.075322
#
# number of rings (size 3 to 8) (size 9 to 14) (size 15 to 20)
#    0.000    1.000    0.000    6.500   11.667    0.667 
#    0.000    0.000    0.000    0.000    0.000    0.000 
#    0.000    0.000    0.000    0.000    0.000    0.000 
#
# Total GULP energy -67095.521185 kJ/mol
# GULP energy per Si atom -5591.293432 kJ/mol
# Density = 2.302280 g / cm^3
# Si number density = 23.075322 Si / 1000 Ang^3
#
#
#
# Elastic Constant Matrix: (Units=GPa)
#
#
# Indices 1 2 3 4 5 6 
#
# 1 105.1107 51.1810 34.8979 0.8511 -22.8238 -12.0625
# 2 51.1810 154.5848 20.1632 15.2024 -4.2877 -14.9313
# 3 34.8979 20.1632 101.6390 0.5440 -15.1303 -3.8815
# 4 0.8511 15.2024 0.5440 42.1445 -1.8676 -3.4703
# 5 -22.8238 -4.2877 -15.1303 -1.8676 37.6867 -2.2144
# 6 -12.0625 -14.9313 -3.8815 -3.4703 -2.2144 49.7261
#
#
#
# Elastic Compliance Matrix: (Units=1/GPa)
#
#
# Indices 1 2 3 4 5 6 
#
# 1 0.014329 -0.004093 -0.002942 0.001750 0.007263 0.002463
# 2 -0.004093 0.008225 -0.000433 -0.002862 -0.001790 0.001163
# 3 -0.002942 -0.000433 0.011349 0.000206 0.002746 0.000179
# 4 0.001750 -0.002862 0.000206 0.024934 0.002135 0.001416
# 5 0.007263 -0.001790 0.002746 0.002135 0.032115 0.003018
# 6 0.002463 0.001163 0.000179 0.001416 0.003018 0.021304
#
#
# Mechanical properties :
#
#
# Convention : Reuss Voigt Hill
#
# Bulk Modulus (GPa) = 52.72416 63.75762 58.24089
# Shear Modulus (GPa) = 37.44910 42.91763 40.18336
#
# Velocity S-wave (km/s) = 4.03290 4.31733 4.17754
# Velocity P-wave (km/s) = 6.67713 7.24863 6.96874
#
# Compressibility (1/GPa) = 0.01896664
#
# Stress axis : x y z
#
# Youngs Moduli (GPa) = 69.78809 121.58329 88.11076
#
# Poissons Ratio (x) = 0.49766 0.25923
# Poissons Ratio (y) = 0.28566 0.03815
# Poissons Ratio (z) = 0.20532 0.05265
#
# Static dielectric constant tensor:
#      x y z
#    x 1.914510 -0.062260 0.017340 
#    y -0.062260 2.122400 0.119810 
#    z 0.017340 0.119810 1.986590 
# 
# From -- ./inp_files/191015.got.cif
#   From: 2010.05.17/outbox.cif.g08.bks.cpg/sg2_96_cif.got.tgz:191015.got - 2010.06.03 11:33:40.
