data_PCOD9062538
_publ_section_title
;
Structure prediction by ZEFSAII (Michael W. Deem and Ramdas Pophale) SiO2 
 PCOD9062538
Probable space group: P -1
;
_chemical_formula_sum "Si O2"
_cell_formula_units_Z 16
_cell_length_a 9.424087
_cell_length_b 13.030915
_cell_length_c 10.628254
_cell_angle_alpha 34.253189
_cell_angle_beta 67.572721
_cell_angle_gamma 77.559759
_cell_volume 666.426529
_symmetry_space_group_name_H-M "P -1"
_symmetry_group_IT_number 2
_symmetry_cell_setting 'triclinic'
loop_
_space_group_symop_operation_xyz
x,y,z
-x,-y,-z
loop_
_atom_site_type_symbol
_atom_site_label
_atom_site_fract_x
_atom_site_fract_y
_atom_site_fract_z
Si Si1 0.159532 0.740037 0.660377
Si Si2 0.027579 0.378451 0.924570
Si Si3 0.765116 0.916688 0.881771
Si Si4 0.443422 0.570103 0.816137
Si Si5 0.852263 0.493683 0.641447
Si Si6 0.380948 0.028037 0.628065
Si Si7 0.943863 0.914236 0.241850
Si Si8 0.463437 0.726296 0.094999
O O1 0.098779 0.591293 0.721982
O O2 0.280066 0.636977 0.798830
O O3 0.228146 0.950642 0.379965
O O4 0.023698 0.729853 0.818133
O O5 0.889069 0.386373 0.863812
O O6 0.154529 0.263688 0.949511
O O7 0.581958 0.832343 0.051060
O O8 0.886903 0.059928 0.776999
O O9 0.558178 0.763785 0.554062
O O10 0.443302 0.404093 0.886165
O O11 0.500000 0.500000 0.000000
O O12 0.861522 0.703357 0.465458
O O13 0.702097 0.409529 0.693832
O O14 0.000000 0.500000 0.500000
O O15 0.190001 0.008823 0.708265
O O16 0.500000 0.000000 0.500000
O O17 0.414501 0.882746 0.866033
O O18 0.000000 0.000000 0.000000
#
# Coordination Sequence:
#
# PCOD9062538 Si02
#       8
#     2   2   2   2   2   2   2   2
#     4  11  24  41  68 109 152 193 249 307 380 450
#     4  11  24  43  71 104 146 200 250 306 377 450
#     4  12  25  45  73 108 153 192 246 318 382 451
#     4  12  23  41  69 106 157 197 245 303 379 456
#     4  12  26  51  77 105 149 204 260 315 378 466
#     4  12  26  43  76 110 151 198 258 311 373 452
#     4  12  28  52  77 111 151 206 260 311 383 471
#     4  12  25  44  70 112 146 196 248 314 381 450
#
# _framework density 24.008645999999999
#
# number of rings (size 3 to 8) (size 9 to 14) (size 15 to 20)
#    0.000    0.250    6.250    3.375    1.750    1.000 
#    0.000    6.250    0.000    0.000    0.000    0.000 
#    0.000    0.000    0.000    0.000    0.000    0.000 
#
# Total GULP energy -89202.879563 kJ/mol
# GULP energy per Si atom -5575.179973 kJ/mol
# Density = 2.395400 g / cm^3
# Si number density = 24.008646 Si / 1000 Ang^3
#
#
#
# Elastic Constant Matrix: (Units=GPa)
#
#
# Indices 1 2 3 4 5 6 
#
# 1 139.8432 16.2877 31.0406 3.5638 -30.8491 -1.7027
# 2 16.2877 54.5138 25.9231 -8.8850 -5.6501 -13.5726
# 3 31.0406 25.9231 102.3750 -29.9526 -5.8652 1.8212
# 4 3.5638 -8.8850 -29.9526 31.6659 4.7312 -2.4516
# 5 -30.8491 -5.6501 -5.8652 4.7312 46.7011 -12.9276
# 6 -1.7027 -13.5726 1.8212 -2.4516 -12.9276 21.8537
#
#
#
# Elastic Compliance Matrix: (Units=1/GPa)
#
#
# Indices 1 2 3 4 5 6 
#
# 1 0.010228 0.000456 -0.004664 -0.006251 0.008456 0.005770
# 2 0.000456 0.028763 -0.006677 0.002173 0.009445 0.024287
# 3 -0.004664 -0.006677 0.017103 0.015051 -0.005310 -0.007388
# 4 -0.006251 0.002173 0.015051 0.048196 -0.006542 0.001145
# 5 0.008456 0.009445 -0.005310 -0.006542 0.035710 0.027358
# 6 0.005770 0.024287 -0.007388 0.001145 0.027358 0.078220
#
#
# Mechanical properties :
#
#
# Convention : Reuss Voigt Hill
#
# Bulk Modulus (GPa) = 29.13326 49.24833 39.19079
# Shear Modulus (GPa) = 19.88621 34.94284 27.41453
#
# Velocity S-wave (km/s) = 2.88113 3.81914 3.38281
# Velocity P-wave (km/s) = 4.81962 6.32496 5.62289
#
# Compressibility (1/GPa) = 0.03432503
#
# Stress axis : x y z
#
# Youngs Moduli (GPa) = 97.77158 34.76737 58.46766
#
# Poissons Ratio (x) = -0.01585 0.27268
# Poissons Ratio (y) = -0.04457 0.39037
# Poissons Ratio (z) = 0.45598 0.23213
#
# Static dielectric constant tensor:
#      x y z
#    x 2.002350 0.051700 -0.015980 
#    y 0.051700 1.937420 0.050200 
#    z -0.015980 0.050200 1.942570 
# 
# From -- ./inp_files/398091.got.cif
#   From: 2010.05.17/outbox.cif.g08.bks.cpg/sg2_200_cif.got.tgz:398091.got - 2010.06.03 11:33:40.
