data_PCOD9062446
_publ_section_title
;
Structure prediction by ZEFSAII (Michael W. Deem and Ramdas Pophale) SiO2 
 PCOD9062446
Probable space group: P -1
;
_chemical_formula_sum "Si O2"
_cell_formula_units_Z 14
_cell_length_a 8.135411
_cell_length_b 15.417953
_cell_length_c 8.836705
_cell_angle_alpha 145.172387
_cell_angle_beta 57.163532
_cell_angle_gamma 112.702090
_cell_volume 527.815582
_symmetry_space_group_name_H-M "P -1"
_symmetry_group_IT_number 2
_symmetry_cell_setting 'triclinic'
loop_
_space_group_symop_operation_xyz
x,y,z
-x,-y,-z
loop_
_atom_site_type_symbol
_atom_site_label
_atom_site_fract_x
_atom_site_fract_y
_atom_site_fract_z
Si Si1 0.304026 0.791454 0.805020
Si Si2 0.542557 0.827874 0.432410
Si Si3 0.911503 0.978481 0.348439
Si Si4 0.438428 0.461507 0.305351
Si Si5 0.759491 0.545151 0.035748
Si Si6 0.611177 0.851427 0.993052
Si Si7 0.022444 0.264643 0.562525
O O1 0.455909 0.822181 0.640241
O O2 0.286792 0.610404 0.555269
O O3 0.415224 0.843044 0.974710
O O4 0.087707 0.881082 0.028200
O O5 0.734688 0.887850 0.353296
O O6 0.619478 0.642835 0.125217
O O7 0.394822 0.984038 0.690079
O O8 0.000000 0.000000 0.500000
O O9 0.884389 0.145317 0.523780
O O10 0.500000 0.500000 0.500000
O O11 0.628648 0.478709 0.134854
O O12 0.385197 0.290421 0.097435
O O13 0.888221 0.658029 0.224189
O O14 0.906480 0.396231 0.704491
O O15 0.796127 0.817979 0.741546
#
# Coordination Sequence:
#
# PCOD9062446 Si02
#       7
#     2   2   2   2   2   2   2
#     4  10  18  27  30  43  47  52  63  71  71  86
#     4  11  19  28  33  39  48  55  61  69  75  82
#     4  12  19  23  36  39  46  57  61  66  79  81
#     4   9  17  24  32  38  46  56  59  69  79  79
#     4  10  19  25  30  40  48  52  63  68  74  86
#     4  11  16  26  34  38  49  53  60  71  75  80
#     4  11  19  24  31  42  47  52  63  69  74  84
#
# _framework density 26.524414
#
# number of rings (size 3 to 8) (size 9 to 14) (size 15 to 20)
#    0.000    1.429    8.571    1.286    4.000    0.000 
#    0.000    0.000    0.000    0.000    0.000    0.000 
#    0.000    0.000    0.000    0.000    0.000    0.000 
#
# Total GULP energy -78168.870589 kJ/mol
# GULP energy per Si atom -5583.490756 kJ/mol
# Density = 2.646404 g / cm^3
# Si number density = 26.524414 Si / 1000 Ang^3
#
#
#
# Elastic Constant Matrix: (Units=GPa)
#
#
# Indices 1 2 3 4 5 6 
#
# 1 48.5201 43.4824 47.0341 1.0842 39.1107 -2.9836
# 2 43.4824 208.7195 52.4905 30.2664 0.0049 3.0856
# 3 47.0341 52.4905 140.2793 39.6982 -50.2623 11.5081
# 4 1.0842 30.2664 39.6982 55.4801 9.7572 -13.6485
# 5 39.1107 0.0049 -50.2623 9.7572 15.9881 13.1007
# 6 -2.9836 3.0856 11.5081 -13.6485 13.1007 29.4996
#
#
#
# Elastic Compliance Matrix: (Units=1/GPa)
#
#
# Indices 1 2 3 4 5 6 
#
# 1 0.007162 -0.001586 0.005260 -0.007478 0.011584 -0.009766
# 2 -0.001586 0.005809 -0.002027 -0.001257 -0.001993 0.000326
# 3 0.005260 -0.002027 0.002845 0.001133 -0.007460 0.003472
# 4 -0.007478 -0.001257 0.001133 0.017154 0.009054 0.002849
# 5 0.011584 -0.001993 -0.007460 0.009054 -0.002696 0.009676
# 6 -0.009766 0.000326 0.003472 0.002849 0.009676 0.028543
#
#
# Mechanical properties :
#
#
# Convention : Reuss Voigt Hill
#
# Bulk Modulus (GPa) = 52.32987 75.94808 64.13898
# Shear Modulus (GPa) = 80.78530 37.16102 58.97316
#
# Velocity S-wave (km/s) = 5.52477 3.74707 4.72036
# Velocity P-wave (km/s) = 7.77620 6.88594 7.34457
#
# Compressibility (1/GPa) = 0.01910954
#
# Stress axis : x y z
#
# Youngs Moduli (GPa) = 139.62884 172.15192 351.51632
#
# Poissons Ratio (x) = 0.27310 -1.84906
# Poissons Ratio (y) = 0.22151 0.71245
# Poissons Ratio (z) = -0.73448 0.34892
#
# Static dielectric constant tensor:
#      x y z
#    x 2.174610 -0.054820 -0.000410 
#    y -0.054820 1.998860 0.070780 
#    z -0.000410 0.070780 2.191840 
# 
# From -- ./inp_files/334324.got.cif
#   From: 2010.05.17/outbox.cif.g08.bks.cpg/sg2_168_cif.got.tgz:334324.got - 2010.06.03 11:33:40.
