data_PCOD9062373
_publ_section_title
;
Structure prediction by ZEFSAII (Michael W. Deem and Ramdas Pophale) SiO2 
 PCOD9062373
Probable space group: P -1
;
_chemical_formula_sum "Si O2"
_cell_formula_units_Z 14
_cell_length_a 14.318518
_cell_length_b 12.181410
_cell_length_c 14.073317
_cell_angle_alpha 138.058421
_cell_angle_beta 19.695234
_cell_angle_gamma 139.738059
_cell_volume 531.006751
_symmetry_space_group_name_H-M "P -1"
_symmetry_group_IT_number 2
_symmetry_cell_setting 'triclinic'
loop_
_space_group_symop_operation_xyz
x,y,z
-x,-y,-z
loop_
_atom_site_type_symbol
_atom_site_label
_atom_site_fract_x
_atom_site_fract_y
_atom_site_fract_z
Si Si1 0.684048 0.576624 0.701777
Si Si2 0.933161 0.666484 0.327491
Si Si3 0.596122 0.117518 0.837649
Si Si4 0.601107 0.265452 0.211987
Si Si5 0.744166 0.193303 0.232536
Si Si6 0.852578 0.041638 0.344095
Si Si7 0.916139 0.631884 0.798142
O O1 0.714931 0.560331 0.548027
O O2 0.966478 0.531852 0.441682
O O3 0.597086 0.752256 0.910386
O O4 0.424197 0.433555 0.905794
O O5 0.717794 0.725959 0.502137
O O6 0.154090 0.799349 0.272208
O O7 0.161001 0.614231 0.006733
O O8 0.750448 0.082867 0.571730
O O9 0.406228 0.930802 0.930909
O O10 0.671372 0.290366 0.271998
O O11 0.950644 0.299632 0.183133
O O12 0.441167 0.085832 0.498939
O O13 0.909061 0.060277 0.949517
O O14 0.974775 0.212942 0.277839
#
# Coordination Sequence:
#
# PCOD9062373 Si02
#       7
#     2   2   2   2   2   2   2
#     4  12  26  42  65  97 139 177 217 253 325 412
#     4  12  23  43  63 102 130 176 212 267 332 381
#     4  11  25  41  68 102 138 160 222 270 326 400
#     4  11  24  39  72  97 126 171 218 277 332 360
#     4  11  24  46  69 102 126 163 232 277 314 388
#     4  11  25  43  73 100 126 168 221 279 330 372
#     4  12  25  47  68  92 136 181 212 268 327 382
#
# _framework density 26.365013999999999
#
# number of rings (size 3 to 8) (size 9 to 14) (size 15 to 20)
#    0.000    0.571    2.857    5.143    6.000    1.143 
#    0.000    4.286    0.000    0.000    0.000    0.000 
#    0.000    0.000    0.000    0.000    0.000    0.000 
#
# Total GULP energy -78459.944974 kJ/mol
# GULP energy per Si atom -5604.281784 kJ/mol
# Density = 2.630501 g / cm^3
# Si number density = 26.365014 Si / 1000 Ang^3
#
#
#
# Elastic Constant Matrix: (Units=GPa)
#
#
# Indices 1 2 3 4 5 6 
#
# 1 94.6959 -7.2277 20.8606 19.6351 9.4099 -5.4453
# 2 -7.2277 59.0591 35.1993 -5.9864 14.5552 -6.8899
# 3 20.8606 35.1993 130.6196 -6.1346 -7.0793 -7.6989
# 4 19.6351 -5.9864 -6.1346 51.7583 -12.9831 2.8905
# 5 9.4099 14.5552 -7.0793 -12.9831 25.9936 -4.8807
# 6 -5.4453 -6.8899 -7.6989 2.8905 -4.8807 41.4437
#
#
#
# Elastic Compliance Matrix: (Units=1/GPa)
#
#
# Indices 1 2 3 4 5 6 
#
# 1 0.016978 0.009765 -0.006798 -0.010866 -0.018677 0.001150
# 2 0.009765 0.031562 -0.011927 -0.008707 -0.028512 0.001564
# 3 -0.006798 -0.011927 0.013221 0.006806 0.016333 0.001029
# 4 -0.010866 -0.008707 0.006806 0.029636 0.025335 -0.000694
# 5 -0.018677 -0.028512 0.016333 0.025335 0.078932 0.003369
# 6 0.001150 0.001564 0.001029 -0.000694 0.003369 0.025176
#
#
# Mechanical properties :
#
#
# Convention : Reuss Voigt Hill
#
# Bulk Modulus (GPa) = 22.80925 42.44879 32.62902
# Shear Modulus (GPa) = 21.92602 39.54195 30.73398
#
# Velocity S-wave (km/s) = 2.88693 3.87691 3.41795
# Velocity P-wave (km/s) = 4.44777 6.01465 5.28955
#
# Compressibility (1/GPa) = 0.04384187
#
# Stress axis : x y z
#
# Youngs Moduli (GPa) = 58.89966 31.68323 75.63741
#
# Poissons Ratio (x) = -0.30938 0.51416
# Poissons Ratio (y) = -0.57515 0.90212
# Poissons Ratio (z) = 0.40038 0.37788
#
# Static dielectric constant tensor:
#      x y z
#    x 2.062280 0.048910 0.011240 
#    y 0.048910 2.178130 0.013510 
#    z 0.011240 0.013510 1.982910 
# 
# From -- ./inp_files/531920.got.cif
#   From: 2010.05.17/outbox.cif.g08.bks.cpg/sg2_266_cif.got.tgz:531920.got - 2010.06.03 11:33:40.
