data_PCOD9062672
_publ_section_title
;
Structure prediction by ZEFSAII (Michael W. Deem and Ramdas Pophale) SiO2 
 PCOD9062672
Probable space group: P -1
;
_chemical_formula_sum "Si O2"
_cell_formula_units_Z 16
_cell_length_a 11.077706
_cell_length_b 12.338294
_cell_length_c 10.678248
_cell_angle_alpha 111.845047
_cell_angle_beta 31.453062
_cell_angle_gamma 111.797778
_cell_volume 702.490764
_symmetry_space_group_name_H-M "P -1"
_symmetry_group_IT_number 2
_symmetry_cell_setting 'triclinic'
loop_
_space_group_symop_operation_xyz
x,y,z
-x,-y,-z
loop_
_atom_site_type_symbol
_atom_site_label
_atom_site_fract_x
_atom_site_fract_y
_atom_site_fract_z
Si Si1 0.563319 0.726122 0.252557
Si Si2 0.153992 0.515920 0.747661
Si Si3 0.425616 0.305433 0.489933
Si Si4 0.195596 0.472142 0.164446
Si Si5 0.862437 0.307619 0.548226
Si Si6 0.422102 0.902598 0.860722
Si Si7 0.273256 0.019010 0.802065
Si Si8 0.179761 0.905734 0.323439
O O1 0.657370 0.735349 0.315859
O O2 0.295303 0.729068 0.449625
O O3 0.685135 0.844703 0.133322
O O4 0.623857 0.599571 0.098260
O O5 0.307653 0.408202 0.572117
O O6 0.316057 0.636837 0.677150
O O7 0.006333 0.513974 0.751969
O O8 0.000000 0.500000 0.000000
O O9 0.418709 0.197762 0.356862
O O10 0.267087 0.600700 0.213083
O O11 0.091912 0.385534 0.329566
O O12 0.900642 0.196242 0.551103
O O13 0.294986 0.930843 0.858796
O O14 0.583872 0.020932 0.803906
O O15 0.248885 0.859708 0.106962
O O16 0.500000 0.000000 0.500000
O O17 0.000000 0.000000 0.000000
O O18 0.000000 0.000000 0.500000
#
# Coordination Sequence:
#
# PCOD9062672 Si02
#       8
#     2   2   2   2   2   2   2   2
#     4  12  24  45  73 102 146 189 248 311 375 453
#     4  11  24  42  67 106 140 188 237 307 372 448
#     4  11  25  43  70 102 148 179 243 305 382 447
#     4  11  26  44  73 103 138 196 245 312 371 447
#     4  11  26  48  68 102 143 190 257 303 381 444
#     4  11  27  47  69 111 141 195 250 308 386 454
#     4  12  29  47  79 116 155 198 249 316 387 462
#     4  11  28  48  73 100 146 197 251 313 375 460
#
# _framework density 22.7761
#
# number of rings (size 3 to 8) (size 9 to 14) (size 15 to 20)
#    0.000    0.750    5.000    0.375   10.500    0.000 
#    2.250    0.000    0.000    0.000    0.000    0.000 
#    0.000    0.000    0.000    0.000    0.000    0.000 
#
# Total GULP energy -89371.762454 kJ/mol
# GULP energy per Si atom -5585.735153 kJ/mol
# Density = 2.272426 g / cm^3
# Si number density = 22.776100 Si / 1000 Ang^3
#
#
#
# Elastic Constant Matrix: (Units=GPa)
#
#
# Indices 1 2 3 4 5 6 
#
# 1 111.5131 23.8348 34.5230 -5.0726 0.5461 -24.9895
# 2 23.8348 86.8159 -1.6071 5.4393 1.1817 -22.4663
# 3 34.5230 -1.6071 49.5350 8.2417 5.4233 -8.9852
# 4 -5.0726 5.4393 8.2417 28.9609 6.9537 4.4681
# 5 0.5461 1.1817 5.4233 6.9537 35.9377 -4.4892
# 6 -24.9895 -22.4663 -8.9852 4.4681 -4.4892 36.9320
#
#
#
# Elastic Compliance Matrix: (Units=1/GPa)
#
#
# Indices 1 2 3 4 5 6 
#
# 1 0.013971 -0.003132 -0.009918 0.004892 0.001024 0.004668
# 2 -0.003132 0.015335 0.005384 -0.006715 0.001214 0.009480
# 3 -0.009918 0.005384 0.030357 -0.011781 -0.001682 0.005171
# 4 0.004892 -0.006715 -0.011781 0.043363 -0.007693 -0.009822
# 5 0.001024 0.001214 -0.001682 -0.007693 0.030216 0.005626
# 6 0.004668 0.009480 0.005171 -0.009822 0.005626 0.039132
#
#
# Mechanical properties :
#
#
# Convention : Reuss Voigt Hill
#
# Bulk Modulus (GPa) = 22.55697 40.15172 31.35435
# Shear Modulus (GPa) = 24.69357 33.10699 28.90028
#
# Velocity S-wave (km/s) = 3.29627 3.81673 3.56601
# Velocity P-wave (km/s) = 4.94090 6.09019 5.54540
#
# Compressibility (1/GPa) = 0.04433219
#
# Stress axis : x y z
#
# Youngs Moduli (GPa) = 71.57737 65.20845 32.94152
#
# Poissons Ratio (x) = 0.20421 0.32671
# Poissons Ratio (y) = 0.22416 -0.17736
# Poissons Ratio (z) = 0.70989 -0.35108
#
# Static dielectric constant tensor:
#      x y z
#    x 1.856970 0.059180 -0.039980 
#    y 0.059180 1.765340 0.091770 
#    z -0.039980 0.091770 1.901200 
# 
# From -- ./inp_files/410604.got.cif
#   From: 2010.05.17/outbox.cif.g08.bks.cpg/sg2_206_cif.got.tgz:410604.got - 2010.06.03 11:33:40.
