data_PCOD9062242
_publ_section_title
;
Structure prediction by ZEFSAII (Michael W. Deem and Ramdas Pophale) SiO2 
 PCOD9062242
Probable space group: P -1
;
_chemical_formula_sum "Si O2"
_cell_formula_units_Z 16
_cell_length_a 5.168430
_cell_length_b 9.715938
_cell_length_c 21.524674
_cell_angle_alpha 43.850508
_cell_angle_beta 118.495962
_cell_angle_gamma 100.824955
_cell_volume 636.057090
_symmetry_space_group_name_H-M "P -1"
_symmetry_group_IT_number 2
_symmetry_cell_setting 'triclinic'
loop_
_space_group_symop_operation_xyz
x,y,z
-x,-y,-z
loop_
_atom_site_type_symbol
_atom_site_label
_atom_site_fract_x
_atom_site_fract_y
_atom_site_fract_z
Si Si1 0.542078 0.577407 0.912311
Si Si2 0.136208 0.086459 0.926635
Si Si3 0.163488 0.540693 0.761434
Si Si4 0.009393 0.987221 0.597176
Si Si5 0.956002 0.817375 0.890651
Si Si6 0.675264 0.409162 0.612128
Si Si7 0.274335 0.576456 0.630908
Si Si8 0.286899 0.007618 0.307807
O O1 0.316084 0.581144 0.829517
O O2 0.614531 0.794063 0.863809
O O3 0.500000 0.500000 0.000000
O O4 0.834054 0.389734 0.986885
O O5 0.064894 0.332347 0.829913
O O6 0.027512 0.994392 0.882085
O O7 0.500000 0.000000 0.000000
O O8 0.000000 0.000000 0.000000
O O9 0.380220 0.517381 0.732969
O O10 0.937991 0.765989 0.648319
O O11 0.376801 0.963098 0.648472
O O12 0.853599 0.177607 0.473318
O O13 0.865055 0.046094 0.629549
O O14 0.958268 0.817306 0.815314
O O15 0.500000 0.500000 0.500000
O O16 0.502712 0.494617 0.627628
O O17 0.684990 0.172891 0.680227
O O18 0.993823 0.470006 0.627273
#
# Coordination Sequence:
#
# PCOD9062242 Si02
#       8
#     2   2   2   2   2   2   2   2
#     4  11  23  48  76 106 146 196 258 319 384 458
#     4  12  28  50  75 107 154 200 251 320 391 457
#     4  12  27  49  77 115 161 207 259 319 400 463
#     4  12  25  46  73 110 154 200 257 307 380 456
#     4  11  25  44  74 106 142 192 258 309 381 453
#     4  12  23  47  76 108 156 204 256 317 385 460
#     4  12  26  47  75 113 158 206 255 320 387 463
#     4  12  25  43  76 109 145 199 257 317 372 456
#
# _framework density 25.154975
#
# number of rings (size 3 to 8) (size 9 to 14) (size 15 to 20)
#    0.000    0.250    5.000    3.750    0.000    5.000 
#    4.500    2.500    0.000    0.000    0.000    0.000 
#    0.000    0.000    0.000    0.000    0.000    0.000 
#
# Total GULP energy -89431.942006 kJ/mol
# GULP energy per Si atom -5589.496375 kJ/mol
# Density = 2.509772 g / cm^3
# Si number density = 25.154975 Si / 1000 Ang^3
#
#
#
# Elastic Constant Matrix: (Units=GPa)
#
#
# Indices 1 2 3 4 5 6 
#
# 1 139.6434 50.8838 51.5100 14.2511 -17.8952 2.4508
# 2 50.8838 168.0857 55.7810 -0.3428 -10.7718 18.5421
# 3 51.5100 55.7810 149.3442 8.6380 -34.7667 0.8946
# 4 14.2511 -0.3428 8.6380 64.0690 -5.6259 -11.5480
# 5 -17.8952 -10.7718 -34.7667 -5.6259 40.6489 2.0490
# 6 2.4508 18.5421 0.8946 -11.5480 2.0490 41.0390
#
#
#
# Elastic Compliance Matrix: (Units=1/GPa)
#
#
# Indices 1 2 3 4 5 6 
#
# 1 0.008946 -0.001968 -0.001886 -0.001633 0.001585 -0.000142
# 2 -0.001968 0.007623 -0.002306 0.000157 -0.000636 -0.003201
# 3 -0.001886 -0.002306 0.009825 -0.000215 0.006905 0.000535
# 4 -0.001633 0.000157 -0.000215 0.016966 0.001248 0.004743
# 5 0.001585 -0.000636 0.006905 0.001248 0.031267 -0.001168
# 6 -0.000142 -0.003201 0.000535 0.004743 -0.001168 0.027203
#
#
# Mechanical properties :
#
#
# Convention : Reuss Voigt Hill
#
# Bulk Modulus (GPa) = 71.06256 85.93589 78.49922
# Shear Modulus (GPa) = 42.07255 49.07797 45.57526
#
# Velocity S-wave (km/s) = 4.09410 4.42183 4.26112
# Velocity P-wave (km/s) = 7.11759 7.76575 7.44872
#
# Compressibility (1/GPa) = 0.01407211
#
# Stress axis : x y z
#
# Youngs Moduli (GPa) = 111.77779 131.17765 101.78611
#
# Poissons Ratio (x) = 0.25821 0.19199
# Poissons Ratio (y) = 0.22002 0.23476
# Poissons Ratio (z) = 0.21084 0.30255
#
# Static dielectric constant tensor:
#      x y z
#    x 2.337240 -0.095680 -0.234390 
#    y -0.095680 1.995190 0.099780 
#    z -0.234390 0.099780 1.887850 
# 
# From -- ./inp_files/582288.got.cif
#   From: 2010.05.17/outbox.cif.g08.bks.cpg/sg2_292_cif.got.tgz:582288.got - 2010.06.03 11:33:40.
