data_PCOD9062934
_publ_section_title
;
Structure prediction by ZEFSAII (Michael W. Deem and Ramdas Pophale) SiO2 
 PCOD9062934
Probable space group: P -1
;
_chemical_formula_sum "Si O2"
_cell_formula_units_Z 14
_cell_length_a 15.763217
_cell_length_b 22.287500
_cell_length_c 12.993402
_cell_angle_alpha 151.188315
_cell_angle_beta 152.517379
_cell_angle_gamma 18.303672
_cell_volume 643.183927
_symmetry_space_group_name_H-M "P -1"
_symmetry_group_IT_number 2
_symmetry_cell_setting 'triclinic'
loop_
_space_group_symop_operation_xyz
x,y,z
-x,-y,-z
loop_
_atom_site_type_symbol
_atom_site_label
_atom_site_fract_x
_atom_site_fract_y
_atom_site_fract_z
Si Si1 0.236961 0.282285 0.686965
Si Si2 0.178467 0.718557 0.017329
Si Si3 0.662173 0.699767 0.954576
Si Si4 0.619137 0.974020 0.201300
Si Si5 0.930370 0.073465 0.417881
Si Si6 0.921198 0.617492 0.693096
Si Si7 0.123626 0.074280 0.216769
O O1 0.076474 0.233785 0.463052
O O2 0.033859 0.483307 0.710468
O O3 0.527996 0.115175 0.681519
O O4 0.363658 0.278589 0.919176
O O5 0.065153 0.674653 0.910041
O O6 0.993178 0.829322 0.878519
O O7 0.500000 0.500000 0.000000
O O8 0.103750 0.885336 0.248075
O O9 0.410990 0.748956 0.707751
O O10 0.000000 0.500000 0.000000
O O11 0.600145 0.866110 0.090258
O O12 0.414341 0.183399 0.348069
O O13 0.937907 0.860516 0.361620
O O14 0.500000 0.000000 0.000000
O O15 0.000000 0.000000 0.500000
O O16 0.000000 0.500000 0.500000
O O17 0.000000 0.000000 0.000000
#
# Coordination Sequence:
#
# PCOD9062934 Si02
#       7
#     2   2   2   2   2   2   2
#     4  11  25  43  68 103 146 182 242 299 362 432
#     4  12  24  44  71 110 145 187 244 301 364 444
#     4  12  27  48  74 108 146 191 246 305 372 431
#     4  12  25  48  75 104 145 196 247 308 361 442
#     4  12  26  47  74 107 145 190 250 300 362 443
#     4  12  23  44  73 107 144 193 245 300 368 436
#     4  11  24  43  67 102 144 188 231 297 365 432
#
# _framework density 21.766711999999998
#
# number of rings (size 3 to 8) (size 9 to 14) (size 15 to 20)
#    0.000    0.286    5.714    2.571    4.000    0.571 
#    0.000    1.429    0.000    0.000    0.000    0.000 
#    0.000    0.000    0.000    0.000    0.000    0.000 
#
# Total GULP energy -78124.323678 kJ/mol
# GULP energy per Si atom -5580.308834 kJ/mol
# Density = 2.171717 g / cm^3
# Si number density = 21.766712 Si / 1000 Ang^3
#
#
#
# Elastic Constant Matrix: (Units=GPa)
#
#
# Indices 1 2 3 4 5 6 
#
# 1 54.5593 18.7407 9.7343 -15.7538 11.7752 8.0384
# 2 18.7407 126.2740 18.3250 -16.0054 5.6503 -2.4959
# 3 9.7343 18.3250 84.8411 -27.5954 12.5889 -5.9201
# 4 -15.7538 -16.0054 -27.5954 30.3860 -3.9798 2.0899
# 5 11.7752 5.6503 12.5889 -3.9798 59.9877 -2.1722
# 6 8.0384 -2.4959 -5.9201 2.0899 -2.1722 40.5784
#
#
#
# Elastic Compliance Matrix: (Units=1/GPa)
#
#
# Indices 1 2 3 4 5 6 
#
# 1 0.024263 -0.002157 0.002274 0.013319 -0.004353 -0.005526
# 2 -0.002157 0.008708 -0.000662 0.002812 -0.000045 0.000719
# 3 0.002274 -0.000662 0.017456 0.016226 -0.002932 0.001063
# 4 0.013319 0.002812 0.016226 0.055894 -0.002689 -0.003121
# 5 -0.004353 -0.000045 -0.002932 -0.002689 0.018021 0.001535
# 6 -0.005526 0.000719 0.001063 -0.003121 0.001535 0.026181
#
#
# Mechanical properties :
#
#
# Convention : Reuss Voigt Hill
#
# Bulk Modulus (GPa) = 20.26848 39.91937 30.09392
# Shear Modulus (GPa) = 29.75145 40.78206 35.26676
#
# Velocity S-wave (km/s) = 3.70108 4.33320 4.02956
# Velocity P-wave (km/s) = 5.25318 6.58901 5.95864
#
# Compressibility (1/GPa) = 0.04933770
#
# Stress axis : x y z
#
# Youngs Moduli (GPa) = 41.21432 114.83458 57.28809
#
# Poissons Ratio (x) = 0.24774 -0.13030
# Poissons Ratio (y) = 0.08891 0.03792
# Poissons Ratio (z) = -0.09374 0.07600
#
# Static dielectric constant tensor:
#      x y z
#    x 1.852920 -0.134810 -0.017630 
#    y -0.134810 1.992480 0.052780 
#    z -0.017630 0.052780 1.830320 
# 
# From -- ./inp_files/457778.got.cif
#   From: 2010.05.17/outbox.cif.g08.bks.cpg/sg2_229_cif.got.tgz:457778.got - 2010.06.03 11:33:40.
