data_PCOD9062708
_publ_section_title
;
Structure prediction by ZEFSAII (Michael W. Deem and Ramdas Pophale) SiO2 
 PCOD9062708
Probable space group: P -1
;
_chemical_formula_sum "Si O2"
_cell_formula_units_Z 16
_cell_length_a 5.256337
_cell_length_b 9.232751
_cell_length_c 18.660519
_cell_angle_alpha 132.818246
_cell_angle_beta 88.294130
_cell_angle_gamma 78.157595
_cell_volume 631.807454
_symmetry_space_group_name_H-M "P -1"
_symmetry_group_IT_number 2
_symmetry_cell_setting 'triclinic'
loop_
_space_group_symop_operation_xyz
x,y,z
-x,-y,-z
loop_
_atom_site_type_symbol
_atom_site_label
_atom_site_fract_x
_atom_site_fract_y
_atom_site_fract_z
Si Si1 0.117154 0.679327 0.035189
Si Si2 0.322835 0.218610 0.109054
Si Si3 0.923528 0.139265 0.660429
Si Si4 0.773588 0.823934 0.456085
Si Si5 0.593878 0.434660 0.861304
Si Si6 0.749049 0.610506 0.525291
Si Si7 0.174248 0.849639 0.826561
Si Si8 0.764727 0.201828 0.355797
O O1 0.297149 0.688474 0.107321
O O2 0.907743 0.899307 0.093007
O O3 0.308078 0.588912 0.936282
O O4 0.000000 0.500000 0.000000
O O5 0.255491 0.405048 0.114993
O O6 0.059303 0.196732 0.141219
O O7 0.534366 0.254387 0.177115
O O8 0.500000 0.000000 0.000000
O O9 0.643512 0.275398 0.741081
O O10 0.062271 0.260255 0.645470
O O11 0.923846 0.945622 0.545925
O O12 0.094182 0.023160 0.686580
O O13 0.723358 0.662895 0.458200
O O14 0.500000 0.000000 0.500000
O O15 0.500000 0.500000 0.500000
O O16 0.050066 0.646928 0.559521
O O17 0.547681 0.797364 0.635323
O O18 0.175030 0.782344 0.722043
#
# Coordination Sequence:
#
# PCOD9062708 Si02
#       8
#     2   2   2   2   2   2   2   2
#     4  11  25  45  73 107 141 191 243 298 359 450
#     4  12  27  50  74 108 152 194 240 310 366 433
#     4  11  24  44  67 102 143 178 241 294 359 428
#     4  11  24  42  68  99 135 186 229 294 357 430
#     4  11  26  44  71 105 144 192 241 297 372 429
#     4  11  24  43  71  96 143 187 236 296 365 430
#     4  12  28  47  78 108 149 193 250 298 370 440
#     4  11  25  44  69 106 136 188 241 299 359 431
#
# _framework density 25.324169000000001
#
# number of rings (size 3 to 8) (size 9 to 14) (size 15 to 20)
#    0.000    0.750    5.000    1.125    7.000    3.000 
#    0.000    0.000    0.000    0.000    0.000    0.000 
#    0.000    0.000    0.000    0.000    0.000    0.000 
#
# Total GULP energy -89291.896568 kJ/mol
# GULP energy per Si atom -5580.743535 kJ/mol
# Density = 2.526653 g / cm^3
# Si number density = 25.324169 Si / 1000 Ang^3
#
#
#
# Elastic Constant Matrix: (Units=GPa)
#
#
# Indices 1 2 3 4 5 6 
#
# 1 104.8150 38.1292 32.1635 -7.2711 -10.9860 0.0758
# 2 38.1292 162.1751 27.9331 -21.9203 -13.2938 13.7805
# 3 32.1635 27.9331 106.9522 -22.1638 -23.9625 14.5303
# 4 -7.2711 -21.9203 -22.1638 39.9069 0.6657 -2.5485
# 5 -10.9860 -13.2938 -23.9625 0.6657 29.1637 -7.3602
# 6 0.0758 13.7805 14.5303 -2.5485 -7.3602 51.4442
#
#
#
# Elastic Compliance Matrix: (Units=1/GPa)
#
#
# Indices 1 2 3 4 5 6 
#
# 1 0.011344 -0.002296 -0.002890 -0.000721 0.001262 0.001559
# 2 -0.002296 0.007482 0.000211 0.003672 0.002242 -0.001558
# 3 -0.002890 0.000211 0.014179 0.007153 0.009918 -0.002284
# 4 -0.000721 0.003672 0.007153 0.030774 0.006436 -0.000558
# 5 0.001262 0.002242 0.009918 0.006436 0.044621 0.003299
# 6 0.001559 -0.001558 -0.002284 -0.000558 0.003299 0.020943
#
#
# Mechanical properties :
#
#
# Convention : Reuss Voigt Hill
#
# Bulk Modulus (GPa) = 43.37481 63.37710 53.37595
# Shear Modulus (GPa) = 34.01895 42.48407 38.25151
#
# Velocity S-wave (km/s) = 3.66914 4.10031 3.89070
# Velocity P-wave (km/s) = 5.92580 6.89183 6.42699
#
# Compressibility (1/GPa) = 0.02305486
#
# Stress axis : x y z
#
# Youngs Moduli (GPa) = 88.15381 133.65343 70.52874
#
# Poissons Ratio (x) = 0.30683 0.20385
# Poissons Ratio (y) = 0.20238 -0.01490
# Poissons Ratio (z) = 0.25479 -0.02824
#
# Static dielectric constant tensor:
#      x y z
#    x 2.111370 0.046720 0.368340 
#    y 0.046720 1.938710 -0.116660 
#    z 0.368340 -0.116660 2.323660 
# 
# From -- ./inp_files/548398.got.cif
#   From: 2010.05.17/outbox.cif.g08.bks.cpg/sg2_275_cif.got.tgz:548398.got - 2010.06.03 11:33:40.
