data_PCOD9062668
_publ_section_title
;
Structure prediction by ZEFSAII (Michael W. Deem and Ramdas Pophale) SiO2 
 PCOD9062668
Probable space group: P -1
;
_chemical_formula_sum "Si O2"
_cell_formula_units_Z 14
_cell_length_a 6.519395
_cell_length_b 12.817623
_cell_length_c 8.099549
_cell_angle_alpha 94.396489
_cell_angle_beta 101.479675
_cell_angle_gamma 109.283986
_cell_volume 618.608110
_symmetry_space_group_name_H-M "P -1"
_symmetry_group_IT_number 2
_symmetry_cell_setting 'triclinic'
loop_
_space_group_symop_operation_xyz
x,y,z
-x,-y,-z
loop_
_atom_site_type_symbol
_atom_site_label
_atom_site_fract_x
_atom_site_fract_y
_atom_site_fract_z
Si Si1 0.279016 0.402918 0.015938
Si Si2 0.692019 0.036239 0.899339
Si Si3 0.738197 0.510412 0.610122
Si Si4 0.038758 0.159664 0.443389
Si Si5 0.027659 0.648939 0.364030
Si Si6 0.818159 0.822809 0.878689
Si Si7 0.619888 0.942836 0.385178
O O1 0.103427 0.383058 0.834518
O O2 0.500000 0.500000 0.000000
O O3 0.216267 0.440972 0.189714
O O4 0.312018 0.284621 0.045567
O O5 0.706659 0.915934 0.833064
O O6 0.584863 0.106808 0.776563
O O7 0.944198 0.110540 0.990377
O O8 0.500000 0.000000 0.000000
O O9 0.500000 0.500000 0.500000
O O10 0.896233 0.580686 0.496171
O O11 0.758920 0.388201 0.611837
O O12 0.948341 0.226418 0.567491
O O13 0.118821 0.218567 0.289896
O O14 0.833714 0.044538 0.358550
O O15 0.255148 0.137344 0.543308
O O16 0.500000 0.000000 0.500000
#
# Coordination Sequence:
#
# PCOD9062668 Si02
#       7
#     2   2   2   2   2   2   2
#     4  12  26  49  73 106 148 196 243 302 363 430
#     4  11  24  45  69 106 139 189 237 292 368 423
#     4  11  24  50  72 100 137 184 246 302 357 429
#     4  11  24  44  68 105 143 187 240 291 365 434
#     4  11  26  45  73 102 139 189 239 306 360 424
#     4  11  25  45  71 103 149 188 243 302 350 438
#     4  11  24  42  67 103 144 183 231 295 357 435
#
# _framework density 22.631451999999999
#
# number of rings (size 3 to 8) (size 9 to 14) (size 15 to 20)
#    0.000    0.857    5.714    0.429    4.000    2.286 
#    5.143    0.000    0.000    0.000    0.000    0.000 
#    0.000    0.000    0.000    0.000    0.000    0.000 
#
# Total GULP energy -78071.631710 kJ/mol
# GULP energy per Si atom -5576.545122 kJ/mol
# Density = 2.257994 g / cm^3
# Si number density = 22.631452 Si / 1000 Ang^3
#
#
#
# Elastic Constant Matrix: (Units=GPa)
#
#
# Indices 1 2 3 4 5 6 
#
# 1 82.1045 45.1941 27.8642 -3.5302 10.6934 -20.8995
# 2 45.1941 111.9928 36.3453 -10.1946 8.3781 -12.0305
# 3 27.8642 36.3453 123.5253 -7.5002 3.5240 -15.3047
# 4 -3.5302 -10.1946 -7.5002 31.2966 -2.3685 -9.9739
# 5 10.6934 8.3781 3.5240 -2.3685 40.1902 -10.2806
# 6 -20.8995 -12.0305 -15.3047 -9.9739 -10.2806 44.0941
#
#
#
# Elastic Compliance Matrix: (Units=1/GPa)
#
#
# Indices 1 2 3 4 5 6 
#
# 1 0.017711 -0.005742 -0.001369 0.001695 -0.001672 0.006346
# 2 -0.005742 0.012276 -0.002066 0.002957 -0.000561 0.000449
# 3 -0.001369 -0.002066 0.009483 0.002405 0.000825 0.002816
# 4 0.001695 0.002957 0.002405 0.037786 0.003999 0.011924
# 5 -0.001672 -0.000561 0.000825 0.003999 0.027298 0.006610
# 6 0.006346 0.000449 0.002816 0.011924 0.006610 0.031025
#
#
# Mechanical properties :
#
#
# Convention : Reuss Voigt Hill
#
# Bulk Modulus (GPa) = 47.35323 59.60331 53.47827
# Shear Modulus (GPa) = 31.06167 36.99745 34.02956
#
# Velocity S-wave (km/s) = 3.70875 4.04763 3.88189
# Velocity P-wave (km/s) = 6.26967 6.94536 6.61615
#
# Compressibility (1/GPa) = 0.02111788
#
# Stress axis : x y z
#
# Youngs Moduli (GPa) = 56.46285 81.46044 105.44727
#
# Poissons Ratio (x) = 0.46772 0.14433
# Poissons Ratio (y) = 0.32419 0.21782
# Poissons Ratio (z) = 0.07728 0.16827
#
# Static dielectric constant tensor:
#      x y z
#    x 1.804360 -0.029110 -0.031500 
#    y -0.029110 2.002150 -0.052940 
#    z -0.031500 -0.052940 1.978440 
# 
# From -- ./inp_files/49295.got.cif
#   From: 2010.05.17/outbox.cif.g08.bks.cpg/sg2_25_cif.got.tgz:49295.got - 2010.06.03 11:33:40.
