data_PCOD9062578
_publ_section_title
;
Structure prediction by ZEFSAII (Michael W. Deem and Ramdas Pophale) SiO2 
 PCOD9062578
Probable space group: P -1
;
_chemical_formula_sum "Si O2"
_cell_formula_units_Z 13
_cell_length_a 18.007837
_cell_length_b 9.214662
_cell_length_c 11.005239
_cell_angle_alpha 138.445799
_cell_angle_beta 30.815535
_cell_angle_gamma 137.258624
_cell_volume 597.499194
_symmetry_space_group_name_H-M "P -1"
_symmetry_group_IT_number 2
_symmetry_cell_setting 'triclinic'
loop_
_space_group_symop_operation_xyz
x,y,z
-x,-y,-z
loop_
_atom_site_type_symbol
_atom_site_label
_atom_site_fract_x
_atom_site_fract_y
_atom_site_fract_z
Si Si1 0.064709 0.886245 0.613229
Si Si2 0.046409 0.338845 0.003624
Si Si3 0.812140 0.501653 0.846158
Si Si4 0.518371 0.516520 0.177656
Si Si5 0.758383 0.305492 0.237389
Si Si6 0.316868 0.183624 0.090377
Si Si7 0.000000 0.000000 0.500000
O O1 0.184544 0.740749 0.364310
O O2 0.908525 0.705495 0.755604
O O3 0.089042 0.101712 0.801180
O O4 0.058032 0.980786 0.546706
O O5 0.144713 0.497066 0.861387
O O6 0.093872 0.470746 0.144141
O O7 0.872552 0.284072 0.171840
O O8 0.641896 0.512944 0.103320
O O9 0.391274 0.636367 0.471046
O O10 0.434114 0.268889 0.088126
O O11 0.612715 0.657624 0.021817
O O12 0.719159 0.075910 0.067913
O O13 0.155846 0.199057 0.374106
#
# Coordination Sequence:
#
# PCOD9062578 Si02
#       7
#     2   2   2   2   2   2   1
#     4  11  24  41  70  99 138 181 233 279 336 412
#     4  11  24  42  69 102 133 184 235 279 336 413
#     4  11  25  43  66 104 143 179 221 287 357 399
#     4  11  25  43  66 104 143 179 221 287 357 399
#     4  11  24  42  69 102 133 184 235 279 336 413
#     4  11  24  41  70  99 138 181 233 279 336 412
#     4  12  20  44  72  96 130 180 236 278 310 422
#
# _framework density 21.757349999999999
#
# number of rings (size 3 to 8) (size 9 to 14) (size 15 to 20)
#    0.000    0.923    3.077    2.769    6.462    3.077 
#    0.000    5.385    0.000    0.000    0.000    0.000 
#    0.000    0.000    0.000    0.000    0.000    0.000 
#
# Total GULP energy -72392.032514 kJ/mol
# GULP energy per Si atom -5568.617886 kJ/mol
# Density = 2.170783 g / cm^3
# Si number density = 21.757350 Si / 1000 Ang^3
#
#
#
# Elastic Constant Matrix: (Units=GPa)
#
#
# Indices 1 2 3 4 5 6 
#
# 1 -938.4670 -211.1073-1851.1965 927.4453 258.9819 -786.8750
# 2 -211.1073 43.0582 -377.6674 215.1321 52.1568 -164.5450
# 3 -1851.1965 -377.6674-3438.9980 1739.5384 471.0661-1473.0240
# 4 927.4453 215.1321 1739.5384 -820.8903 -239.1196 754.1508
# 5 258.9819 52.1568 471.0661 -239.1196 -47.7229 196.7593
# 6 -786.8750 -164.5450-1473.0240 754.1508 196.7593 -606.1610
#
#
#
# Elastic Compliance Matrix: (Units=1/GPa)
#
#
# Indices 1 2 3 4 5 6 
#
# 1 0.019489 0.000496 -0.006421 0.003827 -0.008423 -0.007803
# 2 0.000496 0.013734 -0.006407 -0.006098 0.000294 0.003707
# 3 -0.006421 -0.006407 0.020040 0.013405 0.004989 -0.020327
# 4 0.003827 -0.006098 0.013405 0.021520 -0.003010 -0.010091
# 5 -0.008423 0.000294 0.004989 -0.003010 0.067066 0.016754
# 6 -0.007803 0.003707 -0.020327 -0.010091 0.016754 0.049754
#
#
# Mechanical properties :
#
#
# Convention : Reuss Voigt Hill
#
# Bulk Modulus (GPa) = 34.96702 -1023.81658 -494.42478
# Shear Modulus (GPa) = 22.14346 -421.25055 -199.55355
#
# Velocity S-wave (km/s) = 3.19367 -13.92958 -9.58733
# Velocity P-wave (km/s) = 5.45029 27.02395 18.71615
#
# Compressibility (1/GPa) = 0.02859838
#
# Stress axis : x y z
#
# Youngs Moduli (GPa) = 51.31053 72.81167 49.90035
#
# Poissons Ratio (x) = -0.03608 0.32041
# Poissons Ratio (y) = -0.02543 0.31971
# Poissons Ratio (z) = 0.32947 0.46650
#
# Static dielectric constant tensor:
#      x y z
#    x 1.798900 0.011950 0.006800 
#    y 0.011950 1.766900 0.024840 
#    z 0.006800 0.024840 1.850570 
# 
# From -- ./inp_files/199834.got.cif
#   From: 2010.05.17/outbox.cif.g08.bks.cpg/sg2_100_cif.got.tgz:199834.got - 2010.06.03 11:33:40.
