data_PCOD9062930
_publ_section_title
;
Structure prediction by ZEFSAII (Michael W. Deem and Ramdas Pophale) SiO2 
 PCOD9062930
Probable space group: P -1
;
_chemical_formula_sum "Si O2"
_cell_formula_units_Z 15
_cell_length_a 6.695360
_cell_length_b 11.617144
_cell_length_c 9.375165
_cell_angle_alpha 95.759789
_cell_angle_beta 62.397768
_cell_angle_gamma 85.118316
_cell_volume 635.750679
_symmetry_space_group_name_H-M "P -1"
_symmetry_group_IT_number 2
_symmetry_cell_setting 'triclinic'
loop_
_space_group_symop_operation_xyz
x,y,z
-x,-y,-z
loop_
_atom_site_type_symbol
_atom_site_label
_atom_site_fract_x
_atom_site_fract_y
_atom_site_fract_z
Si Si1 0.339679 0.059221 0.936058
Si Si2 0.032720 0.178567 0.476708
Si Si3 0.682252 0.564959 0.254388
Si Si4 0.760649 0.349698 0.404469
Si Si5 0.148959 0.835616 0.876671
Si Si6 0.367196 0.966038 0.403370
Si Si7 0.912178 0.293341 0.832220
Si Si8 0.500000 0.500000 0.000000
O O1 0.237439 0.958800 0.868963
O O2 0.486453 0.112205 0.773888
O O3 0.118919 0.143460 0.074426
O O4 0.500000 0.000000 0.000000
O O5 0.984198 0.294602 0.412055
O O6 0.995521 0.215601 0.657651
O O7 0.262183 0.088065 0.377349
O O8 0.836937 0.101426 0.490828
O O9 0.785356 0.465514 0.322396
O O10 0.452148 0.626724 0.415355
O O11 0.623536 0.508521 0.118210
O O12 0.872195 0.647801 0.180561
O O13 0.718444 0.255489 0.287144
O O14 0.161622 0.785414 0.025780
O O15 0.500000 0.000000 0.500000
O O16 0.701269 0.391430 0.875573
#
# Coordination Sequence:
#
# PCOD9062930 Si02
#       8
#     2   2   2   2   2   2   2   1
#     4  11  24  43  67 101 136 181 226 280 343 410
#     4  11  25  43  70 106 139 180 238 276 350 417
#     4  11  27  48  72 101 140 179 237 284 351 408
#     4  11  24  48  67 105 143 176 229 299 331 417
#     4  11  25  43  68 102 142 171 234 283 337 412
#     4  11  24  44  70 102 140 185 230 285 338 419
#     4  12  26  46  72 101 135 190 224 288 345 417
#     4  12  24  50  70 102 136 176 240 282 338 424
#
# _framework density 23.594156999999999
#
# number of rings (size 3 to 8) (size 9 to 14) (size 15 to 20)
#    0.000    0.800    2.667    3.600    5.600    5.867 
#    2.400    0.000    0.000    0.000    0.000    0.000 
#    0.000    0.000    0.000    0.000    0.000    0.000 
#
# Total GULP energy -83756.612584 kJ/mol
# GULP energy per Si atom -5583.774172 kJ/mol
# Density = 2.354046 g / cm^3
# Si number density = 23.594157 Si / 1000 Ang^3
#
#
#
# Elastic Constant Matrix: (Units=GPa)
#
#
# Indices 1 2 3 4 5 6 
#
# 1 77.2248 14.4854 11.1626 -11.3056 7.2830 -22.2710
# 2 14.4854 60.8905 11.2444 1.8047 -4.2106 -21.8091
# 3 11.1626 11.2444 111.5396 12.3163 18.1557 1.9361
# 4 -11.3056 1.8047 12.3163 39.0954 -7.4212 3.8108
# 5 7.2830 -4.2106 18.1557 -7.4212 35.6134 -1.8251
# 6 -22.2710 -21.8091 1.9361 3.8108 -1.8251 34.6660
#
#
#
# Elastic Compliance Matrix: (Units=1/GPa)
#
#
# Indices 1 2 3 4 5 6 
#
# 1 0.017046 -0.000082 -0.002224 0.004441 -0.000899 0.010488
# 2 -0.000082 0.022689 -0.003296 -0.000514 0.005027 0.014727
# 3 -0.002224 -0.003296 0.011263 -0.004966 -0.006914 -0.003949
# 4 0.004441 -0.000514 -0.004966 0.029938 0.007798 -0.000073
# 5 -0.000899 0.005027 -0.006914 0.007798 0.034208 0.003915
# 6 0.010488 0.014727 -0.003949 -0.000073 0.003915 0.045284
#
#
# Mechanical properties :
#
#
# Convention : Reuss Voigt Hill
#
# Bulk Modulus (GPa) = 25.12970 35.93776 30.53373
# Shear Modulus (GPa) = 27.04236 36.05913 31.55074
#
# Velocity S-wave (km/s) = 3.38915 3.91360 3.66078
# Velocity P-wave (km/s) = 5.09795 5.97381 5.55317
#
# Compressibility (1/GPa) = 0.03979355
#
# Stress axis : x y z
#
# Youngs Moduli (GPa) = 58.66638 44.07503 88.78907
#
# Poissons Ratio (x) = 0.00360 0.19744
# Poissons Ratio (y) = 0.00479 0.29268
# Poissons Ratio (z) = 0.13046 0.14529
#
# Static dielectric constant tensor:
#      x y z
#    x 1.883890 -0.022150 -0.019130 
#    y -0.022150 1.899900 -0.020830 
#    z -0.019130 -0.020830 1.847720 
# 
# From -- ./inp_files/40056.got.cif
#   From: 2010.05.17/outbox.cif.g08.bks.cpg/sg2_21_cif.got.tgz:40056.got - 2010.06.03 11:33:40.
