data_PCOD9062642
_publ_section_title
;
Structure prediction by ZEFSAII (Michael W. Deem and Ramdas Pophale) SiO2 
 PCOD9062642
Probable space group: P -1
;
_chemical_formula_sum "Si O2"
_cell_formula_units_Z 14
_cell_length_a 18.599783
_cell_length_b 6.599877
_cell_length_c 24.957863
_cell_angle_alpha 43.266372
_cell_angle_beta 19.041443
_cell_angle_gamma 51.365322
_cell_volume 656.441912
_symmetry_space_group_name_H-M "P -1"
_symmetry_group_IT_number 2
_symmetry_cell_setting 'triclinic'
loop_
_space_group_symop_operation_xyz
x,y,z
-x,-y,-z
loop_
_atom_site_type_symbol
_atom_site_label
_atom_site_fract_x
_atom_site_fract_y
_atom_site_fract_z
Si Si1 0.395787 0.311060 0.397088
Si Si2 0.913305 0.706176 0.579367
Si Si3 0.319655 0.705201 0.087212
Si Si4 0.056146 0.303091 0.729178
Si Si5 0.058612 0.428777 0.032387
Si Si6 0.639859 0.382246 0.748634
Si Si7 0.258452 0.576722 0.646738
O O1 0.268271 0.423274 0.514858
O O2 0.336571 0.436168 0.358277
O O3 0.315495 0.943865 0.529654
O O4 0.670244 0.422773 0.182984
O O5 0.850361 0.422392 0.719356
O O6 0.684967 0.631353 0.717274
O O7 0.137607 0.743080 0.378156
O O8 0.000000 0.000000 0.500000
O O9 0.168808 0.647521 0.150512
O O10 0.500000 0.500000 0.000000
O O11 0.433023 0.069866 0.948535
O O12 0.129365 0.441952 0.709000
O O13 0.001141 0.936556 0.845955
O O14 0.908320 0.536278 0.162942
O O15 0.000000 0.500000 0.000000
O O16 0.500000 0.500000 0.500000
#
# Coordination Sequence:
#
# PCOD9062642 Si02
#       7
#     2   2   2   2   2   2   2
#     4  11  24  43  69  97 136 180 224 277 348 403
#     4  11  24  42  65  96 133 174 228 276 332 392
#     4  12  24  43  67 100 137 184 229 280 338 401
#     4  11  25  44  68  99 143 176 228 285 339 408
#     4  11  24  45  72  99 132 179 224 278 353 413
#     4  11  24  42  66  94 131 181 221 279 334 396
#     4  11  26  45  68 105 135 175 226 289 347 411
#
# _framework density 21.327099
#
# number of rings (size 3 to 8) (size 9 to 14) (size 15 to 20)
#    0.000    0.857    4.286    2.143    2.000    6.857 
#    0.000    0.000    0.000    0.000    0.000    0.000 
#    0.000    0.000    0.000    0.000    0.000    0.000 
#
# Total GULP energy -78128.827913 kJ/mol
# GULP energy per Si atom -5580.630565 kJ/mol
# Density = 2.127856 g / cm^3
# Si number density = 21.327099 Si / 1000 Ang^3
#
#
#
# Elastic Constant Matrix: (Units=GPa)
#
#
# Indices 1 2 3 4 5 6 
#
# 1 204.9342 52.9549 79.7149 8.1862 -8.7811 16.9803
# 2 52.9549 66.7917 45.9070 3.5780 -7.1724 11.2564
# 3 79.7149 45.9070 155.4949 -0.0235 -5.3986 13.6519
# 4 8.1862 3.5780 -0.0235 33.5008 -7.3083 -2.3898
# 5 -8.7811 -7.1724 -5.3986 -7.3083 43.4790 -7.9348
# 6 16.9803 11.2564 13.6519 -2.3898 -7.9348 37.5435
#
#
#
# Elastic Compliance Matrix: (Units=1/GPa)
#
#
# Indices 1 2 3 4 5 6 
#
# 1 0.006876 -0.003529 -0.002370 -0.001385 0.000048 -0.001268
# 2 -0.003529 0.021397 -0.004186 -0.001313 0.001518 -0.003059
# 3 -0.002370 -0.004186 0.008958 0.000957 -0.000057 -0.000881
# 4 -0.001385 -0.001313 0.000957 0.031848 0.005688 0.003901
# 5 0.000048 0.001518 -0.000057 0.005688 0.025162 0.005224
# 6 -0.001268 -0.003059 -0.000881 0.003901 0.005224 0.029799
#
#
# Mechanical properties :
#
#
# Convention : Reuss Voigt Hill
#
# Bulk Modulus (GPa) = 58.62365 87.15271 72.88818
# Shear Modulus (GPa) = 33.35599 39.48095 36.41847
#
# Velocity S-wave (km/s) = 3.95906 4.30724 4.13681
# Velocity P-wave (km/s) = 6.96034 8.10493 7.55435
#
# Compressibility (1/GPa) = 0.01705796
#
# Stress axis : x y z
#
# Youngs Moduli (GPa) = 145.43297 46.73659 111.63601
#
# Poissons Ratio (x) = 0.16495 0.26460
# Poissons Ratio (y) = 0.51330 0.46736
# Poissons Ratio (z) = 0.34471 0.19566
#
# Static dielectric constant tensor:
#      x y z
#    x 1.929270 0.020350 -0.135000 
#    y 0.020350 1.878380 0.059470 
#    z -0.135000 0.059470 1.860640 
# 
# From -- ./inp_files/139288.got.cif
#   From: 2010.05.17/outbox.cif.g08.bks.cpg/sg2_70_cif.got.tgz:139288.got - 2010.06.03 11:33:40.
