data_PCOD9062076
_publ_section_title
;
Structure prediction by ZEFSAII (Michael W. Deem and Ramdas Pophale) SiO2 
 PCOD9062076
Probable space group: P -1
;
_chemical_formula_sum "Si O2"
_cell_formula_units_Z 16
_cell_length_a 14.907127
_cell_length_b 14.150209
_cell_length_c 11.522753
_cell_angle_alpha 59.385454
_cell_angle_beta 41.209202
_cell_angle_gamma 28.699986
_cell_volume 676.238563
_symmetry_space_group_name_H-M "P -1"
_symmetry_group_IT_number 2
_symmetry_cell_setting 'triclinic'
loop_
_space_group_symop_operation_xyz
x,y,z
-x,-y,-z
loop_
_atom_site_type_symbol
_atom_site_label
_atom_site_fract_x
_atom_site_fract_y
_atom_site_fract_z
Si Si1 0.179631 0.102510 0.988134
Si Si2 0.419615 0.866265 0.397424
Si Si3 0.268910 0.339252 0.415238
Si Si4 0.433915 0.869205 0.113071
Si Si5 0.936756 0.586752 0.188684
Si Si6 0.131124 0.672139 0.284723
Si Si7 0.652147 0.335111 0.347653
Si Si8 0.468093 0.602120 0.143098
O O1 0.025623 0.314932 0.951045
O O2 0.456623 0.885761 0.780997
O O3 0.971521 0.147250 0.155512
O O4 0.265926 0.059430 0.065202
O O5 0.344162 0.931803 0.294516
O O6 0.737225 0.673835 0.232433
O O7 0.382467 0.769277 0.538760
O O8 0.200644 0.096059 0.534781
O O9 0.233683 0.305814 0.593388
O O10 0.255394 0.480709 0.351608
O O11 0.000000 0.500000 0.500000
O O12 0.405841 0.764701 0.155886
O O13 0.758233 0.674077 0.920448
O O14 0.235341 0.710946 0.219644
O O15 0.261478 0.575679 0.090479
O O16 0.500000 0.500000 0.500000
O O17 0.521943 0.477987 0.269905
#
# Coordination Sequence:
#
# PCOD9062076 Si02
#       8
#     2   2   2   2   2   2   2   2
#     4  12  26  45  82 107 142 204 246 297 382 439
#     4  12  28  45  74 110 149 197 245 304 376 435
#     4  12  24  47  76 108 151 196 246 306 372 439
#     4  12  25  50  75 105 150 196 248 302 370 449
#     4  12  26  48  72 112 150 187 254 310 360 443
#     4  11  26  44  71 110 144 190 244 311 361 428
#     4  12  26  46  74 109 146 195 247 302 366 444
#     4  11  23  47  71  99 153 184 239 309 360 428
#
# _framework density 23.660288999999999
#
# number of rings (size 3 to 8) (size 9 to 14) (size 15 to 20)
#    0.000    0.250    5.000    3.000    5.250    2.000 
#    2.250    0.000    0.000    0.000    0.000    0.000 
#    0.000    0.000    0.000    0.000    0.000    0.000 
#
# Total GULP energy -89706.457548 kJ/mol
# GULP energy per Si atom -5606.653597 kJ/mol
# Density = 2.360644 g / cm^3
# Si number density = 23.660289 Si / 1000 Ang^3
#
#
#
# Elastic Constant Matrix: (Units=GPa)
#
#
# Indices 1 2 3 4 5 6 
#
# 1 67.8344 6.3663 4.2314 -16.6945 -2.8246 -3.8581
# 2 6.3663 57.2726 -0.0677 -23.8309 12.4144 -13.4026
# 3 4.2314 -0.0677 83.5583 -16.6378 2.2737 0.1495
# 4 -16.6945 -23.8309 -16.6378 42.4618 -10.4084 6.7548
# 5 -2.8246 12.4144 2.2737 -10.4084 36.3354 -11.5118
# 6 -3.8581 -13.4026 0.1495 6.7548 -11.5118 26.5005
#
#
#
# Elastic Compliance Matrix: (Units=1/GPa)
#
#
# Indices 1 2 3 4 5 6 
#
# 1 0.016923 0.001303 0.000660 0.008195 0.004062 0.002795
# 2 0.001303 0.025676 0.002811 0.014143 -0.002051 0.008663
# 3 0.000660 0.002811 0.013359 0.007171 0.000217 -0.000291
# 4 0.008195 0.014143 0.007171 0.039007 0.006970 0.001391
# 5 0.004062 -0.002051 0.000217 0.006970 0.034575 0.012795
# 6 0.002795 0.008663 -0.000291 0.001391 0.012795 0.047729
#
#
# Mechanical properties :
#
#
# Convention : Reuss Voigt Hill
#
# Bulk Modulus (GPa) = 15.26565 25.52502 20.39534
# Shear Modulus (GPa) = 26.37750 34.26857 30.32303
#
# Velocity S-wave (km/s) = 3.34255 3.80986 3.58383
# Velocity P-wave (km/s) = 4.62200 5.49226 5.07581
#
# Compressibility (1/GPa) = 0.06550655
#
# Stress axis : x y z
#
# Youngs Moduli (GPa) = 59.09068 38.94753 74.85552
#
# Poissons Ratio (x) = -0.05075 -0.04942
# Poissons Ratio (y) = -0.07699 -0.21043
# Poissons Ratio (z) = -0.03901 -0.10949
#
# Static dielectric constant tensor:
#      x y z
#    x 1.908430 0.010290 -0.024690 
#    y 0.010290 1.884020 -0.006460 
#    z -0.024690 -0.006460 1.872770 
# 
# From -- ./inp_files/455622.got.cif
#   From: 2010.05.17/outbox.cif.g08.bks.cpg/sg2_228_cif.got.tgz:455622.got - 2010.06.03 11:33:40.
