data_PCOD9062398
_publ_section_title
;
Structure prediction by ZEFSAII (Michael W. Deem and Ramdas Pophale) SiO2 
 PCOD9062398
Probable space group: P -1
;
_chemical_formula_sum "Si O2"
_cell_formula_units_Z 16
_cell_length_a 18.959495
_cell_length_b 5.225788
_cell_length_c 9.470254
_cell_angle_alpha 69.581098
_cell_angle_beta 127.276178
_cell_angle_gamma 98.660874
_cell_volume 697.390538
_symmetry_space_group_name_H-M "P -1"
_symmetry_group_IT_number 2
_symmetry_cell_setting 'triclinic'
loop_
_space_group_symop_operation_xyz
x,y,z
-x,-y,-z
loop_
_atom_site_type_symbol
_atom_site_label
_atom_site_fract_x
_atom_site_fract_y
_atom_site_fract_z
Si Si1 0.428670 0.695806 0.997671
Si Si2 0.791370 0.723051 0.991438
Si Si3 0.787161 0.778901 0.509249
Si Si4 0.349517 0.343117 0.407668
Si Si5 0.245195 0.582223 0.719317
Si Si6 0.474475 0.822745 0.723585
Si Si7 0.061215 0.242001 0.065071
Si Si8 0.637271 0.124264 0.813963
O O1 0.511958 0.506399 0.199296
O O2 0.377163 0.818147 0.048185
O O3 0.352342 0.515387 0.871382
O O4 0.460785 0.862196 0.870010
O O5 0.722054 0.636648 0.808277
O O6 0.882594 0.727050 0.016564
O O7 0.738242 0.007122 0.926154
O O8 0.796150 0.517879 0.167131
O O9 0.707304 0.649236 0.520270
O O10 0.800215 0.579752 0.429444
O O11 0.866310 0.803718 0.712755
O O12 0.763383 0.091669 0.374421
O O13 0.395621 0.617735 0.374354
O O14 0.401876 0.044996 0.530079
O O15 0.566575 0.899886 0.752565
O O16 0.000000 0.500000 0.000000
O O17 0.000000 0.000000 0.000000
#
# Coordination Sequence:
#
# PCOD9062398 Si02
#       8
#     2   2   2   2   2   2   2   2
#     4  11  24  40  65  94 150 200 261 303 375 402
#     4  11  27  44  75 103 146 195 241 299 380 430
#     4  11  27  45  79 110 144 195 243 289 372 438
#     4  11  25  40  65 100 147 194 258 307 364 426
#     4  12  23  48  71 108 148 195 251 296 347 445
#     4  11  24  41  60 100 143 206 258 312 364 418
#     4  11  27  53  82 116 152 182 229 299 376 456
#     4  12  23  41  63 100 143 195 257 307 367 425
#
# _framework density 22.942667
#
# number of rings (size 3 to 8) (size 9 to 14) (size 15 to 20)
#    0.000    0.750    3.750    2.250    7.000    5.000 
#    0.000    3.750    0.000    0.000    0.000    0.000 
#    0.000    0.000    0.000    0.000    0.000    0.000 
#
# Total GULP energy -89364.626669 kJ/mol
# GULP energy per Si atom -5585.289167 kJ/mol
# Density = 2.289045 g / cm^3
# Si number density = 22.942667 Si / 1000 Ang^3
#
#
#
# Elastic Constant Matrix: (Units=GPa)
#
#
# Indices 1 2 3 4 5 6 
#
# 1 179.6788 43.2392 57.7566 -14.4058 -30.4436 -2.8778
# 2 43.2392 97.2245 30.7672 -18.9771 -20.1731 -0.1320
# 3 57.7566 30.7672 118.1889 -24.6573 -33.4677 11.8999
# 4 -14.4058 -18.9771 -24.6573 39.0011 1.9258 -3.8430
# 5 -30.4436 -20.1731 -33.4677 1.9258 45.3572 1.6413
# 6 -2.8778 -0.1320 11.8999 -3.8430 1.6413 38.4760
#
#
#
# Elastic Compliance Matrix: (Units=1/GPa)
#
#
# Indices 1 2 3 4 5 6 
#
# 1 0.007232 -0.001958 -0.002539 0.000135 0.002060 0.001245
# 2 -0.001958 0.013125 -0.000203 0.005363 0.004135 0.000321
# 3 -0.002539 -0.000203 0.014014 0.006997 0.008401 -0.004184
# 4 0.000135 0.005363 0.006997 0.032499 0.006228 0.000845
# 5 0.002060 0.004135 0.008401 0.006228 0.031317 -0.003144
# 6 0.001245 0.000321 -0.004184 0.000845 -0.003144 0.027597
#
#
# Mechanical properties :
#
#
# Convention : Reuss Voigt Hill
#
# Bulk Modulus (GPa) = 40.04211 73.17979 56.61095
# Shear Modulus (GPa) = 34.84135 42.12213 38.48174
#
# Velocity S-wave (km/s) = 3.90118 4.28947 4.09993
# Velocity P-wave (km/s) = 6.14681 7.51657 6.86594
#
# Compressibility (1/GPa) = 0.02497371
#
# Stress axis : x y z
#
# Youngs Moduli (GPa) = 138.26718 76.18812 71.35544
#
# Poissons Ratio (x) = 0.14916 0.18115
# Poissons Ratio (y) = 0.27070 0.01447
# Poissons Ratio (z) = 0.35102 0.01545
#
# Static dielectric constant tensor:
#      x y z
#    x 1.837070 -0.010800 0.011310 
#    y -0.010800 2.004050 0.050400 
#    z 0.011310 0.050400 1.917060 
# 
# From -- ./inp_files/323351.got.cif
#   From: 2010.05.17/outbox.cif.g08.bks.cpg/sg2_162_cif.got.tgz:323351.got - 2010.06.03 11:33:40.
