data_PCOD9062636
_publ_section_title
;
Structure prediction by ZEFSAII (Michael W. Deem and Ramdas Pophale) SiO2 
 PCOD9062636
Probable space group: P -1
;
_chemical_formula_sum "Si O2"
_cell_formula_units_Z 12
_cell_length_a 9.372935
_cell_length_b 9.613898
_cell_length_c 4.650662
_cell_angle_alpha 94.531572
_cell_angle_beta 98.985706
_cell_angle_gamma 67.819032
_cell_volume 383.205561
_symmetry_space_group_name_H-M "P -1"
_symmetry_group_IT_number 2
_symmetry_cell_setting 'triclinic'
loop_
_space_group_symop_operation_xyz
x,y,z
-x,-y,-z
loop_
_atom_site_type_symbol
_atom_site_label
_atom_site_fract_x
_atom_site_fract_y
_atom_site_fract_z
Si Si1 0.520626 0.321527 0.523737
Si Si2 0.314254 0.030454 0.222411
Si Si3 0.578148 0.801908 0.083396
Si Si4 0.103444 0.076616 0.702720
Si Si5 0.822435 0.510595 0.464184
Si Si6 0.182663 0.669700 0.081243
O O1 0.500000 0.500000 0.500000
O O2 0.508661 0.267455 0.186997
O O3 0.342126 0.350684 0.670344
O O4 0.682122 0.287231 0.738149
O O5 0.281712 0.191143 0.069521
O O6 0.225147 0.090662 0.506673
O O7 0.204283 0.975876 0.973660
O O8 0.461469 0.874162 0.344700
O O9 0.500000 0.000000 0.000000
O O10 0.980869 0.220975 0.836341
O O11 0.000000 0.000000 0.500000
O O12 0.797631 0.488611 0.785396
O O13 0.000000 0.500000 0.500000
O O14 0.817856 0.369129 0.257867
#
# Coordination Sequence:
#
# PCOD9062636 Si02
#       6
#     2   2   2   2   2   2
#     4  12  25  46  74  99 142 182 239 284 355 411
#     4  11  24  42  65 103 143 180 237 283 340 414
#     4  11  24  42  71 101 139 187 230 288 349 410
#     4  12  25  42  71 101 145 182 232 277 353 417
#     4  12  28  47  73 104 140 183 242 290 350 409
#     4  12  26  47  72 105 143 185 230 292 351 413
#
# _framework density 31.314786999999999
#
# number of rings (size 3 to 8) (size 9 to 14) (size 15 to 20)
#    0.000    0.333    0.000    9.000    7.000    2.667 
#    0.000    0.000    0.000    0.000    0.000    0.000 
#    0.000    0.000    0.000    0.000    0.000    0.000 
#
# Total GULP energy -67006.380108 kJ/mol
# GULP energy per Si atom -5583.865009 kJ/mol
# Density = 3.124351 g / cm^3
# Si number density = 31.314787 Si / 1000 Ang^3
#
#
#
# Elastic Constant Matrix: (Units=GPa)
#
#
# Indices 1 2 3 4 5 6 
#
# 1 205.1142 97.5254 47.1652 -17.1076 -9.2262 -13.6045
# 2 97.5254 247.3308 87.8815 1.4193 -3.1806 -48.6117
# 3 47.1652 87.8815 198.6203 -15.2226 -15.8365 -9.9985
# 4 -17.1076 1.4193 -15.2226 80.4423 13.2369 -6.3300
# 5 -9.2262 -3.1806 -15.8365 13.2369 82.3224 -12.8613
# 6 -13.6045 -48.6117 -9.9985 -6.3300 -12.8613 53.3533
#
#
#
# Elastic Compliance Matrix: (Units=1/GPa)
#
#
# Indices 1 2 3 4 5 6 
#
# 1 0.006181 -0.002428 -0.000303 0.001218 0.000269 -0.000484
# 2 -0.002428 0.006815 -0.002192 -0.000723 0.000500 0.005214
# 3 -0.000303 -0.002192 0.006185 0.000962 0.000822 -0.000603
# 4 0.001218 -0.000723 0.000962 0.013240 -0.001679 0.000998
# 5 0.000269 0.000500 0.000822 -0.001679 0.013197 0.003661
# 6 -0.000484 0.005214 -0.000603 0.000998 0.003661 0.024258
#
#
# Mechanical properties :
#
#
# Convention : Reuss Voigt Hill
#
# Bulk Modulus (GPa) = 107.11821 124.02329 115.57075
# Shear Modulus (GPa) = 60.36158 71.12314 65.74236
#
# Velocity S-wave (km/s) = 4.39518 4.77091 4.58690
# Velocity P-wave (km/s) = 7.74842 8.36900 8.06468
#
# Compressibility (1/GPa) = 0.00933548
#
# Stress axis : x y z
#
# Youngs Moduli (GPa) = 161.78234 146.73939 161.67136
#
# Poissons Ratio (x) = 0.35632 0.04898
# Poissons Ratio (y) = 0.39285 0.35434
# Poissons Ratio (z) = 0.04901 0.32161
#
# Static dielectric constant tensor:
#      x y z
#    x 2.087400 0.138710 0.274050 
#    y 0.138710 3.233100 0.031430 
#    z 0.274050 0.031430 2.258420 
# 
# From -- ./inp_files/40031.got.cif
#   From: 2010.05.17/outbox.cif.g08.bks.cpg/sg2_21_cif.got.tgz:40031.got - 2010.06.03 11:33:40.
