data_PCOD9062920
_publ_section_title
;
Structure prediction by ZEFSAII (Michael W. Deem and Ramdas Pophale) SiO2 
 PCOD9062920
Probable space group: P -1
;
_chemical_formula_sum "Si O2"
_cell_formula_units_Z 8
_cell_length_a 4.807527
_cell_length_b 5.563529
_cell_length_c 13.970676
_cell_angle_alpha 74.367132
_cell_angle_beta 122.417156
_cell_angle_gamma 94.901004
_cell_volume 302.970486
_symmetry_space_group_name_H-M "P -1"
_symmetry_group_IT_number 2
_symmetry_cell_setting 'triclinic'
loop_
_space_group_symop_operation_xyz
x,y,z
-x,-y,-z
loop_
_atom_site_type_symbol
_atom_site_label
_atom_site_fract_x
_atom_site_fract_y
_atom_site_fract_z
Si Si1 0.369016 0.950534 0.619074
Si Si2 0.643842 0.552054 0.383140
Si Si3 0.678332 0.929488 0.191884
Si Si4 0.764802 0.302446 0.018700
O O1 0.531027 0.702930 0.627408
O O2 0.533947 0.214873 0.617053
O O3 0.351655 0.906667 0.734408
O O4 0.000000 0.000000 0.500000
O O5 0.728434 0.660459 0.282599
O O6 0.000000 0.500000 0.500000
O O7 0.890797 0.092079 0.142524
O O8 0.376496 0.865303 0.074170
O O9 0.500000 0.500000 0.000000
O O10 0.000000 0.500000 0.000000
#
# Coordination Sequence:
#
# PCOD9062920 Si02
#       4
#     2   2   2   2
#     4   8  14  27  52  89 124 167 210 265 324 394
#     4   8  14  27  52  89 124 167 210 265 324 394
#     4   9  20  34  62  96 128 179 212 284 324 409
#     4  11  24  43  66  96 133 176 227 278 333 396
#
# _framework density 26.405208999999999
#
# number of rings (size 3 to 8) (size 9 to 14) (size 15 to 20)
#    1.500    1.500    0.000    1.500    0.000    4.000 
#    0.000    0.000    0.000    3.000    0.000    0.000 
#    0.000    0.000    0.000    0.000    0.000    0.000 
#
# Total GULP energy -44537.912615 kJ/mol
# GULP energy per Si atom -5567.239077 kJ/mol
# Density = 2.634511 g / cm^3
# Si number density = 26.405209 Si / 1000 Ang^3
#
#
#
# Elastic Constant Matrix: (Units=GPa)
#
#
# Indices 1 2 3 4 5 6 
#
# 1 89.2343 43.8050 38.4782 0.0661 -13.2769 23.6547
# 2 43.8050 240.7066 24.9752 25.1239 -11.6712 -29.6611
# 3 38.4782 24.9752 183.9950 -12.8072 -36.5615 10.1028
# 4 0.0661 25.1239 -12.8072 49.4180 -1.2557 -5.3911
# 5 -13.2769 -11.6712 -36.5615 -1.2557 31.4501 -3.5040
# 6 23.6547 -29.6611 10.1028 -5.3911 -3.5040 44.1780
#
#
#
# Elastic Compliance Matrix: (Units=1/GPa)
#
#
# Indices 1 2 3 4 5 6 
#
# 1 0.017651 -0.004392 -0.001973 0.000477 0.002242 -0.011713
# 2 -0.004392 0.006036 -0.000283 -0.002441 0.000653 0.006223
# 3 -0.001973 -0.000283 0.007646 0.002337 0.008048 0.000042
# 4 0.000477 -0.002441 0.002337 0.022213 0.002957 0.000517
# 5 0.002242 0.000653 0.008048 0.002957 0.042586 0.001136
# 6 -0.011713 0.006223 0.000042 0.000517 0.001136 0.033229
#
#
# Mechanical properties :
#
#
# Convention : Reuss Voigt Hill
#
# Bulk Modulus (GPa) = 55.44080 80.93919 68.19000
# Shear Modulus (GPa) = 33.63161 52.12105 42.87633
#
# Velocity S-wave (km/s) = 3.57273 4.44767 4.03399
# Velocity P-wave (km/s) = 6.16935 7.55612 6.89768
#
# Compressibility (1/GPa) = 0.01803726
#
# Stress axis : x y z
#
# Youngs Moduli (GPa) = 56.65250 165.66476 130.79426
#
# Poissons Ratio (x) = 0.72759 0.25812
# Poissons Ratio (y) = 0.24881 0.03697
# Poissons Ratio (z) = 0.11180 0.04683
#
# Static dielectric constant tensor:
#      x y z
#    x 1.843260 -0.058650 0.079390 
#    y -0.058650 2.105900 -0.043140 
#    z 0.079390 -0.043140 2.058940 
# 
# From -- ./inp_files/1794.got.cif
#   From: 2010.05.17/outbox.cif.g08.bks.cpg/sg2_1_cif.got.tgz:1794.got - 2010.06.03 11:33:40.
