data_PCOD9062056
_publ_section_title
;
Structure prediction by ZEFSAII (Michael W. Deem and Ramdas Pophale) SiO2 
 PCOD9062056
Probable space group: P -1
;
_chemical_formula_sum "Si O2"
_cell_formula_units_Z 16
_cell_length_a 8.916415
_cell_length_b 12.329242
_cell_length_c 8.948895
_cell_angle_alpha 75.613653
_cell_angle_beta 59.698394
_cell_angle_gamma 56.507124
_cell_volume 707.725027
_symmetry_space_group_name_H-M "P -1"
_symmetry_group_IT_number 2
_symmetry_cell_setting 'triclinic'
loop_
_space_group_symop_operation_xyz
x,y,z
-x,-y,-z
loop_
_atom_site_type_symbol
_atom_site_label
_atom_site_fract_x
_atom_site_fract_y
_atom_site_fract_z
Si Si1 0.772719 0.090900 0.517678
Si Si2 0.486691 0.027393 0.174564
Si Si3 0.862489 0.980190 0.192790
Si Si4 0.030456 0.458195 0.827783
Si Si5 0.470922 0.391048 0.633126
Si Si6 0.557060 0.507004 0.801225
Si Si7 0.005068 0.708108 0.311464
Si Si8 0.712068 0.689454 0.696235
O O1 0.654333 0.243414 0.572675
O O2 0.644456 0.028226 0.666533
O O3 0.777512 0.082132 0.337245
O O4 0.000000 0.000000 0.500000
O O5 0.389432 0.181009 0.198758
O O6 0.693090 0.971134 0.184635
O O7 0.500000 0.000000 0.000000
O O8 0.990728 0.844422 0.261205
O O9 0.000000 0.000000 0.000000
O O10 0.261845 0.404927 0.686527
O O11 0.992018 0.342767 0.840112
O O12 0.882467 0.575269 0.752616
O O13 0.000000 0.500000 0.000000
O O14 0.500000 0.500000 0.500000
O O15 0.434070 0.452862 0.794899
O O16 0.559302 0.640957 0.737089
O O17 0.787162 0.398918 0.683004
O O18 0.500000 0.500000 0.000000
O O19 0.823096 0.715194 0.495137
#
# Coordination Sequence:
#
# PCOD9062056 Si02
#       8
#     2   2   2   2   2   2   2   2
#     4  12  28  50  78 113 154 202 253 317 385 459
#     4  12  29  48  78 108 150 201 259 313 384 461
#     4  12  28  49  75 109 150 199 256 318 382 458
#     4  11  25  43  71 107 141 188 244 308 367 449
#     4  12  26  42  73 104 145 183 243 301 370 439
#     4  11  25  42  70 106 141 186 234 304 366 446
#     4  11  23  47  70  98 144 194 242 297 380 452
#     4  11  25  47  74 100 148 196 246 298 386 449
#
# _framework density 22.607648999999999
#
# number of rings (size 3 to 8) (size 9 to 14) (size 15 to 20)
#    0.000    0.500    1.250    7.125   12.250    1.000 
#    0.000    0.000    0.000    0.000    0.000    0.000 
#    0.000    0.000    0.000    0.000    0.000    0.000 
#
# Total GULP energy -89446.268159 kJ/mol
# GULP energy per Si atom -5590.391760 kJ/mol
# Density = 2.255619 g / cm^3
# Si number density = 22.607649 Si / 1000 Ang^3
#
#
#
# Elastic Constant Matrix: (Units=GPa)
#
#
# Indices 1 2 3 4 5 6 
#
# 1 109.5582 35.4572 24.8617 5.1224 -0.4254 8.9357
# 2 35.4572 166.6493 34.3344 9.8086 -0.5684 11.4207
# 3 24.8617 34.3344 128.5545 0.8410 8.7517 16.0914
# 4 5.1224 9.8086 0.8410 34.7684 14.2083 2.6014
# 5 -0.4254 -0.5684 8.7517 14.2083 51.1050 2.0581
# 6 8.9357 11.4207 16.0914 2.6014 2.0581 36.3669
#
#
#
# Elastic Compliance Matrix: (Units=1/GPa)
#
#
# Indices 1 2 3 4 5 6 
#
# 1 0.010160 -0.001717 -0.001382 -0.001158 0.000676 -0.001301
# 2 -0.001717 0.006844 -0.001416 -0.001928 0.000881 -0.001013
# 3 -0.001382 -0.001416 0.008935 0.001363 -0.001809 -0.003164
# 4 -0.001158 -0.001928 0.001363 0.033442 -0.009499 -0.001568
# 5 0.000676 0.000881 -0.001809 -0.009499 0.022543 -0.000239
# 6 -0.001301 -0.001013 -0.003164 -0.001568 -0.000239 0.029661
#
#
# Mechanical properties :
#
#
# Convention : Reuss Voigt Hill
#
# Bulk Modulus (GPa) = 59.14649 66.00761 62.57705
# Shear Modulus (GPa) = 39.60354 45.12196 42.36275
#
# Velocity S-wave (km/s) = 4.18996 4.47236 4.33346
# Velocity P-wave (km/s) = 7.04462 7.47862 7.26486
#
# Compressibility (1/GPa) = 0.01690717
#
# Stress axis : x y z
#
# Youngs Moduli (GPa) = 98.42689 146.12039 111.92456
#
# Poissons Ratio (x) = 0.25094 0.15466
# Poissons Ratio (y) = 0.16903 0.15852
# Poissons Ratio (z) = 0.13601 0.20695
#
# Static dielectric constant tensor:
#      x y z
#    x 2.058240 0.017980 -0.034580 
#    y 0.017980 1.835080 -0.008480 
#    z -0.034580 -0.008480 1.753740 
# 
# From -- ./inp_files/186516.got.cif
#   From: 2010.05.17/outbox.cif.g08.bks.cpg/sg2_94_cif.got.tgz:186516.got - 2010.06.03 11:33:40.
