data_PCOD9062567
_publ_section_title
;
Structure prediction by ZEFSAII (Michael W. Deem and Ramdas Pophale) SiO2 
 PCOD9062567
Probable space group: P -1
;
_chemical_formula_sum "Si O2"
_cell_formula_units_Z 16
_cell_length_a 20.408891
_cell_length_b 18.206763
_cell_length_c 5.044509
_cell_angle_alpha 106.579944
_cell_angle_beta 74.461183
_cell_angle_gamma 158.077734
_cell_volume 670.695205
_symmetry_space_group_name_H-M "P -1"
_symmetry_group_IT_number 2
_symmetry_cell_setting 'triclinic'
loop_
_space_group_symop_operation_xyz
x,y,z
-x,-y,-z
loop_
_atom_site_type_symbol
_atom_site_label
_atom_site_fract_x
_atom_site_fract_y
_atom_site_fract_z
Si Si1 0.832620 0.590336 0.854319
Si Si2 0.632733 0.580298 0.592045
Si Si3 0.880045 0.538717 0.250858
Si Si4 0.197338 0.029950 0.838765
Si Si5 0.279020 0.960567 0.359069
Si Si6 0.539344 0.093407 0.304184
Si Si7 0.488486 0.296568 0.166724
Si Si8 0.181574 0.176585 0.837101
O O1 0.847301 0.576347 0.523435
O O2 0.843830 0.530258 0.983809
O O3 0.653919 0.447294 0.964018
O O4 0.003919 0.819947 0.954151
O O5 0.500000 0.500000 0.500000
O O6 0.559615 0.418890 0.463548
O O7 0.798754 0.761555 0.400848
O O8 0.679389 0.648740 0.912371
O O9 0.737805 0.329916 0.290996
O O10 0.085369 0.730011 0.249957
O O11 0.200571 0.104601 0.714761
O O12 0.241633 0.993611 0.626516
O O13 0.344621 0.197122 0.069165
O O14 0.405894 0.026609 0.395530
O O15 0.388612 0.115140 0.166699
O O16 0.500000 0.000000 0.500000
O O17 0.500000 0.000000 0.000000
O O18 0.000000 0.000000 0.000000
#
# Coordination Sequence:
#
# PCOD9062567 Si02
#       8
#     2   2   2   2   2   2   2   2
#     4  11  24  41  70 106 137 180 239 297 346 416
#     4  12  26  44  67  99 142 187 244 299 368 428
#     4  11  24  47  71 106 143 176 233 284 347 428
#     4  11  25  44  72 103 143 191 247 300 356 425
#     4  11  26  45  76 104 144 188 239 290 354 421
#     4  12  28  48  76 108 148 183 225 287 356 428
#     4  12  24  42  74  99 141 191 244 302 360 415
#     4  12  27  48  68 102 148 193 244 308 368 429
#
# _framework density 23.855844999999999
#
# number of rings (size 3 to 8) (size 9 to 14) (size 15 to 20)
#    0.000    0.500    3.750    3.750    3.500    3.000 
#    0.000    0.000    0.000    0.000    0.000    0.000 
#    0.000    0.000    0.000    0.000    0.000    0.000 
#
# Total GULP energy -89641.423777 kJ/mol
# GULP energy per Si atom -5602.588986 kJ/mol
# Density = 2.380155 g / cm^3
# Si number density = 23.855845 Si / 1000 Ang^3
#
#
#
# Elastic Constant Matrix: (Units=GPa)
#
#
# Indices 1 2 3 4 5 6 
#
# 1 100.4536 50.7568 14.9493 -8.8503 -0.0589 -14.3928
# 2 50.7568 199.1142 26.0114 -13.4050 -3.5884 4.0481
# 3 14.9493 26.0114 88.5601 -3.5682 -0.5856 2.0824
# 4 -8.8503 -13.4050 -3.5682 41.8041 -1.5233 -2.0429
# 5 -0.0589 -3.5884 -0.5856 -1.5233 35.3861 -10.4191
# 6 -14.3928 4.0481 2.0824 -2.0429 -10.4191 37.3184
#
#
#
# Elastic Compliance Matrix: (Units=1/GPa)
#
#
# Indices 1 2 3 4 5 6 
#
# 1 0.012681 -0.003023 -0.001301 0.001942 0.001488 0.005813
# 2 -0.003023 0.006060 -0.001184 0.001127 0.000152 -0.001653
# 3 -0.001301 -0.001184 0.011895 0.000299 -0.000232 -0.001086
# 4 0.001942 0.001127 0.000299 0.024913 0.001935 0.002514
# 5 0.001488 0.000152 -0.000232 0.001935 0.031114 0.009363
# 6 0.005813 -0.001653 -0.001086 0.002514 0.009363 0.032030
#
#
# Mechanical properties :
#
#
# Convention : Reuss Voigt Hill
#
# Bulk Modulus (GPa) = 50.97169 63.50700 57.23934
# Shear Modulus (GPa) = 36.69739 42.66239 39.67989
#
# Velocity S-wave (km/s) = 3.92637 4.23347 4.08281
# Velocity P-wave (km/s) = 6.47828 7.11163 6.80233
#
# Compressibility (1/GPa) = 0.01961874
#
# Stress axis : x y z
#
# Youngs Moduli (GPa) = 78.85858 165.02223 84.06698
#
# Poissons Ratio (x) = 0.49889 0.10939
# Poissons Ratio (y) = 0.23840 0.09956
# Poissons Ratio (z) = 0.10261 0.19543
#
# Static dielectric constant tensor:
#      x y z
#    x 1.893330 0.029650 0.000380 
#    y 0.029650 1.976090 -0.013000 
#    z 0.000380 -0.013000 1.904460 
# 
# From -- ./inp_files/120109.got.cif
#   From: 2010.05.17/outbox.cif.g08.bks.cpg/sg2_61_cif.got.tgz:120109.got - 2010.06.03 11:33:40.
