data_PCOD9062794
_publ_section_title
;
Structure prediction by ZEFSAII (Michael W. Deem and Ramdas Pophale) SiO2 
 PCOD9062794
Probable space group: P -1
;
_chemical_formula_sum "Si O2"
_cell_formula_units_Z 16
_cell_length_a 11.288551
_cell_length_b 7.836100
_cell_length_c 8.230613
_cell_angle_alpha 66.194606
_cell_angle_beta 90.816806
_cell_angle_gamma 85.783002
_cell_volume 663.548759
_symmetry_space_group_name_H-M "P -1"
_symmetry_group_IT_number 2
_symmetry_cell_setting 'triclinic'
loop_
_space_group_symop_operation_xyz
x,y,z
-x,-y,-z
loop_
_atom_site_type_symbol
_atom_site_label
_atom_site_fract_x
_atom_site_fract_y
_atom_site_fract_z
Si Si1 0.949231 0.550876 0.206657
Si Si2 0.922727 0.162686 0.215199
Si Si3 0.408471 0.644608 0.348404
Si Si4 0.681803 0.202659 0.009790
Si Si5 0.550674 0.974613 0.329753
Si Si6 0.848289 0.444508 0.586864
Si Si7 0.798243 0.867721 0.532106
Si Si8 0.830746 0.900936 0.896075
O O1 0.974901 0.361179 0.177750
O O2 0.902239 0.464107 0.404379
O O3 0.063863 0.650129 0.237667
O O4 0.853278 0.703208 0.068137
O O5 0.795971 0.233653 0.107782
O O6 0.031439 0.057839 0.156091
O O7 0.885447 0.018216 0.408830
O O8 0.500000 0.500000 0.500000
O O9 0.470200 0.835210 0.292736
O O10 0.275946 0.640315 0.416404
O O11 0.375578 0.625482 0.165528
O O12 0.576469 0.140825 0.145677
O O13 0.744194 0.040602 0.951269
O O14 0.683644 0.893802 0.405103
O O15 0.500000 0.000000 0.500000
O O16 0.836416 0.653175 0.578428
O O17 0.777966 0.892273 0.715191
#
# Coordination Sequence:
#
# PCOD9062794 Si02
#       8
#     2   2   2   2   2   2   2   2
#     4  11  25  42  72 101 146 182 231 291 347 421
#     4  11  24  42  71 106 142 188 234 282 354 419
#     4  12  26  46  75 100 141 186 238 288 353 409
#     4  11  27  45  72 103 143 180 239 289 354 421
#     4  11  25  49  71 100 136 186 237 296 348 412
#     4  11  25  45  67 102 145 186 231 285 356 414
#     4  11  24  43  67 102 144 185 234 288 348 421
#     4  12  24  43  70 105 145 183 230 288 356 419
#
# _framework density 24.112770000000001
#
# number of rings (size 3 to 8) (size 9 to 14) (size 15 to 20)
#    0.000    0.750    2.500    4.500    7.000    1.000 
#    0.000    0.625    0.000    0.000    0.000    0.000 
#    0.000    0.000    0.000    0.000    0.000    0.000 
#
# Total GULP energy -89282.382377 kJ/mol
# GULP energy per Si atom -5580.148899 kJ/mol
# Density = 2.405789 g / cm^3
# Si number density = 24.112770 Si / 1000 Ang^3
#
#
#
# Elastic Constant Matrix: (Units=GPa)
#
#
# Indices 1 2 3 4 5 6 
#
# 1 120.9745 7.2009 24.4145 -7.3355 8.0613 35.6209
# 2 7.2009 58.7574 4.5425 -6.3188 0.5868 -5.0755
# 3 24.4145 4.5425 93.6258 -5.1270 0.3235 -0.0401
# 4 -7.3355 -6.3188 -5.1270 28.5162 -1.4562 0.1531
# 5 8.0613 0.5868 0.3235 -1.4562 57.6778 6.3945
# 6 35.6209 -5.0755 -0.0401 0.1531 6.3945 28.1769
#
#
#
# Elastic Compliance Matrix: (Units=1/GPa)
#
#
# Indices 1 2 3 4 5 6 
#
# 1 0.015153 -0.002993 -0.003668 0.002691 0.000192 -0.019759
# 2 -0.002993 0.018355 0.000072 0.003247 -0.000483 0.007182
# 3 -0.003668 0.000072 0.011699 0.001149 -0.000042 0.004670
# 4 0.002691 0.003247 0.001149 0.036748 0.000868 -0.003212
# 5 0.000192 -0.000483 -0.000042 0.000868 0.017823 -0.004379
# 6 -0.019759 0.007182 0.004670 -0.003212 -0.004379 0.062780
#
#
# Mechanical properties :
#
#
# Convention : Reuss Voigt Hill
#
# Bulk Modulus (GPa) = 31.22075 38.40818 34.81447
# Shear Modulus (GPa) = 26.82249 38.68750 32.75500
#
# Velocity S-wave (km/s) = 3.33885 4.00989 3.68966
# Velocity P-wave (km/s) = 5.27634 6.11573 5.71148
#
# Compressibility (1/GPa) = 0.03202998
#
# Stress axis : x y z
#
# Youngs Moduli (GPa) = 65.99398 54.48208 85.47871
#
# Poissons Ratio (x) = 0.16305 0.31353
# Poissons Ratio (y) = 0.19750 -0.00619
# Poissons Ratio (z) = 0.24206 -0.00395
#
# Static dielectric constant tensor:
#      x y z
#    x 2.090100 0.051840 0.118370 
#    y 0.051840 1.970980 0.060950 
#    z 0.118370 0.060950 2.154720 
# 
# From -- ./inp_files/237165.got.cif
#   From: 2010.05.17/outbox.cif.g08.bks.cpg/sg2_119_cif.got.tgz:237165.got - 2010.06.03 11:33:40.
