data_PCOD9062424
_publ_section_title
;
Structure prediction by ZEFSAII (Michael W. Deem and Ramdas Pophale) SiO2 
 PCOD9062424
Probable space group: P -1
;
_chemical_formula_sum "Si O2"
_cell_formula_units_Z 16
_cell_length_a 9.123099
_cell_length_b 12.586350
_cell_length_c 8.608679
_cell_angle_alpha 105.660478
_cell_angle_beta 127.364043
_cell_angle_gamma 63.813595
_cell_volume 705.018412
_symmetry_space_group_name_H-M "P -1"
_symmetry_group_IT_number 2
_symmetry_cell_setting 'triclinic'
loop_
_space_group_symop_operation_xyz
x,y,z
-x,-y,-z
loop_
_atom_site_type_symbol
_atom_site_label
_atom_site_fract_x
_atom_site_fract_y
_atom_site_fract_z
Si Si1 0.621882 0.105897 0.090810
Si Si2 0.650746 0.687498 0.566294
Si Si3 0.984466 0.151442 0.416906
Si Si4 0.625782 0.920487 0.806222
Si Si5 0.969409 0.450437 0.796191
Si Si6 0.822668 0.042013 0.779313
Si Si7 0.210247 0.752599 0.362767
Si Si8 0.280239 0.277920 0.721064
O O1 0.773895 0.174013 0.207383
O O2 0.559600 0.086688 0.217994
O O3 0.430485 0.180233 0.893911
O O4 0.718064 0.973399 0.028208
O O5 0.708734 0.793406 0.724581
O O6 0.816209 0.560338 0.649943
O O7 0.445874 0.696314 0.520997
O O8 0.621457 0.703753 0.368177
O O9 0.917866 0.155400 0.553494
O O10 0.101161 0.240264 0.526903
O O11 0.124901 0.036955 0.372628
O O12 0.637508 0.014986 0.722435
O O13 0.880099 0.349099 0.734274
O O14 0.169722 0.391159 0.802445
O O15 0.000000 0.500000 0.000000
O O16 0.799327 0.173147 0.769311
O O17 0.000000 0.000000 0.000000
#
# Coordination Sequence:
#
# PCOD9062424 Si02
#       8
#     2   2   2   2   2   2   2   2
#     4  11  24  44  66 108 147 193 229 290 359 435
#     4  12  24  47  72 105 144 184 246 293 346 426
#     4  11  24  43  68 102 149 185 232 285 358 432
#     4  11  24  40  70 104 149 183 230 291 355 424
#     4  11  27  49  76  97 137 193 244 295 356 419
#     4  12  25  40  67 111 146 182 235 290 357 430
#     4  11  27  45  72 101 141 190 234 293 363 420
#     4  11  26  45  75 102 144 184 242 296 365 411
#
# _framework density 22.694443
#
# number of rings (size 3 to 8) (size 9 to 14) (size 15 to 20)
#    0.000    0.750    3.750    2.625    7.000    1.000 
#    0.000    0.625    0.000    0.000    0.000    0.000 
#    0.000    0.000    0.000    0.000    0.000    0.000 
#
# Total GULP energy -89223.983442 kJ/mol
# GULP energy per Si atom -5576.498965 kJ/mol
# Density = 2.264279 g / cm^3
# Si number density = 22.694443 Si / 1000 Ang^3
#
#
#
# Elastic Constant Matrix: (Units=GPa)
#
#
# Indices 1 2 3 4 5 6 
#
# 1 141.5506 39.8485 37.8571 2.3118 -27.3011 -8.8586
# 2 39.8485 108.9692 50.8364 1.3599 -25.2326 -0.8095
# 3 37.8571 50.8364 102.7695 11.8667 -9.6366 -9.1468
# 4 2.3118 1.3599 11.8667 40.1607 -3.2418 -3.1254
# 5 -27.3011 -25.2326 -9.6366 -3.2418 36.6638 5.0881
# 6 -8.8586 -0.8095 -9.1468 -3.1254 5.0881 33.7654
#
#
#
# Elastic Compliance Matrix: (Units=1/GPa)
#
#
# Indices 1 2 3 4 5 6 
#
# 1 0.009053 -0.000971 -0.002346 0.000715 0.005385 0.000971
# 2 -0.000971 0.014350 -0.006450 0.001913 0.007999 -0.002686
# 3 -0.002346 -0.006450 0.014213 -0.003858 -0.003237 0.003211
# 4 0.000715 0.001913 -0.003858 0.026267 0.002995 0.001168
# 5 0.005385 0.007999 -0.003237 0.002995 0.036834 -0.004546
# 6 0.000971 -0.002686 0.003211 0.001168 -0.004546 0.031469
#
#
# Mechanical properties :
#
#
# Convention : Reuss Voigt Hill
#
# Bulk Modulus (GPa) = 55.30559 67.81924 61.56241
# Shear Modulus (GPa) = 31.69615 37.10114 34.39864
#
# Velocity S-wave (km/s) = 3.74123 4.04767 3.89746
# Velocity P-wave (km/s) = 6.56391 7.19676 6.88761
#
# Compressibility (1/GPa) = 0.01808136
#
# Stress axis : x y z
#
# Youngs Moduli (GPa) = 110.46070 69.68787 70.35767
#
# Poissons Ratio (x) = 0.06767 0.16504
# Poissons Ratio (y) = 0.10726 0.45384
# Poissons Ratio (z) = 0.25911 0.44952
#
# Static dielectric constant tensor:
#      x y z
#    x 1.911180 -0.031610 0.029170 
#    y -0.031610 1.859320 -0.029420 
#    z 0.029170 -0.029420 1.928940 
# 
# From -- ./inp_files/189559.got.cif
#   From: 2010.05.17/outbox.cif.g08.bks.cpg/sg2_95_cif.got.tgz:189559.got - 2010.06.03 11:33:40.
