data_PCOD9062904
_publ_section_title
;
Structure prediction by ZEFSAII (Michael W. Deem and Ramdas Pophale) SiO2 
 PCOD9062904
Probable space group: P -1
;
_chemical_formula_sum "Si O2"
_cell_formula_units_Z 16
_cell_length_a 9.894687
_cell_length_b 9.516108
_cell_length_c 11.154498
_cell_angle_alpha 89.917438
_cell_angle_beta 87.286820
_cell_angle_gamma 133.817500
_cell_volume 756.136381
_symmetry_space_group_name_H-M "P -1"
_symmetry_group_IT_number 2
_symmetry_cell_setting 'triclinic'
loop_
_space_group_symop_operation_xyz
x,y,z
-x,-y,-z
loop_
_atom_site_type_symbol
_atom_site_label
_atom_site_fract_x
_atom_site_fract_y
_atom_site_fract_z
Si Si1 0.752272 0.042528 0.860248
Si Si2 0.534851 0.151742 0.784599
Si Si3 0.353579 0.714501 0.489819
Si Si4 0.898302 0.720077 0.566523
Si Si5 0.743498 0.909793 0.595631
Si Si6 0.168390 0.750550 0.705588
Si Si7 0.902600 0.533018 0.099368
Si Si8 0.522317 0.349953 0.987621
O O1 0.636392 0.105383 0.858983
O O2 0.962419 0.237513 0.885150
O O3 0.739009 0.968800 0.728456
O O4 0.655454 0.863882 0.953724
O O5 0.625745 0.223417 0.648796
O O6 0.549944 0.309989 0.852299
O O7 0.321043 0.948527 0.773181
O O8 0.217511 0.482567 0.496318
O O9 0.555256 0.816643 0.533727
O O10 0.264620 0.769004 0.577827
O O11 0.769053 0.760369 0.599240
O O12 0.989462 0.714900 0.680182
O O13 0.074203 0.899671 0.480568
O O14 0.117301 0.573771 0.780011
O O15 0.700952 0.432581 0.059097
O O16 0.000000 0.500000 0.000000
O O17 0.500000 0.500000 0.000000
#
# Coordination Sequence:
#
# PCOD9062904 Si02
#       8
#     2   2   2   2   2   2   2   2
#     4  12  24  46  76  97 137 183 234 282 344 409
#     4  12  23  44  74  99 137 185 228 285 337 406
#     4  12  23  43  70  99 140 184 229 274 350 407
#     4  11  25  40  63 105 144 173 229 278 340 412
#     4  11  24  43  66 102 141 183 219 285 348 408
#     4  12  23  44  72 104 137 182 236 284 335 416
#     4  12  25  45  75 100 134 183 233 286 342 401
#     4  12  29  48  70 104 139 178 235 289 345 407
#
# _framework density 21.160205000000001
#
# number of rings (size 3 to 8) (size 9 to 14) (size 15 to 20)
#    0.000    0.250    5.000    4.500    1.750    1.500 
#    2.250    0.000    0.000    0.000    0.000    0.000 
#    0.000    0.000    0.000    0.000    0.000    0.000 
#
# Total GULP energy -89631.545953 kJ/mol
# GULP energy per Si atom -5601.971622 kJ/mol
# Density = 2.111204 g / cm^3
# Si number density = 21.160205 Si / 1000 Ang^3
#
#
#
# Elastic Constant Matrix: (Units=GPa)
#
#
# Indices 1 2 3 4 5 6 
#
# 1 72.1932 28.8498 14.5967 -9.7937 -1.6124 -29.7378
# 2 28.8498 122.4059 25.9564 7.8132 13.4629 -4.4552
# 3 14.5967 25.9564 87.9335 -6.6542 -0.4174 -10.3997
# 4 -9.7937 7.8132 -6.6542 32.0380 -7.0690 -3.4065
# 5 -1.6124 13.4629 -0.4174 -7.0690 16.4327 5.8003
# 6 -29.7378 -4.4552 -10.3997 -3.4065 5.8003 35.8223
#
#
#
# Elastic Compliance Matrix: (Units=1/GPa)
#
#
# Indices 1 2 3 4 5 6 
#
# 1 0.028649 -0.008061 0.001587 0.015254 0.007745 0.023438
# 2 -0.008061 0.012898 -0.003874 -0.010034 -0.014046 -0.004892
# 3 0.001587 -0.003874 0.013232 0.005651 0.004514 0.004483
# 4 0.015254 -0.010034 0.005651 0.046464 0.025116 0.013407
# 5 0.007745 -0.014046 0.004514 0.025116 0.085997 -0.005543
# 6 0.023438 -0.004892 0.004483 0.013407 -0.005543 0.050238
#
#
# Mechanical properties :
#
#
# Convention : Reuss Voigt Hill
#
# Bulk Modulus (GPa) = 29.34051 46.81537 38.07794
# Shear Modulus (GPa) = 18.55055 31.06725 24.80890
#
# Velocity S-wave (km/s) = 2.96408 3.83586 3.42779
# Velocity P-wave (km/s) = 5.06066 6.46457 5.80521
#
# Compressibility (1/GPa) = 0.03408256
#
# Stress axis : x y z
#
# Youngs Moduli (GPa) = 34.90524 77.53058 75.57710
#
# Poissons Ratio (x) = 0.62499 -0.11993
# Poissons Ratio (y) = 0.28138 0.29276
# Poissons Ratio (z) = -0.05539 0.30033
#
# Static dielectric constant tensor:
#      x y z
#    x 1.737730 0.003480 -0.003560 
#    y 0.003480 1.765000 -0.026670 
#    z -0.003560 -0.026670 1.763120 
# 
# From -- ./inp_files/187302.got.cif
#   From: 2010.05.17/outbox.cif.g08.bks.cpg/sg2_94_cif.got.tgz:187302.got - 2010.06.03 11:33:40.
