data_PCOD9062738
_publ_section_title
;
Structure prediction by ZEFSAII (Michael W. Deem and Ramdas Pophale) SiO2 
 PCOD9062738
Probable space group: P -1
;
_chemical_formula_sum "Si O2"
_cell_formula_units_Z 16
_cell_length_a 8.949471
_cell_length_b 17.068087
_cell_length_c 6.668539
_cell_angle_alpha 100.562407
_cell_angle_beta 130.602510
_cell_angle_gamma 81.808836
_cell_volume 759.910151
_symmetry_space_group_name_H-M "P -1"
_symmetry_group_IT_number 2
_symmetry_cell_setting 'triclinic'
loop_
_space_group_symop_operation_xyz
x,y,z
-x,-y,-z
loop_
_atom_site_type_symbol
_atom_site_label
_atom_site_fract_x
_atom_site_fract_y
_atom_site_fract_z
Si Si1 0.097669 0.860055 0.983557
Si Si2 0.834804 0.672405 0.126942
Si Si3 0.934898 0.083675 0.588429
Si Si4 0.771977 0.822281 0.369064
Si Si5 0.460545 0.583657 0.614669
Si Si6 0.177121 0.687949 0.123884
Si Si7 0.123739 0.579946 0.634779
Si Si8 0.598772 0.077935 0.030978
O O1 0.050757 0.912941 0.161103
O O2 0.211379 0.776825 0.108009
O O3 0.225239 0.914464 0.973005
O O4 0.899863 0.831915 0.685296
O O5 0.722241 0.736892 0.199656
O O6 0.972107 0.697740 0.073180
O O7 0.991116 0.634940 0.399784
O O8 0.671167 0.615642 0.874103
O O9 0.081006 0.146383 0.657054
O O10 0.713851 0.110048 0.340993
O O11 0.000000 0.000000 0.500000
O O12 0.577460 0.875947 0.211653
O O13 0.500000 0.500000 0.500000
O O14 0.341925 0.647950 0.397836
O O15 0.328979 0.568689 0.690274
O O16 0.151960 0.625198 0.890781
O O17 0.000000 0.500000 0.500000
O O18 0.500000 0.000000 0.000000
#
# Coordination Sequence:
#
# PCOD9062738 Si02
#       8
#     2   2   2   2   2   2   2   2
#     4  11  26  44  72 100 139 182 229 284 353 405
#     4  11  24  42  69  96 138 177 227 284 341 402
#     4  11  24  48  69  97 140 177 222 286 344 413
#     4  11  24  44  67  99 134 175 230 283 343 406
#     4  11  26  43  68 103 140 180 229 284 341 404
#     4  11  24  44  67 101 136 180 229 281 344 403
#     4  11  24  44  68  95 140 179 229 278 338 410
#     4  11  26  45  68 103 137 174 230 281 343 411
#
# _framework density 21.055119999999999
#
# number of rings (size 3 to 8) (size 9 to 14) (size 15 to 20)
#    0.000    1.000    3.750    1.500    3.500    9.500 
#    0.000    0.000    0.000    0.000    0.000    0.000 
#    0.000    0.000    0.000    0.000    0.000    0.000 
#
# Total GULP energy -89255.775033 kJ/mol
# GULP energy per Si atom -5578.485940 kJ/mol
# Density = 2.100720 g / cm^3
# Si number density = 21.055120 Si / 1000 Ang^3
#
#
#
# Elastic Constant Matrix: (Units=GPa)
#
#
# Indices 1 2 3 4 5 6 
#
# 1 17.9378 -33.0590 -2.4911 7.4186 -19.2868 -0.7535
# 2 -33.0590 4.7116 -50.3961 10.6616 -27.6529 -16.3694
# 3 -2.4911 -50.3961 52.0429 17.7365 -21.9898 -21.1810
# 4 7.4186 10.6616 17.7365 38.9175 -4.7759 -2.2052
# 5 -19.2868 -27.6529 -21.9898 -4.7759 41.9120 0.1381
# 6 -0.7535 -16.3694 -21.1810 -2.2052 0.1381 31.2500
#
#
#
# Elastic Compliance Matrix: (Units=1/GPa)
#
#
# Indices 1 2 3 4 5 6 
#
# 1 0.031933 -0.010486 -0.016102 0.003220 -0.000255 -0.015409
# 2 -0.010486 0.000219 -0.006550 0.003739 -0.007677 -0.004280
# 3 -0.016102 -0.006550 0.011613 -0.000907 -0.005755 0.004013
# 4 0.003220 0.003739 -0.000907 0.025432 0.006360 0.003188
# 5 -0.000255 -0.007677 -0.005755 0.006360 0.016407 -0.007552
# 6 -0.015409 -0.004280 0.004013 0.003188 -0.007552 0.032365
#
#
# Mechanical properties :
#
#
# Convention : Reuss Voigt Hill
#
# Bulk Modulus (GPa) = -44.42150 -10.80001 -27.61076
# Shear Modulus (GPa) = 28.28980 33.12512 30.70746
#
# Velocity S-wave (km/s) = 3.66950 3.97073 3.82309
# Velocity P-wave (km/s) = 1.78602 3.98519 2.51912
#
# Compressibility (1/GPa) = -0.02251162
#
# Stress axis : x y z
#
# Youngs Moduli (GPa) = 31.31545 4562.30977 86.11270
#
# Poissons Ratio (x) = 47.84244 1.38660
# Poissons Ratio (y) = 0.32839 0.56401
# Poissons Ratio (z) = 0.50425 29.88171
#
# Static dielectric constant tensor:
#      x y z
#    x 1.926740 -0.172690 0.138570 
#    y -0.172690 1.986990 -0.150040 
#    z 0.138570 -0.150040 1.892600 
# 
# From -- ./inp_files/48448.got.cif
#   From: 2010.05.17/outbox.cif.g08.bks.cpg/sg2_25_cif.got.tgz:48448.got - 2010.06.03 11:33:40.
