data_PCOD9062022
_publ_section_title
;
Structure prediction by ZEFSAII (Michael W. Deem and Ramdas Pophale) SiO2 
 PCOD9062022
Probable space group: P -1
;
_chemical_formula_sum "Si O2"
_cell_formula_units_Z 16
_cell_length_a 22.956395
_cell_length_b 9.144266
_cell_length_c 21.060961
_cell_angle_alpha 150.640479
_cell_angle_beta 158.519942
_cell_angle_gamma 39.302438
_cell_volume 776.493395
_symmetry_space_group_name_H-M "P -1"
_symmetry_group_IT_number 2
_symmetry_cell_setting 'triclinic'
loop_
_space_group_symop_operation_xyz
x,y,z
-x,-y,-z
loop_
_atom_site_type_symbol
_atom_site_label
_atom_site_fract_x
_atom_site_fract_y
_atom_site_fract_z
Si Si1 0.184949 0.866643 0.187416
Si Si2 0.804530 0.606960 0.693444
Si Si3 0.094604 0.224608 0.484636
Si Si4 0.217384 0.204235 0.962108
Si Si5 0.697044 0.785663 0.432880
Si Si6 0.706179 0.012441 0.297272
Si Si7 0.338865 0.917567 0.862752
Si Si8 0.468784 0.727329 0.610095
O O1 0.242341 0.561693 0.110519
O O2 0.249965 0.120616 0.296591
O O3 0.242544 0.008700 0.367403
O O4 0.989268 0.763239 0.957112
O O5 0.808128 0.342508 0.545320
O O6 0.682524 0.447519 0.565090
O O7 0.178756 0.230273 0.504309
O O8 0.000000 0.500000 0.500000
O O9 0.226179 0.208528 0.668378
O O10 0.956605 0.917543 0.229276
O O11 0.366323 0.175585 0.146721
O O12 0.217810 0.994661 0.821615
O O13 0.652291 0.432823 0.274291
O O14 0.568545 0.960191 0.337188
O O15 0.710822 0.944862 0.201571
O O16 0.517278 0.040315 0.120667
O O17 0.500000 0.500000 0.500000
#
# Coordination Sequence:
#
# PCOD9062022 Si02
#       8
#     2   2   2   2   2   2   2   2
#     4  11  25  44  72  97 133 180 231 282 339 408
#     4  11  23  47  68  95 135 182 226 281 343 402
#     4  12  26  43  68 101 140 180 222 283 343 412
#     4  12  24  44  66 102 136 176 230 284 342 400
#     4  12  24  44  70 100 138 180 226 280 346 412
#     4  11  23  47  68  95 135 182 226 281 343 402
#     4  11  25  44  72  97 133 180 231 282 339 408
#     4  12  26  43  68 101 140 180 222 283 343 412
#
# _framework density 20.605454999999999
#
# number of rings (size 3 to 8) (size 9 to 14) (size 15 to 20)
#    0.000    0.500    7.500    0.000    3.500    3.000 
#    9.000    0.000    0.000    0.000    0.000    0.000 
#    0.000    0.000    0.000    0.000    0.000    0.000 
#
# Total GULP energy -89239.482266 kJ/mol
# GULP energy per Si atom -5577.467642 kJ/mol
# Density = 2.055856 g / cm^3
# Si number density = 20.605455 Si / 1000 Ang^3
#
#
#
# Elastic Constant Matrix: (Units=GPa)
#
#
# Indices 1 2 3 4 5 6 
#
# 1 69.9351 9.2684 9.2263 -8.5540 -10.3621 5.6380
# 2 9.2684 110.4250 9.4199 7.9594 -18.5624 8.3989
# 3 9.2263 9.4199 61.4675 -8.0037 -5.3564 16.9490
# 4 -8.5540 7.9594 -8.0037 31.0266 -1.8449 -8.0776
# 5 -10.3621 -18.5624 -5.3564 -1.8449 18.9275 2.9477
# 6 5.6380 8.3989 16.9490 -8.0776 2.9477 31.9890
#
#
#
# Elastic Compliance Matrix: (Units=1/GPa)
#
#
# Indices 1 2 3 4 5 6 
#
# 1 0.016538 0.000207 -0.000363 0.004328 0.009981 -0.002604
# 2 0.000207 0.011713 0.000215 -0.003534 0.012131 -0.005236
# 3 -0.000363 0.000215 0.020283 0.002734 0.007694 -0.010758
# 4 0.004328 -0.003534 0.002734 0.037222 0.002072 0.007925
# 5 0.009981 0.012131 0.007694 0.002072 0.074974 -0.015406
# 6 -0.002604 -0.005236 -0.010758 0.007925 -0.015406 0.042215
#
#
# Mechanical properties :
#
#
# Convention : Reuss Voigt Hill
#
# Bulk Modulus (GPa) = 20.55467 33.07299 26.81383
# Shear Modulus (GPa) = 22.82657 30.64949 26.73803
#
# Velocity S-wave (km/s) = 3.33196 3.86093 3.60616
# Velocity P-wave (km/s) = 4.97992 5.99676 5.51184
#
# Compressibility (1/GPa) = 0.04865075
#
# Stress axis : x y z
#
# Youngs Moduli (GPa) = 60.46809 85.37887 49.30220
#
# Poissons Ratio (x) = -0.01765 0.01788
# Poissons Ratio (y) = -0.01250 -0.01058
# Poissons Ratio (z) = 0.02193 -0.01833
#
# Static dielectric constant tensor:
#      x y z
#    x 1.746100 0.029690 0.027540 
#    y 0.029690 1.799560 0.002460 
#    z 0.027540 0.002460 1.721740 
# 
# From -- ./inp_files/239321.got.cif
#   From: 2010.05.17/outbox.cif.g08.bks.cpg/sg2_120_cif.got.tgz:239321.got - 2010.06.03 11:33:40.
