data_PCOD9062653
_publ_section_title
;
Structure prediction by ZEFSAII (Michael W. Deem and Ramdas Pophale) SiO2 
 PCOD9062653
Probable space group: P -1
;
_chemical_formula_sum "Si O2"
_cell_formula_units_Z 16
_cell_length_a 11.255786
_cell_length_b 22.245277
_cell_length_c 6.349034
_cell_angle_alpha 112.904699
_cell_angle_beta 100.287304
_cell_angle_gamma 32.380389
_cell_volume 747.046825
_symmetry_space_group_name_H-M "P -1"
_symmetry_group_IT_number 2
_symmetry_cell_setting 'triclinic'
loop_
_space_group_symop_operation_xyz
x,y,z
-x,-y,-z
loop_
_atom_site_type_symbol
_atom_site_label
_atom_site_fract_x
_atom_site_fract_y
_atom_site_fract_z
Si Si1 0.109376 0.057547 0.607237
Si Si2 0.431728 0.088526 0.261784
Si Si3 0.320505 0.530700 0.399902
Si Si4 0.943112 0.682741 0.834545
Si Si5 0.834044 0.092379 0.875688
Si Si6 0.946896 0.778686 0.341936
Si Si7 0.624172 0.629450 0.990646
Si Si8 0.052396 0.496060 0.749218
O O1 0.000431 0.169553 0.604103
O O2 0.947785 0.099539 0.790141
O O3 0.342350 0.979355 0.675161
O O4 0.165688 0.973100 0.351862
O O5 0.269531 0.214101 0.254440
O O6 0.282969 0.126920 0.459908
O O7 0.500000 0.000000 0.000000
O O8 0.500000 0.500000 0.500000
O O9 0.427943 0.420980 0.153219
O O10 0.173517 0.574497 0.615660
O O11 0.146994 0.649085 0.353488
O O12 0.948130 0.617340 0.894446
O O13 0.928816 0.752580 0.073803
O O14 0.564686 0.238921 0.008303
O O15 0.000000 0.000000 0.000000
O O16 0.886946 0.520847 0.846652
O O17 0.680187 0.623071 0.243815
O O18 0.000000 0.500000 0.500000
#
# Coordination Sequence:
#
# PCOD9062653 Si02
#       8
#     2   2   2   2   2   2   2   2
#     4  11  27  47  66 102 136 184 237 274 351 412
#     4  11  25  40  71 104 135 177 226 289 348 407
#     4  11  26  43  66 104 137 181 225 284 349 414
#     4  11  24  42  66 104 136 178 227 282 360 402
#     4  11  30  47  69  96 143 193 232 282 339 419
#     4  11  25  44  70 102 141 173 234 292 340 416
#     4  11  26  44  70 102 136 180 236 284 345 415
#     4  11  24  43  70  99 137 176 228 292 343 404
#
# _framework density 21.417666000000001
#
# number of rings (size 3 to 8) (size 9 to 14) (size 15 to 20)
#    0.000    1.000    3.750    0.375   10.500    2.500 
#    0.000    0.000    0.000    0.000    0.000    0.000 
#    0.000    0.000    0.000    0.000    0.000    0.000 
#
# Total GULP energy -89344.772676 kJ/mol
# GULP energy per Si atom -5584.048292 kJ/mol
# Density = 2.136892 g / cm^3
# Si number density = 21.417666 Si / 1000 Ang^3
#
#
#
# Elastic Constant Matrix: (Units=GPa)
#
#
# Indices 1 2 3 4 5 6 
#
# 1 91.3197 21.9885 27.1324 -4.7155 23.3049 16.2495
# 2 21.9885 106.4849 31.6370 -14.2490 11.1765 4.6753
# 3 27.1324 31.6370 82.6379 -10.9951 13.8690 -11.6362
# 4 -4.7155 -14.2490 -10.9951 29.6410 0.7537 7.2693
# 5 23.3049 11.1765 13.8690 0.7537 23.5589 -9.9259
# 6 16.2495 4.6753 -11.6362 7.2693 -9.9259 39.6835
#
#
#
# Elastic Compliance Matrix: (Units=1/GPa)
#
#
# Indices 1 2 3 4 5 6 
#
# 1 0.024041 0.001893 -0.005256 0.008681 -0.030654 -0.020866
# 2 0.001893 0.012226 -0.003966 0.006555 -0.008357 -0.006670
# 3 -0.005256 -0.003966 0.016519 0.001594 0.000366 0.007263
# 4 0.008681 0.006555 0.001594 0.043612 -0.021264 -0.017167
# 5 -0.030654 -0.008357 0.000366 -0.021264 0.094555 0.041190
# 6 -0.020866 -0.006670 0.007263 -0.017167 0.041190 0.050107
#
#
# Mechanical properties :
#
#
# Convention : Reuss Voigt Hill
#
# Bulk Modulus (GPa) = 26.22935 49.10649 37.66792
# Shear Modulus (GPa) = 18.62707 31.88898 25.25802
#
# Velocity S-wave (km/s) = 2.95228 3.86283 3.43783
# Velocity P-wave (km/s) = 4.88819 6.54775 5.77787
#
# Compressibility (1/GPa) = 0.03812523
#
# Stress axis : x y z
#
# Youngs Moduli (GPa) = 41.59588 81.79482 60.53784
#
# Poissons Ratio (x) = -0.15481 0.31821
# Poissons Ratio (y) = -0.07873 0.24011
# Poissons Ratio (z) = 0.21864 0.32442
#
# Static dielectric constant tensor:
#      x y z
#    x 1.790890 0.016720 -0.046330 
#    y 0.016720 1.906860 -0.078540 
#    z -0.046330 -0.078540 1.904940 
# 
# From -- ./inp_files/84533.got.cif
#   From: 2010.05.17/outbox.cif.g08.bks.cpg/sg2_43_cif.got.tgz:84533.got - 2010.06.03 11:33:40.
