data_PCOD9062758
_publ_section_title
;
Structure prediction by ZEFSAII (Michael W. Deem and Ramdas Pophale) SiO2 
 PCOD9062758
Probable space group: P -1
;
_chemical_formula_sum "Si O2"
_cell_formula_units_Z 16
_cell_length_a 21.132028
_cell_length_b 12.323142
_cell_length_c 9.070892
_cell_angle_alpha 141.090683
_cell_angle_beta 69.514535
_cell_angle_gamma 140.454563
_cell_volume 737.149154
_symmetry_space_group_name_H-M "P -1"
_symmetry_group_IT_number 2
_symmetry_cell_setting 'triclinic'
loop_
_space_group_symop_operation_xyz
x,y,z
-x,-y,-z
loop_
_atom_site_type_symbol
_atom_site_label
_atom_site_fract_x
_atom_site_fract_y
_atom_site_fract_z
Si Si1 0.146093 0.765485 0.195953
Si Si2 0.127326 0.224207 0.054815
Si Si3 0.289679 0.890199 0.668073
Si Si4 0.643284 0.864448 0.806149
Si Si5 0.781564 0.943908 0.244840
Si Si6 0.865481 0.667412 0.182121
Si Si7 0.605123 0.130104 0.954016
Si Si8 0.502304 0.191624 0.618555
O O1 0.244738 0.995846 0.222174
O O2 0.194337 0.981537 0.522875
O O3 0.152135 0.577200 0.041687
O O4 0.000000 0.500000 0.000000
O O5 0.233410 0.578410 0.414858
O O6 0.142009 0.051955 0.875205
O O7 0.130327 0.276092 0.933746
O O8 0.000000 0.000000 0.000000
O O9 0.192103 0.815041 0.597377
O O10 0.398323 0.088776 0.670225
O O11 0.338611 0.086197 0.982612
O O12 0.500000 0.500000 0.500000
O O13 0.649938 0.071559 0.957967
O O14 0.637065 0.573602 0.938149
O O15 0.742389 0.498903 0.174809
O O16 0.000000 0.000000 0.500000
O O17 0.534898 0.916990 0.635987
O O18 0.500000 0.000000 0.000000
O O19 0.500000 0.000000 0.500000
#
# Coordination Sequence:
#
# PCOD9062758 Si02
#       8
#     2   2   2   2   2   2   2   2
#     4  11  25  45  71 103 140 187 238 290 362 427
#     4  12  28  45  72 104 138 189 243 291 357 424
#     4  12  24  46  72 103 144 180 241 296 349 429
#     4  11  25  44  67 101 141 182 232 296 352 417
#     4  12  25  45  74 101 140 188 233 295 363 424
#     4  11  24  47  69 101 146 186 236 299 356 427
#     4  11  24  42  70 103 140 185 237 288 353 424
#     4  12  22  43  73 106 143 185 235 293 360 423
#
# _framework density 21.705241000000001
#
# number of rings (size 3 to 8) (size 9 to 14) (size 15 to 20)
#    0.000    0.500    3.750    4.125    5.250    3.500 
#    0.000    0.000    0.000    0.000    0.000    0.000 
#    0.000    0.000    0.000    0.000    0.000    0.000 
#
# Total GULP energy -89441.103619 kJ/mol
# GULP energy per Si atom -5590.068976 kJ/mol
# Density = 2.165584 g / cm^3
# Si number density = 21.705241 Si / 1000 Ang^3
#
#
#
# Elastic Constant Matrix: (Units=GPa)
#
#
# Indices 1 2 3 4 5 6 
#
# 1 106.7299 48.3025 12.2739 -20.3210 -9.2382 25.3581
# 2 48.3025 159.2872 51.7225 -21.3032 13.2090 42.4330
# 3 12.2739 51.7225 119.9836 -23.6556 22.4962 21.6164
# 4 -20.3210 -21.3032 -23.6556 35.5922 -1.2840 2.2579
# 5 -9.2382 13.2090 22.4962 -1.2840 45.0355 0.3394
# 6 25.3581 42.4330 21.6164 2.2579 0.3394 51.0155
#
#
#
# Elastic Compliance Matrix: (Units=1/GPa)
#
#
# Indices 1 2 3 4 5 6 
#
# 1 0.013303 -0.002196 0.001664 0.007860 0.002810 -0.005858
# 2 -0.002196 0.009986 -0.001647 0.003966 -0.002393 -0.006676
# 3 0.001664 -0.001647 0.012376 0.008326 -0.005082 -0.005036
# 4 0.007860 0.003966 0.008326 0.041199 -0.002441 -0.012541
# 5 0.002810 -0.002393 -0.005082 -0.002441 0.025932 0.002683
# 6 -0.005858 -0.006676 -0.005036 -0.012541 0.002683 0.030738
#
#
# Mechanical properties :
#
#
# Convention : Reuss Voigt Hill
#
# Bulk Modulus (GPa) = 31.94061 67.84428 49.89245
# Shear Modulus (GPa) = 33.70934 44.57543 39.14238
#
# Velocity S-wave (km/s) = 3.94515 4.53666 4.25121
# Velocity P-wave (km/s) = 5.95818 7.66594 6.86537
#
# Compressibility (1/GPa) = 0.03130810
#
# Stress axis : x y z
#
# Youngs Moduli (GPa) = 75.16902 100.14082 80.80292
#
# Poissons Ratio (x) = 0.21988 -0.13444
# Poissons Ratio (y) = 0.16505 0.13305
# Poissons Ratio (z) = -0.12506 0.16489
#
# Static dielectric constant tensor:
#      x y z
#    x 1.820750 -0.017790 -0.032030 
#    y -0.017790 1.780210 0.021550 
#    z -0.032030 0.021550 1.790830 
# 
# From -- ./inp_files/346480.got.cif
#   From: 2010.05.17/outbox.cif.g08.bks.cpg/sg2_174_cif.got.tgz:346480.got - 2010.06.03 11:33:40.
