data_PCOD9062025
_publ_section_title
;
Structure prediction by ZEFSAII (Michael W. Deem and Ramdas Pophale) SiO2 
 PCOD9062025
Probable space group: P -1
;
_chemical_formula_sum "Si O2"
_cell_formula_units_Z 14
_cell_length_a 8.359648
_cell_length_b 14.622160
_cell_length_c 8.867669
_cell_angle_alpha 58.158019
_cell_angle_beta 47.279160
_cell_angle_gamma 49.983459
_cell_volume 601.795412
_symmetry_space_group_name_H-M "P -1"
_symmetry_group_IT_number 2
_symmetry_cell_setting 'triclinic'
loop_
_space_group_symop_operation_xyz
x,y,z
-x,-y,-z
loop_
_atom_site_type_symbol
_atom_site_label
_atom_site_fract_x
_atom_site_fract_y
_atom_site_fract_z
Si Si1 0.396444 0.294072 0.527580
Si Si2 0.963817 0.666238 0.030027
Si Si3 0.343374 0.060878 0.691592
Si Si4 0.828213 0.224985 0.733392
Si Si5 0.417198 0.642894 0.930627
Si Si6 0.734815 0.385037 0.388837
Si Si7 0.488067 0.890308 0.018745
O O1 0.414949 0.160698 0.629678
O O2 0.400244 0.333127 0.317320
O O3 0.622032 0.306485 0.444965
O O4 0.167471 0.371331 0.719110
O O5 0.746964 0.775956 0.984749
O O6 0.148202 0.701904 0.973558
O O7 0.123909 0.583612 0.861071
O O8 0.065282 0.135657 0.750677
O O9 0.500000 0.000000 0.500000
O O10 0.406398 0.947500 0.856934
O O11 0.879362 0.309051 0.508508
O O12 0.624883 0.307085 0.915900
O O13 0.718310 0.150109 0.775849
O O14 0.500000 0.500000 0.000000
O O15 0.500000 0.500000 0.500000
O O16 0.500000 0.000000 0.000000
#
# Coordination Sequence:
#
# PCOD9062025 Si02
#       7
#     2   2   2   2   2   2   2
#     4  11  23  48  68 101 142 179 233 280 348 422
#     4  11  23  47  69 100 143 179 233 283 340 428
#     4  12  25  43  68 105 138 186 233 287 353 403
#     4  12  23  45  66 107 139 177 242 295 328 427
#     4  11  25  46  72 103 141 179 228 293 350 408
#     4  11  25  45  70 101 140 184 234 286 347 413
#     4  12  23  43  68  99 139 187 227 282 353 407
#
# _framework density 23.263718999999998
#
# number of rings (size 3 to 8) (size 9 to 14) (size 15 to 20)
#    0.000    0.571    4.286    3.857    0.000    3.429 
#    5.143    5.000    0.000    0.000    0.000    0.000 
#    0.000    0.000    0.000    0.000    0.000    0.000 
#
# Total GULP energy -78161.141491 kJ/mol
# GULP energy per Si atom -5582.938678 kJ/mol
# Density = 2.321077 g / cm^3
# Si number density = 23.263719 Si / 1000 Ang^3
#
#
#
# Elastic Constant Matrix: (Units=GPa)
#
#
# Indices 1 2 3 4 5 6 
#
# 1 94.1292 27.9117 2.3357 -0.8982 -6.7134 -3.5217
# 2 27.9117 70.1249 11.6190 11.0752 -9.4036 -0.0079
# 3 2.3357 11.6190 162.8992 24.1107 10.3267 10.9025
# 4 -0.8982 11.0752 24.1107 38.7570 8.5292 -1.7513
# 5 -6.7134 -9.4036 10.3267 8.5292 32.2657 -0.7990
# 6 -3.5217 -0.0079 10.9025 -1.7513 -0.7990 32.8041
#
#
#
# Elastic Compliance Matrix: (Units=1/GPa)
#
#
# Indices 1 2 3 4 5 6 
#
# 1 0.012242 -0.005016 -0.000226 0.001765 0.000728 0.001500
# 2 -0.005016 0.018174 -0.000649 -0.006272 0.006106 -0.000504
# 3 -0.000226 -0.000649 0.007050 -0.003993 -0.001502 -0.002617
# 4 0.001765 -0.006272 -0.003993 0.032150 -0.008606 0.003022
# 5 0.000728 0.006106 -0.001502 -0.008606 0.035704 0.000989
# 6 0.001500 -0.000504 -0.002617 0.003022 0.000989 0.031700
#
#
# Mechanical properties :
#
#
# Convention : Reuss Voigt Hill
#
# Bulk Modulus (GPa) = 38.93604 45.65404 42.29504
# Shear Modulus (GPa) = 31.77396 39.78448 35.77922
#
# Velocity S-wave (km/s) = 3.69970 4.13988 3.92597
# Velocity P-wave (km/s) = 5.91807 6.52064 6.22665
#
# Compressibility (1/GPa) = 0.02568315
#
# Stress axis : x y z
#
# Youngs Moduli (GPa) = 81.68896 55.02433 141.85049
#
# Poissons Ratio (x) = 0.27601 0.03199
# Poissons Ratio (y) = 0.40976 0.09211
# Poissons Ratio (z) = 0.01842 0.03573
#
# Static dielectric constant tensor:
#      x y z
#    x 1.814840 0.064320 0.015600 
#    y 0.064320 1.932830 -0.068990 
#    z 0.015600 -0.068990 2.004630 
# 
# From -- ./inp_files/200065.got.cif
#   From: 2010.05.17/outbox.cif.g08.bks.cpg/sg2_101_cif.got.tgz:200065.got - 2010.06.03 11:33:40.
