data_PCOD9062236
_publ_section_title
;
Structure prediction by ZEFSAII (Michael W. Deem and Ramdas Pophale) SiO2 
 PCOD9062236
Probable space group: P -1
;
_chemical_formula_sum "Si O2"
_cell_formula_units_Z 13
_cell_length_a 11.089292
_cell_length_b 9.995610
_cell_length_c 7.878051
_cell_angle_alpha 136.617485
_cell_angle_beta 74.992735
_cell_angle_gamma 127.112728
_cell_volume 451.867565
_symmetry_space_group_name_H-M "P -1"
_symmetry_group_IT_number 2
_symmetry_cell_setting 'triclinic'
loop_
_space_group_symop_operation_xyz
x,y,z
-x,-y,-z
loop_
_atom_site_type_symbol
_atom_site_label
_atom_site_fract_x
_atom_site_fract_y
_atom_site_fract_z
Si Si1 0.176904 0.275162 0.146210
Si Si2 0.000000 0.500000 0.500000
Si Si3 0.239494 0.795307 0.238371
Si Si4 0.654069 0.446411 0.215825
Si Si5 0.517636 0.669816 0.299309
Si Si6 0.290967 0.991470 0.013885
Si Si7 0.997406 0.141871 0.471384
O O1 0.055116 0.332439 0.272525
O O2 0.343101 0.545412 0.305906
O O3 0.896540 0.921087 0.167589
O O4 0.233561 0.151779 0.132785
O O5 0.189454 0.749620 0.707171
O O6 0.245263 0.880598 0.120025
O O7 0.083647 0.728049 0.329124
O O8 0.378732 0.043646 0.514053
O O9 0.282963 0.613327 0.027522
O O10 0.609490 0.625507 0.361117
O O11 0.820664 0.619973 0.417047
O O12 0.486406 0.186713 0.098222
O O13 0.500000 0.500000 0.000000
O O14 0.000000 0.000000 0.500000
#
# Coordination Sequence:
#
# PCOD9062236 Si02
#       7
#     2   1   2   2   2   2   2
#     4  11  26  49  75 111 153 207 252 320 385 454
#     4  12  26  48  76 108 152 200 260 306 382 460
#     4  12  25  47  80 113 151 204 259 314 387 458
#     4  11  26  46  78 113 153 205 252 311 389 463
#     4  11  23  48  75 109 157 192 256 320 379 449
#     4  11  28  49  77 114 154 201 257 321 383 457
#     4  12  24  50  77 111 155 203 257 319 384 451
#
# _framework density 28.769490999999999
#
# number of rings (size 3 to 8) (size 9 to 14) (size 15 to 20)
#    0.000    0.615    3.077    3.231    2.154    4.308 
#    5.538    0.000    0.000    0.000    0.000    0.000 
#    0.000    0.000    0.000    0.000    0.000    0.000 
#
# Total GULP energy -72604.815098 kJ/mol
# GULP energy per Si atom -5584.985777 kJ/mol
# Density = 2.870401 g / cm^3
# Si number density = 28.769491 Si / 1000 Ang^3
#
#
#
# Elastic Constant Matrix: (Units=GPa)
#
#
# Indices 1 2 3 4 5 6 
#
# 1 182.7631 84.5131 58.8187 -12.5999 -23.4137 35.6064
# 2 84.5131 111.0136 44.0623 28.8032 5.0568 52.8376
# 3 58.8187 44.0623 180.0924 9.8814 -28.1903 33.5186
# 4 -12.5999 28.8032 9.8814 49.9715 12.5476 8.0255
# 5 -23.4137 5.0568 -28.1903 12.5476 52.1048 1.0806
# 6 35.6064 52.8376 33.5186 8.0255 1.0806 85.4472
#
#
#
# Elastic Compliance Matrix: (Units=1/GPa)
#
#
# Indices 1 2 3 4 5 6 
#
# 1 0.012396 -0.012547 -0.001301 0.009311 0.003796 0.002181
# 2 -0.012547 0.028260 -0.000697 -0.016503 -0.004569 -0.010365
# 3 -0.001301 -0.000697 0.007189 -0.002054 0.003902 -0.001703
# 4 0.009311 -0.016503 -0.002054 0.032423 -0.003219 0.004126
# 5 0.003796 -0.004569 0.003902 -0.003219 0.024234 -0.000292
# 6 0.002181 -0.010365 -0.001703 0.004126 -0.000292 0.017488
#
#
# Mechanical properties :
#
#
# Convention : Reuss Voigt Hill
#
# Bulk Modulus (GPa) = 53.32245 94.29525 73.80885
# Shear Modulus (GPa) = 31.78014 56.60303 44.19158
#
# Velocity S-wave (km/s) = 3.32723 4.44043 3.92351
# Velocity P-wave (km/s) = 5.77367 7.69007 6.79972
#
# Compressibility (1/GPa) = 0.01875383
#
# Stress axis : x y z
#
# Youngs Moduli (GPa) = 80.67294 35.38603 139.10698
#
# Poissons Ratio (x) = 0.44400 0.18101
# Poissons Ratio (y) = 1.01222 0.09691
# Poissons Ratio (z) = 0.10498 0.02465
#
# Static dielectric constant tensor:
#      x y z
#    x 2.235090 -0.075170 0.112870 
#    y -0.075170 2.443280 -0.185650 
#    z 0.112870 -0.185650 2.253990 
# 
# From -- ./inp_files/263742.got.cif
#   From: 2010.05.17/outbox.cif.g08.bks.cpg/sg2_132_cif.got.tgz:263742.got - 2010.06.03 11:33:40.
