data_PCOD9062947
_publ_section_title
;
Structure prediction by ZEFSAII (Michael W. Deem and Ramdas Pophale) SiO2 
 PCOD9062947
Probable space group: P -1
;
_chemical_formula_sum "Si O2"
_cell_formula_units_Z 14
_cell_length_a 7.053895
_cell_length_b 18.038153
_cell_length_c 6.550873
_cell_angle_alpha 125.267733
_cell_angle_beta 93.049901
_cell_angle_gamma 106.451011
_cell_volume 627.188286
_symmetry_space_group_name_H-M "P -1"
_symmetry_group_IT_number 2
_symmetry_cell_setting 'triclinic'
loop_
_space_group_symop_operation_xyz
x,y,z
-x,-y,-z
loop_
_atom_site_type_symbol
_atom_site_label
_atom_site_fract_x
_atom_site_fract_y
_atom_site_fract_z
Si Si1 0.818458 0.801198 0.235251
Si Si2 0.778200 0.949927 0.801590
Si Si3 0.914848 0.507261 0.287178
Si Si4 0.069426 0.298717 0.570489
Si Si5 0.721979 0.366813 0.743764
Si Si6 0.517853 0.780120 0.817010
Si Si7 0.838269 0.154473 0.995987
O O1 0.793979 0.886616 0.506810
O O2 0.655424 0.772462 0.998841
O O3 0.802017 0.715211 0.256256
O O4 0.039638 0.836914 0.193212
O O5 0.627696 0.878067 0.844459
O O6 0.723127 0.040699 0.867481
O O7 0.000000 0.000000 0.000000
O O8 0.000000 0.500000 0.500000
O O9 0.127722 0.536271 0.215042
O O10 0.851707 0.600205 0.391864
O O11 0.268324 0.589504 0.961570
O O12 0.854808 0.298368 0.650024
O O13 0.007135 0.208133 0.266954
O O14 0.536673 0.308263 0.491271
O O15 0.312621 0.787392 0.911600
#
# Coordination Sequence:
#
# PCOD9062947 Si02
#       7
#     2   2   2   2   2   2   2
#     4  12  24  41  67  96 141 177 221 277 336 390
#     4  12  24  45  64  95 141 180 227 278 321 391
#     4   9  18  37  69  96 129 171 219 269 340 399
#     4   9  20  37  64  97 129 173 216 275 327 398
#     4   8  20  38  61 102 126 167 220 275 325 399
#     4  11  25  43  68 101 135 176 229 275 329 394
#     4  11  24  43  67  96 134 181 227 271 334 389
#
# _framework density 22.321846000000001
#
# number of rings (size 3 to 8) (size 9 to 14) (size 15 to 20)
#    0.857    0.857    2.857    0.857    2.000    4.000 
#    0.000    0.714    0.000    4.286    0.000    0.000 
#    0.000    0.000    0.000    0.000    0.000    0.000 
#
# Total GULP energy -78097.658776 kJ/mol
# GULP energy per Si atom -5578.404198 kJ/mol
# Density = 2.227104 g / cm^3
# Si number density = 22.321846 Si / 1000 Ang^3
#
#
#
# Elastic Constant Matrix: (Units=GPa)
#
#
# Indices 1 2 3 4 5 6 
#
# 1 69.2222 30.7567 48.2504 -15.5492 12.6116 -7.1195
# 2 30.7567 104.9705 66.0260 -12.1917 14.3814 -25.1689
# 3 48.2504 66.0260 159.9565 -3.1556 29.4185 -21.2391
# 4 -15.5492 -12.1917 -3.1556 35.0790 -1.6480 1.6898
# 5 12.6116 14.3814 29.4185 -1.6480 39.6036 -4.7939
# 6 -7.1195 -25.1689 -21.2391 1.6898 -4.7939 31.9761
#
#
#
# Elastic Compliance Matrix: (Units=1/GPa)
#
#
# Indices 1 2 3 4 5 6 
#
# 1 0.020963 -0.001941 -0.005138 0.008112 -0.001937 -0.000992
# 2 -0.001941 0.015454 -0.004511 0.003675 -0.000465 0.008472
# 3 -0.005138 -0.004511 0.010692 -0.003189 -0.004572 0.001891
# 4 0.008112 0.003675 -0.003189 0.033050 -0.000074 0.000823
# 5 -0.001937 -0.000465 -0.004572 -0.000074 0.029501 0.000593
# 6 -0.000992 0.008472 0.001891 0.000823 0.000593 0.039022
#
#
# Mechanical properties :
#
#
# Convention : Reuss Voigt Hill
#
# Bulk Modulus (GPa) = 41.78693 69.35725 55.57209
# Shear Modulus (GPa) = 27.80268 33.93946 30.87107
#
# Velocity S-wave (km/s) = 3.53305 3.90354 3.72290
# Velocity P-wave (km/s) = 5.95013 7.17326 6.59014
#
# Compressibility (1/GPa) = 0.02393093
#
# Stress axis : x y z
#
# Youngs Moduli (GPa) = 47.70354 64.70678 93.52377
#
# Poissons Ratio (x) = 0.12559 0.48049
# Poissons Ratio (y) = 0.09259 0.42186
# Poissons Ratio (z) = 0.24508 0.29188
#
# Static dielectric constant tensor:
#      x y z
#    x 1.882160 0.027440 0.004350 
#    y 0.027440 1.843200 -0.018960 
#    z 0.004350 -0.018960 1.878300 
# 
# From -- ./inp_files/52077.got.cif
#   From: 2010.05.17/outbox.cif.g08.bks.cpg/sg2_27_cif.got.tgz:52077.got - 2010.06.03 11:33:40.
