data_PCOD9062639
_publ_section_title
;
Structure prediction by ZEFSAII (Michael W. Deem and Ramdas Pophale) SiO2 
 PCOD9062639
Probable space group: P -1
;
_chemical_formula_sum "Si O2"
_cell_formula_units_Z 14
_cell_length_a 16.255232
_cell_length_b 4.941663
_cell_length_c 17.904720
_cell_angle_alpha 106.569308
_cell_angle_beta 22.928920
_cell_angle_gamma 112.693546
_cell_volume 507.006208
_symmetry_space_group_name_H-M "P -1"
_symmetry_group_IT_number 2
_symmetry_cell_setting 'triclinic'
loop_
_space_group_symop_operation_xyz
x,y,z
-x,-y,-z
loop_
_atom_site_type_symbol
_atom_site_label
_atom_site_fract_x
_atom_site_fract_y
_atom_site_fract_z
Si Si1 0.771321 0.249497 0.753025
Si Si2 0.894879 0.559542 0.013800
Si Si3 0.329723 0.182802 0.058695
Si Si4 0.606591 0.901942 0.216555
Si Si5 0.778417 0.390428 0.562601
Si Si6 0.674823 0.236754 0.425463
Si Si7 0.133477 0.182595 0.613930
O O1 0.703136 0.499100 0.877200
O O2 0.035045 0.380516 0.523584
O O3 0.725368 0.970341 0.824561
O O4 0.588487 0.191233 0.833794
O O5 0.746922 0.775044 0.147630
O O6 0.734499 0.226414 0.104742
O O7 0.000000 0.500000 0.000000
O O8 0.085049 0.716158 0.807245
O O9 0.124317 0.994682 0.163245
O O10 0.485728 0.662836 0.234717
O O11 0.405504 0.913084 0.439636
O O12 0.879841 0.569651 0.414946
O O13 0.799870 0.060700 0.510979
O O14 0.710200 0.591557 0.437026
O O15 0.500000 0.000000 0.500000
#
# Coordination Sequence:
#
# PCOD9062639 Si02
#       7
#     2   2   2   2   2   2   2
#     4   8  13  22  43  72 104 142 177 221 277 330
#     4  12  26  43  62  88 114 153 200 245 297 354
#     4   8  13  23  41  71 108 137 178 229 270 330
#     4  11  24  43  61  87 119 151 194 248 290 351
#     4   9  17  33  53  78 112 148 186 231 285 340
#     4  11  24  42  65  86 117 159 197 245 301 345
#     4   9  18  32  51  79 110 148 190 233 286 340
#
# _framework density 27.613073
#
# number of rings (size 3 to 8) (size 9 to 14) (size 15 to 20)
#    0.000    2.286    1.429    2.143    0.000    4.000 
#    0.000    0.000    0.000    0.000    0.000    2.000 
#    0.000    0.000    0.000    1.714    0.000    0.286 
#
# Total GULP energy -77995.949708 kJ/mol
# GULP energy per Si atom -5571.139265 kJ/mol
# Density = 2.755022 g / cm^3
# Si number density = 27.613073 Si / 1000 Ang^3
#
#
#
# Elastic Constant Matrix: (Units=GPa)
#
#
# Indices 1 2 3 4 5 6 
#
# 1 55.8546 19.6963 -13.2840 0.3229 5.9038 -2.7307
# 2 19.6963 152.1765 37.3407 -20.5683 -13.9424 -4.3055
# 3 -13.2840 37.3407 137.6992 -47.3607 -10.6955 11.5742
# 4 0.3229 -20.5683 -47.3607 51.2418 12.8300 -13.9926
# 5 5.9038 -13.9424 -10.6955 12.8300 24.6062 3.1697
# 6 -2.7307 -4.3055 11.5742 -13.9926 3.1697 39.9879
#
#
#
# Elastic Compliance Matrix: (Units=1/GPa)
#
#
# Indices 1 2 3 4 5 6 
#
# 1 0.021056 -0.003729 0.003771 0.004484 -0.008142 0.002159
# 2 -0.003729 0.008059 -0.002123 0.000571 0.004099 0.001102
# 3 0.003771 -0.002123 0.011625 0.010725 -0.002728 0.000633
# 4 0.004484 0.000571 0.010725 0.037008 -0.016875 0.011551
# 5 -0.008142 0.004099 -0.002728 -0.016875 0.053752 -0.009491
# 6 0.002159 0.001102 0.000633 0.011551 -0.009491 0.029885
#
#
# Mechanical properties :
#
#
# Convention : Reuss Voigt Hill
#
# Bulk Modulus (GPa) = 27.33981 48.13739 37.73860
# Shear Modulus (GPa) = 28.13094 43.29900 35.71497
#
# Velocity S-wave (km/s) = 3.19526 3.96417 3.60030
# Velocity P-wave (km/s) = 4.85133 6.19867 5.56592
#
# Compressibility (1/GPa) = 0.03657670
#
# Stress axis : x y z
#
# Youngs Moduli (GPa) = 47.49278 124.08733 86.01894
#
# Poissons Ratio (x) = 0.46277 -0.32437
# Poissons Ratio (y) = 0.17712 0.18263
# Poissons Ratio (z) = -0.17909 0.26345
#
# Static dielectric constant tensor:
#      x y z
#    x 2.384230 0.057380 -0.106210 
#    y 0.057380 2.129290 0.080990 
#    z -0.106210 0.080990 2.387760 
# 
# From -- ./inp_files/613360.got.cif
#   From: 2010.05.17/outbox.cif.g08.bks.cpg/sg2_307_cif.got.tgz:613360.got - 2010.06.03 11:33:40.
