data_PCOD9062486
_publ_section_title
;
Structure prediction by ZEFSAII (Michael W. Deem and Ramdas Pophale) SiO2 
 PCOD9062486
Probable space group: P -1
;
_chemical_formula_sum "Si O2"
_cell_formula_units_Z 14
_cell_length_a 8.882368
_cell_length_b 9.350847
_cell_length_c 20.392961
_cell_angle_alpha 35.459235
_cell_angle_beta 38.000962
_cell_angle_gamma 46.230073
_cell_volume 599.030235
_symmetry_space_group_name_H-M "P -1"
_symmetry_group_IT_number 2
_symmetry_cell_setting 'triclinic'
loop_
_space_group_symop_operation_xyz
x,y,z
-x,-y,-z
loop_
_atom_site_type_symbol
_atom_site_label
_atom_site_fract_x
_atom_site_fract_y
_atom_site_fract_z
Si Si1 0.787511 0.517474 0.804910
Si Si2 0.676094 0.594611 0.298563
Si Si3 0.628963 0.172469 0.102901
Si Si4 0.882905 0.249107 0.120018
Si Si5 0.829850 0.291940 0.618203
Si Si6 0.311801 0.809615 0.152407
Si Si7 0.268964 0.859134 0.647099
O O1 0.650343 0.765269 0.795362
O O2 0.679642 0.434794 0.803956
O O3 0.083914 0.500497 0.703065
O O4 0.699406 0.315509 0.961183
O O5 0.374709 0.617934 0.401213
O O6 0.724407 0.398580 0.296729
O O7 0.701556 0.882991 0.172598
O O8 0.772237 0.271427 0.077607
O O9 0.724432 0.204022 0.254881
O O10 0.059708 0.986314 0.156731
O O11 0.000000 0.500000 0.000000
O O12 0.677898 0.251844 0.751625
O O13 0.000000 0.500000 0.500000
O O14 0.023516 0.040596 0.640728
O O15 0.500000 0.000000 0.000000
O O16 0.500000 0.000000 0.500000
#
# Coordination Sequence:
#
# PCOD9062486 Si02
#       7
#     2   2   2   2   2   2   2
#     4  11  24  41  65 102 142 179 228 279 343 410
#     4  12  23  42  71  94 136 180 222 284 347 386
#     4  11  24  41  65 102 142 179 228 279 343 410
#     4  11  24  41  68 104 136 175 230 278 336 413
#     4  11  25  45  69 100 134 181 234 278 338 415
#     4  11  24  41  68 104 136 175 230 278 336 413
#     4  11  25  45  69 100 134 181 234 278 338 415
#
# _framework density 23.371106999999999
#
# number of rings (size 3 to 8) (size 9 to 14) (size 15 to 20)
#    0.000    0.857    2.857    3.857    8.000    4.571 
#    0.000    2.857    0.000    3.429    0.000    0.000 
#    0.000    0.000    0.000    0.000    0.000    0.000 
#
# Total GULP energy -78124.785958 kJ/mol
# GULP energy per Si atom -5580.341854 kJ/mol
# Density = 2.331791 g / cm^3
# Si number density = 23.371107 Si / 1000 Ang^3
#
#
#
# Elastic Constant Matrix: (Units=GPa)
#
#
# Indices 1 2 3 4 5 6 
#
# 1 95.6800 35.6066 20.8832 9.1297 -32.7953 -9.7440
# 2 35.6066 162.2522 15.8249 -12.9161 -5.0218 -6.8600
# 3 20.8832 15.8249 91.1738 11.4158 -10.6468 13.6602
# 4 9.1297 -12.9161 11.4158 27.7032 0.7444 -2.5147
# 5 -32.7953 -5.0218 -10.6468 0.7444 25.6309 -3.0822
# 6 -9.7440 -6.8600 13.6602 -2.5147 -3.0822 42.6900
#
#
#
# Elastic Compliance Matrix: (Units=1/GPa)
#
#
# Indices 1 2 3 4 5 6 
#
# 1 0.025180 -0.004991 -0.000887 -0.010492 0.032009 0.006922
# 2 -0.004991 0.007771 -0.001739 0.006194 -0.005691 0.000620
# 3 -0.000887 -0.001739 0.013472 -0.006616 0.003722 -0.004914
# 4 -0.010492 0.006194 -0.006616 0.045804 -0.016018 0.002259
# 5 0.032009 -0.005691 0.003722 -0.016018 0.082093 0.010184
# 6 0.006922 0.000620 -0.004914 0.002259 0.010184 0.027545
#
#
# Mechanical properties :
#
#
# Convention : Reuss Voigt Hill
#
# Bulk Modulus (GPa) = 32.06104 54.85950 43.46027
# Shear Modulus (GPa) = 21.97849 37.65757 29.81803
#
# Velocity S-wave (km/s) = 3.06994 4.01844 3.57578
# Velocity P-wave (km/s) = 5.12972 6.71228 5.97364
#
# Compressibility (1/GPa) = 0.03119050
#
# Stress axis : x y z
#
# Youngs Moduli (GPa) = 39.71393 128.67967 74.22720
#
# Poissons Ratio (x) = 0.64226 0.06582
# Poissons Ratio (y) = 0.19822 0.12905
# Poissons Ratio (z) = 0.03522 0.22372
#
# Static dielectric constant tensor:
#      x y z
#    x 1.759590 -0.061990 -0.050180 
#    y -0.061990 1.937500 0.060050 
#    z -0.050180 0.060050 1.801110 
# 
# From -- ./inp_files/203532.got.cif
#   From: 2010.05.17/outbox.cif.g08.bks.cpg/sg2_102_cif.got.tgz:203532.got - 2010.06.03 11:33:40.
