data_PCOD9062167
_publ_section_title
;
Structure prediction by ZEFSAII (Michael W. Deem and Ramdas Pophale) SiO2 
 PCOD9062167
Probable space group: P -1
;
_chemical_formula_sum "Si O2"
_cell_formula_units_Z 12
_cell_length_a 9.660225
_cell_length_b 19.069008
_cell_length_c 8.138447
_cell_angle_alpha 122.175281
_cell_angle_beta 75.921983
_cell_angle_gamma 50.275991
_cell_volume 432.605272
_symmetry_space_group_name_H-M "P -1"
_symmetry_group_IT_number 2
_symmetry_cell_setting 'triclinic'
loop_
_space_group_symop_operation_xyz
x,y,z
-x,-y,-z
loop_
_atom_site_type_symbol
_atom_site_label
_atom_site_fract_x
_atom_site_fract_y
_atom_site_fract_z
Si Si1 0.995394 0.681421 0.492320
Si Si2 0.094953 0.869370 0.419813
Si Si3 0.019358 0.398113 0.290662
Si Si4 0.019765 0.392985 0.913090
Si Si5 0.782936 0.266288 0.096335
Si Si6 0.108012 0.812184 0.683967
O O1 0.795066 0.761706 0.820968
O O2 0.101397 0.720235 0.514291
O O3 0.426215 0.399279 0.017838
O O4 0.781715 0.766176 0.494560
O O5 0.912406 0.965920 0.776693
O O6 0.010189 0.842258 0.277949
O O7 0.000000 0.000000 0.500000
O O8 0.184919 0.301069 0.937012
O O9 0.559285 0.617509 0.677012
O O10 0.000000 0.500000 0.500000
O O11 0.566250 0.598462 0.307421
O O12 0.000000 0.500000 0.000000
O O13 0.500000 0.500000 0.500000
O O14 0.045467 0.102883 0.977560
#
# Coordination Sequence:
#
# PCOD9062167 Si02
#       6
#     2   2   2   2   2   2
#     4  10  19  33  50  76 102 131 168 212 252 293
#     4  10  20  32  50  77 108 135 165 210 260 300
#     4  10  18  28  45  75 107 126 161 214 258 293
#     4  10  18  26  45  74 104 129 161 207 261 294
#     4  10  19  32  53  77 101 133 172 209 253 299
#     4  10  20  33  54  75 105 130 172 216 247 301
#
# _framework density 27.738909
#
# number of rings (size 3 to 8) (size 9 to 14) (size 15 to 20)
#    0.000    2.000    5.000    2.000    2.333    0.667 
#    0.000    0.000    0.000    0.000    0.000   46.667 
#    0.000    0.000    0.000    0.000    0.000    0.000 
#
# Total GULP energy -67088.716467 kJ/mol
# GULP energy per Si atom -5590.726372 kJ/mol
# Density = 2.767577 g / cm^3
# Si number density = 27.738909 Si / 1000 Ang^3
#
#
#
# Elastic Constant Matrix: (Units=GPa)
#
#
# Indices 1 2 3 4 5 6 
#
# 1 202.2073 71.6672 38.0279 -2.6261 25.5267 -7.6007
# 2 71.6672 243.6158 62.7519 -56.9163 21.1392 -29.9371
# 3 38.0279 62.7519 81.4793 -24.0384 -0.8988 -5.4420
# 4 -2.6261 -56.9163 -24.0384 71.3796 -8.8558 19.0181
# 5 25.5267 21.1392 -0.8988 -8.8558 47.7278 0.0293
# 6 -7.6007 -29.9371 -5.4420 19.0181 0.0293 63.9567
#
#
#
# Elastic Compliance Matrix: (Units=1/GPa)
#
#
# Indices 1 2 3 4 5 6 
#
# 1 0.006316 -0.001383 -0.002554 -0.002283 -0.003238 0.000566
# 2 -0.001383 0.006472 -0.003247 0.003403 -0.001558 0.001578
# 3 -0.002554 -0.003247 0.017073 0.003958 0.003861 -0.001550
# 4 -0.002283 0.003403 0.003958 0.019498 0.003409 -0.004141
# 5 -0.003238 -0.001558 0.003861 0.003409 0.024080 -0.001810
# 6 0.000566 0.001578 -0.001550 -0.004141 -0.001810 0.017542
#
#
# Mechanical properties :
#
#
# Convention : Reuss Voigt Hill
#
# Bulk Modulus (GPa) = 64.54681 96.91072 80.72876
# Shear Modulus (GPa) = 45.24306 60.26984 52.75645
#
# Velocity S-wave (km/s) = 4.04299 4.66634 4.36580
# Velocity P-wave (km/s) = 6.71671 8.00285 7.38782
#
# Compressibility (1/GPa) = 0.01549263
#
# Stress axis : x y z
#
# Youngs Moduli (GPa) = 158.31904 154.50964 58.57281
#
# Poissons Ratio (x) = 0.21370 0.14961
# Poissons Ratio (y) = 0.21897 0.19018
# Poissons Ratio (z) = 0.40439 0.50168
#
# Static dielectric constant tensor:
#      x y z
#    x 2.163500 0.001150 0.004270 
#    y 0.001150 2.226770 -0.076660 
#    z 0.004270 -0.076660 2.447560 
# 
# From -- ./inp_files/191361.got.cif
#   From: 2010.05.17/outbox.cif.g08.bks.cpg/sg2_96_cif.got.tgz:191361.got - 2010.06.03 11:33:40.
