data_PCOD9062502
_publ_section_title
;
Structure prediction by ZEFSAII (Michael W. Deem and Ramdas Pophale) SiO2 
 PCOD9062502
Probable space group: P -1
;
_chemical_formula_sum "Si O2"
_cell_formula_units_Z 15
_cell_length_a 7.562990
_cell_length_b 8.824062
_cell_length_c 11.527422
_cell_angle_alpha 67.718268
_cell_angle_beta 116.375654
_cell_angle_gamma 118.651158
_cell_volume 591.162646
_symmetry_space_group_name_H-M "P -1"
_symmetry_group_IT_number 2
_symmetry_cell_setting 'triclinic'
loop_
_space_group_symop_operation_xyz
x,y,z
-x,-y,-z
loop_
_atom_site_type_symbol
_atom_site_label
_atom_site_fract_x
_atom_site_fract_y
_atom_site_fract_z
Si Si1 0.945620 0.819692 0.129204
Si Si2 0.412500 0.402637 0.363305
Si Si3 0.775928 0.342576 0.861042
Si Si4 0.457092 0.141647 0.642577
Si Si5 0.345399 0.109624 0.242711
Si Si6 0.000000 0.000000 0.500000
Si Si7 0.901796 0.647923 0.411323
Si Si8 0.527914 0.320131 0.023166
O O1 0.021244 0.708752 0.088207
O O2 0.972540 0.731911 0.282805
O O3 0.701270 0.796429 0.064626
O O4 0.121400 0.017260 0.136931
O O5 0.239766 0.493049 0.265511
O O6 0.451821 0.309360 0.519001
O O7 0.329554 0.236972 0.300564
O O8 0.644908 0.543087 0.357322
O O9 0.580817 0.187710 0.786048
O O10 0.711713 0.352002 0.972796
O O11 0.583189 0.040765 0.640760
O O12 0.216215 0.013655 0.621618
O O13 0.525496 0.220751 0.171268
O O14 0.974242 0.805875 0.480887
O O15 0.000000 0.500000 0.500000
O O16 0.500000 0.500000 0.000000
#
# Coordination Sequence:
#
# PCOD9062502 Si02
#       8
#     2   2   2   2   2   1   2   2
#     4  11  25  45  70 107 138 184 245 293 368 428
#     4  12  22  45  70  98 146 186 230 297 362 428
#     4  11  24  44  72 100 137 188 235 290 357 428
#     4  11  24  41  66 107 140 186 236 291 365 430
#     4  11  24  44  71 100 138 187 239 299 355 430
#     4  12  24  40  68 106 150 192 242 296 366 432
#     4  12  24  42  69 104 148 194 241 299 363 441
#     4  12  24  49  72 100 142 185 244 297 358 434
#
# _framework density 25.373726999999999
#
# number of rings (size 3 to 8) (size 9 to 14) (size 15 to 20)
#    0.000    0.533    4.000    4.400    1.867    2.667 
#    0.000    1.333    0.000    0.000    0.000    0.000 
#    0.000    0.000    0.000    0.000    0.000    0.000 
#
# Total GULP energy -83610.485516 kJ/mol
# GULP energy per Si atom -5574.032368 kJ/mol
# Density = 2.531597 g / cm^3
# Si number density = 25.373727 Si / 1000 Ang^3
#
#
#
# Elastic Constant Matrix: (Units=GPa)
#
#
# Indices 1 2 3 4 5 6 
#
# 1 78.8063 28.2846 15.2806 -6.2570 -7.3316 -33.9256
# 2 28.2846 57.3402 -94.5623 6.9703 27.8851 23.7070
# 3 15.2806 -94.5623 -122.9355 -19.5609 49.1955 90.1499
# 4 -6.2570 6.9703 -19.5609 53.2500 0.5020 6.3130
# 5 -7.3316 27.8851 49.1955 0.5020 26.1939 -40.4669
# 6 -33.9256 23.7070 90.1499 6.3130 -40.4669 -14.2194
#
#
#
# Elastic Compliance Matrix: (Units=1/GPa)
#
#
# Indices 1 2 3 4 5 6 
#
# 1 0.014818 0.000256 0.007200 0.003460 0.001709 0.007393
# 2 0.000256 0.012078 0.000218 -0.002755 0.003200 0.010579
# 3 0.007200 0.000218 0.010447 0.002324 0.011129 0.018779
# 4 0.003460 -0.002755 0.002324 0.020082 0.002935 0.002448
# 5 0.001709 0.003200 0.011129 0.002935 0.023580 0.006013
# 6 0.007393 0.010579 0.018779 0.002448 0.006013 0.032702
#
#
# Mechanical properties :
#
#
# Convention : Reuss Voigt Hill
#
# Bulk Modulus (GPa) = 18.97847 -9.86481 4.55683
# Shear Modulus (GPa) = 43.13252 17.32546 30.22899
#
# Velocity S-wave (km/s) = 4.12744 2.61590 3.45534
# Velocity P-wave (km/s) = 5.49638 2.28641 4.20939
#
# Compressibility (1/GPa) = 0.05269129
#
# Stress axis : x y z
#
# Youngs Moduli (GPa) = 67.48598 82.79419 95.72320
#
# Poissons Ratio (x) = -0.02120 -0.68919
# Poissons Ratio (y) = -0.01728 -0.02090
# Poissons Ratio (z) = -0.48589 -0.01808
#
# Static dielectric constant tensor:
#      x y z
#    x 2.043640 0.017260 -0.063670 
#    y 0.017260 2.096360 -0.024180 
#    z -0.063670 -0.024180 2.060140 
# 
# From -- ./inp_files/326670.got.cif
#   From: 2010.05.17/outbox.cif.g08.bks.cpg/sg2_164_cif.got.tgz:326670.got - 2010.06.03 11:33:40.
