data_PCOD9062064
_publ_section_title
;
Structure prediction by ZEFSAII (Michael W. Deem and Ramdas Pophale) SiO2 
 PCOD9062064
Probable space group: P -1
;
_chemical_formula_sum "Si O2"
_cell_formula_units_Z 16
_cell_length_a 9.764221
_cell_length_b 8.265869
_cell_length_c 9.269862
_cell_angle_alpha 77.847391
_cell_angle_beta 84.834568
_cell_angle_gamma 57.402777
_cell_volume 615.942357
_symmetry_space_group_name_H-M "P -1"
_symmetry_group_IT_number 2
_symmetry_cell_setting 'triclinic'
loop_
_space_group_symop_operation_xyz
x,y,z
-x,-y,-z
loop_
_atom_site_type_symbol
_atom_site_label
_atom_site_fract_x
_atom_site_fract_y
_atom_site_fract_z
Si Si1 0.801358 0.058345 0.125202
Si Si2 0.034656 0.535732 0.828597
Si Si3 0.653205 0.511110 0.105790
Si Si4 0.457837 0.673957 0.363506
Si Si5 0.715422 0.675920 0.518325
Si Si6 0.995187 0.716273 0.362490
Si Si7 0.550657 0.834302 0.815138
Si Si8 0.208548 0.032021 0.185004
O O1 0.742789 0.284097 0.102304
O O2 0.643997 0.047953 0.183949
O O3 0.941296 0.920540 0.252663
O O4 0.839439 0.995728 0.965873
O O5 0.221625 0.459600 0.820427
O O6 0.991289 0.417934 0.748979
O O7 0.930996 0.766194 0.772726
O O8 0.000000 0.500000 0.000000
O O9 0.505388 0.583802 0.215428
O O10 0.603821 0.646048 0.946122
O O11 0.500000 0.500000 0.500000
O O12 0.570155 0.748150 0.404248
O O13 0.275922 0.854998 0.324100
O O14 0.842684 0.741947 0.462471
O O15 0.626755 0.756911 0.664596
O O16 0.834572 0.436224 0.547230
O O17 0.636327 0.942120 0.852665
#
# Coordination Sequence:
#
# PCOD9062064 Si02
#       8
#     2   2   2   2   2   2   2   2
#     4  12  26  42  73 109 142 185 239 293 360 416
#     4  12  22  47  73 106 138 184 243 295 346 420
#     4  12  26  46  72 104 148 186 236 295 351 429
#     4  12  28  48  69 105 151 189 230 296 364 420
#     4  11  25  45  74 100 145 185 234 297 354 414
#     4  11  23  47  71 104 143 185 239 296 350 425
#     4  12  24  45  74 106 138 188 242 293 347 429
#     4  12  26  44  77 105 142 188 242 294 352 420
#
# _framework density 25.976454
#
# number of rings (size 3 to 8) (size 9 to 14) (size 15 to 20)
#    0.000    0.250    6.250    2.250    1.750    4.500 
#    0.000    1.250    0.000    0.000    0.000    0.000 
#    0.000    0.000    0.000    0.000    0.000    0.000 
#
# Total GULP energy -89726.462388 kJ/mol
# GULP energy per Si atom -5607.903899 kJ/mol
# Density = 2.591733 g / cm^3
# Si number density = 25.976454 Si / 1000 Ang^3
#
#
#
# Elastic Constant Matrix: (Units=GPa)
#
#
# Indices 1 2 3 4 5 6 
#
# 1 63.6763 -13.0947 8.9334 -8.4375 12.0700 -11.7942
# 2 -13.0947 105.2986 51.0431 -26.6004 1.3721 -3.7423
# 3 8.9334 51.0431 153.9393 -10.9134 -4.4785 -5.6624
# 4 -8.4375 -26.6004 -10.9134 60.1237 -8.8199 3.2651
# 5 12.0700 1.3721 -4.4785 -8.8199 46.3287 -8.6184
# 6 -11.7942 -3.7423 -5.6624 3.2651 -8.6184 43.2572
#
#
#
# Elastic Compliance Matrix: (Units=1/GPa)
#
#
# Indices 1 2 3 4 5 6 
#
# 1 0.018936 0.004553 -0.002320 0.003457 -0.003848 0.004226
# 2 0.004553 0.013682 -0.004367 0.005729 -0.000684 0.001285
# 3 -0.002320 -0.004367 0.008094 -0.000593 0.001475 0.000388
# 4 0.003457 0.005729 -0.000593 0.019925 0.002740 0.000403
# 5 -0.003848 -0.000684 0.001475 0.002740 0.023951 0.003650
# 6 0.004226 0.001285 0.000388 0.000403 0.003650 0.025128
#
#
# Mechanical properties :
#
#
# Convention : Reuss Voigt Hill
#
# Bulk Modulus (GPa) = 27.43955 46.29753 36.86854
# Shear Modulus (GPa) = 39.64060 48.34408 43.99234
#
# Velocity S-wave (km/s) = 3.91067 4.31870 4.11974
# Velocity P-wave (km/s) = 5.56572 6.53680 6.07071
#
# Compressibility (1/GPa) = 0.03644374
#
# Stress axis : x y z
#
# Youngs Moduli (GPa) = 52.80819 73.08865 123.54889
#
# Poissons Ratio (x) = -0.33278 0.28665
# Poissons Ratio (y) = -0.24044 0.53958
# Poissons Ratio (z) = 0.12252 0.31920
#
# Static dielectric constant tensor:
#      x y z
#    x 2.112160 0.024880 -0.009550 
#    y 0.024880 2.060610 -0.031660 
#    z -0.009550 -0.031660 2.016600 
# 
# From -- ./inp_files/190855.got.cif
#   From: 2010.05.17/outbox.cif.g08.bks.cpg/sg2_96_cif.got.tgz:190855.got - 2010.06.03 11:33:40.
