data_PCOD9062305
_publ_section_title
;
Structure prediction by ZEFSAII (Michael W. Deem and Ramdas Pophale) SiO2 
 PCOD9062305
Probable space group: P -1
;
_chemical_formula_sum "Si O2"
_cell_formula_units_Z 14
_cell_length_a 12.387373
_cell_length_b 9.420423
_cell_length_c 8.787836
_cell_angle_alpha 133.319875
_cell_angle_beta 60.822202
_cell_angle_gamma 111.052709
_cell_volume 650.915870
_symmetry_space_group_name_H-M "P -1"
_symmetry_group_IT_number 2
_symmetry_cell_setting 'triclinic'
loop_
_space_group_symop_operation_xyz
x,y,z
-x,-y,-z
loop_
_atom_site_type_symbol
_atom_site_label
_atom_site_fract_x
_atom_site_fract_y
_atom_site_fract_z
Si Si1 0.778921 0.229782 0.139088
Si Si2 0.309747 0.197860 0.737512
Si Si3 0.284084 0.415095 0.216590
Si Si4 0.462680 0.644840 0.498089
Si Si5 0.837909 0.195898 0.417123
Si Si6 0.102080 0.133481 0.334729
Si Si7 0.877209 0.611213 0.202403
O O1 0.634290 0.202090 0.257563
O O2 0.850964 0.217910 0.241357
O O3 0.791742 0.445865 0.221734
O O4 0.837473 0.075350 0.874143
O O5 0.420804 0.247242 0.582140
O O6 0.190424 0.306455 0.836038
O O7 0.268092 0.971380 0.606788
O O8 0.336983 0.288093 0.950782
O O9 0.387918 0.515923 0.327704
O O10 0.206528 0.596196 0.341428
O O11 0.191002 0.277935 0.278974
O O12 0.500000 0.500000 0.500000
O O13 0.965686 0.136915 0.359901
O O14 0.099216 0.214958 0.566592
O O15 0.000000 0.500000 0.000000
#
# Coordination Sequence:
#
# PCOD9062305 Si02
#       7
#     2   2   2   2   2   2   2
#     4  11  24  43  71  98 136 185 222 284 341 400
#     4  12  25  45  69 102 138 175 233 283 329 406
#     4  11  24  42  73 102 132 185 225 279 341 399
#     4  11  23  50  69  97 142 181 227 280 341 404
#     4  11  24  41  71 104 135 177 227 283 338 403
#     4  12  23  44  71 103 139 178 229 273 352 404
#     4  12  26  43  68 102 143 177 222 286 341 408
#
# _framework density 21.508157000000001
#
# number of rings (size 3 to 8) (size 9 to 14) (size 15 to 20)
#    0.000    0.571    5.714    3.000    2.000    5.714 
#    2.571    1.429    0.000    0.000    0.000    0.000 
#    0.000    0.000    0.000    0.000    0.000    0.000 
#
# Total GULP energy -78371.157132 kJ/mol
# GULP energy per Si atom -5597.939795 kJ/mol
# Density = 2.145920 g / cm^3
# Si number density = 21.508157 Si / 1000 Ang^3
#
#
#
# Elastic Constant Matrix: (Units=GPa)
#
#
# Indices 1 2 3 4 5 6 
#
# 1 62.5134 -2.2911 11.0259 6.2548 -6.5172 -10.9344
# 2 -2.2911 71.5021 -9.0604 3.4778 12.8150 6.7681
# 3 11.0259 -9.0604 101.7772 9.2336 6.8756 -3.8267
# 4 6.2548 3.4778 9.2336 32.6997 2.4304 -1.2490
# 5 -6.5172 12.8150 6.8756 2.4304 24.5739 -2.2327
# 6 -10.9344 6.7681 -3.8267 -1.2490 -2.2327 29.8256
#
#
#
# Elastic Compliance Matrix: (Units=1/GPa)
#
#
# Indices 1 2 3 4 5 6 
#
# 1 0.018662 -0.001520 -0.002095 -0.003079 0.007299 0.007336
# 2 -0.001520 0.016540 0.002269 -0.001554 -0.009949 -0.004829
# 3 -0.002095 0.002269 0.010780 -0.002561 -0.004533 -0.000346
# 4 -0.003079 -0.001554 -0.002561 0.032245 -0.002473 0.000060
# 5 0.007299 -0.009949 -0.004533 -0.002473 0.050057 0.007996
# 6 0.007336 -0.004829 -0.000346 0.000060 0.007996 0.037870
#
#
# Mechanical properties :
#
#
# Convention : Reuss Voigt Hill
#
# Bulk Modulus (GPa) = 23.10069 26.12685 24.61377
# Shear Modulus (GPa) = 27.28103 33.16104 30.22103
#
# Velocity S-wave (km/s) = 3.56533 3.93082 3.75253
# Velocity P-wave (km/s) = 5.26427 5.72500 5.49946
#
# Compressibility (1/GPa) = 0.04328875
#
# Stress axis : x y z
#
# Youngs Moduli (GPa) = 53.58340 60.45910 92.76573
#
# Poissons Ratio (x) = 0.09192 0.19435
# Poissons Ratio (y) = 0.08147 -0.21045
# Poissons Ratio (z) = 0.11226 -0.13716
#
# Static dielectric constant tensor:
#      x y z
#    x 1.767000 0.022470 -0.016060 
#    y 0.022470 1.801080 -0.019660 
#    z -0.016060 -0.019660 1.770620 
# 
# From -- ./inp_files/186232.got.cif
#   From: 2010.05.17/outbox.cif.g08.bks.cpg/sg2_94_cif.got.tgz:186232.got - 2010.06.03 11:33:40.
