data_PCOD9062014
_publ_section_title
;
Structure prediction by ZEFSAII (Michael W. Deem and Ramdas Pophale) SiO2 
 PCOD9062014
Probable space group: P -1
;
_chemical_formula_sum "Si O2"
_cell_formula_units_Z 16
_cell_length_a 8.600835
_cell_length_b 5.331675
_cell_length_c 15.648089
_cell_angle_alpha 87.467432
_cell_angle_beta 105.716519
_cell_angle_gamma 75.747476
_cell_volume 664.739332
_symmetry_space_group_name_H-M "P -1"
_symmetry_group_IT_number 2
_symmetry_cell_setting 'triclinic'
loop_
_space_group_symop_operation_xyz
x,y,z
-x,-y,-z
loop_
_atom_site_type_symbol
_atom_site_label
_atom_site_fract_x
_atom_site_fract_y
_atom_site_fract_z
Si Si1 0.728816 0.409436 0.820376
Si Si2 0.611951 0.495004 0.337701
Si Si3 0.282610 0.143409 0.879685
Si Si4 0.353510 0.861458 0.493504
Si Si5 0.683088 0.926546 0.916422
Si Si6 0.147799 0.712721 0.770294
Si Si7 0.880458 0.748967 0.430426
Si Si8 0.881885 0.157186 0.683830
O O1 0.549103 0.439662 0.747208
O O2 0.725782 0.675038 0.864795
O O3 0.857370 0.326028 0.763017
O O4 0.755148 0.161095 0.890601
O O5 0.587826 0.365206 0.425495
O O6 0.755557 0.302059 0.305111
O O7 0.701769 0.717902 0.370565
O O8 0.205136 0.426169 0.822730
O O9 0.481358 0.047574 0.889918
O O10 0.206992 0.918305 0.835096
O O11 0.259633 0.159542 0.977903
O O12 0.290561 0.792756 0.393893
O O13 0.500000 0.000000 0.500000
O O14 0.182020 0.036884 0.508881
O O15 0.952952 0.852622 0.723008
O O16 0.000000 0.500000 0.500000
O O17 0.985134 0.782130 0.362706
#
# Coordination Sequence:
#
# PCOD9062014 Si02
#       8
#     2   2   2   2   2   2   2   2
#     4  12  28  45  74 113 153 195 251 314 376 449
#     4  12  25  45  72 104 146 198 258 307 365 439
#     4  11  23  46  80 112 144 192 250 312 384 449
#     4  12  28  47  71 105 150 199 254 313 367 437
#     4  11  24  48  76 113 150 190 249 318 376 453
#     4  12  24  44  77 111 147 196 251 308 370 457
#     4  12  25  45  70  97 144 200 257 304 370 440
#     4  12  28  48  70 111 154 204 248 310 380 445
#
# _framework density 24.069586000000001
#
# number of rings (size 3 to 8) (size 9 to 14) (size 15 to 20)
#    0.000    0.250    5.000    3.375    5.250    5.000 
#    0.000    3.750    0.000    0.000    0.000    0.000 
#    0.000    0.000    0.000    0.000    0.000    0.000 
#
# Total GULP energy -89661.633218 kJ/mol
# GULP energy per Si atom -5603.852076 kJ/mol
# Density = 2.401480 g / cm^3
# Si number density = 24.069586 Si / 1000 Ang^3
#
#
#
# Elastic Constant Matrix: (Units=GPa)
#
#
# Indices 1 2 3 4 5 6 
#
# 1 79.9199 33.1709 30.4827 -4.5510 -21.8408 1.9546
# 2 33.1709 160.2198 74.1852 -4.3556 -20.5481 -12.2053
# 3 30.4827 74.1852 146.1764 -2.2690 -21.0545 -2.4969
# 4 -4.5510 -4.3556 -2.2690 50.4559 -2.4838 -5.0807
# 5 -21.8408 -20.5481 -21.0545 -2.4838 35.7461 3.3767
# 6 1.9546 -12.2053 -2.4969 -5.0807 3.3767 46.2002
#
#
#
# Elastic Compliance Matrix: (Units=1/GPa)
#
#
# Indices 1 2 3 4 5 6 
#
# 1 0.016141 -0.001768 -0.001270 0.001490 0.008358 -0.001666
# 2 -0.001768 0.008750 -0.003799 0.000718 0.001559 0.002146
# 3 -0.001270 -0.003799 0.009405 0.000047 0.002642 -0.000630
# 4 0.001490 0.000718 0.000047 0.020363 0.002559 0.002181
# 5 0.008358 0.001559 0.002642 0.002559 0.035914 -0.002143
# 6 -0.001666 0.002146 -0.000630 0.002181 -0.002143 0.022645
#
#
# Mechanical properties :
#
#
# Convention : Reuss Voigt Hill
#
# Bulk Modulus (GPa) = 48.49717 73.55484 61.02601
# Shear Modulus (GPa) = 37.37884 43.04560 40.21222
#
# Velocity S-wave (km/s) = 3.94502 4.23351 4.09181
# Velocity P-wave (km/s) = 6.39870 7.38393 6.90890
#
# Compressibility (1/GPa) = 0.02061976
#
# Stress axis : x y z
#
# Youngs Moduli (GPa) = 61.95592 114.29118 106.33025
#
# Poissons Ratio (x) = 0.20207 0.13504
# Poissons Ratio (y) = 0.10954 0.40400
# Poissons Ratio (z) = 0.07868 0.43425
#
# Static dielectric constant tensor:
#      x y z
#    x 1.944250 0.010280 0.008830 
#    y 0.010280 1.977100 0.011660 
#    z 0.008830 0.011660 1.891300 
# 
# From -- ./inp_files/39173.got.cif
#   From: 2010.05.17/outbox.cif.g08.bks.cpg/sg2_20_cif.got.tgz:39173.got - 2010.06.03 11:33:40.
