data_PCOD9062797
_publ_section_title
;
Structure prediction by ZEFSAII (Michael W. Deem and Ramdas Pophale) SiO2 
 PCOD9062797
Probable space group: P -1
;
_chemical_formula_sum "Si O2"
_cell_formula_units_Z 12
_cell_length_a 12.741384
_cell_length_b 7.354153
_cell_length_c 9.362560
_cell_angle_alpha 65.950189
_cell_angle_beta 145.161546
_cell_angle_gamma 110.142358
_cell_volume 457.578206
_symmetry_space_group_name_H-M "P -1"
_symmetry_group_IT_number 2
_symmetry_cell_setting 'triclinic'
loop_
_space_group_symop_operation_xyz
x,y,z
-x,-y,-z
loop_
_atom_site_type_symbol
_atom_site_label
_atom_site_fract_x
_atom_site_fract_y
_atom_site_fract_z
Si Si1 0.277215 0.137124 0.560338
Si Si2 0.966448 0.273507 0.988903
Si Si3 0.414040 0.878578 0.309269
Si Si4 0.702833 0.572240 0.241132
Si Si5 0.076809 0.401766 0.785770
Si Si6 0.184045 0.871673 0.770980
O O1 0.409731 0.196396 0.558302
O O2 0.298934 0.298087 0.659199
O O3 0.074943 0.140879 0.264222
O O4 0.300070 0.930770 0.738458
O O5 0.748385 0.245135 0.753971
O O6 0.068001 0.258311 0.956265
O O7 0.000000 0.500000 0.000000
O O8 0.859611 0.366016 0.188674
O O9 0.500000 0.000000 0.500000
O O10 0.300296 0.936031 0.018910
O O11 0.864173 0.414650 0.499109
O O12 0.789685 0.670802 0.164226
O O13 0.500000 0.500000 0.000000
O O14 0.000000 0.000000 0.500000
#
# Coordination Sequence:
#
# PCOD9062797 Si02
#       6
#     2   2   2   2   2   2
#     4  12  27  49  79 103 152 204 247 308 382 447
#     4  12  24  51  74 106 155 200 242 310 384 446
#     4  12  29  48  76 119 150 193 258 316 373 448
#     4  11  24  42  71 110 140 191 254 308 365 444
#     4  11  25  46  74 107 149 193 250 307 373 449
#     4  12  22  52  77 103 152 203 242 307 379 445
#
# _framework density 26.225027000000001
#
# number of rings (size 3 to 8) (size 9 to 14) (size 15 to 20)
#    0.000    0.333    6.667    1.500    0.000    8.000 
#    0.000    0.000    0.000    0.000    0.000    0.000 
#    0.000    0.000    0.000    0.000    0.000    0.000 
#
# Total GULP energy -67065.663587 kJ/mol
# GULP energy per Si atom -5588.805299 kJ/mol
# Density = 2.616534 g / cm^3
# Si number density = 26.225027 Si / 1000 Ang^3
#
#
#
# Elastic Constant Matrix: (Units=GPa)
#
#
# Indices 1 2 3 4 5 6 
#
# 1 238.5189 41.3827 74.0359 25.4305 -8.5170 -20.0578
# 2 41.3827 100.9246 56.7506 35.6634 2.4485 -12.7563
# 3 74.0359 56.7506 171.3884 45.3937 14.7797 4.5650
# 4 25.4305 35.6634 45.3937 40.1706 -2.6959 -10.6790
# 5 -8.5170 2.4485 14.7797 -2.6959 68.2933 -0.4750
# 6 -20.0578 -12.7563 4.5650 -10.6790 -0.4750 46.1643
#
#
#
# Elastic Compliance Matrix: (Units=1/GPa)
#
#
# Indices 1 2 3 4 5 6 
#
# 1 0.005242 -0.000823 -0.002397 0.000870 0.001254 0.002501
# 2 -0.000823 0.015235 -0.001905 -0.010466 -0.000639 0.001613
# 3 -0.002397 -0.001905 0.010632 -0.010346 -0.002975 -0.005043
# 4 0.000870 -0.010466 -0.010346 0.048223 0.004694 0.009713
# 5 0.001254 -0.000639 -0.002975 0.004694 0.015664 0.001909
# 6 0.002501 0.001613 -0.005043 0.009713 0.001909 0.025959
#
#
# Mechanical properties :
#
#
# Convention : Reuss Voigt Hill
#
# Bulk Modulus (GPa) = 47.94255 95.01891 71.48073
# Shear Modulus (GPa) = 36.19048 53.50315 44.84681
#
# Velocity S-wave (km/s) = 3.71886 4.52171 4.13979
# Velocity P-wave (km/s) = 6.06307 7.97320 7.08282
#
# Compressibility (1/GPa) = 0.02085830
#
# Stress axis : x y z
#
# Youngs Moduli (GPa) = 190.77822 65.63984 94.05541
#
# Poissons Ratio (x) = 0.05404 0.22544
# Poissons Ratio (y) = 0.15706 0.17916
# Poissons Ratio (z) = 0.45728 0.12504
#
# Static dielectric constant tensor:
#      x y z
#    x 2.333920 0.128830 -0.199870 
#    y 0.128830 2.274870 -0.169100 
#    z -0.199870 -0.169100 2.253920 
# 
# From -- ./inp_files/232196.got.cif
#   From: 2010.05.17/outbox.cif.g08.bks.cpg/sg2_117_cif.got.tgz:232196.got - 2010.06.03 11:33:40.
