data_PCOD9062878
_publ_section_title
;
Structure prediction by ZEFSAII (Michael W. Deem and Ramdas Pophale) SiO2 
 PCOD9062878
Probable space group: P -1
;
_chemical_formula_sum "Si O2"
_cell_formula_units_Z 14
_cell_length_a 14.922674
_cell_length_b 8.818053
_cell_length_c 16.946179
_cell_angle_alpha 81.861090
_cell_angle_beta 157.336748
_cell_angle_gamma 83.825261
_cell_volume 664.319449
_symmetry_space_group_name_H-M "P -1"
_symmetry_group_IT_number 2
_symmetry_cell_setting 'triclinic'
loop_
_space_group_symop_operation_xyz
x,y,z
-x,-y,-z
loop_
_atom_site_type_symbol
_atom_site_label
_atom_site_fract_x
_atom_site_fract_y
_atom_site_fract_z
Si Si1 0.582760 0.708359 0.003773
Si Si2 0.292995 0.280441 0.242977
Si Si3 0.422762 0.315560 0.175233
Si Si4 0.182676 0.284739 0.405984
Si Si5 0.236422 0.514444 0.567524
Si Si6 0.700133 0.063580 0.715743
Si Si7 0.272483 0.706976 0.885107
O O1 0.679801 0.488766 0.090764
O O2 0.880291 0.666691 0.281435
O O3 0.512896 0.785593 0.851242
O O4 0.313501 0.808966 0.839614
O O5 0.385028 0.236067 0.229818
O O6 0.571219 0.216536 0.527704
O O7 0.228122 0.139567 0.235389
O O8 0.000000 0.500000 0.000000
O O9 0.649065 0.363119 0.370228
O O10 0.098292 0.526327 0.882107
O O11 0.272038 0.371458 0.539307
O O12 0.450907 0.159359 0.573535
O O13 0.043908 0.183983 0.336526
O O14 0.451177 0.379150 0.824480
O O15 0.000000 0.000000 0.000000
#
# Coordination Sequence:
#
# PCOD9062878 Si02
#       7
#     2   2   2   2   2   2   2
#     4   8  14  25  44  80 111 143 189 227 277 334
#     4  11  24  43  63  84 117 155 195 243 299 349
#     4   9  18  33  55  79 113 150 186 236 283 342
#     4   9  18  33  51  81 114 148 190 232 285 340
#     4   8  15  24  49  77 113 146 184 230 280 333
#     4  11  26  40  61  90 116 152 200 244 292 351
#     4   8  14  25  46  74 114 150 180 229 279 336
#
# _framework density 21.074199
#
# number of rings (size 3 to 8) (size 9 to 14) (size 15 to 20)
#    0.000    3.429    1.429    0.429    2.000    5.143 
#    0.000    0.000    0.000    0.857    0.000    3.000 
#    0.000    0.000    0.000    0.000    0.000    0.429 
#
# Total GULP energy -77961.134200 kJ/mol
# GULP energy per Si atom -5568.652443 kJ/mol
# Density = 2.102623 g / cm^3
# Si number density = 21.074199 Si / 1000 Ang^3
#
#
#
# Elastic Constant Matrix: (Units=GPa)
#
#
# Indices 1 2 3 4 5 6 
#
# 1 108.8052 -1.4366 44.5220 1.7558 3.6070 25.7542
# 2 -1.4366 23.9621 27.4580 6.3085 -7.7073 2.7944
# 3 44.5220 27.4580 129.5351 21.3836 -7.2425 11.2345
# 4 1.7558 6.3085 21.3836 32.4980 -2.6474 -6.1494
# 5 3.6070 -7.7073 -7.2425 -2.6474 25.2331 -5.3402
# 6 25.7542 2.7944 11.2345 -6.1494 -5.3402 16.2560
#
#
#
# Elastic Compliance Matrix: (Units=1/GPa)
#
#
# Indices 1 2 3 4 5 6 
#
# 1 0.020804 0.010661 -0.005541 -0.007357 -0.009911 -0.037002
# 2 0.010661 0.065967 -0.014562 -0.006224 0.010156 -0.017184
# 3 -0.005541 -0.014562 0.013748 -0.006090 -0.000494 -0.000686
# 4 -0.007357 -0.006224 -0.006090 0.044163 0.009839 0.036872
# 5 -0.009911 0.010156 -0.000494 0.009839 0.052504 0.035267
# 6 -0.037002 -0.017184 -0.000686 0.036872 0.035267 0.149099
#
#
# Mechanical properties :
#
#
# Convention : Reuss Voigt Hill
#
# Bulk Modulus (GPa) = 12.24948 44.82102 28.53525
# Shear Modulus (GPa) = 12.74268 27.58134 20.16201
#
# Velocity S-wave (km/s) = 2.46165 3.62162 3.09644
# Velocity P-wave (km/s) = 3.72891 6.22917 5.13358
#
# Compressibility (1/GPa) = 0.08163610
#
# Stress axis : x y z
#
# Youngs Moduli (GPa) = 48.06660 15.15901 72.73593
#
# Poissons Ratio (x) = -0.16161 0.40302
# Poissons Ratio (y) = -0.51242 1.05917
# Poissons Ratio (z) = 0.26633 0.22074
#
# Static dielectric constant tensor:
#      x y z
#    x 1.872310 -0.013970 -0.022600 
#    y -0.013970 1.784850 0.017790 
#    z -0.022600 0.017790 1.831860 
# 
# From -- ./inp_files/572595.got.cif
#   From: 2010.05.17/outbox.cif.g08.bks.cpg/sg2_287_cif.got.tgz:572595.got - 2010.06.03 11:33:40.
