data_PCOD9062216
_publ_section_title
;
Structure prediction by ZEFSAII (Michael W. Deem and Ramdas Pophale) SiO2 
 PCOD9062216
Probable space group: P -1
;
_chemical_formula_sum "Si O2"
_cell_formula_units_Z 12
_cell_length_a 6.885551
_cell_length_b 16.604946
_cell_length_c 6.964660
_cell_angle_alpha 114.000910
_cell_angle_beta 61.664074
_cell_angle_gamma 137.079951
_cell_volume 474.956186
_symmetry_space_group_name_H-M "P -1"
_symmetry_group_IT_number 2
_symmetry_cell_setting 'triclinic'
loop_
_space_group_symop_operation_xyz
x,y,z
-x,-y,-z
loop_
_atom_site_type_symbol
_atom_site_label
_atom_site_fract_x
_atom_site_fract_y
_atom_site_fract_z
Si Si1 0.832921 0.142779 0.936523
Si Si2 0.614265 0.494489 0.738392
Si Si3 0.831428 0.097887 0.343817
Si Si4 0.972634 0.684256 0.297685
Si Si5 0.268840 0.072678 0.258584
Si Si6 0.285334 0.687325 0.468688
O O1 0.473649 0.184476 0.417120
O O2 0.010475 0.267607 0.873687
O O3 0.866458 0.057145 0.732141
O O4 0.503819 0.095220 0.019012
O O5 0.338543 0.449018 0.687978
O O6 0.630065 0.391687 0.622799
O O7 0.047714 0.387880 0.360319
O O8 0.500000 0.500000 0.000000
O O9 0.863428 0.133732 0.139574
O O10 0.998731 0.222082 0.493242
O O11 0.018025 0.060658 0.261522
O O12 0.500000 0.000000 0.500000
O O13 0.236698 0.695626 0.273023
#
# Coordination Sequence:
#
# PCOD9062216 Si02
#       6
#     2   2   2   2   2   2
#     4  11  26  44  74 113 148 201 250 293 386 453
#     4  11  26  49  79 108 144 197 258 314 373 450
#     4  12  26  45  73 105 152 201 245 306 368 444
#     4  12  26  47  73 110 153 190 243 313 373 453
#     4  11  23  48  72 108 153 192 254 303 364 458
#     4  11  25  49  77 110 149 199 248 314 383 436
#
# _framework density 25.265488000000001
#
# number of rings (size 3 to 8) (size 9 to 14) (size 15 to 20)
#    0.000    0.667    3.333    4.000    0.000    6.000 
#    0.000    0.000    0.000    0.000    0.000    0.000 
#    0.000    0.000    0.000    0.000    0.000    0.000 
#
# Total GULP energy -67023.954063 kJ/mol
# GULP energy per Si atom -5585.329505 kJ/mol
# Density = 2.520798 g / cm^3
# Si number density = 25.265488 Si / 1000 Ang^3
#
#
#
# Elastic Constant Matrix: (Units=GPa)
#
#
# Indices 1 2 3 4 5 6 
#
# 1 161.2246 22.4331 36.8847 -5.1693 -3.3011 6.0926
# 2 22.4331 83.1612 32.8395 1.6810 12.4409 14.6660
# 3 36.8847 32.8395 92.8530 -6.6383 24.9468 16.6964
# 4 -5.1693 1.6810 -6.6383 47.6716 -4.2473 0.4152
# 5 -3.3011 12.4409 24.9468 -4.2473 48.1196 2.5065
# 6 6.0926 14.6660 16.6964 0.4152 2.5065 49.5159
#
#
#
# Elastic Compliance Matrix: (Units=1/GPa)
#
#
# Indices 1 2 3 4 5 6 
#
# 1 0.007126 -0.001138 -0.003106 0.000593 0.002426 0.000380
# 2 -0.001138 0.014637 -0.003816 -0.001312 -0.001853 -0.002804
# 3 -0.003106 -0.003816 0.016033 0.001417 -0.007229 -0.003540
# 4 0.000593 -0.001312 0.001417 0.021427 0.001558 -0.000421
# 5 0.002426 -0.001853 -0.007229 0.001558 0.025240 0.001397
# 6 0.000380 -0.002804 -0.003540 -0.000421 0.001397 0.022106
#
#
# Mechanical properties :
#
#
# Convention : Reuss Voigt Hill
#
# Bulk Modulus (GPa) = 46.13348 57.95037 52.04193
# Shear Modulus (GPa) = 38.48705 45.40017 41.94361
#
# Velocity S-wave (km/s) = 3.90719 4.24361 4.07887
# Velocity P-wave (km/s) = 6.21723 6.85546 6.54413
#
# Compressibility (1/GPa) = 0.02167623
#
# Stress axis : x y z
#
# Youngs Moduli (GPa) = 140.33717 68.31995 62.37013
#
# Poissons Ratio (x) = 0.07772 0.19371
# Poissons Ratio (y) = 0.15964 0.23804
# Poissons Ratio (z) = 0.43587 0.26074
#
# Static dielectric constant tensor:
#      x y z
#    x 2.043860 0.016500 0.041700 
#    y 0.016500 2.125140 -0.076580 
#    z 0.041700 -0.076580 2.074220 
# 
# From -- ./inp_files/133319.got.cif
#   From: 2010.05.17/outbox.cif.g08.bks.cpg/sg2_67_cif.got.tgz:133319.got - 2010.06.03 11:33:40.
