data_PCOD9062557
_publ_section_title
;
Structure prediction by ZEFSAII (Michael W. Deem and Ramdas Pophale) SiO2 
 PCOD9062557
Probable space group: P -1
;
_chemical_formula_sum "Si O2"
_cell_formula_units_Z 12
_cell_length_a 11.141191
_cell_length_b 13.445755
_cell_length_c 16.889109
_cell_angle_alpha 39.957426
_cell_angle_beta 138.413264
_cell_angle_gamma 159.424141
_cell_volume 565.861041
_symmetry_space_group_name_H-M "P -1"
_symmetry_group_IT_number 2
_symmetry_cell_setting 'triclinic'
loop_
_space_group_symop_operation_xyz
x,y,z
-x,-y,-z
loop_
_atom_site_type_symbol
_atom_site_label
_atom_site_fract_x
_atom_site_fract_y
_atom_site_fract_z
Si Si1 0.899743 0.954201 0.151733
Si Si2 0.144056 0.660581 0.755991
Si Si3 0.143819 0.813167 0.404316
Si Si4 0.481545 0.598248 0.007657
Si Si5 0.300605 0.692417 0.093240
Si Si6 0.257922 0.699337 0.380716
O O1 0.778818 0.814253 0.089009
O O2 0.556940 0.744987 0.158545
O O3 0.125517 0.982993 0.284159
O O4 0.128811 0.275634 0.067924
O O5 0.872002 0.472800 0.807165
O O6 0.954095 0.460882 0.706460
O O7 0.352865 0.968394 0.649998
O O8 0.423453 0.733794 0.872731
O O9 0.115302 0.722447 0.357772
O O10 0.829281 0.521744 0.480429
O O11 0.500000 0.000000 0.500000
O O12 0.500000 0.500000 0.000000
O O13 0.000000 0.500000 0.000000
O O14 0.500000 0.000000 0.000000
#
# Coordination Sequence:
#
# PCOD9062557 Si02
#       6
#     2   2   2   2   2   2
#     4  12  25  43  67  98 130 180 223 261 339 399
#     4  12  22  41  68  97 135 169 222 272 335 387
#     4  11  25  46  70  93 138 176 225 267 339 387
#     4  12  24  39  65 102 137 162 217 280 339 400
#     4  12  23  46  66  96 137 180 215 272 333 400
#     4  11  24  41  69  96 130 178 217 278 327 390
#
# _framework density 21.206619
#
# number of rings (size 3 to 8) (size 9 to 14) (size 15 to 20)
#    0.000    0.333    5.000    4.500    4.667    0.000 
#    0.000    1.667    0.000    0.000    0.000    0.000 
#    0.000    0.000    0.000    0.000    0.000    0.000 
#
# Total GULP energy -67099.786614 kJ/mol
# GULP energy per Si atom -5591.648884 kJ/mol
# Density = 2.115835 g / cm^3
# Si number density = 21.206619 Si / 1000 Ang^3
#
#
#
# Elastic Constant Matrix: (Units=GPa)
#
#
# Indices 1 2 3 4 5 6 
#
# 1 67.0750 22.2281 51.8737 6.8637 -13.7008 8.9739
# 2 22.2281 134.4261 41.2301 -5.9389 -20.1940 -12.0490
# 3 51.8737 41.2301 74.3124 1.6885 -29.4382 2.4938
# 4 6.8637 -5.9389 1.6885 44.4995 9.3520 -7.3153
# 5 -13.7008 -20.1940 -29.4382 9.3520 31.2995 -1.3780
# 6 8.9739 -12.0490 2.4938 -7.3153 -1.3780 32.7072
#
#
#
# Elastic Compliance Matrix: (Units=1/GPa)
#
#
# Indices 1 2 3 4 5 6 
#
# 1 0.037866 0.000497 -0.030829 -0.003717 -0.011393 -0.009167
# 2 0.000497 0.009663 -0.005577 0.001965 0.000810 0.004322
# 3 -0.030829 -0.005577 0.050746 -0.004156 0.032007 0.002954
# 4 -0.003717 0.001965 -0.004156 0.027261 -0.012076 0.007649
# 5 -0.011393 0.000810 0.032007 -0.012076 0.061234 0.000863
# 6 -0.009167 0.004322 0.002954 0.007649 0.000863 0.036204
#
#
# Mechanical properties :
#
#
# Convention : Reuss Voigt Hill
#
# Bulk Modulus (GPa) = 37.79853 56.27525 47.03689
# Shear Modulus (GPa) = 16.46839 32.40002 24.43420
#
# Velocity S-wave (km/s) = 2.78972 3.91298 3.39809
# Velocity P-wave (km/s) = 5.31407 6.85635 6.13387
#
# Compressibility (1/GPa) = 0.02645606
#
# Stress axis : x y z
#
# Youngs Moduli (GPa) = 26.40888 103.48372 19.70600
#
# Poissons Ratio (x) = -0.05143 0.60752
# Poissons Ratio (y) = -0.01312 0.10991
# Poissons Ratio (z) = 0.81417 0.57716
#
# Static dielectric constant tensor:
#      x y z
#    x 1.764890 0.032330 -0.048200 
#    y 0.032330 1.788320 -0.025690 
#    z -0.048200 -0.025690 1.763510 
# 
# From -- ./inp_files/63395.got.cif
#   From: 2010.05.17/outbox.cif.g08.bks.cpg/sg2_32_cif.got.tgz:63395.got - 2010.06.03 11:33:40.
