data_PCOD9062334
_publ_section_title
;
Structure prediction by ZEFSAII (Michael W. Deem and Ramdas Pophale) SiO2 
 PCOD9062334
Probable space group: P -1
;
_chemical_formula_sum "Si O2"
_cell_formula_units_Z 12
_cell_length_a 9.924309
_cell_length_b 6.221971
_cell_length_c 15.238552
_cell_angle_alpha 66.587093
_cell_angle_beta 141.884293
_cell_angle_gamma 98.224550
_cell_volume 508.544825
_symmetry_space_group_name_H-M "P -1"
_symmetry_group_IT_number 2
_symmetry_cell_setting 'triclinic'
loop_
_space_group_symop_operation_xyz
x,y,z
-x,-y,-z
loop_
_atom_site_type_symbol
_atom_site_label
_atom_site_fract_x
_atom_site_fract_y
_atom_site_fract_z
Si Si1 0.693250 0.666323 0.226432
Si Si2 0.204363 0.644248 0.521936
Si Si3 0.819971 0.971420 0.692675
Si Si4 0.260243 0.125141 0.960474
Si Si5 0.462264 0.701313 0.370344
Si Si6 0.958044 0.431486 0.891786
O O1 0.692813 0.421547 0.317799
O O2 0.700844 0.681378 0.122668
O O3 0.931565 0.705735 0.373433
O O4 0.480642 0.891744 0.110264
O O5 0.314297 0.397230 0.559423
O O6 0.255889 0.862367 0.459189
O O7 0.364815 0.947898 0.336674
O O8 0.884431 0.683621 0.757543
O O9 0.044303 0.039776 0.830449
O O10 0.182654 0.251750 0.992452
O O11 0.500000 0.500000 0.500000
O O12 0.251158 0.681182 0.205449
O O13 0.000000 0.500000 0.000000
#
# Coordination Sequence:
#
# PCOD9062334 Si02
#       6
#     2   2   2   2   2   2
#     4   9  18  36  62  86 113 160 204 237 292 361
#     4   9  18  34  61  85 111 157 203 237 294 355
#     4   9  20  38  60  88 121 153 195 253 302 349
#     4   9  20  39  62  84 120 159 194 249 300 353
#     4   9  20  38  62  87 120 160 192 250 303 351
#     4  11  24  37  61  95 120 153 204 251 301 356
#
# _framework density 23.596737999999998
#
# number of rings (size 3 to 8) (size 9 to 14) (size 15 to 20)
#    0.000    2.667    0.000    1.000    4.667    4.000 
#    0.000    8.333    0.000    0.000    0.000    0.000 
#    0.000    0.000    0.000    0.000    0.000    0.000 
#
# Total GULP energy -67049.178686 kJ/mol
# GULP energy per Si atom -5587.431557 kJ/mol
# Density = 2.354303 g / cm^3
# Si number density = 23.596738 Si / 1000 Ang^3
#
#
#
# Elastic Constant Matrix: (Units=GPa)
#
#
# Indices 1 2 3 4 5 6 
#
# 1 132.2814 40.4059 72.1952 -3.5710 11.6664 -12.9369
# 2 40.4059 46.3278 22.8449 -0.7845 6.8455 4.1089
# 3 72.1952 22.8449 119.5208 -5.4006 3.7719 -5.2775
# 4 -3.5710 -0.7845 -5.4006 28.3693 -1.0882 -3.4928
# 5 11.6664 6.8455 3.7719 -1.0882 50.9954 -18.8377
# 6 -12.9369 4.1089 -5.2775 -3.4928 -18.8377 22.1739
#
#
#
# Elastic Compliance Matrix: (Units=1/GPa)
#
#
# Indices 1 2 3 4 5 6 
#
# 1 0.016089 -0.012344 -0.006782 0.002167 0.003449 0.013331
# 2 -0.012344 0.036190 -0.000351 -0.003981 -0.010920 -0.023896
# 3 -0.006782 -0.000351 0.012575 0.001546 0.000670 -0.000086
# 4 0.002167 -0.003981 0.001546 0.037514 0.005513 0.012962
# 5 0.003449 -0.010920 0.000670 0.005513 0.032390 0.032580
# 6 0.013331 -0.023896 -0.000086 0.012962 0.032580 0.087003
#
#
# Mechanical properties :
#
#
# Convention : Reuss Voigt Hill
#
# Bulk Modulus (GPa) = 38.60871 63.22465 50.91668
# Shear Modulus (GPa) = 18.56330 31.15333 24.85832
#
# Velocity S-wave (km/s) = 2.80784 3.63745 3.24923
# Velocity P-wave (km/s) = 5.18742 6.67034 5.97506
#
# Compressibility (1/GPa) = 0.02590089
#
# Stress axis : x y z
#
# Youngs Moduli (GPa) = 62.15261 27.63177 79.52207
#
# Poissons Ratio (x) = 0.34109 0.53928
# Poissons Ratio (y) = 0.76721 0.02795
# Poissons Ratio (z) = 0.42149 0.00971
#
# Static dielectric constant tensor:
#      x y z
#    x 1.936310 0.023670 -0.031720 
#    y 0.023670 1.869330 -0.028030 
#    z -0.031720 -0.028030 1.927660 
# 
# From -- ./inp_files/564093.got.cif
#   From: 2010.05.17/outbox.cif.g08.bks.cpg/sg2_283_cif.got.tgz:564093.got - 2010.06.03 11:33:40.
