data_PCOD9062482
_publ_section_title
;
Structure prediction by ZEFSAII (Michael W. Deem and Ramdas Pophale) SiO2 
 PCOD9062482
Probable space group: P -1
;
_chemical_formula_sum "Si O2"
_cell_formula_units_Z 16
_cell_length_a 17.975408
_cell_length_b 15.540870
_cell_length_c 5.385145
_cell_angle_alpha 96.120667
_cell_angle_beta 104.687955
_cell_angle_gamma 29.729641
_cell_volume 701.132761
_symmetry_space_group_name_H-M "P -1"
_symmetry_group_IT_number 2
_symmetry_cell_setting 'triclinic'
loop_
_space_group_symop_operation_xyz
x,y,z
-x,-y,-z
loop_
_atom_site_type_symbol
_atom_site_label
_atom_site_fract_x
_atom_site_fract_y
_atom_site_fract_z
Si Si1 0.971379 0.582577 0.251482
Si Si2 0.959999 0.865257 0.047587
Si Si3 0.203151 0.517121 0.431422
Si Si4 0.257695 0.589927 0.887322
Si Si5 0.535201 0.185151 0.462128
Si Si6 0.829154 0.144419 0.294153
Si Si7 0.704056 0.973334 0.018246
Si Si8 0.456245 0.640629 0.580586
O O1 0.000000 0.500000 0.500000
O O2 0.091703 0.544901 0.366064
O O3 0.798765 0.795232 0.132717
O O4 0.000000 0.500000 0.000000
O O5 0.095035 0.704910 0.313113
O O6 0.872340 0.042483 0.064187
O O7 0.834266 0.912784 0.997068
O O8 0.075445 0.758798 0.878214
O O9 0.286069 0.473211 0.731883
O O10 0.347919 0.353199 0.322668
O O11 0.259812 0.678349 0.770097
O O12 0.396143 0.471821 0.164155
O O13 0.558314 0.263808 0.587189
O O14 0.595445 0.068757 0.710444
O O15 0.623080 0.086383 0.240965
O O16 0.712901 0.201242 0.379002
O O17 0.000000 0.000000 0.500000
O O18 0.500000 0.500000 0.500000
#
# Coordination Sequence:
#
# PCOD9062482 Si02
#       8
#     2   2   2   2   2   2   2   2
#     4  11  27  52  82 117 150 186 235 304 384 464
#     4  11  24  41  65 100 139 192 250 309 361 437
#     4  11  26  46  75 103 147 190 244 296 378 453
#     4  12  25  44  67  98 145 200 256 309 378 431
#     4  12  25  48  71 110 147 202 250 304 360 437
#     4  12  24  41  62  99 138 196 261 317 363 418
#     4  11  27  45  79 108 145 190 247 300 374 441
#     4  12  26  42  65  99 151 206 262 309 366 418
#
# _framework density 22.820215999999999
#
# number of rings (size 3 to 8) (size 9 to 14) (size 15 to 20)
#    0.000    0.500    3.750    3.750   10.500    0.000 
#    0.000    3.750    0.000    0.000    0.000    0.000 
#    0.000    0.000    0.000    0.000    0.000    0.000 
#
# Total GULP energy -89321.656671 kJ/mol
# GULP energy per Si atom -5582.603542 kJ/mol
# Density = 2.276828 g / cm^3
# Si number density = 22.820216 Si / 1000 Ang^3
#
#
#
# Elastic Constant Matrix: (Units=GPa)
#
#
# Indices 1 2 3 4 5 6 
#
# 1 94.5343 35.9472 32.4297 4.8585 -17.3592 3.5431
# 2 35.9472 98.1898 24.1340 4.9378 2.2405 -2.0174
# 3 32.4297 24.1340 98.6591 -6.9355 -5.5682 11.7303
# 4 4.8585 4.9378 -6.9355 44.6203 4.5229 -4.4631
# 5 -17.3592 2.2405 -5.5682 4.5229 29.6614 -1.9798
# 6 3.5431 -2.0174 11.7303 -4.4631 -1.9798 49.3425
#
#
#
# Elastic Compliance Matrix: (Units=1/GPa)
#
#
# Indices 1 2 3 4 5 6 
#
# 1 0.015470 -0.004881 -0.003520 -0.002653 0.009143 -0.000347
# 2 -0.004881 0.012577 -0.001872 -0.000638 -0.003988 0.001092
# 3 -0.003520 -0.001872 0.012202 0.002248 -0.000140 -0.002527
# 4 -0.002653 -0.000638 0.002248 0.023746 -0.004597 0.001593
# 5 0.009143 -0.003988 -0.000140 -0.004597 0.040068 0.000406
# 6 -0.000347 0.001092 -0.002527 0.001593 0.000406 0.021097
#
#
# Mechanical properties :
#
#
# Convention : Reuss Voigt Hill
#
# Bulk Modulus (GPa) = 50.75550 52.93389 51.84470
# Shear Modulus (GPa) = 32.83596 37.98300 35.40948
#
# Velocity S-wave (km/s) = 3.79740 4.08419 3.94340
# Velocity P-wave (km/s) = 6.44335 6.74442 6.59560
#
# Compressibility (1/GPa) = 0.01970230
#
# Stress axis : x y z
#
# Youngs Moduli (GPa) = 64.64145 79.51179 81.95643
#
# Poissons Ratio (x) = 0.38806 0.28852
# Poissons Ratio (y) = 0.31549 0.15342
# Poissons Ratio (z) = 0.22757 0.14885
#
# Static dielectric constant tensor:
#      x y z
#    x 1.818200 -0.000900 -0.055850 
#    y -0.000900 1.943790 0.008410 
#    z -0.055850 0.008410 1.975130 
# 
# From -- ./inp_files/39028.got.cif
#   From: 2010.05.17/outbox.cif.g08.bks.cpg/sg2_20_cif.got.tgz:39028.got - 2010.06.03 11:33:40.
