data_PCOD9062877
_publ_section_title
;
Structure prediction by ZEFSAII (Michael W. Deem and Ramdas Pophale) SiO2 
 PCOD9062877
Probable space group: P -1
;
_chemical_formula_sum "Si O2"
_cell_formula_units_Z 16
_cell_length_a 11.740728
_cell_length_b 20.904589
_cell_length_c 8.069159
_cell_angle_alpha 50.266506
_cell_angle_beta 147.397590
_cell_angle_gamma 139.534806
_cell_volume 692.512645
_symmetry_space_group_name_H-M "P -1"
_symmetry_group_IT_number 2
_symmetry_cell_setting 'triclinic'
loop_
_space_group_symop_operation_xyz
x,y,z
-x,-y,-z
loop_
_atom_site_type_symbol
_atom_site_label
_atom_site_fract_x
_atom_site_fract_y
_atom_site_fract_z
Si Si1 0.172716 0.118734 0.512760
Si Si2 0.719005 0.345920 0.430403
Si Si3 0.272033 0.961725 0.403695
Si Si4 0.089279 0.611779 0.744940
Si Si5 0.296648 0.798845 0.848625
Si Si6 0.964265 0.722040 0.888005
Si Si7 0.375812 0.581790 0.451881
Si Si8 0.262756 0.147290 0.205207
O O1 0.029963 0.176283 0.255415
O O2 0.308985 0.151193 0.449764
O O3 0.408939 0.163123 0.851785
O O4 0.000000 0.000000 0.500000
O O5 0.842128 0.413940 0.306546
O O6 0.662745 0.382653 0.473039
O O7 0.455603 0.253847 0.195738
O O8 0.893386 0.303876 0.760236
O O9 0.291860 0.897352 0.675972
O O10 0.500000 0.000000 0.500000
O O11 0.280497 0.057805 0.311041
O O12 0.019360 0.887956 0.119270
O O13 0.171930 0.725244 0.663219
O O14 0.796065 0.536473 0.546568
O O15 0.247221 0.603822 0.103254
O O16 0.116924 0.735239 0.885485
O O17 0.669340 0.636378 0.679542
#
# Coordination Sequence:
#
# PCOD9062877 Si02
#       8
#     2   2   2   2   2   2   2   2
#     4  12  25  42  68  96 141 188 232 286 343 405
#     4  12  25  46  72 104 141 182 236 286 352 418
#     4  11  26  41  65  98 140 179 236 285 342 417
#     4  11  25  47  76  99 141 185 226 302 348 413
#     4  12  25  45  67 108 135 185 237 279 354 415
#     4  12  24  45  70  99 147 179 233 295 337 431
#     4  11  25  51  69 105 140 179 239 289 354 414
#     4  11  24  43  62 101 137 179 230 284 340 413
#
# _framework density 23.104272000000002
#
# number of rings (size 3 to 8) (size 9 to 14) (size 15 to 20)
#    0.000    0.500    5.000    2.625    7.000    4.000 
#    0.000    0.000    0.000    0.000    0.000    0.000 
#    0.000    0.000    0.000    0.000    0.000    0.000 
#
# Total GULP energy -89395.459593 kJ/mol
# GULP energy per Si atom -5587.216225 kJ/mol
# Density = 2.305169 g / cm^3
# Si number density = 23.104272 Si / 1000 Ang^3
#
#
#
# Elastic Constant Matrix: (Units=GPa)
#
#
# Indices 1 2 3 4 5 6 
#
# 1 131.5471 -103.0574 -54.2600 -74.2481 -5.0042 -61.7972
# 2 -103.0574 634.2233 394.9769 426.0794 11.6569 368.6822
# 3 -54.2600 394.9769 324.0624 284.2275 18.2210 234.6980
# 4 -74.2481 426.0794 284.2275 315.9543 5.8782 265.9806
# 5 -5.0042 11.6569 18.2210 5.8782 31.4374 3.1204
# 6 -61.7972 368.6822 234.6980 265.9806 3.1204 274.5748
#
#
#
# Elastic Compliance Matrix: (Units=1/GPa)
#
#
# Indices 1 2 3 4 5 6 
#
# 1 0.009086 0.000830 -0.002181 0.003299 0.001828 -0.000422
# 2 0.000830 0.018182 -0.003349 -0.017983 -0.000916 -0.003934
# 3 -0.002181 -0.003349 0.017008 -0.012840 -0.006759 0.001983
# 4 0.003299 -0.017983 -0.012840 0.051444 0.006410 -0.014042
# 5 0.001828 -0.000916 -0.006759 0.006410 0.035078 0.000811
# 6 -0.000422 -0.003934 0.001983 -0.014042 0.000811 0.020728
#
#
# Mechanical properties :
#
#
# Convention : Reuss Voigt Hill
#
# Bulk Modulus (GPa) = 28.67234 173.90574 101.28904
# Shear Modulus (GPa) = 28.97681 181.20486 105.09084
#
# Velocity S-wave (km/s) = 3.54528 8.86563 6.75161
# Velocity P-wave (km/s) = 5.40329 13.42507 10.23299
#
# Compressibility (1/GPa) = 0.03487681
#
# Stress axis : x y z
#
# Youngs Moduli (GPa) = 110.06141 54.99926 58.79558
#
# Poissons Ratio (x) = -0.04565 0.12824
# Poissons Ratio (y) = -0.09136 0.19688
# Poissons Ratio (z) = 0.24005 0.18417
#
# Static dielectric constant tensor:
#      x y z
#    x 1.877930 0.002980 -0.014410 
#    y 0.002980 1.865050 -0.094000 
#    z -0.014410 -0.094000 1.887920 
# 
# From -- ./inp_files/117410.got.cif
#   From: 2010.05.17/outbox.cif.g08.bks.cpg/sg2_59_cif.got.tgz:117410.got - 2010.06.03 11:33:40.
