data_PCOD9062331
_publ_section_title
;
Structure prediction by ZEFSAII (Michael W. Deem and Ramdas Pophale) SiO2 
 PCOD9062331
Probable space group: P -1
;
_chemical_formula_sum "Si O2"
_cell_formula_units_Z 16
_cell_length_a 7.911531
_cell_length_b 13.780960
_cell_length_c 7.795454
_cell_angle_alpha 118.122164
_cell_angle_beta 93.162169
_cell_angle_gamma 114.173719
_cell_volume 650.510074
_symmetry_space_group_name_H-M "P -1"
_symmetry_group_IT_number 2
_symmetry_cell_setting 'triclinic'
loop_
_space_group_symop_operation_xyz
x,y,z
-x,-y,-z
loop_
_atom_site_type_symbol
_atom_site_label
_atom_site_fract_x
_atom_site_fract_y
_atom_site_fract_z
Si Si1 0.356499 0.937628 0.684990
Si Si2 0.008714 0.698760 0.345854
Si Si3 0.604221 0.521855 0.746674
Si Si4 0.690017 0.738252 0.562332
Si Si5 0.755572 0.985572 0.915367
Si Si6 0.717780 0.439731 0.040552
Si Si7 0.105015 0.218041 0.943579
Si Si8 0.427029 0.182146 0.731922
O O1 0.556957 0.963129 0.798633
O O2 0.225961 0.794265 0.496316
O O3 0.391473 0.042235 0.632167
O O4 0.243310 0.964997 0.853430
O O5 0.864698 0.718869 0.483661
O O6 0.930153 0.548306 0.202699
O O7 0.975889 0.742731 0.194730
O O8 0.495665 0.398735 0.517387
O O9 0.433511 0.545256 0.831082
O O10 0.675803 0.477609 0.882410
O O11 0.788283 0.657295 0.824413
O O12 0.749720 0.851538 0.792845
O O13 0.621607 0.786339 0.431062
O O14 0.932987 0.093115 0.910125
O O15 0.640347 0.290620 0.899414
O O16 0.271832 0.194015 0.854380
#
# Coordination Sequence:
#
# PCOD9062331 Si02
#       8
#     2   2   2   2   2   2   2   2
#     4  11  24  37  46  64 100 141 174 203 238 282
#     4   9  17  32  56  81 100 122 157 201 248 296
#     4   7  12  26  50  79 104 120 144 193 250 297
#     4   9  17  32  56  81 100 122 157 201 248 296
#     4  11  24  37  46  64 100 141 174 203 238 282
#     4   7  12  26  50  79 104 120 144 193 250 297
#     4   9  17  32  56  81 100 122 157 201 248 296
#     4   9  17  32  56  81 100 122 157 201 248 296
#
# _framework density 24.596083
#
# number of rings (size 3 to 8) (size 9 to 14) (size 15 to 20)
#    0.000    3.000    0.000    4.500    0.000    6.000 
#    0.000    2.500    0.000   12.000    0.000    0.000 
#    0.000    0.000    0.000    0.000    0.000    0.000 
#
# Total GULP energy -89536.311142 kJ/mol
# GULP energy per Si atom -5596.019446 kJ/mol
# Density = 2.454010 g / cm^3
# Si number density = 24.596083 Si / 1000 Ang^3
#
#
#
# Elastic Constant Matrix: (Units=GPa)
#
#
# Indices 1 2 3 4 5 6 
#
# 1 66.4782 32.7588 44.3778 13.5855 2.5004 11.4392
# 2 32.7588 103.9144 30.8757 14.9748 1.0672 46.5483
# 3 44.3778 30.8757 129.4097 20.9889 5.8132 46.4005
# 4 13.5855 14.9748 20.9889 27.6728 7.2517 35.7327
# 5 2.5004 1.0672 5.8132 7.2517 47.4917 7.2547
# 6 11.4392 46.5483 46.4005 35.7327 7.2547 -0.3253
#
#
#
# Elastic Compliance Matrix: (Units=1/GPa)
#
#
# Indices 1 2 3 4 5 6 
#
# 1 0.019770 -0.002630 -0.004464 0.002829 0.000048 -0.005993
# 2 -0.002630 0.010003 -0.001851 -0.009905 0.000828 0.005397
# 3 -0.004464 -0.001851 0.009858 -0.008903 -0.000121 0.003602
# 4 0.002829 -0.009905 -0.008903 0.024820 -0.005401 0.018165
# 5 0.000048 0.000828 -0.000121 -0.005401 0.021961 -0.000568
# 6 -0.005993 0.005397 0.003602 0.018165 -0.000568 -0.016051
#
#
# Mechanical properties :
#
#
# Convention : Reuss Voigt Hill
#
# Bulk Modulus (GPa) = 45.99574 57.31412 51.65493
# Shear Modulus (GPa) = 52.35728 27.75386 40.05557
#
# Velocity S-wave (km/s) = 4.61877 3.36279 4.03989
# Velocity P-wave (km/s) = 6.86914 6.19924 6.54277
#
# Compressibility (1/GPa) = 0.02174114
#
# Stress axis : x y z
#
# Youngs Moduli (GPa) = 50.58237 99.96689 101.44239
#
# Poissons Ratio (x) = 0.26287 0.45288
# Poissons Ratio (y) = 0.13301 0.18777
# Poissons Ratio (z) = 0.22582 0.18504
#
# Static dielectric constant tensor:
#      x y z
#    x 1.916920 0.010150 0.003990 
#    y 0.010150 1.954160 0.009610 
#    z 0.003990 0.009610 1.976210 
# 
# From -- ./inp_files/208734.got.cif
#   From: 2010.05.17/outbox.cif.g08.bks.cpg/sg2_105_cif.got.tgz:208734.got - 2010.06.03 11:33:40.
