data_PCOD9062590
_publ_section_title
;
Structure prediction by ZEFSAII (Michael W. Deem and Ramdas Pophale) SiO2 
 PCOD9062590
Probable space group: P -1
;
_chemical_formula_sum "Si O2"
_cell_formula_units_Z 14
_cell_length_a 19.891043
_cell_length_b 5.466188
_cell_length_c 13.427312
_cell_angle_alpha 102.694141
_cell_angle_beta 24.209750
_cell_angle_gamma 100.348291
_cell_volume 583.261678
_symmetry_space_group_name_H-M "P -1"
_symmetry_group_IT_number 2
_symmetry_cell_setting 'triclinic'
loop_
_space_group_symop_operation_xyz
x,y,z
-x,-y,-z
loop_
_atom_site_type_symbol
_atom_site_label
_atom_site_fract_x
_atom_site_fract_y
_atom_site_fract_z
Si Si1 0.978621 0.394404 0.862412
Si Si2 0.479641 0.162308 0.707317
Si Si3 0.230815 0.007039 0.403023
Si Si4 0.900135 0.251458 0.617437
Si Si5 0.685501 0.353195 0.104338
Si Si6 0.445898 0.263317 0.988579
Si Si7 0.143609 0.786561 0.785676
O O1 0.105119 0.612394 0.727783
O O2 0.846108 0.414906 0.956167
O O3 0.878123 0.374057 0.098779
O O4 0.093514 0.145897 0.666855
O O5 0.568217 0.605358 0.280480
O O6 0.396218 0.901617 0.771936
O O7 0.421907 0.265635 0.903472
O O8 0.675291 0.116911 0.447065
O O9 0.158788 0.782752 0.419127
O O10 0.400134 0.938296 0.223384
O O11 0.284891 0.182400 0.254866
O O12 0.000000 0.500000 0.500000
O O13 0.750507 0.287510 0.899784
O O14 0.000000 0.000000 0.500000
O O15 0.500000 0.500000 0.000000
O O16 0.000000 0.000000 0.000000
#
# Coordination Sequence:
#
# PCOD9062590 Si02
#       7
#     2   2   2   2   2   2   2
#     4  11  27  48  76 110 144 199 253 315 375 451
#     4  12  28  49  77 109 155 196 247 316 375 448
#     4  11  24  43  71 108 147 194 250 304 366 448
#     4  12  25  43  71 108 154 198 238 296 364 454
#     4  12  28  48  75 117 154 194 246 307 389 441
#     4  11  24  41  71 107 147 200 247 302 370 442
#     4  11  28  51  80 104 144 197 265 312 375 450
#
# _framework density 24.002949999999998
#
# number of rings (size 3 to 8) (size 9 to 14) (size 15 to 20)
#    0.000    0.571    2.857    3.429   12.000    2.286 
#    0.000    0.000    0.000    0.000    0.000    0.000 
#    0.000    0.000    0.000    0.000    0.000    0.000 
#
# Total GULP energy -78388.362051 kJ/mol
# GULP energy per Si atom -5599.168718 kJ/mol
# Density = 2.394832 g / cm^3
# Si number density = 24.002950 Si / 1000 Ang^3
#
#
#
# Elastic Constant Matrix: (Units=GPa)
#
#
# Indices 1 2 3 4 5 6 
#
# 1 85.9187 32.6342 11.5502 18.4626 -16.4004 2.6314
# 2 32.6342 126.0751 25.3085 -7.3550 -24.3916 5.5532
# 3 11.5502 25.3085 83.6624 -2.5056 -19.4328 0.5313
# 4 18.4626 -7.3550 -2.5056 29.4168 3.2268 -7.2968
# 5 -16.4004 -24.3916 -19.4328 3.2268 35.3709 6.0119
# 6 2.6314 5.5532 0.5313 -7.2968 6.0119 46.9598
#
#
#
# Elastic Compliance Matrix: (Units=1/GPa)
#
#
# Indices 1 2 3 4 5 6 
#
# 1 0.017510 -0.003743 0.000054 -0.013630 0.007424 -0.003607
# 2 -0.003743 0.010317 -0.001464 0.004099 0.004356 -0.000914
# 3 0.000054 -0.001464 0.013983 -0.000184 0.006867 -0.000896
# 4 -0.013630 0.004099 -0.000184 0.046751 -0.009345 0.008742
# 5 0.007424 0.004356 0.006867 -0.009345 0.040646 -0.007664
# 6 -0.003607 -0.000914 -0.000896 0.008742 -0.007664 0.023955
#
#
# Mechanical properties :
#
#
# Convention : Reuss Voigt Hill
#
# Bulk Modulus (GPa) = 31.74183 48.29357 40.01770
# Shear Modulus (GPa) = 28.74073 37.42707 33.08390
#
# Velocity S-wave (km/s) = 3.46408 3.95304 3.71661
# Velocity P-wave (km/s) = 5.40857 6.40304 5.92670
#
# Compressibility (1/GPa) = 0.03150417
#
# Stress axis : x y z
#
# Youngs Moduli (GPa) = 57.11080 96.93007 71.51329
#
# Poissons Ratio (x) = 0.36283 -0.00387
# Poissons Ratio (y) = 0.21378 0.10468
# Poissons Ratio (z) = -0.00309 0.14188
#
# Static dielectric constant tensor:
#      x y z
#    x 1.903210 -0.002980 0.017340 
#    y -0.002980 2.030880 -0.026750 
#    z 0.017340 -0.026750 1.876420 
# 
# From -- ./inp_files/510695.got.cif
#   From: 2010.05.17/outbox.cif.g08.bks.cpg/sg2_256_cif.got.tgz:510695.got - 2010.06.03 11:33:40.
