data_PCOD9062000
_publ_section_title
;
Structure prediction by ZEFSAII (Michael W. Deem and Ramdas Pophale) SiO2 
 PCOD9062000
Probable space group: P -1
;
_chemical_formula_sum "Si O2"
_cell_formula_units_Z 14
_cell_length_a 5.615756
_cell_length_b 10.349122
_cell_length_c 23.462563
_cell_angle_alpha 35.145104
_cell_angle_beta 104.491055
_cell_angle_gamma 122.832046
_cell_volume 604.725455
_symmetry_space_group_name_H-M "P -1"
_symmetry_group_IT_number 2
_symmetry_cell_setting 'triclinic'
loop_
_space_group_symop_operation_xyz
x,y,z
-x,-y,-z
loop_
_atom_site_type_symbol
_atom_site_label
_atom_site_fract_x
_atom_site_fract_y
_atom_site_fract_z
Si Si1 0.316193 0.354773 0.201640
Si Si2 0.642014 0.776308 0.869959
Si Si3 0.862169 0.224561 0.130037
Si Si4 0.754786 0.976720 0.578539
Si Si5 0.247221 0.872411 0.119650
Si Si6 0.967939 0.296137 0.374112
Si Si7 0.210635 0.024357 0.939097
O O1 0.471576 0.334658 0.161819
O O2 0.193070 0.093920 0.330206
O O3 0.548509 0.644898 0.145793
O O4 0.036090 0.334030 0.162400
O O5 0.495903 0.926043 0.828068
O O6 0.006658 0.939699 0.824780
O O7 0.500000 0.500000 0.000000
O O8 0.000000 0.500000 0.000000
O O9 0.406602 0.888856 0.591491
O O10 0.833761 0.799282 0.607620
O O11 0.973559 0.275090 0.450912
O O12 0.609713 0.022819 0.079627
O O13 0.094662 0.585226 0.246722
O O14 0.102048 0.022612 0.079961
O O15 0.157458 0.849664 0.055522
#
# Coordination Sequence:
#
# PCOD9062000 Si02
#       7
#     2   2   2   2   2   2   2
#     4  10  18  26  44  60  84 100 148 158 196 254
#     4   8  16  26  38  56  80 106 120 162 208 242
#     4   8  16  26  38  56  80 106 120 162 208 242
#     4  10  20  26  44  61  75 112 142 169 197 240
#     4  10  18  32  39  56  86 107 139 173 206 222
#     4  10  18  32  39  56  86 107 139 173 206 222
#     4  10  20  26  44  61  75 112 142 169 197 240
#
# _framework density 23.151001999999998
#
# number of rings (size 3 to 8) (size 9 to 14) (size 15 to 20)
#    0.857    1.714    2.857    0.000    4.000    0.000 
#    0.000    0.000    0.000    0.000    0.000    0.000 
#    0.000    2.286    0.000    0.000    0.000    5.143 
#
# Total GULP energy -77961.318165 kJ/mol
# GULP energy per Si atom -5568.665583 kJ/mol
# Density = 2.309831 g / cm^3
# Si number density = 23.151002 Si / 1000 Ang^3
#
#
#
# Elastic Constant Matrix: (Units=GPa)
#
#
# Indices 1 2 3 4 5 6 
#
# 1 232.9815 32.0074 6.1268 1.9024 0.9238 5.6671
# 2 32.0074 50.1582 9.2589 13.2363 -3.2234 2.6462
# 3 6.1268 9.2589 163.6315 28.5476 -20.1525 -3.8436
# 4 1.9024 13.2363 28.5476 27.9046 -2.2919 1.0192
# 5 0.9238 -3.2234 -20.1525 -2.2919 32.3636 13.9309
# 6 5.6671 2.6462 -3.8436 1.0192 13.9309 40.4940
#
#
#
# Elastic Compliance Matrix: (Units=1/GPa)
#
#
# Indices 1 2 3 4 5 6 
#
# 1 0.004767 -0.003412 -0.000324 0.001605 -0.000401 -0.000377
# 2 -0.003412 0.025592 0.001297 -0.012889 0.003361 -0.001904
# 3 -0.000324 0.001297 0.008114 -0.008464 0.004913 -0.000746
# 4 0.001605 -0.012889 -0.008464 0.050284 -0.002834 -0.000477
# 5 -0.000401 0.003361 0.004913 -0.002834 0.039843 -0.013333
# 6 -0.000377 -0.001904 -0.000746 -0.000477 -0.013333 0.029400
#
#
# Mechanical properties :
#
#
# Convention : Reuss Voigt Hill
#
# Bulk Modulus (GPa) = 29.76462 60.17306 44.96884
# Shear Modulus (GPa) = 28.72318 46.77765 37.75041
#
# Velocity S-wave (km/s) = 3.52616 4.49992 4.04247
# Velocity P-wave (km/s) = 5.42799 7.28334 6.42301
#
# Compressibility (1/GPa) = 0.03359693
#
# Stress axis : x y z
#
# Youngs Moduli (GPa) = 209.77209 39.07449 123.24170
#
# Poissons Ratio (x) = 0.13331 0.03991
# Poissons Ratio (y) = 0.71570 -0.15990
# Poissons Ratio (z) = 0.06793 -0.05070
#
# Static dielectric constant tensor:
#      x y z
#    x 2.010450 0.008350 0.014490 
#    y 0.008350 1.938990 0.060010 
#    z 0.014490 0.060010 1.850550 
# 
# From -- ./inp_files/108128.got.cif
#   From: 2010.05.17/outbox.cif.g08.bks.cpg/sg2_55_cif.got.tgz:108128.got - 2010.06.03 11:33:40.
