data_PCOD9062186
_publ_section_title
;
Structure prediction by ZEFSAII (Michael W. Deem and Ramdas Pophale) SiO2 
 PCOD9062186
Probable space group: P -1
;
_chemical_formula_sum "Si O2"
_cell_formula_units_Z 16
_cell_length_a 11.493102
_cell_length_b 7.868906
_cell_length_c 19.975946
_cell_angle_alpha 47.162811
_cell_angle_beta 146.106398
_cell_angle_gamma 122.397472
_cell_volume 736.941985
_symmetry_space_group_name_H-M "P -1"
_symmetry_group_IT_number 2
_symmetry_cell_setting 'triclinic'
loop_
_space_group_symop_operation_xyz
x,y,z
-x,-y,-z
loop_
_atom_site_type_symbol
_atom_site_label
_atom_site_fract_x
_atom_site_fract_y
_atom_site_fract_z
Si Si1 0.256529 0.961764 0.892272
Si Si2 0.272926 0.523366 0.919170
Si Si3 0.774789 0.924422 0.892324
Si Si4 0.115631 0.226660 0.398721
Si Si5 0.932886 0.757343 0.875416
Si Si6 0.389030 0.250479 0.394741
Si Si7 0.086315 0.235209 0.621788
Si Si8 0.608694 0.713231 0.358072
O O1 0.248952 0.738899 0.900632
O O2 0.134481 0.901848 0.917417
O O3 0.128959 0.170647 0.736550
O O4 0.500000 0.000000 0.000000
O O5 0.083982 0.590236 0.759052
O O6 0.500000 0.500000 0.000000
O O7 0.256545 0.297163 0.017137
O O8 0.787294 0.868114 0.834550
O O9 0.594702 0.122756 0.765912
O O10 0.000000 0.000000 0.000000
O O11 0.295474 0.275559 0.417727
O O12 0.211065 0.248169 0.511926
O O13 0.049542 0.965261 0.420593
O O14 0.806551 0.732343 0.753564
O O15 0.000000 0.500000 0.000000
O O16 0.543555 0.450171 0.399873
O O17 0.500000 0.000000 0.500000
O O18 0.304983 0.217864 0.691088
O O19 0.000000 0.500000 0.500000
#
# Coordination Sequence:
#
# PCOD9062186 Si02
#       8
#     2   2   2   2   2   2   2   2
#     4  11  26  45  70 103 137 186 240 288 354 427
#     4  11  24  45  69 100 144 183 228 292 356 420
#     4  12  26  44  71 107 142 185 232 296 359 425
#     4  11  23  48  67 103 145 182 241 294 352 427
#     4  12  24  47  73 101 143 185 236 298 352 427
#     4  12  25  46  71 101 142 185 238 292 356 428
#     4  11  25  47  70 103 143 188 241 298 353 426
#     4  12  27  43  73 106 141 187 242 295 360 428
#
# _framework density 21.711342999999999
#
# number of rings (size 3 to 8) (size 9 to 14) (size 15 to 20)
#    0.000    0.500    3.750    5.250    5.250    3.000 
#    0.000    0.000    0.000    0.000    0.000    0.000 
#    0.000    0.000    0.000    0.000    0.000    0.000 
#
# Total GULP energy -89579.011280 kJ/mol
# GULP energy per Si atom -5598.688205 kJ/mol
# Density = 2.166193 g / cm^3
# Si number density = 21.711343 Si / 1000 Ang^3
#
#
#
# Elastic Constant Matrix: (Units=GPa)
#
#
# Indices 1 2 3 4 5 6 
#
# 1 107.7277 10.4245 15.9994 -11.0230 5.0196 23.1318
# 2 10.4245 103.3352 35.4918 -8.3535 -8.3902 26.9297
# 3 15.9994 35.4918 119.4553 -14.4100 5.3270 4.4455
# 4 -11.0230 -8.3535 -14.4100 37.8310 3.7906 2.3272
# 5 5.0196 -8.3902 5.3270 3.7906 30.4626 -6.5190
# 6 23.1318 26.9297 4.4455 2.3272 -6.5190 42.0633
#
#
#
# Elastic Compliance Matrix: (Units=1/GPa)
#
#
# Indices 1 2 3 4 5 6 
#
# 1 0.011581 0.001255 -0.000975 0.004123 -0.003586 -0.007853
# 2 0.001255 0.013418 -0.003644 0.002279 0.001977 -0.008715
# 3 -0.000975 -0.003644 0.010011 0.002919 -0.002693 0.001232
# 4 0.004123 0.002279 0.002919 0.030230 -0.005735 -0.006596
# 5 -0.003586 0.001977 -0.002693 -0.005735 0.036642 0.006987
# 6 -0.007853 -0.008715 0.001232 -0.006596 0.006987 0.034990
#
#
# Mechanical properties :
#
#
# Convention : Reuss Voigt Hill
#
# Bulk Modulus (GPa) = 35.35613 50.48329 42.91971
# Shear Modulus (GPa) = 32.67413 39.97822 36.32617
#
# Velocity S-wave (km/s) = 3.88356 4.29575 4.09484
# Velocity P-wave (km/s) = 6.03567 6.92150 6.49371
#
# Compressibility (1/GPa) = 0.02828364
#
# Stress axis : x y z
#
# Youngs Moduli (GPa) = 86.34722 74.52596 99.89188
#
# Poissons Ratio (x) = -0.09354 0.09735
# Poissons Ratio (y) = -0.10838 0.36399
# Poissons Ratio (z) = 0.08415 0.27156
#
# Static dielectric constant tensor:
#      x y z
#    x 1.837570 0.035200 -0.023400 
#    y 0.035200 1.772950 0.025100 
#    z -0.023400 0.025100 1.759730 
# 
# From -- ./inp_files/244353.got.cif
#   From: 2010.05.17/outbox.cif.g08.bks.cpg/sg2_123_cif.got.tgz:244353.got - 2010.06.03 11:33:40.
