data_PCOD9062911
_publ_section_title
;
Structure prediction by ZEFSAII (Michael W. Deem and Ramdas Pophale) SiO2 
 PCOD9062911
Probable space group: P -1
;
_chemical_formula_sum "Si O2"
_cell_formula_units_Z 12
_cell_length_a 7.439753
_cell_length_b 17.941993
_cell_length_c 9.357374
_cell_angle_alpha 127.538182
_cell_angle_beta 32.512003
_cell_angle_gamma 117.983850
_cell_volume 529.417228
_symmetry_space_group_name_H-M "P -1"
_symmetry_group_IT_number 2
_symmetry_cell_setting 'triclinic'
loop_
_space_group_symop_operation_xyz
x,y,z
-x,-y,-z
loop_
_atom_site_type_symbol
_atom_site_label
_atom_site_fract_x
_atom_site_fract_y
_atom_site_fract_z
Si Si1 0.885652 0.899587 0.643173
Si Si2 0.786079 0.430790 0.650697
Si Si3 0.981186 0.303335 0.634591
Si Si4 0.100269 0.897207 0.173244
Si Si5 0.782854 0.430691 0.151450
Si Si6 0.720561 0.301895 0.280602
O O1 0.074285 0.805805 0.476989
O O2 0.914234 0.885335 0.434612
O O3 0.016052 0.001369 0.700061
O O4 0.494504 0.904430 0.954952
O O5 0.967375 0.367602 0.580130
O O6 0.681096 0.355769 0.518187
O O7 0.000000 0.500000 0.500000
O O8 0.500000 0.500000 0.000000
O O9 0.349900 0.300738 0.457572
O O10 0.717411 0.355010 0.984644
O O11 0.103160 0.804550 0.965946
O O12 0.500000 0.500000 0.500000
O O13 0.922637 0.365103 0.111978
O O14 0.000000 0.500000 0.000000
#
# Coordination Sequence:
#
# PCOD9062911 Si02
#       6
#     2   2   2   2   2   2
#     4   9  18  34  61  93 119 153 203 252 303 367
#     4  12  30  42  59  94 127 162 214 262 300 366
#     4  11  24  43  66  90 124 169 204 254 315 367
#     4   9  18  34  61  93 119 153 203 252 303 367
#     4  12  22  34  59  86 111 158 210 238 292 362
#     4  11  24  43  66  90 124 169 204 254 315 367
#
# _framework density 22.666432
#
# number of rings (size 3 to 8) (size 9 to 14) (size 15 to 20)
#    0.000    1.333    3.333    2.000    4.667    0.000 
#    0.000    0.833    0.000    0.000    0.000   14.000 
#    0.000    0.000    0.000    0.000    0.000    0.000 
#
# Total GULP energy -67045.734407 kJ/mol
# GULP energy per Si atom -5587.144534 kJ/mol
# Density = 2.261484 g / cm^3
# Si number density = 22.666432 Si / 1000 Ang^3
#
#
#
# Elastic Constant Matrix: (Units=GPa)
#
#
# Indices 1 2 3 4 5 6 
#
# 1 72.7360 38.1354 36.0266 11.8075 22.7394 -7.9705
# 2 38.1354 180.0502 85.6188 49.3355 8.7935 -13.5587
# 3 36.0266 85.6188 166.1007 3.2758 16.6081 -3.2004
# 4 11.8075 49.3355 3.2758 56.8508 6.4057 4.3965
# 5 22.7394 8.7935 16.6081 6.4057 25.4083 1.9994
# 6 -7.9705 -13.5587 -3.2004 4.3965 1.9994 24.3777
#
#
#
# Elastic Compliance Matrix: (Units=1/GPa)
#
#
# Indices 1 2 3 4 5 6 
#
# 1 0.022615 -0.002098 -0.001786 -0.001273 -0.018635 0.007751
# 2 -0.002098 0.011941 -0.005722 -0.010530 0.003604 0.006808
# 3 -0.001786 -0.005722 0.009568 0.005459 -0.003802 -0.003183
# 4 -0.001273 -0.010530 0.005459 0.028035 -0.005050 -0.010198
# 5 -0.018635 0.003604 -0.003802 -0.005050 0.059217 -0.008533
# 6 0.007751 0.006808 -0.003183 -0.010198 -0.008533 0.049463
#
#
# Mechanical properties :
#
#
# Convention : Reuss Voigt Hill
#
# Bulk Modulus (GPa) = 40.13999 82.04982 61.09490
# Shear Modulus (GPa) = 23.99756 38.60109 31.29932
#
# Velocity S-wave (km/s) = 3.25734 4.13123 3.72003
# Velocity P-wave (km/s) = 5.64752 7.68332 6.74270
#
# Compressibility (1/GPa) = 0.02491281
#
# Stress axis : x y z
#
# Youngs Moduli (GPa) = 44.21912 83.74467 104.51296
#
# Poissons Ratio (x) = 0.17570 0.18664
# Poissons Ratio (y) = 0.09278 0.59798
# Poissons Ratio (z) = 0.07897 0.47915
#
# Static dielectric constant tensor:
#      x y z
#    x 1.919220 0.053900 -0.062250 
#    y 0.053900 1.910920 0.009360 
#    z -0.062250 0.009360 1.874560 
# 
# From -- ./inp_files/218134.got.cif
#   From: 2010.05.17/outbox.cif.g08.bks.cpg/sg2_110_cif.got.tgz:218134.got - 2010.06.03 11:33:40.
