data_PCOD9062438
_publ_section_title
;
Structure prediction by ZEFSAII (Michael W. Deem and Ramdas Pophale) SiO2 
 PCOD9062438
Probable space group: P -1
;
_chemical_formula_sum "Si O2"
_cell_formula_units_Z 16
_cell_length_a 18.449407
_cell_length_b 15.967331
_cell_length_c 9.621204
_cell_angle_alpha 43.217479
_cell_angle_beta 46.045643
_cell_angle_gamma 22.595321
_cell_volume 743.267969
_symmetry_space_group_name_H-M "P -1"
_symmetry_group_IT_number 2
_symmetry_cell_setting 'triclinic'
loop_
_space_group_symop_operation_xyz
x,y,z
-x,-y,-z
loop_
_atom_site_type_symbol
_atom_site_label
_atom_site_fract_x
_atom_site_fract_y
_atom_site_fract_z
Si Si1 0.872545 0.696408 0.548544
Si Si2 0.910663 0.628575 0.110146
Si Si3 0.015506 0.165158 0.171132
Si Si4 0.923700 0.909644 0.146669
Si Si5 0.386384 0.638411 0.817208
Si Si6 0.536454 0.926066 0.380086
Si Si7 0.279364 0.733353 0.537179
Si Si8 0.664395 0.515982 0.750278
O O1 0.830816 0.872682 0.334250
O O2 0.000000 0.500000 0.500000
O O3 0.999451 0.563363 0.674874
O O4 0.674429 0.841007 0.679172
O O5 0.688314 0.844298 0.184929
O O6 0.976198 0.698446 0.978637
O O7 0.000000 0.500000 0.000000
O O8 0.824197 0.290315 0.316146
O O9 0.176519 0.934668 0.329204
O O10 0.037175 0.116033 0.037365
O O11 0.113977 0.712161 0.226255
O O12 0.772587 0.159284 0.104207
O O13 0.281721 0.765961 0.657206
O O14 0.572321 0.528595 0.733077
O O15 0.426537 0.455543 0.024552
O O16 0.603702 0.716137 0.554867
O O17 0.500000 0.000000 0.500000
O O18 0.500000 0.500000 0.500000
#
# Coordination Sequence:
#
# PCOD9062438 Si02
#       8
#     2   2   2   2   2   2   2   2
#     4  12  23  45  74 104 139 189 241 297 357 425
#     4  12  29  47  71 108 150 188 234 301 370 429
#     4  11  27  48  71 102 140 189 235 289 359 434
#     4  12  22  44  74 104 140 180 241 298 349 420
#     4  11  26  42  71 108 138 183 235 301 353 415
#     4  12  24  44  75 107 139 191 245 295 352 434
#     4  11  28  47  69  99 145 190 230 287 361 430
#     4  11  24  40  73 109 138 175 243 300 352 412
#
# _framework density 21.526557
#
# number of rings (size 3 to 8) (size 9 to 14) (size 15 to 20)
#    0.000    0.500    6.250    0.375    5.250    3.500 
#    0.000    0.000    0.000    0.000    0.000    0.000 
#    0.000    0.000    0.000    0.000    0.000    0.000 
#
# Total GULP energy -89277.301321 kJ/mol
# GULP energy per Si atom -5579.831333 kJ/mol
# Density = 2.147756 g / cm^3
# Si number density = 21.526557 Si / 1000 Ang^3
#
#
#
# Elastic Constant Matrix: (Units=GPa)
#
#
# Indices 1 2 3 4 5 6 
#
# 1 92.6943 52.4355 39.0850 9.7335 -5.8211 -11.4162
# 2 52.4355 117.2218 37.4944 20.6834 -2.9289 -24.2663
# 3 39.0850 37.4944 103.5425 4.7729 -3.9369 4.0377
# 4 9.7335 20.6834 4.7729 37.5350 -0.6891 0.4676
# 5 -5.8211 -2.9289 -3.9369 -0.6891 38.2762 -3.0560
# 6 -11.4162 -24.2663 4.0377 0.4676 -3.0560 46.2063
#
#
#
# Elastic Compliance Matrix: (Units=1/GPa)
#
#
# Indices 1 2 3 4 5 6 
#
# 1 0.015871 -0.005319 -0.004032 -0.000660 0.001708 0.001599
# 2 -0.005319 0.014399 -0.003162 -0.006228 0.000383 0.006613
# 3 -0.004032 -0.003162 0.012418 0.001258 0.000146 -0.003745
# 4 -0.000660 -0.006228 0.001258 0.030129 -0.000214 -0.003863
# 5 0.001708 0.000383 0.000146 -0.000214 0.026616 0.002373
# 6 0.001599 0.006613 -0.003745 -0.003863 0.002373 0.026033
#
#
# Mechanical properties :
#
#
# Convention : Reuss Voigt Hill
#
# Bulk Modulus (GPa) = 56.62013 63.49870 60.05942
# Shear Modulus (GPa) = 31.97321 36.69976 34.33648
#
# Velocity S-wave (km/s) = 3.85813 4.13347 3.99817
# Velocity P-wave (km/s) = 6.79753 7.23482 7.01958
#
# Compressibility (1/GPa) = 0.01766156
#
# Stress axis : x y z
#
# Youngs Moduli (GPa) = 63.00881 69.44782 80.52528
#
# Poissons Ratio (x) = 0.36943 0.32465
# Poissons Ratio (y) = 0.33517 0.25465
# Poissons Ratio (z) = 0.25403 0.21962
#
# Static dielectric constant tensor:
#      x y z
#    x 1.877070 0.155290 0.077380 
#    y 0.155290 1.394890 -0.154310 
#    z 0.077380 -0.154310 1.945260 
# 
# From -- ./inp_files/348828.got.cif
#   From: 2010.05.17/outbox.cif.g08.bks.cpg/sg2_175_cif.got.tgz:348828.got - 2010.06.03 11:33:40.
