data_PCOD9062522
_publ_section_title
;
Structure prediction by ZEFSAII (Michael W. Deem and Ramdas Pophale) SiO2 
 PCOD9062522
Probable space group: P -1
;
_chemical_formula_sum "Si O2"
_cell_formula_units_Z 8
_cell_length_a 5.232183
_cell_length_b 7.508325
_cell_length_c 13.025912
_cell_angle_alpha 131.403811
_cell_angle_beta 79.641416
_cell_angle_gamma 117.299011
_cell_volume 335.169834
_symmetry_space_group_name_H-M "P -1"
_symmetry_group_IT_number 2
_symmetry_cell_setting 'triclinic'
loop_
_space_group_symop_operation_xyz
x,y,z
-x,-y,-z
loop_
_atom_site_type_symbol
_atom_site_label
_atom_site_fract_x
_atom_site_fract_y
_atom_site_fract_z
Si Si1 0.686592 0.112296 0.631964
Si Si2 0.842317 0.341347 0.274266
Si Si3 0.210133 0.184577 0.327777
Si Si4 0.311223 0.193555 0.872528
O O1 0.473157 0.131300 0.741728
O O2 0.953801 0.406827 0.711333
O O3 0.500000 0.000000 0.500000
O O4 0.797345 0.906409 0.589797
O O5 0.542932 0.338095 0.327386
O O6 0.043782 0.343683 0.357381
O O7 0.736930 0.034789 0.126177
O O8 0.020786 0.897407 0.174939
O O9 0.500000 0.500000 0.000000
#
# Coordination Sequence:
#
# PCOD9062522 Si02
#       4
#     2   2   2   2
#     4  11  24  41  67  96 126 169 213 258 318 379
#     4   9  22  41  63  94 129 167 206 263 317 370
#     4   9  22  42  61  96 130 162 210 265 311 376
#     4   9  22  44  64  92 129 166 211 262 312 377
#
# _framework density 23.868496
#
# number of rings (size 3 to 8) (size 9 to 14) (size 15 to 20)
#    1.500    1.000    0.000    0.000    3.500   11.000 
#    0.000    2.500    0.000    0.000    0.000    0.000 
#    0.000    0.000    0.000    0.000    0.000    0.000 
#
# Total GULP energy -44595.739887 kJ/mol
# GULP energy per Si atom -5574.467486 kJ/mol
# Density = 2.381417 g / cm^3
# Si number density = 23.868496 Si / 1000 Ang^3
#
#
#
# Elastic Constant Matrix: (Units=GPa)
#
#
# Indices 1 2 3 4 5 6 
#
# 1 122.8811 31.2219 7.1834 7.6920 28.6356 25.2435
# 2 31.2219 145.4573 5.0422 43.3726 11.0070 35.2320
# 3 7.1834 5.0422 56.3887 27.6528 -3.3885 5.0006
# 4 7.6920 43.3726 27.6528 42.8346 0.7662 6.9864
# 5 28.6356 11.0070 -3.3885 0.7662 25.8082 4.4162
# 6 25.2435 35.2320 5.0006 6.9864 4.4162 25.0954
#
#
#
# Elastic Compliance Matrix: (Units=1/GPa)
#
#
# Indices 1 2 3 4 5 6 
#
# 1 0.013796 0.001654 -0.001036 -0.001073 -0.013848 -0.013257
# 2 0.001654 0.018800 0.011024 -0.022582 -0.003747 -0.023308
# 3 -0.001036 0.011024 0.033146 -0.030275 0.003976 -0.013311
# 4 -0.001073 -0.022582 -0.030275 0.062469 0.001368 0.021184
# 5 -0.013848 -0.003747 0.003976 0.001368 0.054758 0.008381
# 6 -0.013257 -0.023308 -0.013311 0.021184 0.008381 0.081186
#
#
# Mechanical properties :
#
#
# Convention : Reuss Voigt Hill
#
# Bulk Modulus (GPa) = 11.23256 45.73580 28.48418
# Shear Modulus (GPa) = 18.48108 37.49961 27.99034
#
# Velocity S-wave (km/s) = 2.78562 3.96800 3.42817
# Velocity P-wave (km/s) = 3.88104 6.34007 5.25638
#
# Compressibility (1/GPa) = 0.08902690
#
# Stress axis : x y z
#
# Youngs Moduli (GPa) = 72.48476 53.19047 30.16934
#
# Poissons Ratio (x) = -0.08796 0.03124
# Poissons Ratio (y) = -0.11986 -0.33259
# Poissons Ratio (z) = 0.07506 -0.58637
#
# Static dielectric constant tensor:
#      x y z
#    x 1.960320 -0.028360 -0.031760 
#    y -0.028360 1.891140 0.004800 
#    z -0.031760 0.004800 1.980790 
# 
# From -- ./inp_files/1288.got.cif
#   From: 2010.05.17/outbox.cif.g08.bks.cpg/sg2_1_cif.got.tgz:1288.got - 2010.06.03 11:33:40.
