data_PCOD9062914
_publ_section_title
;
Structure prediction by ZEFSAII (Michael W. Deem and Ramdas Pophale) SiO2 
 PCOD9062914
Probable space group: P -1
;
_chemical_formula_sum "Si O2"
_cell_formula_units_Z 12
_cell_length_a 5.639657
_cell_length_b 6.834087
_cell_length_c 17.960934
_cell_angle_alpha 70.947666
_cell_angle_beta 93.646999
_cell_angle_gamma 135.705386
_cell_volume 441.527809
_symmetry_space_group_name_H-M "P -1"
_symmetry_group_IT_number 2
_symmetry_cell_setting 'triclinic'
loop_
_space_group_symop_operation_xyz
x,y,z
-x,-y,-z
loop_
_atom_site_type_symbol
_atom_site_label
_atom_site_fract_x
_atom_site_fract_y
_atom_site_fract_z
Si Si1 0.570510 0.073206 0.080692
Si Si2 0.577008 0.254227 0.513732
Si Si3 0.065689 0.431284 0.241356
Si Si4 0.478417 0.572357 0.367416
Si Si5 0.917018 0.911824 0.922982
Si Si6 0.580943 0.453923 0.232056
O O1 0.468831 0.242389 0.079536
O O2 0.964200 0.240972 0.079422
O O3 0.321008 0.757516 0.162189
O O4 0.500000 0.000000 0.000000
O O5 0.407709 0.181984 0.601016
O O6 0.000000 0.500000 0.500000
O O7 0.500000 0.000000 0.500000
O O8 0.422340 0.343712 0.450219
O O9 0.180789 0.494575 0.321993
O O10 0.181347 0.276696 0.235418
O O11 0.683599 0.283471 0.242299
O O12 0.675093 0.581894 0.302662
O O13 0.178750 0.241492 0.848950
O O14 0.000000 0.000000 0.000000
#
# Coordination Sequence:
#
# PCOD9062914 Si02
#       6
#     2   2   2   2   2   2
#     4   8  12  18  31  56  95 142 187 242 292 353
#     4  11  24  43  66  94 129 168 213 266 329 390
#     4   8  14  25  43  70 105 152 197 249 303 366
#     4   9  20  34  58  86 120 166 206 270 308 397
#     4   8  12  18  31  56  95 142 187 242 292 353
#     4   8  14  25  43  70 105 152 197 249 303 366
#
# _framework density 27.178355
#
# number of rings (size 3 to 8) (size 9 to 14) (size 15 to 20)
#    1.000    2.333    0.000    1.000    0.000    2.667 
#    0.000    0.000    0.000    0.000    0.000    0.000 
#    0.000    2.667    0.667    1.667    1.333    0.667 
#
# Total GULP energy -66942.060592 kJ/mol
# GULP energy per Si atom -5578.505049 kJ/mol
# Density = 2.711650 g / cm^3
# Si number density = 27.178355 Si / 1000 Ang^3
#
#
#
# Elastic Constant Matrix: (Units=GPa)
#
#
# Indices 1 2 3 4 5 6 
#
# 1 316.8123 20.0522 13.8524 5.6768 -3.3666 5.1038
# 2 20.0522 92.3181 35.1622 11.6805 4.4338 -8.8459
# 3 13.8524 35.1622 172.3110 27.4526 23.7761 14.6768
# 4 5.6768 11.6805 27.4526 26.0110 8.4814 5.8044
# 5 -3.3666 4.4338 23.7761 8.4814 38.5893 3.2747
# 6 5.1038 -8.8459 14.6768 5.8044 3.2747 13.6233
#
#
#
# Elastic Compliance Matrix: (Units=1/GPa)
#
#
# Indices 1 2 3 4 5 6 
#
# 1 0.003252 -0.000921 0.000027 -0.000071 0.000554 -0.001949
# 2 -0.000921 0.014650 -0.003281 -0.006627 0.000346 0.016133
# 3 0.000027 -0.003281 0.008320 -0.004424 -0.003054 -0.008485
# 4 -0.000071 -0.006627 -0.004424 0.052749 -0.006377 -0.020452
# 5 0.000554 0.000346 -0.003054 -0.006377 0.029292 -0.001017
# 6 -0.001949 0.016133 -0.008485 -0.020452 -0.001017 0.102709
#
#
# Mechanical properties :
#
#
# Convention : Reuss Voigt Hill
#
# Bulk Modulus (GPa) = 55.95573 79.95278 67.95425
# Shear Modulus (GPa) = 22.19463 49.80303 35.99883
#
# Velocity S-wave (km/s) = 2.86077 4.28536 3.64337
# Velocity P-wave (km/s) = 5.61650 7.34625 6.53883
#
# Compressibility (1/GPa) = 0.01787127
#
# Stress axis : x y z
#
# Youngs Moduli (GPa) = 307.49372 68.26025 120.19392
#
# Poissons Ratio (x) = 0.06288 -0.00330
# Poissons Ratio (y) = 0.28328 0.39441
# Poissons Ratio (z) = -0.00843 0.22399
#
# Static dielectric constant tensor:
#      x y z
#    x 2.174730 0.021730 -0.057200 
#    y 0.021730 1.995690 -0.043710 
#    z -0.057200 -0.043710 2.118270 
# 
# From -- ./inp_files/50011.got.cif
#   From: 2010.05.17/outbox.cif.g08.bks.cpg/sg2_26_cif.got.tgz:50011.got - 2010.06.03 11:33:40.
