data_PCOD9062273
_publ_section_title
;
Structure prediction by ZEFSAII (Michael W. Deem and Ramdas Pophale) SiO2 
 PCOD9062273
Probable space group: P -1
;
_chemical_formula_sum "Si O2"
_cell_formula_units_Z 13
_cell_length_a 8.669680
_cell_length_b 12.074243
_cell_length_c 9.655739
_cell_angle_alpha 142.975768
_cell_angle_beta 63.032941
_cell_angle_gamma 121.057649
_cell_volume 519.686533
_symmetry_space_group_name_H-M "P -1"
_symmetry_group_IT_number 2
_symmetry_cell_setting 'triclinic'
loop_
_space_group_symop_operation_xyz
x,y,z
-x,-y,-z
loop_
_atom_site_type_symbol
_atom_site_label
_atom_site_fract_x
_atom_site_fract_y
_atom_site_fract_z
Si Si1 0.550476 0.610812 0.234501
Si Si2 0.588647 0.373425 0.236798
Si Si3 0.827360 0.539338 0.675216
Si Si4 0.288456 0.002141 0.576027
Si Si5 0.257914 0.084441 0.991963
Si Si6 0.911847 0.219617 0.014227
Si Si7 0.000000 0.000000 0.500000
O O1 0.620073 0.484191 0.188535
O O2 0.359817 0.624389 0.390497
O O3 0.690595 0.814202 0.352883
O O4 0.500000 0.500000 0.000000
O O5 0.500000 0.500000 0.500000
O O6 0.460574 0.158472 0.042867
O O7 0.769835 0.340897 0.186354
O O8 0.787990 0.713206 0.781243
O O9 0.000000 0.500000 0.500000
O O10 0.894458 0.628810 0.887072
O O11 0.500000 0.000000 0.500000
O O12 0.247686 0.028423 0.779387
O O13 0.108384 0.876847 0.447989
O O14 0.139615 0.919428 0.970673
O O15 0.917977 0.088168 0.750932
#
# Coordination Sequence:
#
# PCOD9062273 Si02
#       7
#     2   2   2   2   2   2   1
#     4  11  23  49  70  98 147 192 256 301 380 468
#     4  11  25  44  72 109 143 198 253 317 383 449
#     4  11  24  45  74 105 141 199 249 310 382 455
#     4  12  27  48  76 109 148 205 248 315 393 450
#     4  11  24  47  71 104 150 196 254 308 389 469
#     4  12  25  47  70 113 149 191 257 318 383 460
#     4  12  28  46  72 118 152 194 264 306 386 462
#
# _framework density 25.015079
#
# number of rings (size 3 to 8) (size 9 to 14) (size 15 to 20)
#    0.000    0.615    4.615    3.692    6.462    0.000 
#    2.769    1.538    0.000    0.000    0.000    0.000 
#    0.000    0.000    0.000    0.000    0.000    0.000 
#
# Total GULP energy -72424.466184 kJ/mol
# GULP energy per Si atom -5571.112783 kJ/mol
# Density = 2.495814 g / cm^3
# Si number density = 25.015079 Si / 1000 Ang^3
#
#
#
# Elastic Constant Matrix: (Units=GPa)
#
#
# Indices 1 2 3 4 5 6 
#
# 1 107.0649 6.4554 14.1350 -19.0152 -13.9732 -16.5735
# 2 6.4554 110.0450 33.5795 -21.6150 -3.3016 -3.9193
# 3 14.1350 33.5795 98.0267 -43.6756 -7.2920 -19.9119
# 4 -19.0152 -21.6150 -43.6756 35.4218 0.0159 7.7052
# 5 -13.9732 -3.3016 -7.2920 0.0159 59.0699 -4.5134
# 6 -16.5735 -3.9193 -19.9119 7.7052 -4.5134 33.1118
#
#
#
# Elastic Compliance Matrix: (Units=1/GPa)
#
#
# Indices 1 2 3 4 5 6 
#
# 1 0.012305 0.000387 0.004866 0.011305 0.004069 0.007055
# 2 0.000387 0.010481 -0.001629 0.004722 0.000430 -0.000585
# 3 0.004866 -0.001629 0.027602 0.033065 0.005366 0.011878
# 4 0.011305 0.004722 0.033065 0.075882 0.007725 0.009496
# 5 0.004069 0.000430 0.005366 0.007725 0.019043 0.006113
# 6 0.007055 -0.000585 0.011878 0.009496 0.006113 0.039429
#
#
# Mechanical properties :
#
#
# Convention : Reuss Voigt Hill
#
# Bulk Modulus (GPa) = 17.35027 47.05295 32.20161
# Shear Modulus (GPa) = 25.41847 42.91846 34.16847
#
# Velocity S-wave (km/s) = 3.19113 4.14660 3.69984
# Velocity P-wave (km/s) = 4.53087 6.46346 5.58145
#
# Compressibility (1/GPa) = 0.05763597
#
# Stress axis : x y z
#
# Youngs Moduli (GPa) = 81.26489 95.40910 36.22945
#
# Poissons Ratio (x) = -0.03695 -0.17628
# Poissons Ratio (y) = -0.03148 0.05903
# Poissons Ratio (z) = -0.39541 0.15545
#
# Static dielectric constant tensor:
#      x y z
#    x 1.545430 -0.203220 -0.277480 
#    y -0.203220 1.869140 -0.064600 
#    z -0.277480 -0.064600 1.871050 
# 
# From -- ./inp_files/176812.got.cif
#   From: 2010.05.17/outbox.cif.g08.bks.cpg/sg2_89_cif.got.tgz:176812.got - 2010.06.03 11:33:40.
