data_PCOD9062320
_publ_section_title
;
Structure prediction by ZEFSAII (Michael W. Deem and Ramdas Pophale) SiO2 
 PCOD9062320
Probable space group: P -1
;
_chemical_formula_sum "Si O2"
_cell_formula_units_Z 14
_cell_length_a 12.502004
_cell_length_b 8.266216
_cell_length_c 8.009799
_cell_angle_alpha 57.637600
_cell_angle_beta 58.954055
_cell_angle_gamma 88.388118
_cell_volume 562.789904
_symmetry_space_group_name_H-M "P -1"
_symmetry_group_IT_number 2
_symmetry_cell_setting 'triclinic'
loop_
_space_group_symop_operation_xyz
x,y,z
-x,-y,-z
loop_
_atom_site_type_symbol
_atom_site_label
_atom_site_fract_x
_atom_site_fract_y
_atom_site_fract_z
Si Si1 0.151145 0.631159 0.250151
Si Si2 0.272775 0.301590 0.428998
Si Si3 0.748570 0.700805 0.162276
Si Si4 0.642381 0.032067 0.953309
Si Si5 0.543697 0.923978 0.673343
Si Si6 0.029216 0.925348 0.698950
Si Si7 0.199483 0.697183 0.781387
O O1 0.231849 0.475923 0.282733
O O2 0.210518 0.800784 0.256532
O O3 0.000000 0.500000 0.500000
O O4 0.164126 0.707297 0.002757
O O5 0.293293 0.338606 0.590021
O O6 0.401362 0.260234 0.278306
O O7 0.148127 0.098126 0.600300
O O8 0.761978 0.502458 0.173381
O O9 0.896289 0.864635 0.947115
O O10 0.658077 0.812328 0.081261
O O11 0.595709 0.123406 0.101480
O O12 0.500000 0.000000 0.000000
O O13 0.500000 0.000000 0.500000
O O14 0.674456 0.119636 0.503023
O O15 0.075797 0.728150 0.767097
O O16 0.000000 0.000000 0.500000
#
# Coordination Sequence:
#
# PCOD9062320 Si02
#       7
#     2   2   2   2   2   2   2
#     4  12  26  50  76 107 147 194 246 297 367 434
#     4  11  25  43  73 100 143 194 239 303 356 438
#     4  12  25  44  70 107 142 190 241 301 363 427
#     4  12  29  46  74 107 148 192 244 304 358 435
#     4  11  23  51  69  97 146 192 242 289 368 428
#     4  11  24  45  71 102 143 190 241 300 369 428
#     4  11  26  45  75 105 144 187 243 303 357 440
#
# _framework density 24.876066999999999
#
# number of rings (size 3 to 8) (size 9 to 14) (size 15 to 20)
#    0.000    0.571    2.857    4.286    8.000    3.429 
#    0.000    0.000    0.000    0.000    0.000    0.000 
#    0.000    0.000    0.000    0.000    0.000    0.000 
#
# Total GULP energy -78073.553772 kJ/mol
# GULP energy per Si atom -5576.682412 kJ/mol
# Density = 2.481945 g / cm^3
# Si number density = 24.876067 Si / 1000 Ang^3
#
#
#
# Elastic Constant Matrix: (Units=GPa)
#
#
# Indices 1 2 3 4 5 6 
#
# 1 134.1940 51.1139 4.1184 -20.6113 17.0600 -27.4433
# 2 51.1139 117.1450 20.4274 -21.2784 12.9151 -32.3167
# 3 4.1184 20.4274 50.1016 -18.7321 -1.0929 -0.7908
# 4 -20.6113 -21.2784 -18.7321 31.0565 -5.3615 9.3989
# 5 17.0600 12.9151 -1.0929 -5.3615 29.4002 -6.8607
# 6 -27.4433 -32.3167 -0.7908 9.3989 -6.8607 62.4234
#
#
#
# Elastic Compliance Matrix: (Units=1/GPa)
#
#
# Indices 1 2 3 4 5 6 
#
# 1 0.010050 -0.003051 0.002177 0.004810 -0.003113 0.001800
# 2 -0.003051 0.012476 -0.003919 0.002403 -0.002380 0.004444
# 3 0.002177 -0.003919 0.027803 0.017074 0.003939 -0.002858
# 4 0.004810 0.002403 0.017074 0.049192 0.004992 -0.003283
# 5 -0.003113 -0.002380 0.003939 0.004992 0.038130 0.000888
# 6 0.001800 0.004444 -0.002858 -0.003283 0.000888 0.019667
#
#
# Mechanical properties :
#
#
# Convention : Reuss Voigt Hill
#
# Bulk Modulus (GPa) = 24.54485 50.30669 37.42577
# Shear Modulus (GPa) = 27.70300 39.62809 33.66554
#
# Velocity S-wave (km/s) = 3.34075 3.99560 3.68276
# Velocity P-wave (km/s) = 4.97685 6.44618 5.75857
#
# Compressibility (1/GPa) = 0.04074174
#
# Stress axis : x y z
#
# Youngs Moduli (GPa) = 99.50306 80.15234 35.96752
#
# Poissons Ratio (x) = 0.24456 -0.07830
# Poissons Ratio (y) = 0.30361 0.14097
# Poissons Ratio (z) = -0.21660 0.31414
#
# Static dielectric constant tensor:
#      x y z
#    x 2.327440 0.394250 0.000940 
#    y 0.394250 2.288750 -0.030080 
#    z 0.000940 -0.030080 1.982870 
# 
# From -- ./inp_files/241906.got.cif
#   From: 2010.05.17/outbox.cif.g08.bks.cpg/sg2_121_cif.got.tgz:241906.got - 2010.06.03 11:33:40.
