data_PCOD9062810
_publ_section_title
;
Structure prediction by ZEFSAII (Michael W. Deem and Ramdas Pophale) SiO2 
 PCOD9062810
Probable space group: P -1
;
_chemical_formula_sum "Si O2"
_cell_formula_units_Z 16
_cell_length_a 8.264035
_cell_length_b 9.227125
_cell_length_c 12.563309
_cell_angle_alpha 131.632604
_cell_angle_beta 89.689627
_cell_angle_gamma 100.095357
_cell_volume 696.866205
_symmetry_space_group_name_H-M "P -1"
_symmetry_group_IT_number 2
_symmetry_cell_setting 'triclinic'
loop_
_space_group_symop_operation_xyz
x,y,z
-x,-y,-z
loop_
_atom_site_type_symbol
_atom_site_label
_atom_site_fract_x
_atom_site_fract_y
_atom_site_fract_z
Si Si1 0.889961 0.777798 0.899312
Si Si2 0.617997 0.477678 0.320638
Si Si3 0.595853 0.876359 0.573561
Si Si4 0.408409 0.666945 0.977461
Si Si5 0.748186 0.013728 0.415655
Si Si6 0.000246 0.559490 0.405200
Si Si7 0.764845 0.692031 0.090390
Si Si8 0.619544 0.899738 0.818528
O O1 0.955364 0.611611 0.753059
O O2 0.721894 0.799103 0.851192
O O3 0.868323 0.729314 0.000302
O O4 0.000000 0.000000 0.000000
O O5 0.528482 0.638091 0.448922
O O6 0.558009 0.256950 0.260897
O O7 0.811733 0.561459 0.379346
O O8 0.580883 0.466021 0.190111
O O9 0.436122 0.972007 0.616497
O O10 0.686174 0.918364 0.706854
O O11 0.712844 0.948642 0.506992
O O12 0.577875 0.702305 0.059898
O O13 0.384280 0.878264 0.040973
O O14 0.257477 0.534210 0.979685
O O15 0.873335 0.228760 0.511245
O O16 0.811206 0.854498 0.263207
O O17 0.000000 0.500000 0.500000
#
# Coordination Sequence:
#
# PCOD9062810 Si02
#       8
#     2   2   2   2   2   2   2   2
#     4  12  27  46  72 105 142 186 231 287 356 415
#     4  12  24  45  68 105 138 181 237 288 343 414
#     4  11  24  42  72 105 138 182 234 282 349 417
#     4  11  24  42  73 103 136 183 231 291 345 410
#     4  11  24  45  71 103 144 185 229 285 354 417
#     4  12  27  45  71 101 145 186 229 286 358 412
#     4  11  24  46  71 102 144 180 232 286 354 408
#     4  12  24  43  73 103 139 177 240 288 339 416
#
# _framework density 22.959931000000001
#
# number of rings (size 3 to 8) (size 9 to 14) (size 15 to 20)
#    0.000    0.500    3.750    4.500    3.500    0.500 
#    2.250    1.250    0.000    0.000    0.000    0.000 
#    0.000    0.000    0.000    0.000    0.000    0.000 
#
# Total GULP energy -89546.294491 kJ/mol
# GULP energy per Si atom -5596.643406 kJ/mol
# Density = 2.290767 g / cm^3
# Si number density = 22.959931 Si / 1000 Ang^3
#
#
#
# Elastic Constant Matrix: (Units=GPa)
#
#
# Indices 1 2 3 4 5 6 
#
# 1 43.5294 22.3896 12.8939 -0.4518 4.1851 11.8611
# 2 22.3896 130.7305 36.2189 4.1460 -6.2948 37.0551
# 3 12.8939 36.2189 132.4760 -0.4741 -11.8099 25.6501
# 4 -0.4518 4.1460 -0.4741 38.9372 -2.5553 -4.2092
# 5 4.1851 -6.2948 -11.8099 -2.5553 33.8684 3.0591
# 6 11.8611 37.0551 25.6501 -4.2092 3.0591 38.4865
#
#
#
# Elastic Compliance Matrix: (Units=1/GPa)
#
#
# Indices 1 2 3 4 5 6 
#
# 1 0.026469 -0.003283 -0.001295 -0.000034 -0.003990 -0.003821
# 2 -0.003283 0.011456 -0.000589 -0.002155 0.003080 -0.010106
# 3 -0.001295 -0.000589 0.009236 -0.000189 0.003754 -0.005509
# 4 -0.000034 -0.002155 -0.000189 0.026524 0.001085 0.005026
# 5 -0.003990 0.003080 0.003754 0.001085 0.032588 -0.006709
# 6 -0.003821 -0.010106 -0.005509 0.005026 -0.006709 0.041645
#
#
# Mechanical properties :
#
#
# Convention : Reuss Voigt Hill
#
# Bulk Modulus (GPa) = 27.15287 49.97120 38.56204
# Shear Modulus (GPa) = 29.32072 37.94066 33.63069
#
# Velocity S-wave (km/s) = 3.57744 4.06947 3.83136
# Velocity P-wave (km/s) = 5.37736 6.62515 6.03360
#
# Compressibility (1/GPa) = 0.03682852
#
# Stress axis : x y z
#
# Youngs Moduli (GPa) = 37.77968 87.29124 108.26970
#
# Poissons Ratio (x) = 0.28655 0.14019
# Poissons Ratio (y) = 0.12402 0.06377
# Poissons Ratio (z) = 0.04892 0.05141
#
# Static dielectric constant tensor:
#      x y z
#    x 1.913070 0.027670 0.026430 
#    y 0.027670 1.885500 -0.022120 
#    z 0.026430 -0.022120 1.863380 
# 
# From -- ./inp_files/184103.got.cif
#   From: 2010.05.17/outbox.cif.g08.bks.cpg/sg2_93_cif.got.tgz:184103.got - 2010.06.03 11:33:40.
