data_PCOD9062100
_publ_section_title
;
Structure prediction by ZEFSAII (Michael W. Deem and Ramdas Pophale) SiO2 
 PCOD9062100
Probable space group: P -1
;
_chemical_formula_sum "Si O2"
_cell_formula_units_Z 14
_cell_length_a 10.537802
_cell_length_b 14.516141
_cell_length_c 8.688845
_cell_angle_alpha 122.656210
_cell_angle_beta 116.855593
_cell_angle_gamma 30.414117
_cell_volume 566.208672
_symmetry_space_group_name_H-M "P -1"
_symmetry_group_IT_number 2
_symmetry_cell_setting 'triclinic'
loop_
_space_group_symop_operation_xyz
x,y,z
-x,-y,-z
loop_
_atom_site_type_symbol
_atom_site_label
_atom_site_fract_x
_atom_site_fract_y
_atom_site_fract_z
Si Si1 0.848509 0.515209 0.306932
Si Si2 0.533742 0.222255 0.293409
Si Si3 0.499506 0.437538 0.666289
Si Si4 0.964720 0.868010 0.438814
Si Si5 0.833468 0.139684 0.173411
Si Si6 0.729820 0.808278 0.346040
Si Si7 0.761014 0.774251 0.965196
O O1 0.633193 0.572004 0.309181
O O2 0.734153 0.681030 0.287501
O O3 0.000000 0.500000 0.500000
O O4 0.021273 0.327887 0.124133
O O5 0.484604 0.379493 0.446065
O O6 0.672101 0.136829 0.130316
O O7 0.713402 0.054158 0.369887
O O8 0.281114 0.319607 0.212164
O O9 0.335805 0.649544 0.775219
O O10 0.796219 0.281767 0.681428
O O11 0.928829 0.782153 0.445763
O O12 0.011525 0.930491 0.649519
O O13 0.000000 0.000000 0.000000
O O14 0.774603 0.768276 0.149460
O O15 0.500000 0.000000 0.500000
O O16 0.500000 0.000000 0.000000
#
# Coordination Sequence:
#
# PCOD9062100 Si02
#       7
#     2   2   2   2   2   2   2
#     4  12  25  47  75 109 147 191 244 301 368 436
#     4  11  23  47  73 102 145 194 237 299 361 438
#     4  11  24  47  76 103 146 192 237 301 366 432
#     4  11  24  48  74 104 148 192 240 294 377 428
#     4  11  26  43  72 105 143 189 245 300 361 434
#     4  12  27  47  77 109 148 195 242 306 365 439
#     4  12  26  47  74 108 148 189 252 299 366 436
#
# _framework density 24.725867000000001
#
# number of rings (size 3 to 8) (size 9 to 14) (size 15 to 20)
#    0.000    0.571    2.857    6.429    6.000    0.000 
#    0.000    3.571    0.000    0.000    0.000    0.000 
#    0.000    0.000    0.000    0.000    0.000    0.000 
#
# Total GULP energy -77999.958287 kJ/mol
# GULP energy per Si atom -5571.425592 kJ/mol
# Density = 2.466959 g / cm^3
# Si number density = 24.725867 Si / 1000 Ang^3
#
#
#
# Elastic Constant Matrix: (Units=GPa)
#
#
# Indices 1 2 3 4 5 6 
#
# 1 147.3653 22.9296 16.6435 20.1616 -35.3848 -14.2182
# 2 22.9296 76.0587 41.2575 31.8326 -15.7573 -4.5360
# 3 16.6435 41.2575 128.9205 33.3230 -35.0044 -18.9052
# 4 20.1616 31.8326 33.3230 39.4921 -10.3722 2.1830
# 5 -35.3848 -15.7573 -35.0044 -10.3722 55.1982 10.0459
# 6 -14.2182 -4.5360 -18.9052 2.1830 10.0459 41.2276
#
#
#
# Elastic Compliance Matrix: (Units=1/GPa)
#
#
# Indices 1 2 3 4 5 6 
#
# 1 0.008856 -0.000622 0.002139 -0.004545 0.005479 0.002872
# 2 -0.000622 0.020956 -0.002406 -0.014339 0.001094 0.001481
# 3 0.002139 -0.002406 0.013022 -0.008779 0.006316 0.005370
# 4 -0.004545 -0.014339 -0.008779 0.046540 -0.002171 -0.009106
# 5 0.005479 0.001094 0.006316 -0.002171 0.025767 -0.001258
# 6 0.002872 0.001481 0.005370 -0.009106 -0.001258 0.028660
#
#
# Mechanical properties :
#
#
# Convention : Reuss Voigt Hill
#
# Bulk Modulus (GPa) = 24.35581 57.11173 40.73377
# Shear Modulus (GPa) = 31.39444 45.28449 38.33947
#
# Velocity S-wave (km/s) = 3.56715 4.28420 3.94201
# Velocity P-wave (km/s) = 5.18052 6.90077 6.10157
#
# Compressibility (1/GPa) = 0.04105797
#
# Stress axis : x y z
#
# Youngs Moduli (GPa) = 112.92374 47.71804 76.79380
#
# Poissons Ratio (x) = 0.02966 -0.16429
# Poissons Ratio (y) = 0.07019 0.18474
# Poissons Ratio (z) = -0.24158 0.11479
#
# Static dielectric constant tensor:
#      x y z
#    x 2.241970 -0.050080 -0.115460 
#    y -0.050080 2.085100 0.014270 
#    z -0.115460 0.014270 2.175530 
# 
# From -- ./inp_files/275701.got.cif
#   From: 2010.05.17/outbox.cif.g08.bks.cpg/sg2_138_cif.got.tgz:275701.got - 2010.06.03 11:33:40.
