data_PCOD9062964
_publ_section_title
;
Structure prediction by ZEFSAII (Michael W. Deem and Ramdas Pophale) SiO2 
 PCOD9062964
Probable space group: P -1
;
_chemical_formula_sum "Si O2"
_cell_formula_units_Z 12
_cell_length_a 6.736123
_cell_length_b 5.215033
_cell_length_c 19.817262
_cell_angle_alpha 74.048765
_cell_angle_beta 106.109194
_cell_angle_gamma 133.512597
_cell_volume 481.529955
_symmetry_space_group_name_H-M "P -1"
_symmetry_group_IT_number 2
_symmetry_cell_setting 'triclinic'
loop_
_space_group_symop_operation_xyz
x,y,z
-x,-y,-z
loop_
_atom_site_type_symbol
_atom_site_label
_atom_site_fract_x
_atom_site_fract_y
_atom_site_fract_z
Si Si1 0.941143 0.641028 0.882882
Si Si2 0.002860 0.398590 0.681479
Si Si3 0.781664 0.583692 0.017262
Si Si4 0.283650 0.663144 0.550045
Si Si5 0.632470 0.649021 0.206471
Si Si6 0.393715 0.449153 0.337645
O O1 0.683930 0.564180 0.827675
O O2 0.115380 0.513172 0.905225
O O3 0.794986 0.454790 0.954925
O O4 0.186603 0.045880 0.854063
O O5 0.802968 0.471495 0.673143
O O6 0.206693 0.655057 0.621344
O O7 0.202237 0.485454 0.755956
O O8 0.803100 0.974691 0.671860
O O9 0.500000 0.500000 0.000000
O O10 0.000000 0.000000 0.000000
O O11 0.421315 0.488203 0.585985
O O12 0.000000 0.500000 0.500000
O O13 0.500000 0.000000 0.500000
O O14 0.604788 0.707826 0.278707
#
# Coordination Sequence:
#
# PCOD9062964 Si02
#       6
#     2   2   2   2   2   2
#     4  11  24  45  66 102 136 179 238 285 358 428
#     4  11  26  49  72 106 148 190 240 302 357 427
#     4  11  24  43  68 100 138 181 226 293 351 424
#     4  11  24  47  74 110 144 193 242 297 360 430
#     4  11  24  45  68 102 136 191 236 297 356 430
#     4  11  26  49  72 106 148 190 240 302 357 427
#
# _framework density 24.920570000000001
#
# number of rings (size 3 to 8) (size 9 to 14) (size 15 to 20)
#    0.000    1.000    3.333    2.000    0.000   13.333 
#    6.000    0.000    0.000    0.000    0.000    0.000 
#    0.000    0.000    0.000    0.000    0.000    0.000 
#
# Total GULP energy -66808.926958 kJ/mol
# GULP energy per Si atom -5567.410580 kJ/mol
# Density = 2.486385 g / cm^3
# Si number density = 24.920570 Si / 1000 Ang^3
#
#
#
# Elastic Constant Matrix: (Units=GPa)
#
#
# Indices 1 2 3 4 5 6 
#
# 1 223.4078 66.9643 73.2353 -8.7237 52.0446 32.6096
# 2 66.9643 91.3822 10.7687 -4.8917 16.2429 33.1091
# 3 73.2353 10.7687 114.1755 1.9561 23.4692 7.1949
# 4 -8.7237 -4.8917 1.9561 33.6831 24.8649 10.1520
# 5 52.0446 16.2429 23.4692 24.8649 71.7626 1.9240
# 6 32.6096 33.1091 7.1949 10.1520 1.9240 57.9722
#
#
#
# Elastic Compliance Matrix: (Units=1/GPa)
#
#
# Indices 1 2 3 4 5 6 
#
# 1 0.009732 -0.002891 -0.004116 0.009969 -0.008383 -0.004780
# 2 -0.002891 0.017962 0.001742 0.008742 -0.005294 -0.010204
# 3 -0.004116 0.001742 0.011416 -0.000882 -0.000839 0.000086
# 4 0.009969 0.008742 -0.000882 0.061666 -0.029742 -0.020303
# 5 -0.008383 -0.005294 -0.000839 -0.029742 0.031471 0.012007
# 6 -0.004780 -0.010204 0.000086 -0.020303 0.012007 0.028912
#
#
# Mechanical properties :
#
#
# Convention : Reuss Voigt Hill
#
# Bulk Modulus (GPa) = 34.98929 81.21133 58.10031
# Shear Modulus (GPa) = 27.59126 51.21674 39.40400
#
# Velocity S-wave (km/s) = 3.33102 4.53835 3.98072
# Velocity P-wave (km/s) = 5.37262 7.75377 6.67031
#
# Compressibility (1/GPa) = 0.02858017
#
# Stress axis : x y z
#
# Youngs Moduli (GPa) = 102.75616 55.67247 87.59258
#
# Poissons Ratio (x) = 0.16094 0.36052
# Poissons Ratio (y) = 0.29704 -0.15255
# Poissons Ratio (z) = 0.42294 -0.09696
#
# Static dielectric constant tensor:
#      x y z
#    x 2.126450 -0.045090 0.081220 
#    y -0.045090 2.022760 0.079000 
#    z 0.081220 0.079000 1.990790 
# 
# From -- ./inp_files/8687.got.cif
#   From: 2010.05.17/outbox.cif.g08.bks.cpg/sg2_5_cif.got.tgz:8687.got - 2010.06.03 11:33:40.
