data_PCOD9062401
_publ_section_title
;
Structure prediction by ZEFSAII (Michael W. Deem and Ramdas Pophale) SiO2 
 PCOD9062401
Probable space group: P -1
;
_chemical_formula_sum "Si O2"
_cell_formula_units_Z 14
_cell_length_a 17.632140
_cell_length_b 9.781442
_cell_length_c 5.386056
_cell_angle_alpha 101.041217
_cell_angle_beta 102.277367
_cell_angle_gamma 38.226116
_cell_volume 561.179624
_symmetry_space_group_name_H-M "P -1"
_symmetry_group_IT_number 2
_symmetry_cell_setting 'triclinic'
loop_
_space_group_symop_operation_xyz
x,y,z
-x,-y,-z
loop_
_atom_site_type_symbol
_atom_site_label
_atom_site_fract_x
_atom_site_fract_y
_atom_site_fract_z
Si Si1 0.171629 0.841125 0.190702
Si Si2 0.488789 0.679280 0.048172
Si Si3 0.782520 0.916451 0.860212
Si Si4 0.680776 0.531852 0.481260
Si Si5 0.460354 0.945910 0.746209
Si Si6 0.821708 0.700059 0.321401
Si Si7 0.084270 0.723749 0.710404
O O1 0.288995 0.633176 0.361046
O O2 0.193314 0.952045 0.090283
O O3 0.131480 0.767748 0.965182
O O4 0.055767 0.039479 0.357467
O O5 0.615490 0.561547 0.204210
O O6 0.366999 0.893229 0.193274
O O7 0.500000 0.500000 0.000000
O O8 0.464618 0.783024 0.803726
O O9 0.842432 0.757059 0.608731
O O10 0.822379 0.793777 0.107294
O O11 0.576053 0.784121 0.586002
O O12 0.815789 0.405345 0.483681
O O13 0.316103 0.169789 0.687838
O O14 0.500000 0.000000 0.000000
O O15 0.907095 0.447058 0.253499
#
# Coordination Sequence:
#
# PCOD9062401 Si02
#       7
#     2   2   2   2   2   2   2
#     4  11  27  48  71 101 141 194 249 300 355 429
#     4  11  24  40  66 104 142 185 227 293 364 434
#     4  11  26  47  73 110 146 189 240 302 368 432
#     4  12  23  42  74 104 137 184 240 294 360 430
#     4  11  24  40  66 104 142 185 227 293 364 434
#     4  11  26  47  73 110 146 189 240 302 368 432
#     4  11  27  48  71 101 141 194 249 300 355 429
#
# _framework density 24.947448000000001
#
# number of rings (size 3 to 8) (size 9 to 14) (size 15 to 20)
#    0.000    0.857    1.429    4.714   12.000    3.429 
#    0.000    0.000    0.000    0.000    0.000    0.000 
#    0.000    0.000    0.000    0.000    0.000    0.000 
#
# Total GULP energy -78375.100174 kJ/mol
# GULP energy per Si atom -5598.221441 kJ/mol
# Density = 2.489067 g / cm^3
# Si number density = 24.947448 Si / 1000 Ang^3
#
#
#
# Elastic Constant Matrix: (Units=GPa)
#
#
# Indices 1 2 3 4 5 6 
#
# 1 97.0267 36.3939 16.7381 2.1553 -12.6479 -2.9343
# 2 36.3939 167.6217 28.2232 5.5735 -4.3650 2.2674
# 3 16.7381 28.2232 85.7617 5.2126 -11.1067 9.1050
# 4 2.1553 5.5735 5.2126 30.5759 5.4103 -6.9294
# 5 -12.6479 -4.3650 -11.1067 5.4103 26.8288 -7.5667
# 6 -2.9343 2.2674 9.1050 -6.9294 -7.5667 53.4981
#
#
#
# Elastic Compliance Matrix: (Units=1/GPa)
#
#
# Indices 1 2 3 4 5 6 
#
# 1 0.012141 -0.002314 -0.001005 -0.000883 0.005563 0.001607
# 2 -0.002314 0.006780 -0.001791 -0.000716 -0.000669 -0.000297
# 3 -0.001005 -0.001791 0.013489 -0.003223 0.004906 -0.001999
# 4 -0.000883 -0.000716 -0.003223 0.035769 -0.007941 0.004040
# 5 0.005563 -0.000669 0.004906 -0.007941 0.044774 0.004803
# 6 0.001607 -0.000297 -0.001999 0.004040 0.004803 0.020336
#
#
# Mechanical properties :
#
#
# Convention : Reuss Voigt Hill
#
# Bulk Modulus (GPa) = 45.06467 57.01340 51.03903
# Shear Modulus (GPa) = 33.13321 40.11754 36.62538
#
# Velocity S-wave (km/s) = 3.64829 4.01444 3.83574
# Velocity P-wave (km/s) = 5.98747 6.66263 6.33405
#
# Compressibility (1/GPa) = 0.02219033
#
# Stress axis : x y z
#
# Youngs Moduli (GPa) = 82.36396 147.48508 74.13378
#
# Poissons Ratio (x) = 0.34135 0.07447
# Poissons Ratio (y) = 0.19063 0.13279
# Poissons Ratio (z) = 0.08274 0.26417
#
# Static dielectric constant tensor:
#      x y z
#    x 2.011490 -0.019180 -0.098140 
#    y -0.019180 1.976330 0.049180 
#    z -0.098140 0.049180 2.007280 
# 
# From -- ./inp_files/69808.got.cif
#   From: 2010.05.17/outbox.cif.g08.bks.cpg/sg2_35_cif.got.tgz:69808.got - 2010.06.03 11:33:40.
