data_PCOD9062970
_publ_section_title
;
Structure prediction by ZEFSAII (Michael W. Deem and Ramdas Pophale) SiO2 
 PCOD9062970
Probable space group: P -1
;
_chemical_formula_sum "Si O2"
_cell_formula_units_Z 16
_cell_length_a 11.220255
_cell_length_b 17.265131
_cell_length_c 8.485859
_cell_angle_alpha 83.962654
_cell_angle_beta 55.410981
_cell_angle_gamma 41.764583
_cell_volume 734.043812
_symmetry_space_group_name_H-M "P -1"
_symmetry_group_IT_number 2
_symmetry_cell_setting 'triclinic'
loop_
_space_group_symop_operation_xyz
x,y,z
-x,-y,-z
loop_
_atom_site_type_symbol
_atom_site_label
_atom_site_fract_x
_atom_site_fract_y
_atom_site_fract_z
Si Si1 0.402044 0.379694 0.797600
Si Si2 0.389835 0.165741 0.429398
Si Si3 0.574350 0.374831 0.996975
Si Si4 0.754931 0.833654 0.804876
Si Si5 0.097770 0.365987 0.045870
Si Si6 0.749635 0.329315 0.370510
Si Si7 0.763432 0.587209 0.537995
Si Si8 0.089280 0.167111 0.833549
O O1 0.613781 0.310275 0.524881
O O2 0.116577 0.549896 0.947355
O O3 0.504078 0.359926 0.894665
O O4 0.323764 0.325956 0.850614
O O5 0.285129 0.188267 0.329154
O O6 0.368313 0.269238 0.432983
O O7 0.223035 0.187786 0.672641
O O8 0.685183 0.998675 0.266950
O O9 0.417570 0.398217 0.248026
O O10 0.500000 0.500000 0.000000
O O11 0.883286 0.234194 0.839467
O O12 0.764126 0.769054 0.954446
O O13 0.045138 0.741533 0.628255
O O14 0.500000 0.000000 0.000000
O O15 0.909115 0.486524 0.298501
O O16 0.500000 0.500000 0.500000
O O17 0.916010 0.252799 0.103001
O O18 0.000000 0.500000 0.500000
#
# Coordination Sequence:
#
# PCOD9062970 Si02
#       8
#     2   2   2   2   2   2   2   2
#     4  11  24  43  68 102 141 180 235 296 350 413
#     4  11  25  47  72 102 144 195 237 290 363 428
#     4  12  25  40  70 103 140 183 234 295 352 422
#     4  12  24  45  73 103 146 189 232 292 363 433
#     4  11  25  44  71 105 139 187 239 290 356 427
#     4  12  24  41  71 106 141 179 236 297 347 413
#     4  12  23  43  72 101 141 184 238 296 349 430
#     4  11  26  45  69 104 141 187 243 294 354 431
#
# _framework density 21.797063999999999
#
# number of rings (size 3 to 8) (size 9 to 14) (size 15 to 20)
#    0.000    0.500    5.000    3.000    3.500    0.500 
#    0.000    0.625    0.000    0.000    0.000    0.000 
#    0.000    0.000    0.000    0.000    0.000    0.000 
#
# Total GULP energy -89502.367121 kJ/mol
# GULP energy per Si atom -5593.897945 kJ/mol
# Density = 2.174745 g / cm^3
# Si number density = 21.797064 Si / 1000 Ang^3
#
#
#
# Elastic Constant Matrix: (Units=GPa)
#
#
# Indices 1 2 3 4 5 6 
#
# 1 96.3989 53.6402 41.1422 8.7024 -19.8123 -21.5686
# 2 53.6402 164.1509 51.4278 10.5631 -27.3324 6.8030
# 3 41.1422 51.4278 125.2922 -9.6218 -24.9169 13.7723
# 4 8.7024 10.5631 -9.6218 47.5677 4.3710 -11.4861
# 5 -19.8123 -27.3324 -24.9169 4.3710 47.0890 -8.0204
# 6 -21.5686 6.8030 13.7723 -11.4861 -8.0204 51.4621
#
#
#
# Elastic Compliance Matrix: (Units=1/GPa)
#
#
# Indices 1 2 3 4 5 6 
#
# 1 0.017625 -0.003922 -0.004423 -0.001374 0.004542 0.009490
# 2 -0.003922 0.008517 -0.001674 -0.002317 0.002197 -0.002496
# 3 -0.004423 -0.001674 0.011152 0.002327 0.002213 -0.003753
# 4 -0.001374 -0.002317 0.002327 0.023425 -0.002185 0.003995
# 5 0.004542 0.002197 0.002213 -0.002185 0.026594 0.004678
# 6 0.009490 -0.002496 -0.003753 0.003995 0.004678 0.026364
#
#
# Mechanical properties :
#
#
# Convention : Reuss Voigt Hill
#
# Bulk Modulus (GPa) = 57.95525 75.36249 66.65887
# Shear Modulus (GPa) = 35.85085 45.19921 40.52503
#
# Velocity S-wave (km/s) = 4.05996 4.55866 4.31652
# Velocity P-wave (km/s) = 6.97309 7.89672 7.44923
#
# Compressibility (1/GPa) = 0.01725469
#
# Stress axis : x y z
#
# Youngs Moduli (GPa) = 56.73887 117.41782 89.66751
#
# Poissons Ratio (x) = 0.46053 0.39658
# Poissons Ratio (y) = 0.22254 0.15014
# Poissons Ratio (z) = 0.25095 0.19661
#
# Static dielectric constant tensor:
#      x y z
#    x 1.796650 0.036700 0.039440 
#    y 0.036700 1.782970 -0.069110 
#    z 0.039440 -0.069110 1.775410 
# 
# From -- ./inp_files/279371.got.cif
#   From: 2010.05.17/outbox.cif.g08.bks.cpg/sg2_140_cif.got.tgz:279371.got - 2010.06.03 11:33:40.
