data_PCOD9062055
_publ_section_title
;
Structure prediction by ZEFSAII (Michael W. Deem and Ramdas Pophale) SiO2 
 PCOD9062055
Probable space group: P -1
;
_chemical_formula_sum "Si O2"
_cell_formula_units_Z 16
_cell_length_a 11.365746
_cell_length_b 13.338213
_cell_length_c 12.609999
_cell_angle_alpha 79.751702
_cell_angle_beta 122.596734
_cell_angle_gamma 146.797096
_cell_volume 711.159961
_symmetry_space_group_name_H-M "P -1"
_symmetry_group_IT_number 2
_symmetry_cell_setting 'triclinic'
loop_
_space_group_symop_operation_xyz
x,y,z
-x,-y,-z
loop_
_atom_site_type_symbol
_atom_site_label
_atom_site_fract_x
_atom_site_fract_y
_atom_site_fract_z
Si Si1 0.012589 0.120849 0.036279
Si Si2 0.465121 0.073979 0.892460
Si Si3 0.325396 0.670554 0.872392
Si Si4 0.267279 0.082160 0.409489
Si Si5 0.193312 0.257707 0.338990
Si Si6 0.985781 0.741343 0.185517
Si Si7 0.552206 0.977270 0.340054
Si Si8 0.078736 0.470314 0.453859
O O1 0.195000 0.251925 0.211581
O O2 0.111325 0.266627 0.968499
O O3 0.653662 0.908406 0.932711
O O4 0.000000 0.000000 0.000000
O O5 0.582747 0.127482 0.822679
O O6 0.638168 0.279433 0.996085
O O7 0.101673 0.866186 0.750407
O O8 0.500000 0.000000 0.000000
O O9 0.236958 0.495900 0.845352
O O10 0.075877 0.583189 0.716290
O O11 0.135481 0.103982 0.377536
O O12 0.556650 0.299211 0.431990
O O13 0.027525 0.856606 0.270452
O O14 0.404297 0.099657 0.563652
O O15 0.500000 0.500000 0.500000
O O16 0.322489 0.905099 0.302859
O O17 0.891106 0.248485 0.438604
O O18 0.000000 0.500000 0.500000
#
# Coordination Sequence:
#
# PCOD9062055 Si02
#       8
#     2   2   2   2   2   2   2   2
#     4  11  23  47  70  97 140 190 234 292 358 415
#     4  11  24  48  71  98 141 193 239 285 354 436
#     4  11  24  41  69 103 133 178 241 289 345 426
#     4  12  25  43  67 108 147 175 240 299 356 427
#     4  11  26  47  72 103 146 188 236 297 359 427
#     4  12  23  43  69 106 138 181 240 297 351 421
#     4  12  23  40  71 100 139 186 231 292 355 423
#     4  12  21  39  68 100 139 181 224 287 359 406
#
# _framework density 22.498453999999999
#
# number of rings (size 3 to 8) (size 9 to 14) (size 15 to 20)
#    0.000    0.500    6.250    2.625    0.000    2.500 
#    2.250    0.000    0.000    0.000    0.000    0.000 
#    0.000    0.000    0.000    0.000    0.000    0.000 
#
# Total GULP energy -89560.514614 kJ/mol
# GULP energy per Si atom -5597.532163 kJ/mol
# Density = 2.244725 g / cm^3
# Si number density = 22.498454 Si / 1000 Ang^3
#
#
#
# Elastic Constant Matrix: (Units=GPa)
#
#
# Indices 1 2 3 4 5 6 
#
# 1 96.9319 10.3066 27.9880 1.1855 1.2742 -21.6399
# 2 10.3066 61.8384 28.4031 -4.9824 8.8475 -13.2278
# 3 27.9880 28.4031 100.3474 0.0677 -5.5879 -16.7299
# 4 1.1855 -4.9824 0.0677 39.3635 -9.4372 2.8279
# 5 1.2742 8.8475 -5.5879 -9.4372 44.4658 -7.2635
# 6 -21.6399 -13.2278 -16.7299 2.8279 -7.2635 26.0924
#
#
#
# Elastic Compliance Matrix: (Units=1/GPa)
#
#
# Indices 1 2 3 4 5 6 
#
# 1 0.013132 0.000818 -0.002155 -0.000860 0.000675 0.010205
# 2 0.000818 0.020376 -0.005068 0.001279 -0.003351 0.006687
# 3 -0.002155 -0.005068 0.013026 -0.000119 0.003496 0.004982
# 4 -0.000860 0.001279 -0.000119 0.026958 0.005213 -0.001611
# 5 0.000675 -0.003351 0.003496 0.005213 0.025950 0.007761
# 6 0.010205 0.006687 0.004982 -0.001611 0.007761 0.055709
#
#
# Mechanical properties :
#
#
# Convention : Reuss Voigt Hill
#
# Bulk Modulus (GPa) = 29.65218 43.61255 36.63237
# Shear Modulus (GPa) = 27.90178 34.81232 31.35705
#
# Velocity S-wave (km/s) = 3.52542 3.93787 3.73734
# Velocity P-wave (km/s) = 5.45708 6.33265 5.91110
#
# Compressibility (1/GPa) = 0.03372433
#
# Stress axis : x y z
#
# Youngs Moduli (GPa) = 76.15262 49.07851 76.76883
#
# Poissons Ratio (x) = -0.04015 0.16540
# Poissons Ratio (y) = -0.06230 0.38906
# Poissons Ratio (z) = 0.16408 0.24873
#
# Static dielectric constant tensor:
#      x y z
#    x 1.810150 0.011550 0.030340 
#    y 0.011550 1.812670 -0.002140 
#    z 0.030340 -0.002140 1.810270 
# 
# From -- ./inp_files/433956.got.cif
#   From: 2010.05.17/outbox.cif.g08.bks.cpg/sg2_217_cif.got.tgz:433956.got - 2010.06.03 11:33:40.
