data_PCOD9062070
_publ_section_title
;
Structure prediction by ZEFSAII (Michael W. Deem and Ramdas Pophale) SiO2 
 PCOD9062070
Probable space group: P -1
;
_chemical_formula_sum "Si O2"
_cell_formula_units_Z 14
_cell_length_a 11.297974
_cell_length_b 14.092061
_cell_length_c 19.625059
_cell_angle_alpha 28.858892
_cell_angle_beta 158.392282
_cell_angle_gamma 140.219668
_cell_volume 536.624537
_symmetry_space_group_name_H-M "P -1"
_symmetry_group_IT_number 2
_symmetry_cell_setting 'triclinic'
loop_
_space_group_symop_operation_xyz
x,y,z
-x,-y,-z
loop_
_atom_site_type_symbol
_atom_site_label
_atom_site_fract_x
_atom_site_fract_y
_atom_site_fract_z
Si Si1 0.224849 0.199291 0.355418
Si Si2 0.134277 0.863092 0.019041
Si Si3 0.140126 0.452492 0.846929
Si Si4 0.150887 0.860729 0.431277
Si Si5 0.464188 0.520299 0.192546
Si Si6 0.712817 0.630016 0.387988
Si Si7 0.278997 0.126976 0.576646
O O1 0.328850 0.382246 0.260567
O O2 0.408304 0.136920 0.563119
O O3 0.282104 0.022075 0.442566
O O4 0.833661 0.289581 0.106629
O O5 0.354008 0.693125 0.191408
O O6 0.399338 0.934751 0.163725
O O7 0.908033 0.745355 0.014543
O O8 0.957409 0.044391 0.760174
O O9 0.959753 0.460454 0.671717
O O10 0.913735 0.648977 0.641206
O O11 0.500000 0.500000 0.000000
O O12 0.392245 0.635952 0.692415
O O13 0.851523 0.830197 0.337424
O O14 0.710598 0.592698 0.329721
O O15 0.000000 0.000000 0.500000
#
# Coordination Sequence:
#
# PCOD9062070 Si02
#       7
#     2   2   2   2   2   2   2
#     4  11  24  45  71 103 150 191 241 298 369 434
#     4  11  24  48  74 104 151 200 237 310 374 434
#     4  11  26  45  74 105 146 194 253 301 367 444
#     4  12  26  43  77 109 146 188 255 298 365 440
#     4  11  25  42  73 106 143 193 243 302 363 432
#     4  11  23  47  71 107 147 193 244 303 371 442
#     4  11  25  44  74 103 147 195 242 294 381 437
#
# _framework density 26.089005
#
# number of rings (size 3 to 8) (size 9 to 14) (size 15 to 20)
#    0.000    0.857    1.429    6.429    6.000    3.429 
#    0.000    2.143    0.000    0.000    0.000    0.000 
#    0.000    0.000    0.000    0.000    0.000    0.000 
#
# Total GULP energy -78407.641750 kJ/mol
# GULP energy per Si atom -5600.545839 kJ/mol
# Density = 2.602963 g / cm^3
# Si number density = 26.089005 Si / 1000 Ang^3
#
#
#
# Elastic Constant Matrix: (Units=GPa)
#
#
# Indices 1 2 3 4 5 6 
#
# 1 111.6968 22.6923 49.5700 3.9203 -20.0404 6.4786
# 2 22.6923 96.2318 27.7685 5.7509 -9.7727 4.6214
# 3 49.5700 27.7685 124.4882 -0.6507 0.9777 -12.6895
# 4 3.9203 5.7509 -0.6507 28.0360 0.3717 0.3573
# 5 -20.0404 -9.7727 0.9777 0.3717 37.0163 2.5523
# 6 6.4786 4.6214 -12.6895 0.3573 2.5523 70.0860
#
#
#
# Elastic Compliance Matrix: (Units=1/GPa)
#
#
# Indices 1 2 3 4 5 6 
#
# 1 0.012921 -0.000554 -0.005330 -0.001882 0.007173 -0.002374
# 2 -0.000554 0.011775 -0.002573 -0.002421 0.002990 -0.001288
# 3 -0.005330 -0.002573 0.011055 0.001548 -0.004066 0.002804
# 4 -0.001882 -0.002421 0.001548 0.036485 -0.002100 0.000504
# 5 0.007173 0.002990 -0.004066 -0.002100 0.032006 -0.002751
# 6 -0.002374 -0.001288 0.002804 0.000504 -0.002751 0.015178
#
#
# Mechanical properties :
#
#
# Convention : Reuss Voigt Hill
#
# Bulk Modulus (GPa) = 53.08717 59.16428 56.12572
# Shear Modulus (GPa) = 35.05972 42.52004 38.78988
#
# Velocity S-wave (km/s) = 3.66983 4.04147 3.86012
# Velocity P-wave (km/s) = 6.19270 6.67121 6.43640
#
# Compressibility (1/GPa) = 0.01883694
#
# Stress axis : x y z
#
# Youngs Moduli (GPa) = 77.39122 84.92633 90.45675
#
# Poissons Ratio (x) = 0.04706 0.48211
# Poissons Ratio (y) = 0.04289 0.23277
# Poissons Ratio (z) = 0.41248 0.21854
#
# Static dielectric constant tensor:
#      x y z
#    x 2.018260 0.019280 0.043630 
#    y 0.019280 2.042030 0.105940 
#    z 0.043630 0.105940 2.141890 
# 
# From -- ./inp_files/595637.got.cif
#   From: 2010.05.17/outbox.cif.g08.bks.cpg/sg2_298_cif.got.tgz:595637.got - 2010.06.03 11:33:40.
