data_PCOD9062935
_publ_section_title
;
Structure prediction by ZEFSAII (Michael W. Deem and Ramdas Pophale) SiO2 
 PCOD9062935
Probable space group: P -1
;
_chemical_formula_sum "Si O2"
_cell_formula_units_Z 10
_cell_length_a 5.206134
_cell_length_b 9.150613
_cell_length_c 11.578020
_cell_angle_alpha 101.597924
_cell_angle_beta 128.972966
_cell_angle_gamma 71.374672
_cell_volume 406.355215
_symmetry_space_group_name_H-M "P -1"
_symmetry_group_IT_number 2
_symmetry_cell_setting 'triclinic'
loop_
_space_group_symop_operation_xyz
x,y,z
-x,-y,-z
loop_
_atom_site_type_symbol
_atom_site_label
_atom_site_fract_x
_atom_site_fract_y
_atom_site_fract_z
Si Si1 0.722144 0.528110 0.297177
Si Si2 0.879072 0.927841 0.142934
Si Si3 0.139567 0.228549 0.294522
Si Si4 0.765542 0.295186 0.609072
Si Si5 0.126973 0.639106 0.002092
O O1 0.146238 0.656258 0.689017
O O2 0.463764 0.607110 0.337019
O O3 0.051763 0.596528 0.394480
O O4 0.531896 0.579097 0.128608
O O5 0.940393 0.837535 0.267792
O O6 0.070396 0.062847 0.231846
O O7 0.033823 0.797664 0.072647
O O8 0.500000 0.000000 0.000000
O O9 0.058844 0.315254 0.163606
O O10 0.506975 0.225630 0.449700
O O11 0.000000 0.500000 0.000000
#
# Coordination Sequence:
#
# PCOD9062935 Si02
#       5
#     2   2   2   2   2
#     4  11  24  46  70 100 138 185 230 278 339 414
#     4  11  24  43  67 103 140 183 229 284 345 410
#     4  12  23  42  70 103 138 181 229 290 342 400
#     4  11  26  46  70 103 141 182 230 281 342 410
#     4  11  24  45  71 101 137 185 234 281 341 416
#
# _framework density 24.609010000000001
#
# number of rings (size 3 to 8) (size 9 to 14) (size 15 to 20)
#    0.000    0.800    0.000    7.800    0.000    4.800 
#    0.000    6.000    0.000    0.000    0.000    0.000 
#    0.000    0.000    0.000    0.000    0.000    0.000 
#
# Total GULP energy -56011.143704 kJ/mol
# GULP energy per Si atom -5601.114370 kJ/mol
# Density = 2.455300 g / cm^3
# Si number density = 24.609010 Si / 1000 Ang^3
#
#
#
# Elastic Constant Matrix: (Units=GPa)
#
#
# Indices 1 2 3 4 5 6 
#
# 1 68.3638 33.1286 17.4461 21.6743 10.4228 -0.1269
# 2 33.1286 154.0593 51.5874 18.9379 6.7523 -2.7329
# 3 17.4461 51.5874 188.4015 2.6640 17.8740 -10.8218
# 4 21.6743 18.9379 2.6640 65.7082 3.6594 10.4626
# 5 10.4228 6.7523 17.8740 3.6594 41.6230 -7.8791
# 6 -0.1269 -2.7329 -10.8218 10.4626 -7.8791 31.2752
#
#
#
# Elastic Compliance Matrix: (Units=1/GPa)
#
#
# Indices 1 2 3 4 5 6 
#
# 1 0.018316 -0.003010 -0.000453 -0.005047 -0.003366 0.000495
# 2 -0.003010 0.007923 -0.001885 -0.001339 0.000510 0.000604
# 3 -0.000453 -0.001885 0.006127 0.000342 -0.001989 0.001338
# 4 -0.005047 -0.001339 0.000342 0.018384 -0.001523 -0.006553
# 5 -0.003366 0.000510 -0.001989 -0.001523 0.027034 0.006663
# 6 0.000495 0.000604 0.001338 -0.006553 0.006663 0.036363
#
#
# Mechanical properties :
#
#
# Convention : Reuss Voigt Hill
#
# Bulk Modulus (GPa) = 46.14940 68.34987 57.24963
# Shear Modulus (GPa) = 37.85989 48.29878 43.07933
#
# Velocity S-wave (km/s) = 3.92657 4.43498 4.18850
# Velocity P-wave (km/s) = 6.27304 7.35255 6.83415
#
# Compressibility (1/GPa) = 0.02166876
#
# Stress axis : x y z
#
# Youngs Moduli (GPa) = 54.59626 126.22177 163.22159
#
# Poissons Ratio (x) = 0.37997 0.07388
# Poissons Ratio (y) = 0.16436 0.30773
# Poissons Ratio (z) = 0.02471 0.23797
#
# Static dielectric constant tensor:
#      x y z
#    x 1.994920 -0.027000 -0.033000 
#    y -0.027000 1.934270 -0.016810 
#    z -0.033000 -0.016810 2.051760 
# 
# From -- ./inp_files/360473.got.cif
#   From: 2010.05.17/outbox.cif.g08.bks.cpg/sg2_181_cif.got.tgz:360473.got - 2010.06.03 11:33:40.
