data_PCOD9062155
_publ_section_title
;
Structure prediction by ZEFSAII (Michael W. Deem and Ramdas Pophale) SiO2 
 PCOD9062155
Probable space group: P -1
;
_chemical_formula_sum "Si O2"
_cell_formula_units_Z 14
_cell_length_a 12.324244
_cell_length_b 7.167332
_cell_length_c 6.787559
_cell_angle_alpha 117.309161
_cell_angle_beta 86.412305
_cell_angle_gamma 100.544959
_cell_volume 523.579876
_symmetry_space_group_name_H-M "P -1"
_symmetry_group_IT_number 2
_symmetry_cell_setting 'triclinic'
loop_
_space_group_symop_operation_xyz
x,y,z
-x,-y,-z
loop_
_atom_site_type_symbol
_atom_site_label
_atom_site_fract_x
_atom_site_fract_y
_atom_site_fract_z
Si Si1 0.042059 0.790309 0.969084
Si Si2 0.000351 0.310624 0.624671
Si Si3 0.230880 0.331129 0.427153
Si Si4 0.561210 0.604603 0.342265
Si Si5 0.287972 0.010685 0.992098
Si Si6 0.597534 0.230250 0.856902
Si Si7 0.757427 0.199587 0.481138
O O1 0.175161 0.846334 0.976097
O O2 0.003463 0.567932 0.748810
O O3 0.999298 0.746061 0.173363
O O4 0.000000 0.000000 0.000000
O O5 0.108634 0.255194 0.482935
O O6 0.886044 0.191717 0.490098
O O7 0.321056 0.272473 0.538074
O O8 0.250078 0.583061 0.528556
O O9 0.258463 0.235112 0.168959
O O10 0.500000 0.500000 0.500000
O O11 0.489851 0.748422 0.297090
O O12 0.585562 0.422108 0.100056
O O13 0.302493 0.981279 0.745626
O O14 0.389436 0.960862 0.086534
O O15 0.706490 0.233604 0.714047
#
# Coordination Sequence:
#
# PCOD9062155 Si02
#       7
#     2   2   2   2   2   2   2
#     4  11  24  44  72 110 153 204 254 306 372 458
#     4  11  25  46  76 108 159 206 244 314 385 444
#     4  12  26  46  75 110 146 201 251 306 387 446
#     4  11  23  48  80 103 144 195 250 317 380 447
#     4  12  26  45  70 110 150 191 250 306 374 455
#     4  11  23  47  77 103 142 194 243 313 379 434
#     4  12  24  48  73 106 155 192 245 307 371 461
#
# _framework density 26.738994999999999
#
# number of rings (size 3 to 8) (size 9 to 14) (size 15 to 20)
#    0.000    0.571    5.714    1.286    4.000    2.286 
#    2.571    2.857    0.000    0.000    0.000    0.000 
#    0.000    0.000    0.000    0.000    0.000    0.000 
#
# Total GULP energy -78512.697094 kJ/mol
# GULP energy per Si atom -5608.049792 kJ/mol
# Density = 2.667814 g / cm^3
# Si number density = 26.738995 Si / 1000 Ang^3
#
#
#
# Elastic Constant Matrix: (Units=GPa)
#
#
# Indices 1 2 3 4 5 6 
#
# 1 170.4857 45.1416 67.6065 -22.9426 -4.1138 -18.1743
# 2 45.1416 110.0715 62.8084 2.9906 -3.0725 -21.4951
# 3 67.6065 62.8084 185.8511 -5.8086 -11.3248 -21.4261
# 4 -22.9426 2.9906 -5.8086 46.1910 -9.0952 -8.2649
# 5 -4.1138 -3.0725 -11.3248 -9.0952 52.1008 -11.7478
# 6 -18.1743 -21.4951 -21.4261 -8.2649 -11.7478 31.0739
#
#
#
# Elastic Compliance Matrix: (Units=1/GPa)
#
#
# Indices 1 2 3 4 5 6 
#
# 1 0.008196 -0.001593 -0.001584 0.005279 0.002223 0.004844
# 2 -0.001593 0.012659 -0.002940 -0.000645 0.001244 0.006096
# 3 -0.001584 -0.002940 0.007550 0.001458 0.002395 0.003539
# 4 0.005279 -0.000645 0.001458 0.028926 0.009076 0.014772
# 5 0.002223 0.001244 0.002395 0.009076 0.025090 0.015711
# 6 0.004844 0.006096 0.003539 0.014772 0.015711 0.051540
#
#
# Mechanical properties :
#
#
# Convention : Reuss Voigt Hill
#
# Bulk Modulus (GPa) = 61.84155 90.83568 76.33861
# Shear Modulus (GPa) = 32.98462 45.26327 39.12395
#
# Velocity S-wave (km/s) = 3.51604 4.11881 3.82930
# Velocity P-wave (km/s) = 6.29773 7.52758 6.93995
#
# Compressibility (1/GPa) = 0.01617036
#
# Stress axis : x y z
#
# Youngs Moduli (GPa) = 122.01074 78.99742 132.44960
#
# Poissons Ratio (x) = 0.12582 0.20984
# Poissons Ratio (y) = 0.19433 0.38942
# Poissons Ratio (z) = 0.19330 0.23226
#
# Static dielectric constant tensor:
#      x y z
#    x 2.077160 0.008980 0.021810 
#    y 0.008980 2.066840 -0.040700 
#    z 0.021810 -0.040700 2.093140 
# 
# From -- ./inp_files/90971.got.cif
#   From: 2010.05.17/outbox.cif.g08.bks.cpg/sg2_46_cif.got.tgz:90971.got - 2010.06.03 11:33:40.
