data_PCOD9062037
_publ_section_title
;
Structure prediction by ZEFSAII (Michael W. Deem and Ramdas Pophale) SiO2 
 PCOD9062037
Probable space group: P -1
;
_chemical_formula_sum "Si O2"
_cell_formula_units_Z 14
_cell_length_a 8.209418
_cell_length_b 11.808868
_cell_length_c 18.154537
_cell_angle_alpha 144.493391
_cell_angle_beta 55.974287
_cell_angle_gamma 140.827343
_cell_volume 633.284324
_symmetry_space_group_name_H-M "P -1"
_symmetry_group_IT_number 2
_symmetry_cell_setting 'triclinic'
loop_
_space_group_symop_operation_xyz
x,y,z
-x,-y,-z
loop_
_atom_site_type_symbol
_atom_site_label
_atom_site_fract_x
_atom_site_fract_y
_atom_site_fract_z
Si Si1 0.200460 0.619122 0.577834
Si Si2 0.735935 0.267382 0.622758
Si Si3 0.455826 0.420260 0.383171
Si Si4 0.958483 0.188326 0.811657
Si Si5 0.459526 0.517280 0.122722
Si Si6 0.035812 0.239851 0.646917
Si Si7 0.479055 0.810731 0.131770
O O1 0.395057 0.601603 0.475614
O O2 0.000000 0.500000 0.500000
O O3 0.002655 0.421239 0.588755
O O4 0.354958 0.902562 0.723238
O O5 0.649579 0.430207 0.752874
O O6 0.807004 0.213144 0.653383
O O7 0.500000 0.000000 0.500000
O O8 0.500000 0.500000 0.500000
O O9 0.691264 0.500471 0.316885
O O10 0.222980 0.112729 0.278132
O O11 0.757982 0.244437 0.885601
O O12 0.229241 0.328990 0.862258
O O13 0.037130 0.230769 0.728776
O O14 0.410818 0.621327 0.117793
O O15 0.353622 0.228602 0.982353
O O16 0.000000 0.000000 0.500000
#
# Coordination Sequence:
#
# PCOD9062037 Si02
#       7
#     2   2   2   2   2   2   2
#     4  12  25  40  67  98 133 175 216 283 341 386
#     4  12  24  40  63 101 136 165 228 279 327 406
#     4  12  22  39  62  98 129 166 226 271 330 406
#     4  12  23  44  69  95 135 179 221 274 340 395
#     4  11  26  43  67 100 128 179 229 268 332 410
#     4  12  22  37  64  95 132 177 212 276 341 386
#     4  11  23  47  69  90 137 179 221 273 335 400
#
# _framework density 22.106973
#
# number of rings (size 3 to 8) (size 9 to 14) (size 15 to 20)
#    0.000    0.286    5.714    3.857    4.000    0.571 
#    0.000    0.000    0.000    2.571    0.000    0.000 
#    0.000    0.000    0.000    0.000    0.000    0.000 
#
# Total GULP energy -77944.190710 kJ/mol
# GULP energy per Si atom -5567.442194 kJ/mol
# Density = 2.205666 g / cm^3
# Si number density = 22.106973 Si / 1000 Ang^3
#
#
#
# Elastic Constant Matrix: (Units=GPa)
#
#
# Indices 1 2 3 4 5 6 
#
# 1 107.7989 5.2839 43.4700 9.3886 -1.4901 8.0253
# 2 5.2839 95.4356 19.5922 -0.2942 1.5335 8.3549
# 3 43.4700 19.5922 100.1120 -10.8407 -28.5319 9.4516
# 4 9.3886 -0.2942 -10.8407 28.3108 2.5542 -0.1669
# 5 -1.4901 1.5335 -28.5319 2.5542 37.0722 -6.9381
# 6 8.0253 8.3549 9.4516 -0.1669 -6.9381 23.8424
#
#
#
# Elastic Compliance Matrix: (Units=1/GPa)
#
#
# Indices 1 2 3 4 5 6 
#
# 1 0.013288 0.001319 -0.008158 -0.006999 -0.005969 -0.003487
# 2 0.001319 0.011600 -0.003737 -0.001412 -0.003991 -0.004199
# 3 -0.008158 -0.003737 0.019166 0.008738 0.014091 0.000619
# 4 -0.006999 -0.001412 0.008738 0.040632 0.003851 0.000792
# 5 -0.005969 -0.003991 0.014091 0.003851 0.039212 0.009259
# 6 -0.003487 -0.004199 0.000619 0.000792 0.009259 0.047042
#
#
# Mechanical properties :
#
#
# Convention : Reuss Voigt Hill
#
# Bulk Modulus (GPa) = 43.66403 48.89319 46.27861
# Shear Modulus (GPa) = 25.03433 33.51178 29.27305
#
# Velocity S-wave (km/s) = 3.36879 3.89767 3.64284
# Velocity P-wave (km/s) = 5.90981 6.51310 6.21877
#
# Compressibility (1/GPa) = 0.02290215
#
# Stress axis : x y z
#
# Youngs Moduli (GPa) = 75.25458 86.20892 52.17525
#
# Poissons Ratio (x) = -0.11368 0.42564
# Poissons Ratio (y) = -0.09924 0.19496
# Poissons Ratio (z) = 0.61392 0.32214
#
# Static dielectric constant tensor:
#      x y z
#    x 1.845920 -0.060460 -0.030040 
#    y -0.060460 1.853060 0.010390 
#    z -0.030040 0.010390 1.817100 
# 
# From -- ./inp_files/426749.got.cif
#   From: 2010.05.17/outbox.cif.g08.bks.cpg/sg2_214_cif.got.tgz:426749.got - 2010.06.03 11:33:40.
