data_PCOD9062158
_publ_section_title
;
Structure prediction by ZEFSAII (Michael W. Deem and Ramdas Pophale) SiO2 
 PCOD9062158
Probable space group: P -1
;
_chemical_formula_sum "Si O2"
_cell_formula_units_Z 16
_cell_length_a 24.616592
_cell_length_b 31.014190
_cell_length_c 5.031685
_cell_angle_alpha 86.296561
_cell_angle_beta 84.940562
_cell_angle_gamma 10.250062
_cell_volume 675.555789
_symmetry_space_group_name_H-M "P -1"
_symmetry_group_IT_number 2
_symmetry_cell_setting 'triclinic'
loop_
_space_group_symop_operation_xyz
x,y,z
-x,-y,-z
loop_
_atom_site_type_symbol
_atom_site_label
_atom_site_fract_x
_atom_site_fract_y
_atom_site_fract_z
Si Si1 0.252466 0.554170 0.026884
Si Si2 0.307217 0.021071 0.557892
Si Si3 0.180459 0.393843 0.141532
Si Si4 0.396255 0.788133 0.376087
Si Si5 0.239735 0.004542 0.209929
Si Si6 0.782477 0.784467 0.169941
Si Si7 0.957125 0.696025 0.638870
Si Si8 0.831208 0.110368 0.279238
O O1 0.456739 0.363021 0.827677
O O2 0.474342 0.396131 0.235219
O O3 0.081509 0.726556 0.877344
O O4 0.959880 0.759434 0.206902
O O5 0.220877 0.120159 0.316239
O O6 0.262807 0.006305 0.496680
O O7 0.642368 0.766840 0.629646
O O8 0.463356 0.201600 0.965134
O O9 0.931557 0.622917 0.240939
O O10 0.000000 0.500000 0.000000
O O11 0.263356 0.934452 0.234681
O O12 0.170971 0.938508 0.614645
O O13 0.692827 0.572510 0.501028
O O14 0.000304 0.639368 0.924362
O O15 0.761469 0.825529 0.440825
O O16 0.500000 0.000000 0.000000
O O17 0.000000 0.000000 0.500000
O O18 0.000000 0.000000 0.000000
#
# Coordination Sequence:
#
# PCOD9062158 Si02
#       8
#     2   2   2   2   2   2   2   2
#     4  11  23  47  77 108 151 192 245 304 370 451
#     4  11  24  42  72 102 145 191 250 310 374 432
#     4  11  26  42  64  98 147 196 250 318 376 429
#     4  12  24  46  79 108 148 195 252 301 368 458
#     4  11  25  45  72 111 142 197 256 309 367 444
#     4  12  27  45  66 103 144 192 255 309 376 437
#     4  12  24  44  74 100 136 195 249 302 367 437
#     4  12  26  47  81 116 154 196 237 304 386 450
#
# _framework density 23.684203
#
# number of rings (size 3 to 8) (size 9 to 14) (size 15 to 20)
#    0.000    0.500    5.000    2.625    3.500    2.500 
#    0.000    1.250    0.000    0.000    0.000    0.000 
#    0.000    0.000    0.000    0.000    0.000    0.000 
#
# Total GULP energy -89322.789296 kJ/mol
# GULP energy per Si atom -5582.674331 kJ/mol
# Density = 2.363030 g / cm^3
# Si number density = 23.684203 Si / 1000 Ang^3
#
#
#
# Elastic Constant Matrix: (Units=GPa)
#
#
# Indices 1 2 3 4 5 6 
#
# 1 129.3479 68.4732 42.1535 -9.5474 -18.8983 14.5931
# 2 68.4732 118.8487 41.8503 -37.8065 9.5462 16.7920
# 3 42.1535 41.8503 123.8223 -18.3751 2.4706 1.0451
# 4 -9.5474 -37.8065 -18.3751 50.4521 -4.8718 -0.7512
# 5 -18.8983 9.5462 2.4706 -4.8718 40.8852 -7.8773
# 6 14.5931 16.7920 1.0451 -0.7512 -7.8773 50.8509
#
#
#
# Elastic Compliance Matrix: (Units=1/GPa)
#
#
# Indices 1 2 3 4 5 6 
#
# 1 0.014602 -0.009733 -0.002542 -0.004611 0.008694 0.000354
# 2 -0.009733 0.019476 -0.001373 0.011358 -0.008527 -0.004763
# 3 -0.002542 -0.001373 0.009707 0.001937 -0.001046 0.000850
# 4 -0.004611 0.011358 0.001937 0.027934 -0.002028 -0.002369
# 5 0.008694 -0.008527 -0.001046 -0.002028 0.031284 0.005159
# 6 0.000354 -0.004763 0.000850 -0.002369 0.005159 0.021883
#
#
# Mechanical properties :
#
#
# Convention : Reuss Voigt Hill
#
# Bulk Modulus (GPa) = 60.64986 75.21922 67.93454
# Shear Modulus (GPa) = 31.71020 43.07377 37.39199
#
# Velocity S-wave (km/s) = 3.66303 4.26921 3.97769
# Velocity P-wave (km/s) = 6.59953 7.49198 7.05987
#
# Compressibility (1/GPa) = 0.01648808
#
# Stress axis : x y z
#
# Youngs Moduli (GPa) = 68.48530 51.34506 103.02015
#
# Poissons Ratio (x) = 0.49972 0.26189
# Poissons Ratio (y) = 0.66654 0.14149
# Poissons Ratio (z) = 0.17410 0.07052
#
# Static dielectric constant tensor:
#      x y z
#    x 1.940000 -0.302790 -0.286840 
#    y -0.302790 1.111770 -0.680810 
#    z -0.286840 -0.680810 1.395680 
# 
# From -- ./inp_files/125345.got.cif
#   From: 2010.05.17/outbox.cif.g08.bks.cpg/sg2_63_cif.got.tgz:125345.got - 2010.06.03 11:33:40.
