data_PCOD9062942
_publ_section_title
;
Structure prediction by ZEFSAII (Michael W. Deem and Ramdas Pophale) SiO2 
 PCOD9062942
Probable space group: P -1
;
_chemical_formula_sum "Si O2"
_cell_formula_units_Z 10
_cell_length_a 9.139888
_cell_length_b 12.647684
_cell_length_c 11.402067
_cell_angle_alpha 156.889233
_cell_angle_beta 87.616478
_cell_angle_gamma 80.513410
_cell_volume 442.211264
_symmetry_space_group_name_H-M "P -1"
_symmetry_group_IT_number 2
_symmetry_cell_setting 'triclinic'
loop_
_space_group_symop_operation_xyz
x,y,z
-x,-y,-z
loop_
_atom_site_type_symbol
_atom_site_label
_atom_site_fract_x
_atom_site_fract_y
_atom_site_fract_z
Si Si1 0.694190 0.434980 0.727209
Si Si2 0.670195 0.452843 0.215881
Si Si3 0.786913 0.828094 0.719362
Si Si4 0.125418 0.629787 0.108619
Si Si5 0.838108 0.791341 0.949727
O O1 0.508692 0.485943 0.764621
O O2 0.736343 0.478978 0.902989
O O3 0.721840 0.671304 0.888250
O O4 0.824462 0.076495 0.315707
O O5 0.655118 0.718002 0.575815
O O6 0.780104 0.455963 0.106066
O O7 0.758246 0.118875 0.938837
O O8 0.782312 0.905837 0.935576
O O9 0.972066 0.514868 0.371932
O O10 0.000000 0.000000 0.500000
O O11 0.000000 0.500000 0.000000
#
# Coordination Sequence:
#
# PCOD9062942 Si02
#       5
#     2   2   2   2   2
#     4  12  25  42  66  98 132 165 211 268 324 375
#     4  12  25  42  66  98 132 165 211 268 324 375
#     4  11  24  43  67  95 130 173 217 258 310 382
#     4  12  25  44  69  92 125 170 217 262 315 384
#     4  11  24  43  67  95 130 173 217 258 310 382
#
# _framework density 22.613627999999999
#
# number of rings (size 3 to 8) (size 9 to 14) (size 15 to 20)
#    0.000    0.400    0.000   10.200    0.000    8.000 
#    0.000    6.000    0.000    0.000    0.000    0.000 
#    0.000    0.000    0.000    0.000    0.000    0.000 
#
# Total GULP energy -56070.849472 kJ/mol
# GULP energy per Si atom -5607.084947 kJ/mol
# Density = 2.256216 g / cm^3
# Si number density = 22.613628 Si / 1000 Ang^3
#
#
#
# Elastic Constant Matrix: (Units=GPa)
#
#
# Indices 1 2 3 4 5 6 
#
# 1 116.7231 52.0514 -1.3613 18.8002 20.7875 -15.3783
# 2 52.0514 151.6012 29.1852 11.0687 13.2557 -11.1783
# 3 -1.3613 29.1852 75.7324 19.3084 26.7290 4.5608
# 4 18.8002 11.0687 19.3084 33.6634 1.3109 14.2890
# 5 20.7875 13.2557 26.7290 1.3109 43.0951 -0.9993
# 6 -15.3783 -11.1783 4.5608 14.2890 -0.9993 23.6290
#
#
#
# Elastic Compliance Matrix: (Units=1/GPa)
#
#
# Indices 1 2 3 4 5 6 
#
# 1 0.021762 -0.004658 0.013647 -0.028918 -0.016043 0.026134
# 2 -0.004658 0.008856 -0.004980 0.002018 0.002574 0.001008
# 3 0.013647 -0.004980 0.029689 -0.029719 -0.022148 0.017831
# 4 -0.028918 0.002018 -0.029719 0.088548 0.027572 -0.064511
# 5 -0.016043 0.002574 -0.022148 0.027572 0.042590 -0.019821
# 6 0.026134 0.001008 0.017831 -0.064511 -0.019821 0.094538
#
#
# Mechanical properties :
#
#
# Convention : Reuss Voigt Hill
#
# Bulk Modulus (GPa) = 14.63573 55.97858 35.30716
# Shear Modulus (GPa) = 16.62569 37.68960 27.15765
#
# Velocity S-wave (km/s) = 2.71441 4.08692 3.46922
# Velocity P-wave (km/s) = 4.03859 6.86139 5.62978
#
# Compressibility (1/GPa) = 0.06832592
#
# Stress axis : x y z
#
# Youngs Moduli (GPa) = 45.95228 112.91456 33.68247
#
# Poissons Ratio (x) = 0.52594 -0.45968
# Poissons Ratio (y) = 0.21404 0.16774
# Poissons Ratio (z) = -0.62713 0.56233
#
# Static dielectric constant tensor:
#      x y z
#    x 1.845010 -0.031830 -0.030690 
#    y -0.031830 1.813290 -0.008520 
#    z -0.030690 -0.008520 1.798930 
# 
# From -- ./inp_files/231.got.cif
#   From: 2010.05.17/outbox.cif.g08.bks.cpg/sg2_1_cif.got.tgz:231.got - 2010.06.03 11:33:40.
