data_PCOD9062165
_publ_section_title
;
Structure prediction by ZEFSAII (Michael W. Deem and Ramdas Pophale) SiO2 
 PCOD9062165
Probable space group: P -1
;
_chemical_formula_sum "Si O2"
_cell_formula_units_Z 16
_cell_length_a 17.292769
_cell_length_b 9.247969
_cell_length_c 8.241977
_cell_angle_alpha 77.669068
_cell_angle_beta 140.600365
_cell_angle_gamma 122.192246
_cell_volume 658.080114
_symmetry_space_group_name_H-M "P -1"
_symmetry_group_IT_number 2
_symmetry_cell_setting 'triclinic'
loop_
_space_group_symop_operation_xyz
x,y,z
-x,-y,-z
loop_
_atom_site_type_symbol
_atom_site_label
_atom_site_fract_x
_atom_site_fract_y
_atom_site_fract_z
Si Si1 0.898609 0.097723 0.584892
Si Si2 0.436559 0.786515 0.308679
Si Si3 0.187517 0.115133 0.978575
Si Si4 0.854826 0.231258 0.151616
Si Si5 0.073534 0.594362 0.267785
Si Si6 0.531754 0.667913 0.807958
Si Si7 0.364685 0.259873 0.566235
Si Si8 0.568056 0.130040 0.235005
O O1 0.843592 0.151738 0.328949
O O2 0.970234 0.271607 0.779945
O O3 0.759310 0.919081 0.490608
O O4 0.024819 0.073791 0.734795
O O5 0.481090 0.725708 0.552925
O O6 0.482599 0.714321 0.250253
O O7 0.532795 0.001478 0.364923
O O8 0.269167 0.728844 0.070022
O O9 0.294137 0.244311 0.971249
O O10 0.276159 0.221539 0.261032
O O11 0.171221 0.925357 0.975540
O O12 0.012826 0.426064 0.331959
O O13 0.253631 0.723300 0.522493
O O14 0.000000 0.500000 0.000000
O O15 0.421109 0.450220 0.693812
O O16 0.508533 0.766654 0.889680
O O17 0.500000 0.000000 0.000000
#
# Coordination Sequence:
#
# PCOD9062165 Si02
#       8
#     2   2   2   2   2   2   2   2
#     4  12  27  49  71 108 160 195 248 320 391 449
#     4  11  23  47  78 106 150 195 257 315 373 450
#     4  11  25  46  74 106 154 198 249 311 387 457
#     4  12  27  47  75 113 150 200 251 322 391 448
#     4  12  28  47  79 113 147 203 263 316 379 461
#     4  11  26  47  77 111 144 201 260 305 380 456
#     4  11  26  46  75 111 144 203 257 309 375 460
#     4  12  26  49  78 110 155 195 255 322 382 448
#
# _framework density 24.31315
#
# number of rings (size 3 to 8) (size 9 to 14) (size 15 to 20)
#    0.000    0.500    2.500    5.250   10.500    0.000 
#    0.000    1.250    0.000    0.000    0.000    0.000 
#    0.000    0.000    0.000    0.000    0.000    0.000 
#
# Total GULP energy -89696.506941 kJ/mol
# GULP energy per Si atom -5606.031684 kJ/mol
# Density = 2.425781 g / cm^3
# Si number density = 24.313150 Si / 1000 Ang^3
#
#
#
# Elastic Constant Matrix: (Units=GPa)
#
#
# Indices 1 2 3 4 5 6 
#
# 1 122.5102 40.1490 37.9231 20.5427 -4.1683 -25.4845
# 2 40.1490 136.6042 14.3577 44.6772 -10.9113 -9.1913
# 3 37.9231 14.3577 87.4717 18.6977 1.9545 -14.9120
# 4 20.5427 44.6772 18.6977 44.0979 -1.2548 3.9293
# 5 -4.1683 -10.9113 1.9545 -1.2548 39.3423 2.8510
# 6 -25.4845 -9.1913 -14.9120 3.9293 2.8510 50.8071
#
#
#
# Elastic Compliance Matrix: (Units=1/GPa)
#
#
# Indices 1 2 3 4 5 6 
#
# 1 0.011099 -0.001829 -0.003272 -0.002313 0.000436 0.004430
# 2 -0.001829 0.012067 0.001835 -0.012314 0.002479 0.002617
# 3 -0.003272 0.001835 0.014659 -0.006900 -0.001046 0.003586
# 4 -0.002313 -0.012314 -0.006900 0.039864 -0.001436 -0.008415
# 5 0.000436 0.002479 -0.001046 -0.001436 0.026230 -0.001000
# 6 0.004430 0.002617 0.003586 -0.008415 -0.001000 0.024137
#
#
# Mechanical properties :
#
#
# Convention : Reuss Voigt Hill
#
# Bulk Modulus (GPa) = 31.95539 59.04952 45.50246
# Shear Modulus (GPa) = 34.47825 43.79321 39.13573
#
# Velocity S-wave (km/s) = 3.76984 4.24868 4.01640
# Velocity P-wave (km/s) = 5.66751 6.95760 6.34543
#
# Compressibility (1/GPa) = 0.03129362
#
# Stress axis : x y z
#
# Youngs Moduli (GPa) = 90.09837 82.87393 68.21704
#
# Poissons Ratio (x) = 0.15157 0.22320
# Poissons Ratio (y) = 0.16478 -0.12520
# Poissons Ratio (z) = 0.29479 -0.15210
#
# Static dielectric constant tensor:
#      x y z
#    x 1.983640 -0.006350 -0.037000 
#    y -0.006350 1.921870 -0.037070 
#    z -0.037000 -0.037070 1.959660 
# 
# From -- ./inp_files/328969.got.cif
#   From: 2010.05.17/outbox.cif.g08.bks.cpg/sg2_165_cif.got.tgz:328969.got - 2010.06.03 11:33:40.
