data_PCOD9062493
_publ_section_title
;
Structure prediction by ZEFSAII (Michael W. Deem and Ramdas Pophale) SiO2 
 PCOD9062493
Probable space group: P -1
;
_chemical_formula_sum "Si O2"
_cell_formula_units_Z 14
_cell_length_a 9.319581
_cell_length_b 7.905203
_cell_length_c 11.083771
_cell_angle_alpha 62.977967
_cell_angle_beta 96.253226
_cell_angle_gamma 129.725521
_cell_volume 539.503675
_symmetry_space_group_name_H-M "P -1"
_symmetry_group_IT_number 2
_symmetry_cell_setting 'triclinic'
loop_
_space_group_symop_operation_xyz
x,y,z
-x,-y,-z
loop_
_atom_site_type_symbol
_atom_site_label
_atom_site_fract_x
_atom_site_fract_y
_atom_site_fract_z
Si Si1 0.668779 0.716457 0.696221
Si Si2 0.142726 0.479382 0.344889
Si Si3 0.276882 0.021632 0.620541
Si Si4 0.091214 0.221306 0.658710
Si Si5 0.321764 0.767991 0.904053
Si Si6 0.254294 0.360505 0.888073
Si Si7 0.743720 0.063475 0.929822
O O1 0.715228 0.547277 0.701030
O O2 0.625580 0.814280 0.545112
O O3 0.485468 0.561474 0.816668
O O4 0.869382 0.964016 0.694748
O O5 0.143624 0.433047 0.500937
O O6 0.185998 0.730937 0.232329
O O7 0.929976 0.241515 0.354570
O O8 0.224628 0.158966 0.651726
O O9 0.373257 0.946491 0.736481
O O10 0.152246 0.320399 0.766468
O O11 0.212524 0.487279 0.938693
O O12 0.513349 0.862182 0.955636
O O13 0.214226 0.800829 0.981933
O O14 0.803354 0.898747 0.991689
#
# Coordination Sequence:
#
# PCOD9062493 Si02
#       7
#     2   2   2   2   2   2   2
#     4   9  20  39  68 100 133 168 215 274 325 388
#     4   9  20  40  70  96 128 175 216 269 328 388
#     4   9  19  41  66  98 131 167 221 270 325 390
#     4   9  20  42  69 100 129 168 220 270 330 384
#     4  11  24  41  65  97 130 173 222 262 327 392
#     4  12  24  43  70  96 133 173 217 270 327 390
#     4  11  24  44  64  94 134 175 218 266 324 389
#
# _framework density 25.949777999999998
#
# number of rings (size 3 to 8) (size 9 to 14) (size 15 to 20)
#    0.000    2.000    1.429    3.857    2.000    2.286 
#    5.143    2.143    0.000    0.000    0.000    0.000 
#    0.000    0.000    0.000    0.000    0.000    0.000 
#
# Total GULP energy -78586.960788 kJ/mol
# GULP energy per Si atom -5613.354342 kJ/mol
# Density = 2.589072 g / cm^3
# Si number density = 25.949778 Si / 1000 Ang^3
#
#
#
# Elastic Constant Matrix: (Units=GPa)
#
#
# Indices 1 2 3 4 5 6 
#
# 1 77.4206 46.5782 63.0061 -7.8937 11.6441 -16.3124
# 2 46.5782 131.6932 70.5532 10.8519 5.9640 -37.2851
# 3 63.0061 70.5532 153.0555 -9.3856 29.8500 -22.5007
# 4 -7.8937 10.8519 -9.3856 43.2583 3.1262 2.9826
# 5 11.6441 5.9640 29.8500 3.1262 42.4699 -17.3106
# 6 -16.3124 -37.2851 -22.5007 2.9826 -17.3106 42.8949
#
#
#
# Elastic Compliance Matrix: (Units=1/GPa)
#
#
# Indices 1 2 3 4 5 6 
#
# 1 0.021202 -0.004236 -0.006320 0.003589 -0.000847 0.000474
# 2 -0.004236 0.016551 -0.006164 -0.007900 0.009413 0.013890
# 3 -0.006320 -0.006164 0.013297 0.004251 -0.008978 -0.004705
# 4 0.003589 -0.007900 0.004251 0.027879 -0.008424 -0.008611
# 5 -0.000847 0.009413 -0.008978 -0.008424 0.036995 0.018666
# 6 0.000474 0.013890 -0.004705 -0.008611 0.018666 0.041230
#
#
# Mechanical properties :
#
#
# Convention : Reuss Voigt Hill
#
# Bulk Modulus (GPa) = 56.78823 80.27159 68.52991
# Shear Modulus (GPa) = 25.45010 37.86006 31.65508
#
# Velocity S-wave (km/s) = 3.13508 3.82380 3.49644
# Velocity P-wave (km/s) = 5.91915 7.10604 6.53958
#
# Compressibility (1/GPa) = 0.01760928
#
# Stress axis : x y z
#
# Youngs Moduli (GPa) = 47.16647 60.41834 75.20687
#
# Poissons Ratio (x) = 0.25592 0.47533
# Poissons Ratio (y) = 0.19979 0.46358
# Poissons Ratio (z) = 0.29810 0.37242
#
# Static dielectric constant tensor:
#      x y z
#    x 2.037370 0.015350 -0.051260 
#    y 0.015350 2.000510 -0.006660 
#    z -0.051260 -0.006660 2.006690 
# 
# From -- ./inp_files/242247.got.cif
#   From: 2010.05.17/outbox.cif.g08.bks.cpg/sg2_122_cif.got.tgz:242247.got - 2010.06.03 11:33:40.
