data_PCOD9062933
_publ_section_title
;
Structure prediction by ZEFSAII (Michael W. Deem and Ramdas Pophale) SiO2 
 PCOD9062933
Probable space group: P -1
;
_chemical_formula_sum "Si O2"
_cell_formula_units_Z 14
_cell_length_a 16.463701
_cell_length_b 5.353193
_cell_length_c 26.572224
_cell_angle_alpha 78.813759
_cell_angle_beta 18.208277
_cell_angle_gamma 70.888883
_cell_volume 634.831064
_symmetry_space_group_name_H-M "P -1"
_symmetry_group_IT_number 2
_symmetry_cell_setting 'triclinic'
loop_
_space_group_symop_operation_xyz
x,y,z
-x,-y,-z
loop_
_atom_site_type_symbol
_atom_site_label
_atom_site_fract_x
_atom_site_fract_y
_atom_site_fract_z
Si Si1 0.862193 0.514870 0.894387
Si Si2 0.829008 0.166304 0.242230
Si Si3 0.175370 0.464407 0.612007
Si Si4 0.285373 0.882867 0.802412
Si Si5 0.838414 0.414165 0.555550
Si Si6 0.766932 0.995922 0.486976
Si Si7 0.767364 0.125092 0.702081
O O1 0.035339 0.644907 0.820509
O O2 0.929280 0.548983 0.795717
O O3 0.525375 0.703080 0.101085
O O4 0.977097 0.175137 0.849256
O O5 0.499308 0.278430 0.453024
O O6 0.787834 0.206275 0.204783
O O7 0.180890 0.745464 0.574721
O O8 0.152225 0.253304 0.592334
O O9 0.556433 0.631007 0.682137
O O10 0.427936 0.093619 0.697225
O O11 0.000000 0.000000 0.000000
O O12 0.720505 0.239758 0.667925
O O13 0.000000 0.500000 0.500000
O O14 0.096347 0.215504 0.373358
O O15 0.969061 0.865772 0.422068
#
# Coordination Sequence:
#
# PCOD9062933 Si02
#       7
#     2   2   2   2   2   2   2
#     4  12  26  43  71 104 137 190 235 293 334 430
#     4  11  24  43  67 102 143 179 236 287 357 400
#     4  11  24  45  71  98 143 184 234 291 356 399
#     4  11  24  43  75 103 139 181 236 288 347 420
#     4  11  24  46  69  98 143 184 225 288 357 408
#     4  11  24  45  69 103 140 186 225 295 350 416
#     4  11  26  42  71  99 142 184 240 279 357 417
#
# _framework density 22.053111000000001
#
# number of rings (size 3 to 8) (size 9 to 14) (size 15 to 20)
#    0.000    0.857    1.429    6.000    4.000    1.143 
#    0.000    9.286    0.000    0.000    0.000    0.000 
#    0.000    0.000    0.000    0.000    0.000    0.000 
#
# Total GULP energy -78235.696565 kJ/mol
# GULP energy per Si atom -5588.264040 kJ/mol
# Density = 2.200292 g / cm^3
# Si number density = 22.053111 Si / 1000 Ang^3
#
#
#
# Elastic Constant Matrix: (Units=GPa)
#
#
# Indices 1 2 3 4 5 6 
#
# 1 93.0830 49.2824 18.2346 -4.9378 5.8985 3.4343
# 2 49.2824 132.6791 33.1491 16.5095 8.7323 -3.4029
# 3 18.2346 33.1491 98.8490 12.8269 41.6277 -17.5772
# 4 -4.9378 16.5095 12.8269 22.3651 -1.1434 -2.5202
# 5 5.8985 8.7323 41.6277 -1.1434 33.9032 -2.4233
# 6 3.4343 -3.4029 -17.5772 -2.5202 -2.4233 39.5013
#
#
#
# Elastic Compliance Matrix: (Units=1/GPa)
#
#
# Indices 1 2 3 4 5 6 
#
# 1 0.015323 -0.006235 -0.004659 0.010568 0.004805 -0.002973
# 2 -0.006235 0.011312 -0.001026 -0.009134 -0.000847 0.000425
# 3 -0.004659 -0.001026 0.031482 -0.019023 -0.037449 0.010814
# 4 0.010568 -0.009134 -0.019023 0.065519 0.025766 -0.004410
# 5 0.004805 -0.000847 -0.037449 0.025766 0.074948 -0.010913
# 6 -0.002973 0.000425 0.010814 -0.004410 -0.010913 0.029472
#
#
# Mechanical properties :
#
#
# Convention : Reuss Voigt Hill
#
# Bulk Modulus (GPa) = 29.17388 58.43815 43.80601
# Shear Modulus (GPa) = 18.98819 34.08357 26.53588
#
# Velocity S-wave (km/s) = 2.93750 3.93558 3.47258
# Velocity P-wave (km/s) = 4.97623 6.87081 5.99879
#
# Compressibility (1/GPa) = 0.03427724
#
# Stress axis : x y z
#
# Youngs Moduli (GPa) = 65.26263 88.39840 31.76425
#
# Poissons Ratio (x) = 0.55116 0.14799
# Poissons Ratio (y) = 0.40691 0.03259
# Poissons Ratio (z) = 0.30407 0.09069
#
# Static dielectric constant tensor:
#      x y z
#    x 1.808710 -0.014810 0.003650 
#    y -0.014810 1.957600 -0.026710 
#    z 0.003650 -0.026710 1.800880 
# 
# From -- ./inp_files/52910.got.cif
#   From: 2010.05.17/outbox.cif.g08.bks.cpg/sg2_27_cif.got.tgz:52910.got - 2010.06.03 11:33:40.
