data_PCOD9062893
_publ_section_title
;
Structure prediction by ZEFSAII (Michael W. Deem and Ramdas Pophale) SiO2 
 PCOD9062893
Probable space group: P -1
;
_chemical_formula_sum "Si O2"
_cell_formula_units_Z 16
_cell_length_a 9.455486
_cell_length_b 9.595478
_cell_length_c 12.052864
_cell_angle_alpha 85.897847
_cell_angle_beta 83.483826
_cell_angle_gamma 45.398125
_cell_volume 773.533376
_symmetry_space_group_name_H-M "P -1"
_symmetry_group_IT_number 2
_symmetry_cell_setting 'triclinic'
loop_
_space_group_symop_operation_xyz
x,y,z
-x,-y,-z
loop_
_atom_site_type_symbol
_atom_site_label
_atom_site_fract_x
_atom_site_fract_y
_atom_site_fract_z
Si Si1 0.340932 0.733752 0.018155
Si Si2 0.343584 0.230029 0.509481
Si Si3 0.646512 0.270177 0.518493
Si Si4 0.510032 0.092225 0.885281
Si Si5 0.175528 0.262364 0.291128
Si Si6 0.020802 0.066282 0.340668
Si Si7 0.133335 0.313425 0.754296
Si Si8 0.070420 0.045090 0.848962
O O1 0.419213 0.800899 0.090966
O O2 0.130809 0.808061 0.068870
O O3 0.500000 0.500000 0.000000
O O4 0.270025 0.870358 0.908663
O O5 0.487778 0.258445 0.517873
O O6 0.240829 0.297862 0.394924
O O7 0.203911 0.300450 0.623639
O O8 0.500000 0.000000 0.500000
O O9 0.500000 0.500000 0.500000
O O10 0.827366 0.150393 0.421468
O O11 0.777105 0.151579 0.624604
O O12 0.299697 0.240383 0.832996
O O13 0.654912 0.921768 0.790656
O O14 0.500000 0.000000 0.000000
O O15 0.049737 0.212273 0.342922
O O16 0.055128 0.458617 0.220755
O O17 0.974160 0.053467 0.221695
O O18 0.095272 0.174483 0.776391
#
# Coordination Sequence:
#
# PCOD9062893 Si02
#       8
#     2   2   2   2   2   2   2   2
#     4  11  27  49  73  97 139 183 229 289 355 418
#     4  12  23  47  70 100 145 186 234 286 345 411
#     4  11  25  41  66  98 135 182 227 277 338 406
#     4  12  26  48  71 103 140 179 238 293 348 415
#     4  12  27  46  71 102 144 189 232 291 347 416
#     4  11  24  43  65  95 139 175 226 284 337 402
#     4  12  27  43  74 104 142 188 232 286 352 415
#     4  11  26  46  67 104 136 177 231 287 344 418
#
# _framework density 20.684304999999998
#
# number of rings (size 3 to 8) (size 9 to 14) (size 15 to 20)
#    0.000    0.500    5.000    1.875    7.000    1.500 
#    0.000    0.000    0.000    0.000    0.000    0.000 
#    0.000    0.000    0.000    0.000    0.000    0.000 
#
# Total GULP energy -89341.834579 kJ/mol
# GULP energy per Si atom -5583.864661 kJ/mol
# Density = 2.063723 g / cm^3
# Si number density = 20.684305 Si / 1000 Ang^3
#
#
#
# Elastic Constant Matrix: (Units=GPa)
#
#
# Indices 1 2 3 4 5 6 
#
# 1 84.9948 27.3589 18.7911 -10.1758 -2.1622 -1.7471
# 2 27.3589 126.3448 15.2349 -24.0490 11.3227 -13.9393
# 3 18.7911 15.2349 81.2198 -11.2869 10.3615 -14.9489
# 4 -10.1758 -24.0490 -11.2869 16.2896 -1.8668 2.8208
# 5 -2.1622 11.3227 10.3615 -1.8668 39.5049 -10.4109
# 6 -1.7471 -13.9393 -14.9489 2.8208 -10.4109 24.2080
#
#
#
# Elastic Compliance Matrix: (Units=1/GPa)
#
#
# Indices 1 2 3 4 5 6 
#
# 1 0.013553 -0.002234 -0.002729 0.003773 0.001844 -0.001640
# 2 -0.002234 0.012069 0.001733 0.016519 -0.001908 0.005113
# 3 -0.002729 0.001733 0.015860 0.010129 -0.002082 0.008519
# 4 0.003773 0.016519 0.010129 0.094213 -0.001578 0.004383
# 5 0.001844 -0.001908 -0.002082 -0.001578 0.029197 0.010489
# 6 -0.001640 0.005113 0.008519 0.004383 0.010489 0.053395
#
#
# Mechanical properties :
#
#
# Convention : Reuss Voigt Hill
#
# Bulk Modulus (GPa) = 28.55393 46.14770 37.35082
# Shear Modulus (GPa) = 21.14876 31.41211 26.28044
#
# Velocity S-wave (km/s) = 3.20105 3.90121 3.56834
# Velocity P-wave (km/s) = 5.24375 6.53081 5.92235
#
# Compressibility (1/GPa) = 0.03502144
#
# Stress axis : x y z
#
# Youngs Moduli (GPa) = 73.78583 82.85660 63.05232
#
# Poissons Ratio (x) = 0.18508 0.17210
# Poissons Ratio (y) = 0.16482 -0.10927
# Poissons Ratio (z) = 0.20139 -0.14360
#
# Static dielectric constant tensor:
#      x y z
#    x 1.698770 -0.039050 -0.096340 
#    y -0.039050 1.744040 -0.099190 
#    z -0.096340 -0.099190 1.511790 
# 
# From -- ./inp_files/382310.got.cif
#   From: 2010.05.17/outbox.cif.g08.bks.cpg/sg2_192_cif.got.tgz:382310.got - 2010.06.03 11:33:40.
