data_PCOD9062389
_publ_section_title
;
Structure prediction by ZEFSAII (Michael W. Deem and Ramdas Pophale) SiO2 
 PCOD9062389
Probable space group: P -1
;
_chemical_formula_sum "Si O2"
_cell_formula_units_Z 16
_cell_length_a 9.282325
_cell_length_b 30.111011
_cell_length_c 5.414479
_cell_angle_alpha 101.038986
_cell_angle_beta 96.914656
_cell_angle_gamma 27.139892
_cell_volume 673.323570
_symmetry_space_group_name_H-M "P -1"
_symmetry_group_IT_number 2
_symmetry_cell_setting 'triclinic'
loop_
_space_group_symop_operation_xyz
x,y,z
-x,-y,-z
loop_
_atom_site_type_symbol
_atom_site_label
_atom_site_fract_x
_atom_site_fract_y
_atom_site_fract_z
Si Si1 0.634306 0.530723 0.600263
Si Si2 0.270214 0.713361 0.520618
Si Si3 0.551185 0.810223 0.960267
Si Si4 0.603683 0.851507 0.504197
Si Si5 0.261880 0.797283 0.941010
Si Si6 0.355748 0.018751 0.736437
Si Si7 0.788850 0.418867 0.158150
Si Si8 0.794213 0.601110 0.120883
O O1 0.483970 0.621879 0.643948
O O2 0.787186 0.470094 0.315920
O O3 0.340991 0.579756 0.657697
O O4 0.934683 0.443043 0.748176
O O5 0.516046 0.661136 0.309660
O O6 0.966560 0.767830 0.435861
O O7 0.143420 0.793094 0.716622
O O8 0.478629 0.862283 0.238024
O O9 0.308479 0.835704 0.903236
O O10 0.591451 0.823969 0.719514
O O11 0.884978 0.693658 0.976253
O O12 0.413404 0.949351 0.646115
O O13 0.598752 0.683159 0.968258
O O14 0.016870 0.867164 0.190367
O O15 0.500000 0.000000 0.500000
O O16 0.500000 0.000000 0.000000
O O17 0.500000 0.500000 0.000000
O O18 0.000000 0.500000 0.000000
#
# Coordination Sequence:
#
# PCOD9062389 Si02
#       8
#     2   2   2   2   2   2   2   2
#     4  11  24  40  64 102 142 199 253 312 372 447
#     4  12  25  45  73 107 148 203 265 318 379 457
#     4  12  29  48  75 113 158 203 254 315 392 460
#     4  12  28  51  80 112 155 200 260 321 389 464
#     4  12  29  48  77 111 152 202 256 323 387 464
#     4  12  27  52  87 120 149 195 259 327 394 461
#     4  11  24  41  67  98 151 203 256 304 380 453
#     4  12  27  41  69 108 152 196 259 317 382 443
#
# _framework density 23.762723999999999
#
# number of rings (size 3 to 8) (size 9 to 14) (size 15 to 20)
#    0.000    0.250    3.750    4.125   12.250    1.000 
#    0.000    0.000    0.000    0.000    0.000    0.000 
#    0.000    0.000    0.000    0.000    0.000    0.000 
#
# Total GULP energy -89467.896941 kJ/mol
# GULP energy per Si atom -5591.743559 kJ/mol
# Density = 2.370864 g / cm^3
# Si number density = 23.762724 Si / 1000 Ang^3
#
#
#
# Elastic Constant Matrix: (Units=GPa)
#
#
# Indices 1 2 3 4 5 6 
#
# 1 129.5415 11.3673 44.3803 15.6144 -4.1599 12.7311
# 2 11.3673 70.7627 13.3803 25.0432 -0.5475 12.6495
# 3 44.3803 13.3803 108.5690 26.5518 3.2292 11.0690
# 4 15.6144 25.0432 26.5518 45.8968 -5.0963 2.0767
# 5 -4.1599 -0.5475 3.2292 -5.0963 46.4796 5.6559
# 6 12.7311 12.6495 11.0690 2.0767 5.6559 29.0433
#
#
#
# Elastic Compliance Matrix: (Units=1/GPa)
#
#
# Indices 1 2 3 4 5 6 
#
# 1 0.009305 0.000030 -0.003296 -0.000992 0.001321 -0.003022
# 2 0.000030 0.019145 0.001064 -0.010716 -0.000050 -0.007981
# 3 -0.003296 0.001064 0.012407 -0.006670 -0.001514 -0.002975
# 4 -0.000992 -0.010716 -0.006670 0.031970 0.003177 0.004740
# 5 0.001321 -0.000050 -0.001514 0.003177 0.022648 -0.004618
# 6 -0.003022 -0.007981 -0.002975 0.004740 -0.004618 0.040927
#
#
# Mechanical properties :
#
#
# Convention : Reuss Voigt Hill
#
# Bulk Modulus (GPa) = 27.43290 49.68100 38.55695
# Shear Modulus (GPa) = 32.68939 40.26697 36.47818
#
# Velocity S-wave (km/s) = 3.71301 4.12095 3.92229
# Velocity P-wave (km/s) = 5.47280 6.60269 6.06411
#
# Compressibility (1/GPa) = 0.03645259
#
# Stress axis : x y z
#
# Youngs Moduli (GPa) = 107.46815 52.23421 80.60271
#
# Poissons Ratio (x) = -0.00156 0.26567
# Poissons Ratio (y) = -0.00321 -0.08579
# Poissons Ratio (z) = 0.35422 -0.05559
#
# Static dielectric constant tensor:
#      x y z
#    x 2.056780 -0.203670 0.136730 
#    y -0.203670 2.391510 -0.405570 
#    z 0.136730 -0.405570 2.219300 
# 
# From -- ./inp_files/56979.got.cif
#   From: 2010.05.17/outbox.cif.g08.bks.cpg/sg2_29_cif.got.tgz:56979.got - 2010.06.03 11:33:40.
