data_PCOD9062327
_publ_section_title
;
Structure prediction by ZEFSAII (Michael W. Deem and Ramdas Pophale) SiO2 
 PCOD9062327
Probable space group: P -1
;
_chemical_formula_sum "Si O2"
_cell_formula_units_Z 16
_cell_length_a 13.876961
_cell_length_b 5.051755
_cell_length_c 17.227177
_cell_angle_alpha 106.959959
_cell_angle_beta 32.079678
_cell_angle_gamma 102.316291
_cell_volume 612.135975
_symmetry_space_group_name_H-M "P -1"
_symmetry_group_IT_number 2
_symmetry_cell_setting 'triclinic'
loop_
_space_group_symop_operation_xyz
x,y,z
-x,-y,-z
loop_
_atom_site_type_symbol
_atom_site_label
_atom_site_fract_x
_atom_site_fract_y
_atom_site_fract_z
Si Si1 0.452426 0.527979 0.717824
Si Si2 0.575167 0.201992 0.401648
Si Si3 0.120488 0.305674 0.341911
Si Si4 0.121318 0.148420 0.869049
Si Si5 0.437153 0.047526 0.211127
Si Si6 0.008039 0.789185 0.195024
Si Si7 0.235574 0.928723 0.499155
Si Si8 0.229313 0.332757 0.102266
O O1 0.444383 0.764823 0.676237
O O2 0.451008 0.692941 0.813859
O O3 0.640722 0.330802 0.571282
O O4 0.287026 0.327631 0.800694
O O5 0.500000 0.500000 0.500000
O O6 0.500000 0.000000 0.500000
O O7 0.785800 0.120892 0.260802
O O8 0.283777 0.146940 0.263010
O O9 0.208868 0.426083 0.214298
O O10 0.000000 0.500000 0.500000
O O11 0.966053 0.125739 0.396691
O O12 0.021160 0.313779 0.881814
O O13 0.000000 0.000000 0.000000
O O14 0.332941 0.980545 0.355664
O O15 0.570590 0.796557 0.067846
O O16 0.143802 0.580717 0.130866
O O17 0.103603 0.077836 0.150115
O O18 0.817442 0.842923 0.378265
#
# Coordination Sequence:
#
# PCOD9062327 Si02
#       8
#     2   2   2   2   2   2   2   2
#     4  12  28  50  83 122 168 221 284 345 424 492
#     4  12  27  52  81 117 160 216 283 347 413 491
#     4  11  23  52  84 124 159 213 273 339 419 508
#     4  12  31  53  83 118 169 226 287 346 420 495
#     4  12  27  47  84 121 168 211 274 344 423 503
#     4  11  29  52  78 115 166 216 279 339 409 493
#     4  11  26  49  86 115 165 215 276 343 421 499
#     4  11  29  52  80 120 165 214 267 341 418 492
#
# _framework density 26.137982999999998
#
# number of rings (size 3 to 8) (size 9 to 14) (size 15 to 20)
#    0.000    0.500    2.500    3.000   10.500    1.500 
#    0.000    4.375    0.000    0.000    0.000    0.000 
#    0.000    0.000    0.000    0.000    0.000    0.000 
#
# Total GULP energy -89537.380543 kJ/mol
# GULP energy per Si atom -5596.086284 kJ/mol
# Density = 2.607849 g / cm^3
# Si number density = 26.137983 Si / 1000 Ang^3
#
#
#
# Elastic Constant Matrix: (Units=GPa)
#
#
# Indices 1 2 3 4 5 6 
#
# 1 184.3446 62.9952 61.6453 -3.6307 -8.5331 -38.0468
# 2 62.9952 146.8303 63.7601 -1.2106 1.7772 -40.9371
# 3 61.6453 63.7601 209.4122 3.9738 17.1960 -31.5922
# 4 -3.6307 -1.2106 3.9738 56.4169 -6.0552 -3.4815
# 5 -8.5331 1.7772 17.1960 -6.0552 27.8260 4.5782
# 6 -38.0468 -40.9371 -31.5922 -3.4815 4.5782 55.9492
#
#
#
# Elastic Compliance Matrix: (Units=1/GPa)
#
#
# Indices 1 2 3 4 5 6 
#
# 1 0.007213 -0.001761 -0.001461 0.001014 0.003019 0.002607
# 2 -0.001761 0.009695 -0.001597 0.000423 -0.000919 0.005096
# 3 -0.001461 -0.001597 0.006370 -0.000982 -0.004786 0.001765
# 4 0.001014 0.000423 -0.000982 0.018448 0.004707 0.001208
# 5 0.003019 -0.000919 -0.004786 0.004707 0.041634 -0.004436
# 6 0.002607 0.005096 0.001765 0.001208 -0.004436 0.024810
#
#
# Mechanical properties :
#
#
# Convention : Reuss Voigt Hill
#
# Bulk Modulus (GPa) = 73.32104 101.93204 87.62654
# Shear Modulus (GPa) = 40.86481 51.51751 46.19116
#
# Velocity S-wave (km/s) = 3.95831 4.44439 4.20837
# Velocity P-wave (km/s) = 7.00024 8.08821 7.56381
#
# Compressibility (1/GPa) = 0.01363865
#
# Stress axis : x y z
#
# Youngs Moduli (GPa) = 138.64075 103.14388 156.99724
#
# Poissons Ratio (x) = 0.18169 0.22933
# Poissons Ratio (y) = 0.24422 0.25076
# Poissons Ratio (z) = 0.20252 0.16475
#
# Static dielectric constant tensor:
#      x y z
#    x 2.123990 0.067370 0.037900 
#    y 0.067370 2.093910 -0.029250 
#    z 0.037900 -0.029250 2.097840 
# 
# From -- ./inp_files/48662.got.cif
#   From: 2010.05.17/outbox.cif.g08.bks.cpg/sg2_25_cif.got.tgz:48662.got - 2010.06.03 11:33:40.
