data_PCOD9062903
_publ_section_title
;
Structure prediction by ZEFSAII (Michael W. Deem and Ramdas Pophale) SiO2 
 PCOD9062903
Probable space group: P -1
;
_chemical_formula_sum "Si O2"
_cell_formula_units_Z 14
_cell_length_a 5.809240
_cell_length_b 24.253908
_cell_length_c 5.205279
_cell_angle_alpha 118.805290
_cell_angle_beta 96.149601
_cell_angle_gamma 111.121261
_cell_volume 563.012730
_symmetry_space_group_name_H-M "P -1"
_symmetry_group_IT_number 2
_symmetry_cell_setting 'triclinic'
loop_
_space_group_symop_operation_xyz
x,y,z
-x,-y,-z
loop_
_atom_site_type_symbol
_atom_site_label
_atom_site_fract_x
_atom_site_fract_y
_atom_site_fract_z
Si Si1 0.060756 0.587969 0.441951
Si Si2 0.604034 0.457057 0.243508
Si Si3 0.993801 0.282365 0.108347
Si Si4 0.417962 0.917314 0.805621
Si Si5 0.468973 0.146353 0.842701
Si Si6 0.863104 0.807553 0.411045
Si Si7 0.464894 0.323001 0.636750
O O1 0.231990 0.564638 0.588196
O O2 0.007280 0.643179 0.726605
O O3 0.238313 0.632483 0.326401
O O4 0.795505 0.515725 0.191815
O O5 0.500000 0.500000 0.500000
O O6 0.419071 0.382376 0.919031
O O7 0.257241 0.297367 0.324762
O O8 0.727893 0.223157 0.075461
O O9 0.014441 0.244046 0.769174
O O10 0.475919 0.893098 0.481106
O O11 0.104388 0.872074 0.724192
O O12 0.565313 0.897290 0.000352
O O13 0.500000 0.000000 0.000000
O O14 0.228870 0.160083 0.760239
O O15 0.598518 0.750122 0.390296
#
# Coordination Sequence:
#
# PCOD9062903 Si02
#       7
#     2   2   2   2   2   2   2
#     4  11  25  41  66  96 135 183 246 297 380 428
#     4  11  25  45  62  95 138 185 240 305 369 443
#     4  11  24  43  66 102 140 183 248 301 367 441
#     4  11  26  48  75 114 155 196 249 304 367 447
#     4  11  25  45  76 109 152 198 248 305 373 437
#     4  11  26  45  73 106 148 192 247 303 371 438
#     4  12  23  41  68  96 136 186 242 304 368 438
#
# _framework density 24.866226000000001
#
# number of rings (size 3 to 8) (size 9 to 14) (size 15 to 20)
#    0.000    0.857    1.429    5.143    4.000    6.857 
#    0.000    0.000    0.000    0.000    0.000    0.000 
#    0.000    0.000    0.000    0.000    0.000    0.000 
#
# Total GULP energy -78420.818906 kJ/mol
# GULP energy per Si atom -5601.487065 kJ/mol
# Density = 2.480963 g / cm^3
# Si number density = 24.866226 Si / 1000 Ang^3
#
#
#
# Elastic Constant Matrix: (Units=GPa)
#
#
# Indices 1 2 3 4 5 6 
#
# 1 69.2260 38.8534 18.5005 10.3342 -3.9344 -11.4870
# 2 38.8534 159.7040 55.8520 26.5360 5.5361 -12.7087
# 3 18.5005 55.8520 113.2288 28.2882 -6.1831 -0.8006
# 4 10.3342 26.5360 28.2882 48.0155 -7.1238 -2.4118
# 5 -3.9344 5.5361 -6.1831 -7.1238 27.7806 -6.2353
# 6 -11.4870 -12.7087 -0.8006 -2.4118 -6.2353 35.1186
#
#
#
# Elastic Compliance Matrix: (Units=1/GPa)
#
#
# Indices 1 2 3 4 5 6 
#
# 1 0.017915 -0.003771 -0.000680 -0.000491 0.004176 0.005187
# 2 -0.003771 0.009002 -0.003344 -0.002654 -0.003496 0.001145
# 3 -0.000680 -0.003344 0.011879 -0.004810 0.001714 -0.001187
# 4 -0.000491 -0.002654 -0.004810 0.026287 0.006518 0.001732
# 5 0.004176 -0.003496 0.001714 0.006518 0.041107 0.007886
# 6 0.005187 0.001145 -0.001187 0.001732 0.007886 0.032078
#
#
# Mechanical properties :
#
#
# Convention : Reuss Voigt Hill
#
# Bulk Modulus (GPa) = 43.09083 63.17451 53.13267
# Shear Modulus (GPa) = 30.94206 37.44647 34.19426
#
# Velocity S-wave (km/s) = 3.53135 3.88482 3.71230
# Velocity P-wave (km/s) = 5.83043 6.75155 6.30782
#
# Compressibility (1/GPa) = 0.02320679
#
# Stress axis : x y z
#
# Youngs Moduli (GPa) = 55.81912 111.08939 84.18322
#
# Poissons Ratio (x) = 0.41893 0.05721
# Poissons Ratio (y) = 0.21050 0.28149
# Poissons Ratio (z) = 0.03793 0.37146
#
# Static dielectric constant tensor:
#      x y z
#    x 2.034480 0.072710 -0.041120 
#    y 0.072710 1.964640 -0.058000 
#    z -0.041120 -0.058000 1.967400 
# 
# From -- ./inp_files/7634.got.cif
#   From: 2010.05.17/outbox.cif.g08.bks.cpg/sg2_4_cif.got.tgz:7634.got - 2010.06.03 11:33:40.
