data_PCOD9062887
_publ_section_title
;
Structure prediction by ZEFSAII (Michael W. Deem and Ramdas Pophale) SiO2 
 PCOD9062887
Probable space group: P -1
;
_chemical_formula_sum "Si O2"
_cell_formula_units_Z 12
_cell_length_a 22.387012
_cell_length_b 17.858445
_cell_length_c 4.840291
_cell_angle_alpha 111.287204
_cell_angle_beta 69.687663
_cell_angle_gamma 164.750096
_cell_volume 474.231542
_symmetry_space_group_name_H-M "P -1"
_symmetry_group_IT_number 2
_symmetry_cell_setting 'triclinic'
loop_
_space_group_symop_operation_xyz
x,y,z
-x,-y,-z
loop_
_atom_site_type_symbol
_atom_site_label
_atom_site_fract_x
_atom_site_fract_y
_atom_site_fract_z
Si Si1 0.828539 0.468322 0.567897
Si Si2 0.291120 0.203466 0.293256
Si Si3 0.241788 0.912297 0.186288
Si Si4 0.633776 0.098182 0.732103
Si Si5 0.477671 0.270065 0.794767
Si Si6 0.015726 0.171840 0.179524
O O1 0.573544 0.181895 0.504238
O O2 0.928920 0.670771 0.811575
O O3 0.810917 0.365718 0.635219
O O4 0.991670 0.642612 0.286125
O O5 0.500000 0.500000 0.500000
O O6 0.399686 0.260715 0.027669
O O7 0.115742 0.975265 0.518774
O O8 0.141290 0.063699 0.106040
O O9 0.267161 0.853037 0.179430
O O10 0.326545 0.025694 0.893283
O O11 0.407954 0.168105 0.455269
O O12 0.500000 0.000000 0.000000
O O13 0.743343 0.577944 0.824097
#
# Coordination Sequence:
#
# PCOD9062887 Si02
#       6
#     2   2   2   2   2   2
#     4  11  24  43  65 100 137 188 228 285 338 400
#     4  12  27  48  75 108 137 177 234 293 351 425
#     4  12  25  43  70  99 141 187 238 276 347 406
#     4  11  26  41  65 102 141 182 244 285 330 407
#     4  12  25  45  73 105 136 186 234 282 349 427
#     4  12  25  46  76 100 146 185 224 289 355 412
#
# _framework density 25.304092000000001
#
# number of rings (size 3 to 8) (size 9 to 14) (size 15 to 20)
#    0.000    0.333    5.000    3.000    7.000    2.000 
#    0.000    0.000    0.000    0.000    0.000    0.000 
#    0.000    0.000    0.000    0.000    0.000    0.000 
#
# Total GULP energy -67281.178044 kJ/mol
# GULP energy per Si atom -5606.764837 kJ/mol
# Density = 2.524650 g / cm^3
# Si number density = 25.304092 Si / 1000 Ang^3
#
#
#
# Elastic Constant Matrix: (Units=GPa)
#
#
# Indices 1 2 3 4 5 6 
#
# 1 32.2787 20.7332 -8.1499 -4.3496 0.0932 18.7587
# 2 20.7332 149.2611 33.0676 -1.7565 -6.4252 29.6822
# 3 -8.1499 33.0676 80.3235 12.0573 -3.7885 10.3635
# 4 -4.3496 -1.7565 12.0573 44.9441 2.1589 4.6354
# 5 0.0932 -6.4252 -3.7885 2.1589 33.0815 -4.6766
# 6 18.7587 29.6822 10.3635 4.6354 -4.6766 30.6249
#
#
#
# Elastic Compliance Matrix: (Units=1/GPa)
#
#
# Indices 1 2 3 4 5 6 
#
# 1 0.059350 -0.003088 0.011021 0.006949 -0.005468 -0.038977
# 2 -0.003088 0.009128 -0.003524 0.001595 0.000435 -0.005937
# 3 0.011021 -0.003524 0.016518 -0.002632 0.000146 -0.008504
# 4 0.006949 0.001595 -0.002632 0.024770 -0.002915 -0.009106
# 5 -0.005468 0.000435 0.000146 -0.002915 0.031688 0.008159
# 6 -0.038977 -0.005937 -0.008504 -0.009106 0.008159 0.067784
#
#
# Mechanical properties :
#
#
# Convention : Reuss Voigt Hill
#
# Bulk Modulus (GPa) = 10.65951 39.24057 24.95004
# Shear Modulus (GPa) = 21.58048 36.14428 28.86238
#
# Velocity S-wave (km/s) = 2.92352 3.78351 3.38097
# Velocity P-wave (km/s) = 3.95192 5.88455 5.01226
#
# Compressibility (1/GPa) = 0.09381295
#
# Stress axis : x y z
#
# Youngs Moduli (GPa) = 16.84926 109.55884 60.54063
#
# Poissons Ratio (x) = 0.33836 -0.66722
# Poissons Ratio (y) = 0.05204 0.21333
# Poissons Ratio (z) = -0.18570 0.38606
#
# Static dielectric constant tensor:
#      x y z
#    x 2.018160 -0.036770 0.004430 
#    y -0.036770 1.994570 0.065100 
#    z 0.004430 0.065100 1.976090 
# 
# From -- ./inp_files/35681.got.cif
#   From: 2010.05.17/outbox.cif.g08.bks.cpg/sg2_18_cif.got.tgz:35681.got - 2010.06.03 11:33:40.
