data_PCOD9062148
_publ_section_title
;
Structure prediction by ZEFSAII (Michael W. Deem and Ramdas Pophale) SiO2 
 PCOD9062148
Probable space group: P -1
;
_chemical_formula_sum "Si O2"
_cell_formula_units_Z 16
_cell_length_a 7.573081
_cell_length_b 8.642569
_cell_length_c 21.791526
_cell_angle_alpha 39.325585
_cell_angle_beta 136.346250
_cell_angle_gamma 126.403901
_cell_volume 622.075003
_symmetry_space_group_name_H-M "P -1"
_symmetry_group_IT_number 2
_symmetry_cell_setting 'triclinic'
loop_
_space_group_symop_operation_xyz
x,y,z
-x,-y,-z
loop_
_atom_site_type_symbol
_atom_site_label
_atom_site_fract_x
_atom_site_fract_y
_atom_site_fract_z
Si Si1 0.559925 0.027077 0.580280
Si Si2 0.149425 0.336529 0.288503
Si Si3 0.238713 0.593666 0.927036
Si Si4 0.693624 0.223140 0.732520
Si Si5 0.055801 0.868069 0.990673
Si Si6 0.802297 0.958099 0.395247
Si Si7 0.615773 0.892784 0.128193
Si Si8 0.068087 0.583100 0.386891
O O1 0.722220 0.792479 0.696771
O O2 0.347099 0.013073 0.585607
O O3 0.500000 0.000000 0.500000
O O4 0.775809 0.253243 0.572866
O O5 0.327421 0.554191 0.295054
O O6 0.907853 0.431851 0.166169
O O7 0.015897 0.164674 0.361903
O O8 0.281843 0.857726 0.887883
O O9 0.500000 0.500000 0.000000
O O10 0.097629 0.377113 0.997323
O O11 0.739380 0.365992 0.636954
O O12 0.428828 0.059641 0.707744
O O13 0.945447 0.072654 0.854185
O O14 0.332239 0.784679 0.105131
O O15 0.000000 0.000000 0.000000
O O16 0.066406 0.299471 0.490520
O O17 0.809547 0.693223 0.261882
O O18 0.500000 0.000000 0.000000
#
# Coordination Sequence:
#
# PCOD9062148 Si02
#       8
#     2   2   2   2   2   2   2   2
#     4  11  24  48  76 110 150 199 266 318 375 466
#     4  12  25  47  77 113 154 199 256 313 384 467
#     4  12  25  47  77 111 153 201 261 318 381 467
#     4  11  23  47  76 110 153 197 255 323 384 458
#     4  12  24  45  78 111 149 203 250 313 393 445
#     4  11  27  49  78 110 155 207 247 320 400 444
#     4  12  26  50  75 113 157 198 258 321 383 465
#     4  11  24  49  72 110 160 195 253 321 380 466
#
# _framework density 25.720372999999999
#
# number of rings (size 3 to 8) (size 9 to 14) (size 15 to 20)
#    0.000    0.500    5.000    3.750    0.000    3.000 
#    4.500    2.500    0.000    0.000    0.000    0.000 
#    0.000    0.000    0.000    0.000    0.000    0.000 
#
# Total GULP energy -89120.116971 kJ/mol
# GULP energy per Si atom -5570.007311 kJ/mol
# Density = 2.566183 g / cm^3
# Si number density = 25.720373 Si / 1000 Ang^3
#
#
#
# Elastic Constant Matrix: (Units=GPa)
#
#
# Indices 1 2 3 4 5 6 
#
# 1 93.0165 31.6752 36.4228 1.4654 8.5463 -9.0027
# 2 31.6752 136.0095 34.8332 11.8321 1.7499 -6.4928
# 3 36.4228 34.8332 147.1542 9.3610 10.2116 -5.8444
# 4 1.4654 11.8321 9.3610 44.7426 -2.1254 -10.2796
# 5 8.5463 1.7499 10.2116 -2.1254 44.7314 -8.2326
# 6 -9.0027 -6.4928 -5.8444 -10.2796 -8.2326 9.8334
#
#
#
# Elastic Compliance Matrix: (Units=1/GPa)
#
#
# Indices 1 2 3 4 5 6 
#
# 1 0.013807 -0.002207 -0.002638 0.004107 0.000953 0.014706
# 2 -0.002207 0.008408 -0.001327 -0.001429 0.000659 0.001801
# 3 -0.002638 -0.001327 0.007916 -0.001699 -0.001653 -0.001747
# 4 0.004107 -0.001429 -0.001699 0.033770 0.009568 0.045120
# 5 0.000953 0.000659 -0.001653 0.009568 0.029412 0.034951
# 6 0.014706 0.001801 -0.001747 0.045120 0.034951 0.191738
#
#
# Mechanical properties :
#
#
# Convention : Reuss Voigt Hill
#
# Bulk Modulus (GPa) = 56.22604 64.67141 60.44873
# Shear Modulus (GPa) = 16.48398 38.07807 27.28103
#
# Velocity S-wave (km/s) = 2.53433 3.85185 3.26034
# Velocity P-wave (km/s) = 5.52012 6.70679 6.14218
#
# Compressibility (1/GPa) = 0.01778535
#
# Stress axis : x y z
#
# Youngs Moduli (GPa) = 72.42916 118.93181 126.32334
#
# Poissons Ratio (x) = 0.26252 0.33326
# Poissons Ratio (y) = 0.15987 0.16767
# Poissons Ratio (z) = 0.19108 0.15786
#
# Static dielectric constant tensor:
#      x y z
#    x 15.462060 -0.874360 17.407520 
#    y -0.874360 2.162610 -1.429880 
#    z 17.407520 -1.429880 25.327660 
# 
# From -- ./inp_files/200649.got.cif
#   From: 2010.05.17/outbox.cif.g08.bks.cpg/sg2_101_cif.got.tgz:200649.got - 2010.06.03 11:33:40.
