data_PCOD9062357
_publ_section_title
;
Structure prediction by ZEFSAII (Michael W. Deem and Ramdas Pophale) SiO2 
 PCOD9062357
Probable space group: P -1
;
_chemical_formula_sum "Si O2"
_cell_formula_units_Z 12
_cell_length_a 11.221794
_cell_length_b 9.632579
_cell_length_c 12.505707
_cell_angle_alpha 129.171030
_cell_angle_beta 83.206431
_cell_angle_gamma 137.104265
_cell_volume 540.422631
_symmetry_space_group_name_H-M "P -1"
_symmetry_group_IT_number 2
_symmetry_cell_setting 'triclinic'
loop_
_space_group_symop_operation_xyz
x,y,z
-x,-y,-z
loop_
_atom_site_type_symbol
_atom_site_label
_atom_site_fract_x
_atom_site_fract_y
_atom_site_fract_z
Si Si1 0.122118 0.785443 0.043829
Si Si2 0.547693 0.234735 0.352291
Si Si3 0.148734 0.231393 0.235089
Si Si4 0.704725 0.900396 0.177129
Si Si5 0.292857 0.799415 0.847081
Si Si6 0.547815 0.194515 0.686949
O O1 0.378573 0.117654 0.231278
O O2 0.062093 0.916094 0.096924
O O3 0.105532 0.648065 0.870307
O O4 0.000000 0.500000 0.000000
O O5 0.658112 0.492660 0.559180
O O6 0.745123 0.403109 0.335013
O O7 0.416279 0.899941 0.263721
O O8 0.265607 0.433025 0.206588
O O9 0.946301 0.112201 0.230638
O O10 0.668815 0.965884 0.323000
O O11 0.642930 0.952680 0.112458
O O12 0.500000 0.500000 0.000000
O O13 0.500000 0.000000 0.000000
O O14 0.500000 0.000000 0.500000
#
# Coordination Sequence:
#
# PCOD9062357 Si02
#       6
#     2   2   2   2   2   2
#     4  11  24  40  65  92 126 172 217 259 321 380
#     4   9  21  44  65  91 127 165 217 260 319 386
#     4  11  24  42  66  94 132 169 209 270 321 369
#     4  11  24  39  64  98 129 163 215 263 317 380
#     4   9  21  40  63  86 128 164 207 259 316 370
#     4   9  21  41  66  94 126 161 211 260 319 381
#
# _framework density 22.204841999999999
#
# number of rings (size 3 to 8) (size 9 to 14) (size 15 to 20)
#    0.000    2.000    0.000    1.500    9.333    7.333 
#    3.000    0.833    0.000    0.000    0.000    0.000 
#    0.000    0.000    0.000    0.000    0.000    0.000 
#
# Total GULP energy -66842.866381 kJ/mol
# GULP energy per Si atom -5570.238865 kJ/mol
# Density = 2.215430 g / cm^3
# Si number density = 22.204842 Si / 1000 Ang^3
#
#
#
# Elastic Constant Matrix: (Units=GPa)
#
#
# Indices 1 2 3 4 5 6 
#
# 1 139.7431 61.8328 24.1043 -9.6835 -13.8053 3.6594
# 2 61.8328 153.3594 26.7453 -18.1628 -26.7710 14.8007
# 3 24.1043 26.7453 43.7632 -15.2441 -7.5860 -3.7332
# 4 -9.6835 -18.1628 -15.2441 38.8898 -1.8744 -5.8830
# 5 -13.8053 -26.7710 -7.5860 -1.8744 35.4469 -1.9905
# 6 3.6594 14.8007 -3.7332 -5.8830 -1.9905 34.5417
#
#
#
# Elastic Compliance Matrix: (Units=1/GPa)
#
#
# Indices 1 2 3 4 5 6 
#
# 1 0.009084 -0.003060 -0.003183 -0.000394 0.000523 -0.000032
# 2 -0.003060 0.009843 -0.002790 0.002489 0.005583 -0.003449
# 3 -0.003183 -0.002790 0.031760 0.011660 0.004472 0.007209
# 4 -0.000394 0.002489 0.011660 0.032581 0.006290 0.006147
# 5 0.000523 0.005583 0.004472 0.006290 0.033981 0.001065
# 6 -0.000032 -0.003449 0.007209 0.006147 0.001065 0.032319
#
#
# Mechanical properties :
#
#
# Convention : Reuss Voigt Hill
#
# Bulk Modulus (GPa) = 30.65387 62.47005 46.56196
# Shear Modulus (GPa) = 28.01001 36.72122 32.36561
#
# Velocity S-wave (km/s) = 3.55552 4.07104 3.82199
# Velocity P-wave (km/s) = 5.53992 7.09172 6.36330
#
# Compressibility (1/GPa) = 0.03262231
#
# Stress axis : x y z
#
# Youngs Moduli (GPa) = 110.08260 101.59419 31.48632
#
# Poissons Ratio (x) = 0.31085 0.10022
# Poissons Ratio (y) = 0.33683 0.08784
# Poissons Ratio (z) = 0.35039 0.28341
#
# Static dielectric constant tensor:
#      x y z
#    x 1.860660 0.103670 0.003440 
#    y 0.103670 1.779600 0.020620 
#    z 0.003440 0.020620 1.850480 
# 
# From -- ./inp_files/68833.got.cif
#   From: 2010.05.17/outbox.cif.g08.bks.cpg/sg2_35_cif.got.tgz:68833.got - 2010.06.03 11:33:40.
