data_PCOD9062114
_publ_section_title
;
Structure prediction by ZEFSAII (Michael W. Deem and Ramdas Pophale) SiO2 
 PCOD9062114
Probable space group: P -1
;
_chemical_formula_sum "Si O2"
_cell_formula_units_Z 14
_cell_length_a 11.787123
_cell_length_b 6.046198
_cell_length_c 16.374273
_cell_angle_alpha 127.660021
_cell_angle_beta 40.056906
_cell_angle_gamma 118.150091
_cell_volume 594.500387
_symmetry_space_group_name_H-M "P -1"
_symmetry_group_IT_number 2
_symmetry_cell_setting 'triclinic'
loop_
_space_group_symop_operation_xyz
x,y,z
-x,-y,-z
loop_
_atom_site_type_symbol
_atom_site_label
_atom_site_fract_x
_atom_site_fract_y
_atom_site_fract_z
Si Si1 0.267676 0.688958 0.448403
Si Si2 0.505506 0.171948 0.404764
Si Si3 0.182571 0.734876 0.024858
Si Si4 0.952159 0.328697 0.601530
Si Si5 0.111956 0.091117 0.876778
Si Si6 0.675616 0.321314 0.883622
Si Si7 0.515948 0.820909 0.770482
O O1 0.172963 0.656424 0.405616
O O2 0.440197 0.498187 0.309296
O O3 0.124687 0.526315 0.546011
O O4 0.350343 0.990945 0.493490
O O5 0.500000 0.500000 0.500000
O O6 0.459415 0.118023 0.323373
O O7 0.707978 0.073211 0.276395
O O8 0.267741 0.718432 0.063458
O O9 0.004709 0.897957 0.139295
O O10 0.157568 0.413983 0.941468
O O11 0.320519 0.878015 0.919855
O O12 0.840222 0.423741 0.762599
O O13 0.000000 0.000000 0.500000
O O14 0.000000 0.000000 0.000000
O O15 0.640516 0.012125 0.798952
O O16 0.500000 0.500000 0.000000
#
# Coordination Sequence:
#
# PCOD9062114 Si02
#       7
#     2   2   2   2   2   2   2
#     4  11  23  47  77 100 154 204 242 313 392 446
#     4  12  26  49  76 111 151 207 265 314 383 459
#     4  11  25  45  79 111 148 204 255 307 393 454
#     4  11  23  47  73 111 152 195 245 316 391 452
#     4  11  24  51  72 105 156 199 254 328 368 453
#     4  12  25  46  78 117 151 194 250 318 390 465
#     4  12  23  49  74 108 155 194 249 318 385 459
#
# _framework density 23.549185000000001
#
# number of rings (size 3 to 8) (size 9 to 14) (size 15 to 20)
#    0.000    0.571    5.714    2.143    0.000    0.571 
#    7.714    0.000    0.000    0.000    0.000    0.000 
#    0.000    0.000    0.000    0.000    0.000    0.000 
#
# Total GULP energy -78276.370338 kJ/mol
# GULP energy per Si atom -5591.169310 kJ/mol
# Density = 2.349559 g / cm^3
# Si number density = 23.549185 Si / 1000 Ang^3
#
#
#
# Elastic Constant Matrix: (Units=GPa)
#
#
# Indices 1 2 3 4 5 6 
#
# 1 121.6581 31.5414 42.3829 3.2734 -19.4476 -2.8810
# 2 31.5414 144.5319 62.0460 -11.4443 -8.0258 29.7652
# 3 42.3829 62.0460 116.2117 -9.1636 -20.1894 2.7910
# 4 3.2734 -11.4443 -9.1636 39.5345 -1.5459 -3.3465
# 5 -19.4476 -8.0258 -20.1894 -1.5459 38.6735 4.0071
# 6 -2.8810 29.7652 2.7910 -3.3465 4.0071 39.4537
#
#
#
# Elastic Compliance Matrix: (Units=1/GPa)
#
#
# Indices 1 2 3 4 5 6 
#
# 1 0.010048 -0.001349 -0.002541 -0.001561 0.003231 0.001471
# 2 -0.001349 0.011218 -0.005221 0.001460 -0.000183 -0.008050
# 3 -0.002541 -0.005221 0.013180 0.002141 0.004340 0.002561
# 4 -0.001561 0.001460 0.002141 0.026466 0.001620 0.000713
# 5 0.003231 -0.000183 0.004340 0.001620 0.030070 -0.002849
# 6 0.001471 -0.008050 0.002561 0.000713 -0.002849 0.031695
#
#
# Mechanical properties :
#
#
# Convention : Reuss Voigt Hill
#
# Bulk Modulus (GPa) = 61.63532 72.70470 67.17001
# Shear Modulus (GPa) = 34.17465 39.96110 37.06787
#
# Velocity S-wave (km/s) = 3.81360 4.12384 3.97175
# Velocity P-wave (km/s) = 6.75435 7.32225 7.04402
#
# Compressibility (1/GPa) = 0.01622446
#
# Stress axis : x y z
#
# Youngs Moduli (GPa) = 99.52004 89.14581 75.87050
#
# Poissons Ratio (x) = 0.12024 0.19282
# Poissons Ratio (y) = 0.13423 0.39609
# Poissons Ratio (z) = 0.25293 0.46539
#
# Static dielectric constant tensor:
#      x y z
#    x 1.807460 -0.023740 -0.009120 
#    y -0.023740 1.948050 -0.033800 
#    z -0.009120 -0.033800 1.928330 
# 
# From -- ./inp_files/564557.got.cif
#   From: 2010.05.17/outbox.cif.g08.bks.cpg/sg2_283_cif.got.tgz:564557.got - 2010.06.03 11:33:40.
