data_PCOD9062012
_publ_section_title
;
Structure prediction by ZEFSAII (Michael W. Deem and Ramdas Pophale) SiO2 
 PCOD9062012
Probable space group: P -1
;
_chemical_formula_sum "Si O2"
_cell_formula_units_Z 16
_cell_length_a 8.984628
_cell_length_b 8.622503
_cell_length_c 14.446103
_cell_angle_alpha 95.731158
_cell_angle_beta 44.566301
_cell_angle_gamma 69.427730
_cell_volume 622.090272
_symmetry_space_group_name_H-M "P -1"
_symmetry_group_IT_number 2
_symmetry_cell_setting 'triclinic'
loop_
_space_group_symop_operation_xyz
x,y,z
-x,-y,-z
loop_
_atom_site_type_symbol
_atom_site_label
_atom_site_fract_x
_atom_site_fract_y
_atom_site_fract_z
Si Si1 0.244245 0.191778 0.420420
Si Si2 0.977216 0.845256 0.949731
Si Si3 0.305130 0.098359 0.680639
Si Si4 0.004321 0.036211 0.244796
Si Si5 0.654528 0.189845 0.588551
Si Si6 0.587360 0.492689 0.142080
Si Si7 0.190405 0.406072 0.271081
Si Si8 0.387463 0.224097 0.983342
O O1 0.196943 0.283918 0.346546
O O2 0.056559 0.369407 0.585511
O O3 0.546652 0.070855 0.316671
O O4 0.210032 0.020816 0.434959
O O5 0.704562 0.875689 0.048058
O O6 0.145055 0.659285 0.930203
O O7 0.084871 0.829463 0.797758
O O8 0.000000 0.000000 0.000000
O O9 0.038030 0.129654 0.772226
O O10 0.357693 0.251452 0.699249
O O11 0.500000 0.000000 0.500000
O O12 0.817003 0.152869 0.422069
O O13 0.309790 0.931366 0.127031
O O14 0.619722 0.348797 0.680651
O O15 0.456516 0.393540 0.156575
O O16 0.622778 0.610358 0.058281
O O17 0.198794 0.324618 0.162492
#
# Coordination Sequence:
#
# PCOD9062012 Si02
#       8
#     2   2   2   2   2   2   2   2
#     4   9  21  43  74 111 154 201 249 307 372 439
#     4  12  30  52  77 103 149 199 249 313 389 455
#     4   8  18  39  70 107 139 195 239 293 361 435
#     4  11  23  46  79 110 146 195 248 309 374 444
#     4   9  23  44  75 109 148 196 253 298 372 440
#     4  12  27  48  74 109 150 199 253 309 374 453
#     4  11  24  45  74 113 155 196 249 313 368 445
#     4  12  29  49  74 110 152 197 254 311 376 452
#
# _framework density 25.719742
#
# number of rings (size 3 to 8) (size 9 to 14) (size 15 to 20)
#    0.750    0.750    0.000    3.375    1.750    9.500 
#    2.250    0.000    0.000    0.000    0.000    0.000 
#    0.000    0.000    0.000    0.000    0.000    0.000 
#
# Total GULP energy -89638.087061 kJ/mol
# GULP energy per Si atom -5602.380441 kJ/mol
# Density = 2.566120 g / cm^3
# Si number density = 25.719742 Si / 1000 Ang^3
#
#
#
# Elastic Constant Matrix: (Units=GPa)
#
#
# Indices 1 2 3 4 5 6 
#
# 1 162.9712 37.6343 46.6196 4.7419 1.9581 21.9216
# 2 37.6343 73.1281 16.9629 -18.7894 22.8165 -11.1426
# 3 46.6196 16.9629 106.7949 -12.1497 24.7243 -0.0504
# 4 4.7419 -18.7894 -12.1497 45.1192 -6.5307 6.3378
# 5 1.9581 22.8165 24.7243 -6.5307 49.5540 -9.3285
# 6 21.9216 -11.1426 -0.0504 6.3378 -9.3285 46.6996
#
#
#
# Elastic Compliance Matrix: (Units=1/GPa)
#
#
# Indices 1 2 3 4 5 6 
#
# 1 0.009707 -0.006811 -0.004407 -0.003838 0.003511 -0.004964
# 2 -0.006811 0.022534 0.002505 0.008665 -0.009165 0.005570
# 3 -0.004407 0.002505 0.012895 0.003889 -0.006749 0.000805
# 4 -0.003838 0.008665 0.003889 0.026926 -0.002274 -0.000235
# 5 0.003511 -0.009165 -0.006749 -0.002274 0.027706 0.002001
# 6 -0.004964 0.005570 0.000805 -0.000235 0.002001 0.025505
#
#
# Mechanical properties :
#
#
# Convention : Reuss Voigt Hill
#
# Bulk Modulus (GPa) = 36.09131 60.59199 48.34165
# Shear Modulus (GPa) = 32.90831 44.38639 38.64735
#
# Velocity S-wave (km/s) = 3.58089 4.15875 3.88059
# Velocity P-wave (km/s) = 5.58211 6.83154 6.23819
#
# Compressibility (1/GPa) = 0.02770750
#
# Stress axis : x y z
#
# Youngs Moduli (GPa) = 103.01854 44.37786 77.54833
#
# Poissons Ratio (x) = 0.30227 0.34179
# Poissons Ratio (y) = 0.70169 -0.19422
# Poissons Ratio (z) = 0.45405 -0.11114
#
# Static dielectric constant tensor:
#      x y z
#    x 2.043710 0.002320 -0.051710 
#    y 0.002320 1.970250 0.009190 
#    z -0.051710 0.009190 2.069500 
# 
# From -- ./inp_files/495142.got.cif
#   From: 2010.05.17/outbox.cif.g08.bks.cpg/sg2_248_cif.got.tgz:495142.got - 2010.06.03 11:33:40.
