data_PCOD9062743
_publ_section_title
;
Structure prediction by ZEFSAII (Michael W. Deem and Ramdas Pophale) SiO2 
 PCOD9062743
Probable space group: P -1
;
_chemical_formula_sum "Si O2"
_cell_formula_units_Z 16
_cell_length_a 5.009906
_cell_length_b 22.899859
_cell_length_c 12.114645
_cell_angle_alpha 37.765662
_cell_angle_beta 117.508123
_cell_angle_gamma 123.259629
_cell_volume 710.679289
_symmetry_space_group_name_H-M "P -1"
_symmetry_group_IT_number 2
_symmetry_cell_setting 'triclinic'
loop_
_space_group_symop_operation_xyz
x,y,z
-x,-y,-z
loop_
_atom_site_type_symbol
_atom_site_label
_atom_site_fract_x
_atom_site_fract_y
_atom_site_fract_z
Si Si1 0.350432 0.385776 0.906140
Si Si2 0.379438 0.719801 0.063032
Si Si3 0.673803 0.322209 0.267353
Si Si4 0.620120 0.615286 0.666917
Si Si5 0.694125 0.078335 0.328951
Si Si6 0.848668 0.776386 0.272230
Si Si7 0.429248 0.102605 0.811856
Si Si8 0.319366 0.100197 0.546861
O O1 0.567979 0.358093 0.898134
O O2 0.416860 0.504607 0.751163
O O3 0.984478 0.323863 0.900583
O O4 0.447190 0.349025 0.095812
O O5 0.632073 0.737948 0.181657
O O6 0.421817 0.827552 0.852982
O O7 0.567455 0.348572 0.327679
O O8 0.619812 0.201925 0.431530
O O9 0.041292 0.384453 0.219688
O O10 0.733555 0.692025 0.471655
O O11 0.049990 0.113702 0.393979
O O12 0.500000 0.000000 0.500000
O O13 0.658286 0.008294 0.319012
O O14 0.770936 0.871059 0.168537
O O15 0.221078 0.810978 0.261224
O O16 0.252404 0.098043 0.667482
O O17 0.500000 0.000000 0.000000
#
# Coordination Sequence:
#
# PCOD9062743 Si02
#       8
#     2   2   2   2   2   2   2   2
#     4  12  26  45  72 101 135 187 223 289 350 394
#     4  12  27  46  68  99 145 177 235 281 340 409
#     4  12  23  45  71 104 140 170 231 286 346 405
#     4  12  25  45  72 103 137 177 234 283 340 411
#     4  11  26  41  68 101 137 178 227 274 345 412
#     4  12  26  46  68 101 137 183 229 287 328 409
#     4  12  26  44  70  99 138 182 232 274 343 400
#     4  11  24  42  69  99 135 179 219 282 343 402
#
# _framework density 22.513670999999999
#
# number of rings (size 3 to 8) (size 9 to 14) (size 15 to 20)
#    0.000    0.250    3.750    4.875    7.000    1.000 
#    0.000    0.000    0.000    0.000    0.000    0.000 
#    0.000    0.000    0.000    0.000    0.000    0.000 
#
# Total GULP energy -89627.420152 kJ/mol
# GULP energy per Si atom -5601.713760 kJ/mol
# Density = 2.246243 g / cm^3
# Si number density = 22.513671 Si / 1000 Ang^3
#
#
#
# Elastic Constant Matrix: (Units=GPa)
#
#
# Indices 1 2 3 4 5 6 
#
# 1 71.8752 5.8294 -15.2354 0.8736 7.3915 3.2006
# 2 5.8294 101.1492 24.4942 1.7287 9.1020 -3.5110
# 3 -15.2354 24.4942 57.4261 -5.3747 10.6915 1.1241
# 4 0.8736 1.7287 -5.3747 30.7964 0.6852 -3.9574
# 5 7.3915 9.1020 10.6915 0.6852 23.8995 -5.4280
# 6 3.2006 -3.5110 1.1241 -3.9574 -5.4280 33.1538
#
#
#
# Elastic Compliance Matrix: (Units=1/GPa)
#
#
# Indices 1 2 3 4 5 6 
#
# 1 0.016518 -0.002007 0.006885 0.000603 -0.008193 -0.003310
# 2 -0.002007 0.011464 -0.005384 -0.001341 -0.001011 0.001265
# 3 0.006885 -0.005384 0.024192 0.004143 -0.011814 -0.003495
# 4 0.000603 -0.001341 0.004143 0.033728 -0.001723 0.003403
# 5 -0.008193 -0.001011 -0.011814 -0.001723 0.052237 0.009431
# 6 -0.003310 0.001265 -0.003495 0.003403 0.009431 0.032685
#
#
# Mechanical properties :
#
#
# Convention : Reuss Voigt Hill
#
# Bulk Modulus (GPa) = 19.54608 28.95855 24.25231
# Shear Modulus (GPa) = 26.47034 31.92742 29.19888
#
# Velocity S-wave (km/s) = 3.43263 3.76990 3.60521
# Velocity P-wave (km/s) = 4.94078 5.64270 5.30337
#
# Compressibility (1/GPa) = 0.05116117
#
# Stress axis : x y z
#
# Youngs Moduli (GPa) = 60.54054 87.23196 41.33516
#
# Poissons Ratio (x) = 0.17509 -0.28459
# Poissons Ratio (y) = 0.12151 0.22256
# Poissons Ratio (z) = -0.41682 0.46968
#
# Static dielectric constant tensor:
#      x y z
#    x 1.899340 0.059300 -0.025320 
#    y 0.059300 1.854160 -0.026820 
#    z -0.025320 -0.026820 1.835880 
# 
# From -- ./inp_files/71008.got.cif
#   From: 2010.05.17/outbox.cif.g08.bks.cpg/sg2_36_cif.got.tgz:71008.got - 2010.06.03 11:33:40.
