data_PCOD9062769
_publ_section_title
;
Structure prediction by ZEFSAII (Michael W. Deem and Ramdas Pophale) SiO2 
 PCOD9062769
Probable space group: P -1
;
_chemical_formula_sum "Si O2"
_cell_formula_units_Z 16
_cell_length_a 10.893206
_cell_length_b 8.894922
_cell_length_c 14.474717
_cell_angle_alpha 40.864476
_cell_angle_beta 123.685350
_cell_angle_gamma 104.573646
_cell_volume 726.370912
_symmetry_space_group_name_H-M "P -1"
_symmetry_group_IT_number 2
_symmetry_cell_setting 'triclinic'
loop_
_space_group_symop_operation_xyz
x,y,z
-x,-y,-z
loop_
_atom_site_type_symbol
_atom_site_label
_atom_site_fract_x
_atom_site_fract_y
_atom_site_fract_z
Si Si1 0.150134 0.551899 0.080427
Si Si2 0.189480 0.654817 0.401910
Si Si3 0.621969 0.911127 0.510211
Si Si4 0.426592 0.158639 0.684591
Si Si5 0.159893 0.250477 0.791231
Si Si6 0.767938 0.135869 0.871113
Si Si7 0.640039 0.198001 0.038489
Si Si8 0.328845 0.618804 0.663349
O O1 0.249571 0.308137 0.286438
O O2 0.148921 0.743163 0.073758
O O3 0.234223 0.656315 0.984459
O O4 0.000000 0.500000 0.000000
O O5 0.271678 0.373389 0.544965
O O6 0.192979 0.800725 0.243340
O O7 0.292895 0.705981 0.502733
O O8 0.012670 0.713003 0.332111
O O9 0.559817 0.840496 0.420888
O O10 0.500000 0.000000 0.500000
O O11 0.674919 0.141566 0.396404
O O12 0.580043 0.211991 0.763502
O O13 0.408794 0.915070 0.836601
O O14 0.199206 0.496961 0.691271
O O15 0.286759 0.042344 0.882493
O O16 0.174946 0.145721 0.949576
O O17 0.487731 0.400959 0.842530
#
# Coordination Sequence:
#
# PCOD9062769 Si02
#       8
#     2   2   2   2   2   2   2   2
#     4  11  26  47  70 102 149 189 225 288 369 415
#     4  12  24  42  72 107 141 183 242 293 340 431
#     4  12  27  47  69 108 141 186 235 293 356 422
#     4  12  25  47  76 105 142 185 245 293 348 425
#     4  11  24  42  70 107 141 181 237 293 357 415
#     4  11  24  46  74 102 139 190 239 287 348 424
#     4  11  24  47  73 103 140 191 236 292 356 421
#     4  12  24  45  71 102 144 188 236 291 357 417
#
# _framework density 22.027312999999999
#
# number of rings (size 3 to 8) (size 9 to 14) (size 15 to 20)
#    0.000    0.500    5.000    3.750    3.500    0.500 
#    4.500    1.250    0.000    0.000    0.000    0.000 
#    0.000    0.000    0.000    0.000    0.000    0.000 
#
# Total GULP energy -89349.072306 kJ/mol
# GULP energy per Si atom -5584.317019 kJ/mol
# Density = 2.197718 g / cm^3
# Si number density = 22.027313 Si / 1000 Ang^3
#
#
#
# Elastic Constant Matrix: (Units=GPa)
#
#
# Indices 1 2 3 4 5 6 
#
# 1 74.4281 24.7000 36.5244 7.5854 -11.4217 26.5963
# 2 24.7000 82.9782 31.9712 9.3865 -7.4159 20.7478
# 3 36.5244 31.9712 91.9014 9.7160 -17.4793 13.4309
# 4 7.5854 9.3865 9.7160 39.7197 -0.0925 -5.3183
# 5 -11.4217 -7.4159 -17.4793 -0.0925 35.5646 -4.8753
# 6 26.5963 20.7478 13.4309 -5.3183 -4.8753 33.5894
#
#
#
# Elastic Compliance Matrix: (Units=1/GPa)
#
#
# Indices 1 2 3 4 5 6 
#
# 1 0.023009 0.000356 -0.005848 -0.005265 0.002300 -0.016600
# 2 0.000356 0.016321 -0.003945 -0.004220 0.000277 -0.009414
# 3 -0.005848 -0.003945 0.015515 -0.001552 0.005107 0.001359
# 4 -0.005265 -0.004220 -0.001552 0.029131 -0.001644 0.011770
# 5 0.002300 0.000277 0.005107 -0.001644 0.031457 0.000271
# 6 -0.016600 -0.009414 0.001359 0.011770 0.000271 0.050090
#
#
# Mechanical properties :
#
#
# Convention : Reuss Voigt Hill
#
# Bulk Modulus (GPa) = 27.80024 48.41099 38.10562
# Shear Modulus (GPa) = 25.46001 32.18221 28.82111
#
# Velocity S-wave (km/s) = 3.40345 3.82647 3.62114
# Velocity P-wave (km/s) = 5.30027 6.44577 5.90088
#
# Compressibility (1/GPa) = 0.03597091
#
# Stress axis : x y z
#
# Youngs Moduli (GPa) = 43.46132 61.26973 64.45567
#
# Poissons Ratio (x) = -0.02181 0.37695
# Poissons Ratio (y) = -0.01547 0.25426
# Poissons Ratio (z) = 0.25417 0.24169
#
# Static dielectric constant tensor:
#      x y z
#    x 1.893720 0.083440 -0.082250 
#    y 0.083440 2.039660 -0.163450 
#    z -0.082250 -0.163450 1.926550 
# 
# From -- ./inp_files/392641.got.cif
#   From: 2010.05.17/outbox.cif.g08.bks.cpg/sg2_197_cif.got.tgz:392641.got - 2010.06.03 11:33:40.
