data_PCOD9062976
_publ_section_title
;
Structure prediction by ZEFSAII (Michael W. Deem and Ramdas Pophale) SiO2 
 PCOD9062976
Probable space group: P -1
;
_chemical_formula_sum "Si O2"
_cell_formula_units_Z 14
_cell_length_a 21.798106
_cell_length_b 5.010180
_cell_length_c 11.306832
_cell_angle_alpha 119.065058
_cell_angle_beta 33.630388
_cell_angle_gamma 119.971257
_cell_volume 586.132912
_symmetry_space_group_name_H-M "P -1"
_symmetry_group_IT_number 2
_symmetry_cell_setting 'triclinic'
loop_
_space_group_symop_operation_xyz
x,y,z
-x,-y,-z
loop_
_atom_site_type_symbol
_atom_site_label
_atom_site_fract_x
_atom_site_fract_y
_atom_site_fract_z
Si Si1 0.323935 0.647068 0.932144
Si Si2 0.055388 0.505094 0.680000
Si Si3 0.219133 0.882573 0.664427
Si Si4 0.467484 0.193361 0.704749
Si Si5 0.607888 0.507471 0.744006
Si Si6 0.798449 0.431833 0.134148
Si Si7 0.816757 0.017066 0.605811
O O1 0.368353 0.364131 0.858834
O O2 0.284284 0.593024 0.849543
O O3 0.425909 0.944068 0.820728
O O4 0.225789 0.747861 0.186570
O O5 0.108398 0.637006 0.748725
O O6 0.115479 0.219170 0.491398
O O7 0.100017 0.785812 0.579584
O O8 0.922162 0.416826 0.884345
O O9 0.323715 0.773809 0.408330
O O10 0.233760 0.825525 0.768101
O O11 0.200648 0.225365 0.741831
O O12 0.561790 0.454635 0.672227
O O13 0.500000 0.000000 0.500000
O O14 0.704008 0.809789 0.683310
O O15 0.500000 0.500000 0.000000
#
# Coordination Sequence:
#
# PCOD9062976 Si02
#       7
#     2   2   2   2   2   2   2
#     4  12  26  43  67  98 141 177 230 278 335 413
#     4  11  24  43  72  98 137 177 225 288 341 400
#     4  11  24  43  68 103 132 174 238 277 336 413
#     4  12  26  45  69 100 138 182 231 280 339 400
#     4  11  24  46  71 100 136 185 223 283 343 396
#     4  12  24  45  69  99 139 182 219 288 346 397
#     4  11  25  44  67 107 134 176 235 278 333 423
#
# _framework density 23.885366000000001
#
# number of rings (size 3 to 8) (size 9 to 14) (size 15 to 20)
#    0.000    0.571    1.429    7.286    2.000    5.143 
#    0.000    0.000    0.000    0.000    0.000    0.000 
#    0.000    0.000    0.000    0.000    0.000    0.000 
#
# Total GULP energy -78421.367800 kJ/mol
# GULP energy per Si atom -5601.526271 kJ/mol
# Density = 2.383100 g / cm^3
# Si number density = 23.885366 Si / 1000 Ang^3
#
#
#
# Elastic Constant Matrix: (Units=GPa)
#
#
# Indices 1 2 3 4 5 6 
#
# 1 31.5762 0.2050 -8.8946 8.6640 -5.5118 -5.4658
# 2 0.2050 65.9895 33.2347 8.8902 -7.7034 -21.9366
# 3 -8.8946 33.2347 113.1040 -1.3531 -8.3197 0.2861
# 4 8.6640 8.8902 -1.3531 44.4742 -0.8127 -0.1050
# 5 -5.5118 -7.7034 -8.3197 -0.8127 40.1236 1.2912
# 6 -5.4658 -21.9366 0.2861 -0.1050 1.2912 27.6045
#
#
#
# Elastic Compliance Matrix: (Units=1/GPa)
#
#
# Indices 1 2 3 4 5 6 
#
# 1 0.037152 0.003963 0.002065 -0.007837 0.005806 0.010183
# 2 0.003963 0.027941 -0.007782 -0.006478 0.003428 0.022884
# 3 0.002065 -0.007782 0.011425 0.001512 0.001381 -0.005952
# 4 -0.007837 -0.006478 0.001512 0.025314 -0.001283 -0.006559
# 5 0.005806 0.003428 0.001381 -0.001283 0.026555 0.002612
# 6 0.010183 0.022884 -0.005952 -0.006559 0.002612 0.056343
#
#
# Mechanical properties :
#
#
# Convention : Reuss Voigt Hill
#
# Bulk Modulus (GPa) = 13.69668 28.86222 21.27945
# Shear Modulus (GPa) = 23.52133 34.84876 29.18504
#
# Velocity S-wave (km/s) = 3.14149 3.82383 3.49933
# Velocity P-wave (km/s) = 4.34804 5.62187 5.02548
#
# Compressibility (1/GPa) = 0.07301038
#
# Stress axis : x y z
#
# Youngs Moduli (GPa) = 26.91665 35.78978 87.52658
#
# Poissons Ratio (x) = -0.14185 -0.18071
# Poissons Ratio (y) = -0.10668 0.68111
# Poissons Ratio (z) = -0.05557 0.27851
#
# Static dielectric constant tensor:
#      x y z
#    x 1.916130 0.050780 0.024700 
#    y 0.050780 1.914230 -0.001820 
#    z 0.024700 -0.001820 1.893450 
# 
# From -- ./inp_files/78310.got.cif
#   From: 2010.05.17/outbox.cif.g08.bks.cpg/sg2_40_cif.got.tgz:78310.got - 2010.06.03 11:33:40.
