data_PCOD9062042
_publ_section_title
;
Structure prediction by ZEFSAII (Michael W. Deem and Ramdas Pophale) SiO2 
 PCOD9062042
Probable space group: P -1
;
_chemical_formula_sum "Si O2"
_cell_formula_units_Z 14
_cell_length_a 6.580328
_cell_length_b 16.283409
_cell_length_c 15.338277
_cell_angle_alpha 29.190199
_cell_angle_beta 110.380861
_cell_angle_gamma 123.060156
_cell_volume 638.000320
_symmetry_space_group_name_H-M "P -1"
_symmetry_group_IT_number 2
_symmetry_cell_setting 'triclinic'
loop_
_space_group_symop_operation_xyz
x,y,z
-x,-y,-z
loop_
_atom_site_type_symbol
_atom_site_label
_atom_site_fract_x
_atom_site_fract_y
_atom_site_fract_z
Si Si1 0.402489 0.697844 0.217086
Si Si2 0.177605 0.664878 0.542641
Si Si3 0.570945 0.585677 0.184249
Si Si4 0.838508 0.370168 0.014524
Si Si5 0.386462 0.014563 0.379123
Si Si6 0.476678 0.100002 0.773256
Si Si7 0.049187 0.156861 0.141700
O O1 0.559464 0.636591 0.235681
O O2 0.495721 0.762280 0.269554
O O3 0.109323 0.518856 0.338755
O O4 0.429642 0.892738 0.995331
O O5 0.365475 0.583079 0.658314
O O6 0.217350 0.806507 0.497713
O O7 0.276297 0.794013 0.349358
O O8 0.310573 0.543918 0.138608
O O9 0.796447 0.770252 0.993317
O O10 0.008456 0.326582 0.016340
O O11 0.619320 0.158415 0.216599
O O12 0.000000 0.500000 0.000000
O O13 0.500000 0.000000 0.500000
O O14 0.216224 0.112138 0.272480
O O15 0.225132 0.035313 0.739719
#
# Coordination Sequence:
#
# PCOD9062042 Si02
#       7
#     2   2   2   2   2   2   2
#     4  11  25  46  70 101 141 183 235 279 340 411
#     4  12  25  46  68 103 143 178 231 286 340 408
#     4  11  24  43  70 101 136 183 226 287 341 406
#     4  11  25  44  71  99 136 184 228 282 348 407
#     4  11  28  42  69 104 135 182 229 282 346 410
#     4  11  23  47  70 101 139 186 230 282 344 402
#     4  11  23  49  68  98 146 176 227 288 338 412
#
# _framework density 21.943563000000001
#
# number of rings (size 3 to 8) (size 9 to 14) (size 15 to 20)
#    0.000    0.857    4.286    1.286    8.000    2.857 
#    2.571    0.000    0.000    0.000    0.000    0.000 
#    0.000    0.000    0.000    0.000    0.000    0.000 
#
# Total GULP energy -78369.756256 kJ/mol
# GULP energy per Si atom -5597.839733 kJ/mol
# Density = 2.189362 g / cm^3
# Si number density = 21.943563 Si / 1000 Ang^3
#
#
#
# Elastic Constant Matrix: (Units=GPa)
#
#
# Indices 1 2 3 4 5 6 
#
# 1 106.5283 30.0233 26.5775 -9.3140 -4.8651 -13.2156
# 2 30.0233 109.6825 19.2720 -12.5248 -9.8886 -11.8966
# 3 26.5775 19.2720 72.9420 -8.4066 -26.6755 8.1662
# 4 -9.3140 -12.5248 -8.4066 31.0792 -3.5935 -3.0368
# 5 -4.8651 -9.8886 -26.6755 -3.5935 36.1172 0.5481
# 6 -13.2156 -11.8966 8.1662 -3.0368 0.5481 24.8600
#
#
#
# Elastic Compliance Matrix: (Units=1/GPa)
#
#
# Indices 1 2 3 4 5 6 
#
# 1 0.012307 -0.001518 -0.005867 0.001927 -0.003021 0.008045
# 2 -0.001518 0.011119 -0.001858 0.004281 0.001809 0.005607
# 3 -0.005867 -0.001858 0.024697 0.005049 0.017624 -0.011892
# 4 0.001927 0.004281 0.005049 0.037427 0.008797 0.005792
# 5 -0.003021 0.001809 0.017624 0.008797 0.041765 -0.006376
# 6 0.008045 0.005607 -0.011892 0.005792 -0.006376 0.051940
#
#
# Mechanical properties :
#
#
# Convention : Reuss Voigt Hill
#
# Bulk Modulus (GPa) = 33.74026 48.98872 41.36449
# Shear Modulus (GPa) = 24.08252 32.62996 28.35624
#
# Velocity S-wave (km/s) = 3.31641 3.86034 3.59867
# Velocity P-wave (km/s) = 5.48398 6.49946 6.01320
#
# Compressibility (1/GPa) = 0.02963819
#
# Stress axis : x y z
#
# Youngs Moduli (GPa) = 81.25326 89.93472 40.49109
#
# Poissons Ratio (x) = 0.13650 0.23756
# Poissons Ratio (y) = 0.12332 0.07522
# Poissons Ratio (z) = 0.47671 0.16708
#
# Static dielectric constant tensor:
#      x y z
#    x 1.791910 -0.010900 0.001080 
#    y -0.010900 1.769870 0.020320 
#    z 0.001080 0.020320 1.840350 
# 
# From -- ./inp_files/44340.got.cif
#   From: 2010.05.17/outbox.cif.g08.bks.cpg/sg2_23_cif.got.tgz:44340.got - 2010.06.03 11:33:40.
