data_PCOD9062416
_publ_section_title
;
Structure prediction by ZEFSAII (Michael W. Deem and Ramdas Pophale) SiO2 
 PCOD9062416
Probable space group: P -1
;
_chemical_formula_sum "Si O2"
_cell_formula_units_Z 16
_cell_length_a 25.682622
_cell_length_b 5.180078
_cell_length_c 5.958475
_cell_angle_alpha 91.662205
_cell_angle_beta 55.387644
_cell_angle_gamma 102.691972
_cell_volume 631.918604
_symmetry_space_group_name_H-M "P -1"
_symmetry_group_IT_number 2
_symmetry_cell_setting 'triclinic'
loop_
_space_group_symop_operation_xyz
x,y,z
-x,-y,-z
loop_
_atom_site_type_symbol
_atom_site_label
_atom_site_fract_x
_atom_site_fract_y
_atom_site_fract_z
Si Si1 0.638691 0.034449 0.684034
Si Si2 0.759429 0.070274 0.691884
Si Si3 0.520079 0.819382 0.256268
Si Si4 0.883060 0.874985 0.423394
Si Si5 0.159548 0.493116 0.845631
Si Si6 0.928432 0.418541 0.571285
Si Si7 0.396938 0.406776 0.615888
Si Si8 0.277768 0.575308 0.829148
O O1 0.624006 0.844647 0.499930
O O2 0.692056 0.963815 0.719857
O O3 0.676450 0.313432 0.493766
O O4 0.569209 0.002815 0.969784
O O5 0.803022 0.305221 0.432783
O O6 0.805768 0.872458 0.621505
O O7 0.744076 0.201985 0.964494
O O8 0.451779 0.623643 0.350575
O O9 0.564717 0.647972 0.260946
O O10 0.500000 0.000000 0.500000
O O11 0.888617 0.760360 0.158165
O O12 0.907950 0.668576 0.513845
O O13 0.919079 0.173100 0.415296
O O14 0.212937 0.402548 0.867719
O O15 0.121201 0.653316 0.100596
O O16 0.000000 0.500000 0.500000
O O17 0.329616 0.475289 0.848865
#
# Coordination Sequence:
#
# PCOD9062416 Si02
#       8
#     2   2   2   2   2   2   2   2
#     4  11  24  40  68  99 134 181 237 297 373 434
#     4  11  24  46  71 108 144 192 240 310 370 446
#     4  11  25  44  62  90 137 183 237 296 367 437
#     4  12  25  50  75 113 153 198 254 305 367 447
#     4  11  25  46  78 106 152 195 246 308 380 432
#     4  12  29  50  78 113 157 201 250 307 368 444
#     4  11  24  41  65  95 133 184 234 301 361 442
#     4  11  24  45  70 104 142 180 240 302 370 438
#
# _framework density 25.319717000000001
#
# number of rings (size 3 to 8) (size 9 to 14) (size 15 to 20)
#    0.000    0.750    2.500    3.750    1.750   11.000 
#    0.000    0.000    0.000    0.000    0.000    0.000 
#    0.000    0.000    0.000    0.000    0.000    0.000 
#
# Total GULP energy -89593.713446 kJ/mol
# GULP energy per Si atom -5599.607090 kJ/mol
# Density = 2.526209 g / cm^3
# Si number density = 25.319717 Si / 1000 Ang^3
#
#
#
# Elastic Constant Matrix: (Units=GPa)
#
#
# Indices 1 2 3 4 5 6 
#
# 1 180.8563 36.8691 18.5312 -5.1214 -9.3136 3.5173
# 2 36.8691 82.8372 -4.4143 4.8740 2.6979 0.8123
# 3 18.5312 -4.4143 42.3551 -7.0938 -2.6236 -7.2125
# 4 -5.1214 4.8740 -7.0938 31.0302 -0.0624 3.9091
# 5 -9.3136 2.6979 -2.6236 -0.0624 32.0264 -1.9880
# 6 3.5173 0.8123 -7.2125 3.9091 -1.9880 54.8237
#
#
#
# Elastic Compliance Matrix: (Units=1/GPa)
#
#
# Indices 1 2 3 4 5 6 
#
# 1 0.006648 -0.003237 -0.003094 0.001001 0.001906 -0.000788
# 2 -0.003237 0.013830 0.002442 -0.002204 -0.001885 0.000413
# 3 -0.003094 0.002442 0.026675 0.004781 0.001299 0.003378
# 4 0.001001 -0.002204 0.004781 0.034060 0.000823 -0.001801
# 5 0.001906 -0.001885 0.001299 0.000823 0.032119 0.001183
# 6 -0.000788 0.000413 0.003378 -0.001801 0.001183 0.018900
#
#
# Mechanical properties :
#
#
# Convention : Reuss Voigt Hill
#
# Bulk Modulus (GPa) = 25.39781 45.33565 35.36673
# Shear Modulus (GPa) = 32.65103 40.58024 36.61564
#
# Velocity S-wave (km/s) = 3.59493 4.00773 3.80693
# Velocity P-wave (km/s) = 5.22340 6.27376 5.77252
#
# Compressibility (1/GPa) = 0.03937348
#
# Stress axis : x y z
#
# Youngs Moduli (GPa) = 150.42046 72.30780 37.48876
#
# Poissons Ratio (x) = 0.23406 0.11601
# Poissons Ratio (y) = 0.48692 -0.09155
# Poissons Ratio (z) = 0.46547 -0.17658
#
# Static dielectric constant tensor:
#      x y z
#    x 2.007280 -0.044540 0.026910 
#    y -0.044540 2.071690 -0.085260 
#    z 0.026910 -0.085260 2.024580 
# 
# From -- ./inp_files/121631.got.cif
#   From: 2010.05.17/outbox.cif.g08.bks.cpg/sg2_61_cif.got.tgz:121631.got - 2010.06.03 11:33:40.
