data_PCOD9062225
_publ_section_title
;
Structure prediction by ZEFSAII (Michael W. Deem and Ramdas Pophale) SiO2 
 PCOD9062225
Probable space group: P -1
;
_chemical_formula_sum "Si O2"
_cell_formula_units_Z 16
_cell_length_a 19.855360
_cell_length_b 10.810580
_cell_length_c 9.269331
_cell_angle_alpha 105.428095
_cell_angle_beta 105.428286
_cell_angle_gamma 22.669122
_cell_volume 738.061191
_symmetry_space_group_name_H-M "P -1"
_symmetry_group_IT_number 2
_symmetry_cell_setting 'triclinic'
loop_
_space_group_symop_operation_xyz
x,y,z
-x,-y,-z
loop_
_atom_site_type_symbol
_atom_site_label
_atom_site_fract_x
_atom_site_fract_y
_atom_site_fract_z
Si Si1 0.107275 0.758810 0.851255
Si Si2 0.924699 0.638975 0.835815
Si Si3 0.502197 0.359335 0.374804
Si Si4 0.639062 0.546985 0.307475
Si Si5 0.814177 0.288752 0.610080
Si Si6 0.173303 0.371697 0.674983
Si Si7 0.443118 0.616930 0.162386
Si Si8 0.257798 0.301623 0.378017
O O1 0.276226 0.554783 0.828254
O O2 0.173150 0.499436 0.816208
O O3 0.967367 0.997397 0.715769
O O4 0.000000 0.000000 0.000000
O O5 0.842531 0.639711 0.748986
O O6 0.046372 0.488743 0.728866
O O7 0.760826 0.010363 0.844371
O O8 0.000000 0.500000 0.000000
O O9 0.500000 0.500000 0.500000
O O10 0.341701 0.539776 0.374596
O O11 0.489949 0.416549 0.219963
O O12 0.668702 0.991691 0.379174
O O13 0.801041 0.278995 0.428967
O O14 0.553549 0.551542 0.262094
O O15 0.469673 0.918654 0.373347
O O16 0.775295 0.505597 0.653907
O O17 0.170690 0.438806 0.531546
O O18 0.500000 0.500000 0.000000
#
# Coordination Sequence:
#
# PCOD9062225 Si02
#       8
#     2   2   2   2   2   2   2   2
#     4  12  30  47  70 111 153 193 243 308 374 441
#     4  11  26  46  70 111 154 191 241 305 377 439
#     4  12  24  46  77 109 141 188 249 306 365 438
#     4  11  23  48  74 102 143 191 246 305 365 437
#     4  12  24  46  75 104 144 190 249 305 369 438
#     4  12  25  47  75 105 151 187 248 305 366 437
#     4  11  25  45  70 103 148 196 239 294 365 443
#     4  11  24  47  75 107 142 192 252 303 369 438
#
# _framework density 21.678417
#
# number of rings (size 3 to 8) (size 9 to 14) (size 15 to 20)
#    0.000    0.500    3.750    4.125    5.250    2.000 
#    0.000    1.250    0.000    0.000    0.000    0.000 
#    0.000    0.000    0.000    0.000    0.000    0.000 
#
# Total GULP energy -89185.992097 kJ/mol
# GULP energy per Si atom -5574.124506 kJ/mol
# Density = 2.162908 g / cm^3
# Si number density = 21.678417 Si / 1000 Ang^3
#
#
#
# Elastic Constant Matrix: (Units=GPa)
#
#
# Indices 1 2 3 4 5 6 
#
# 1 122.7454 38.0003 15.7161 9.6968 -19.4192 3.1507
# 2 38.0003 75.5737 35.9112 6.6790 4.9091 -6.7556
# 3 15.7161 35.9112 93.2024 8.0673 -10.6013 -1.9928
# 4 9.6968 6.6790 8.0673 31.1133 -1.0406 -7.2724
# 5 -19.4192 4.9091 -10.6013 -1.0406 28.6412 11.0382
# 6 3.1507 -6.7556 -1.9928 -7.2724 11.0382 48.9641
#
#
#
# Elastic Compliance Matrix: (Units=1/GPa)
#
#
# Indices 1 2 3 4 5 6 
#
# 1 0.013197 -0.009149 0.003065 -0.003804 0.013685 -0.005637
# 2 -0.009149 0.024009 -0.009565 0.001367 -0.016691 0.007478
# 3 0.003065 -0.009565 0.015333 -0.003412 0.010742 -0.003821
# 4 -0.003804 0.001367 -0.003412 0.035316 -0.005397 0.006756
# 5 0.013685 -0.016691 0.010742 -0.005397 0.057168 -0.016435
# 6 -0.005637 0.007478 -0.003821 0.006756 -0.016435 0.026371
#
#
# Mechanical properties :
#
#
# Convention : Reuss Voigt Hill
#
# Bulk Modulus (GPa) = 47.07684 52.30851 49.69268
# Shear Modulus (GPa) = 23.83532 35.20333 29.51932
#
# Velocity S-wave (km/s) = 3.31946 4.03412 3.69411
# Velocity P-wave (km/s) = 6.03779 6.77352 6.41621
#
# Compressibility (1/GPa) = 0.02124187
#
# Stress axis : x y z
#
# Youngs Moduli (GPa) = 75.77467 41.65040 65.21707
#
# Poissons Ratio (x) = 0.38105 -0.19989
# Poissons Ratio (y) = 0.69325 0.62381
# Poissons Ratio (z) = -0.23225 0.39839
#
# Static dielectric constant tensor:
#      x y z
#    x 1.568530 0.477140 0.268000 
#    y 0.477140 -0.337120 -1.298880 
#    z 0.268000 -1.298880 1.025060 
# 
# From -- ./inp_files/346242.got.cif
#   From: 2010.05.17/outbox.cif.g08.bks.cpg/sg2_174_cif.got.tgz:346242.got - 2010.06.03 11:33:40.
