data_PCOD9062638
_publ_section_title
;
Structure prediction by ZEFSAII (Michael W. Deem and Ramdas Pophale) SiO2 
 PCOD9062638
Probable space group: P -1
;
_chemical_formula_sum "Si O2"
_cell_formula_units_Z 16
_cell_length_a 11.958180
_cell_length_b 6.116943
_cell_length_c 22.752783
_cell_angle_alpha 107.160714
_cell_angle_beta 30.593481
_cell_angle_gamma 119.911663
_cell_volume 699.414524
_symmetry_space_group_name_H-M "P -1"
_symmetry_group_IT_number 2
_symmetry_cell_setting 'triclinic'
loop_
_space_group_symop_operation_xyz
x,y,z
-x,-y,-z
loop_
_atom_site_type_symbol
_atom_site_label
_atom_site_fract_x
_atom_site_fract_y
_atom_site_fract_z
Si Si1 0.180613 0.146415 0.663484
Si Si2 0.152066 0.915191 0.467980
Si Si3 0.357447 0.578913 0.289364
Si Si4 0.688188 0.584727 0.496700
Si Si5 0.679494 0.377650 0.913798
Si Si6 0.070888 0.436073 0.302881
Si Si7 0.805638 0.141904 0.929406
Si Si8 0.071596 0.257648 0.941980
O O1 0.440262 0.300306 0.594767
O O2 0.243088 0.347811 0.597460
O O3 0.953000 0.091779 0.805582
O O4 0.108318 0.877257 0.642128
O O5 0.324718 0.812495 0.351193
O O6 0.911039 0.681431 0.592925
O O7 0.326639 0.177292 0.447917
O O8 0.000000 0.000000 0.500000
O O9 0.336820 0.556689 0.226067
O O10 0.621043 0.600945 0.190590
O O11 0.928184 0.569118 0.409666
O O12 0.885894 0.505157 0.780630
O O13 0.796556 0.394091 0.926489
O O14 0.500000 0.500000 0.000000
O O15 0.490102 0.078062 0.954249
O O16 0.936415 0.147047 0.931413
O O17 0.000000 0.500000 0.000000
O O18 0.000000 0.000000 0.000000
#
# Coordination Sequence:
#
# PCOD9062638 Si02
#       8
#     2   2   2   2   2   2   2   2
#     4  11  24  42  65 107 142 188 234 308 382 445
#     4  11  24  45  73 105 144 200 260 311 382 457
#     4  11  27  45  75 109 146 204 254 324 378 461
#     4  11  24  43  67 104 149 187 240 308 379 455
#     4  11  24  43  74 105 138 190 245 315 380 456
#     4  12  22  43  73 104 146 185 252 304 383 449
#     4  11  26  46  73 106 145 192 251 309 386 454
#     4  12  32  53  78 115 157 208 261 319 387 464
#
# _framework density 22.876275
#
# number of rings (size 3 to 8) (size 9 to 14) (size 15 to 20)
#    0.000    0.750    5.000    1.125    7.000    1.000 
#    4.500    0.000    0.000    0.000    0.000    0.000 
#    0.000    0.000    0.000    0.000    0.000    0.000 
#
# Total GULP energy -89109.699388 kJ/mol
# GULP energy per Si atom -5569.356212 kJ/mol
# Density = 2.282421 g / cm^3
# Si number density = 22.876275 Si / 1000 Ang^3
#
#
#
# Elastic Constant Matrix: (Units=GPa)
#
#
# Indices 1 2 3 4 5 6 
#
# 1 139.7122 36.4788 24.8728 -0.9370 -12.8887 -11.4549
# 2 36.4788 86.6310 54.2536 28.6891 -7.9526 1.2370
# 3 24.8728 54.2536 80.8050 7.2898 -16.7308 -7.3932
# 4 -0.9370 28.6891 7.2898 33.4240 -1.8647 -1.8097
# 5 -12.8887 -7.9526 -16.7308 -1.8647 34.0799 -4.0992
# 6 -11.4549 1.2370 -7.3932 -1.8097 -4.0992 33.5620
#
#
#
# Elastic Compliance Matrix: (Units=1/GPa)
#
#
# Indices 1 2 3 4 5 6 
#
# 1 0.009540 -0.007959 0.003140 0.006931 0.004290 0.005139
# 2 -0.007959 0.039255 -0.024154 -0.029799 -0.008801 -0.012166
# 3 0.003140 -0.024154 0.029764 0.015605 0.012324 0.010865
# 4 0.006931 -0.029799 0.015605 0.053287 0.007530 0.010695
# 5 0.004290 -0.008801 0.012324 0.007530 0.036500 0.009367
# 6 0.005139 -0.012166 0.010865 0.010695 0.009367 0.036112
#
#
# Mechanical properties :
#
#
# Convention : Reuss Voigt Hill
#
# Bulk Modulus (GPa) = 48.50917 59.81762 54.16340
# Shear Modulus (GPa) = 18.56831 32.98271 25.77551
#
# Velocity S-wave (km/s) = 2.85210 3.80121 3.36033
# Velocity P-wave (km/s) = 5.66542 6.74319 6.22767
#
# Compressibility (1/GPa) = 0.02061466
#
# Stress axis : x y z
#
# Youngs Moduli (GPa) = 104.82051 25.47414 33.59732
#
# Poissons Ratio (x) = 0.20274 -0.10550
# Poissons Ratio (y) = 0.83424 0.81151
# Poissons Ratio (z) = -0.32915 0.61530
#
# Static dielectric constant tensor:
#      x y z
#    x 2.070760 -0.137280 -0.021690 
#    y -0.137280 2.005700 -0.017630 
#    z -0.021690 -0.017630 1.862110 
# 
# From -- ./inp_files/609211.got.cif
#   From: 2010.05.17/outbox.cif.g08.bks.cpg/sg2_305_cif.got.tgz:609211.got - 2010.06.03 11:33:40.
