data_PCOD9062566
_publ_section_title
;
Structure prediction by ZEFSAII (Michael W. Deem and Ramdas Pophale) SiO2 
 PCOD9062566
Probable space group: P -1
;
_chemical_formula_sum "Si O2"
_cell_formula_units_Z 14
_cell_length_a 10.510340
_cell_length_b 19.365710
_cell_length_c 8.209566
_cell_angle_alpha 32.396670
_cell_angle_beta 44.396723
_cell_angle_gamma 38.213134
_cell_volume 547.186251
_symmetry_space_group_name_H-M "P -1"
_symmetry_group_IT_number 2
_symmetry_cell_setting 'triclinic'
loop_
_space_group_symop_operation_xyz
x,y,z
-x,-y,-z
loop_
_atom_site_type_symbol
_atom_site_label
_atom_site_fract_x
_atom_site_fract_y
_atom_site_fract_z
Si Si1 0.197552 0.927292 0.132964
Si Si2 0.773645 0.631194 0.697135
Si Si3 0.507783 0.510779 0.278475
Si Si4 0.933351 0.249786 0.864781
Si Si5 0.099969 0.161489 0.254741
Si Si6 0.572895 0.097515 0.343453
Si Si7 0.390007 0.278006 0.698797
O O1 0.397671 0.875236 0.170247
O O2 0.072456 0.842875 0.464647
O O3 0.285246 0.882328 0.961236
O O4 0.057201 0.101716 0.941288
O O5 0.991058 0.632530 0.491777
O O6 0.627688 0.756497 0.708145
O O7 0.684735 0.680939 0.498115
O O8 0.725365 0.499606 0.045534
O O9 0.500000 0.500000 0.500000
O O10 0.454821 0.392947 0.481451
O O11 0.314961 0.668332 0.084957
O O12 0.006880 0.198311 0.085237
O O13 0.291751 0.996396 0.439700
O O14 0.205119 0.264123 0.985943
O O15 0.500000 0.000000 0.500000
#
# Coordination Sequence:
#
# PCOD9062566 Si02
#       7
#     2   2   2   2   2   2   2
#     4  12  23  42  73 107 145 182 233 290 353 413
#     4  11  24  46  72 101 145 188 234 288 352 424
#     4  12  28  47  70 103 144 185 238 294 356 418
#     4  11  25  46  73 105 139 187 237 289 352 428
#     4  11  24  41  70 104 144 182 235 284 354 419
#     4  12  22  41  69 108 151 176 228 295 355 404
#     4  11  25  46  72 104 144 189 233 291 350 421
#
# _framework density 25.585436999999999
#
# number of rings (size 3 to 8) (size 9 to 14) (size 15 to 20)
#    0.000    0.571    2.857    4.714    0.000    7.429 
#    0.000    0.000    0.000    0.000    0.000    0.000 
#    0.000    0.000    0.000    0.000    0.000    0.000 
#
# Total GULP energy -78463.932365 kJ/mol
# GULP energy per Si atom -5604.566598 kJ/mol
# Density = 2.552720 g / cm^3
# Si number density = 25.585437 Si / 1000 Ang^3
#
#
#
# Elastic Constant Matrix: (Units=GPa)
#
#
# Indices 1 2 3 4 5 6 
#
# 1 72.0043 5.1378 20.6351 6.4567 -9.9451 0.3642
# 2 5.1378 60.0567 29.1395 2.0704 -17.0128 0.9161
# 3 20.6351 29.1395 176.6901 35.0408 -36.3811 0.3291
# 4 6.4567 2.0704 35.0408 40.2389 -9.2714 -2.0542
# 5 -9.9451 -17.0128 -36.3811 -9.2714 55.8086 1.0133
# 6 0.3642 0.9161 0.3291 -2.0542 1.0133 40.1562
#
#
#
# Elastic Compliance Matrix: (Units=1/GPa)
#
#
# Indices 1 2 3 4 5 6 
#
# 1 0.014541 -0.000192 -0.001138 -0.000967 0.001634 -0.000209
# 2 -0.000192 0.019161 -0.002695 0.002398 0.004456 -0.000403
# 3 -0.001138 -0.002695 0.008100 -0.005999 0.003266 -0.000384
# 4 -0.000967 0.002398 -0.005999 0.030577 0.001700 0.001525
# 5 0.001634 0.004456 0.003266 0.001700 0.021991 -0.000611
# 6 -0.000209 -0.000403 -0.000384 0.001525 -0.000611 0.025010
#
#
# Mechanical properties :
#
#
# Convention : Reuss Voigt Hill
#
# Bulk Modulus (GPa) = 29.62843 46.50846 38.06845
# Shear Modulus (GPa) = 36.05396 44.16332 40.10864
#
# Velocity S-wave (km/s) = 3.75795 4.15916 3.96363
# Velocity P-wave (km/s) = 5.51678 6.42510 5.98819
#
# Compressibility (1/GPa) = 0.03375137
#
# Stress axis : x y z
#
# Youngs Moduli (GPa) = 68.76950 52.19052 123.45679
#
# Poissons Ratio (x) = 0.01005 0.14049
# Poissons Ratio (y) = 0.01324 0.33269
# Poissons Ratio (z) = 0.07826 0.14064
#
# Static dielectric constant tensor:
#      x y z
#    x 1.974880 -0.028570 -0.037300 
#    y -0.028570 2.000250 -0.057980 
#    z -0.037300 -0.057980 2.068460 
# 
# From -- ./inp_files/281367.got.cif
#   From: 2010.05.17/outbox.cif.g08.bks.cpg/sg2_141_cif.got.tgz:281367.got - 2010.06.03 11:33:40.
