data_PCOD9062961
_publ_section_title
;
Structure prediction by ZEFSAII (Michael W. Deem and Ramdas Pophale) SiO2 
 PCOD9062961
Probable space group: P -1
;
_chemical_formula_sum "Si O2"
_cell_formula_units_Z 14
_cell_length_a 12.379403
_cell_length_b 18.573877
_cell_length_c 9.244804
_cell_angle_alpha 137.980306
_cell_angle_beta 39.102025
_cell_angle_gamma 151.747386
_cell_volume 621.962326
_symmetry_space_group_name_H-M "P -1"
_symmetry_group_IT_number 2
_symmetry_cell_setting 'triclinic'
loop_
_space_group_symop_operation_xyz
x,y,z
-x,-y,-z
loop_
_atom_site_type_symbol
_atom_site_label
_atom_site_fract_x
_atom_site_fract_y
_atom_site_fract_z
Si Si1 0.762816 0.831160 0.556051
Si Si2 0.651522 0.173578 0.050713
Si Si3 0.208942 0.236356 0.243382
Si Si4 0.963291 0.486226 0.348386
Si Si5 0.493696 0.816623 0.257238
Si Si6 0.309548 0.917724 0.409205
Si Si7 0.533567 0.467980 0.753904
O O1 0.544146 0.820821 0.773906
O O2 0.791281 0.794468 0.632539
O O3 0.692440 0.706126 0.328242
O O4 0.000000 0.000000 0.500000
O O5 0.853867 0.324809 0.163613
O O6 0.779806 0.182999 0.790387
O O7 0.500000 0.000000 0.000000
O O8 0.408503 0.413177 0.245164
O O9 0.940793 0.161083 0.368225
O O10 0.286664 0.165157 0.970401
O O11 0.766548 0.492287 0.537646
O O12 0.000000 0.500000 0.500000
O O13 0.234322 0.639749 0.239305
O O14 0.482957 0.908739 0.291712
O O15 0.535916 0.900527 0.489267
O O16 0.500000 0.500000 0.000000
#
# Coordination Sequence:
#
# PCOD9062961 Si02
#       7
#     2   2   2   2   2   2   2
#     4  11  26  45  70 103 142 184 236 290 351 418
#     4  11  24  44  68  99 138 183 231 288 348 416
#     4  12  24  46  74 106 138 188 234 288 350 420
#     4  11  24  44  68  99 138 183 231 288 348 416
#     4  11  24  43  68 100 136 179 227 282 343 411
#     4  11  24  43  68 100 136 179 227 282 343 411
#     4  11  26  45  70 103 142 184 236 290 351 418
#
# _framework density 22.509402000000001
#
# number of rings (size 3 to 8) (size 9 to 14) (size 15 to 20)
#    0.000    0.857    2.857    3.429    0.000   12.000 
#    0.000    0.000    0.000    0.000    0.000    0.000 
#    0.000    0.000    0.000    0.000    0.000    0.000 
#
# Total GULP energy -78188.561108 kJ/mol
# GULP energy per Si atom -5584.897222 kJ/mol
# Density = 2.245817 g / cm^3
# Si number density = 22.509402 Si / 1000 Ang^3
#
#
#
# Elastic Constant Matrix: (Units=GPa)
#
#
# Indices 1 2 3 4 5 6 
#
# 1 77.4951 39.5942 37.6899 17.8734 0.0375 -7.7545
# 2 39.5942 163.3807 71.0319 32.0044 12.1659 5.2279
# 3 37.6899 71.0319 157.0219 31.9890 -0.3454 7.6721
# 4 17.8734 32.0044 31.9890 46.0093 12.0199 0.7923
# 5 0.0375 12.1659 -0.3454 12.0199 43.1379 0.3447
# 6 -7.7545 5.2279 7.6721 0.7923 0.3447 36.2922
#
#
#
# Elastic Compliance Matrix: (Units=1/GPa)
#
#
# Indices 1 2 3 4 5 6 
#
# 1 0.016618 -0.002594 -0.002305 -0.003557 0.001654 0.004474
# 2 -0.002594 0.008593 -0.002672 -0.002649 -0.001695 -0.001153
# 3 -0.002305 -0.002672 0.009049 -0.004016 0.001963 -0.001951
# 4 -0.003557 -0.002649 -0.004016 0.029730 -0.007565 -0.000107
# 5 0.001654 -0.001695 0.001963 -0.007565 0.025781 0.000103
# 6 0.004474 -0.001153 -0.001951 -0.000107 0.000103 0.029090
#
#
# Mechanical properties :
#
#
# Convention : Reuss Voigt Hill
#
# Bulk Modulus (GPa) = 52.31333 77.16995 64.74164
# Shear Modulus (GPa) = 35.61835 41.72665 38.67250
#
# Velocity S-wave (km/s) = 3.98223 4.31018 4.14945
# Velocity P-wave (km/s) = 6.66598 7.68948 7.19595
#
# Compressibility (1/GPa) = 0.01911559
#
# Stress axis : x y z
#
# Youngs Moduli (GPa) = 60.17491 116.36978 110.51454
#
# Poissons Ratio (x) = 0.30192 0.25479
# Poissons Ratio (y) = 0.15612 0.29533
# Poissons Ratio (z) = 0.13873 0.31098
#
# Static dielectric constant tensor:
#      x y z
#    x 1.924670 0.004320 0.044120 
#    y 0.004320 1.863770 0.021140 
#    z 0.044120 0.021140 1.890530 
# 
# From -- ./inp_files/278481.got.cif
#   From: 2010.05.17/outbox.cif.g08.bks.cpg/sg2_140_cif.got.tgz:278481.got - 2010.06.03 11:33:40.
