data_PCOD9062177
_publ_section_title
;
Structure prediction by ZEFSAII (Michael W. Deem and Ramdas Pophale) SiO2 
 PCOD9062177
Probable space group: P -1
;
_chemical_formula_sum "Si O2"
_cell_formula_units_Z 15
_cell_length_a 10.988136
_cell_length_b 6.944646
_cell_length_c 15.423733
_cell_angle_alpha 49.330935
_cell_angle_beta 39.779017
_cell_angle_gamma 57.249047
_cell_volume 569.223917
_symmetry_space_group_name_H-M "P -1"
_symmetry_group_IT_number 2
_symmetry_cell_setting 'triclinic'
loop_
_space_group_symop_operation_xyz
x,y,z
-x,-y,-z
loop_
_atom_site_type_symbol
_atom_site_label
_atom_site_fract_x
_atom_site_fract_y
_atom_site_fract_z
Si Si1 0.905563 0.623016 0.342136
Si Si2 0.248100 0.237902 0.429856
Si Si3 0.734487 0.590861 0.132587
Si Si4 0.914553 0.119374 0.099907
Si Si5 0.310969 0.665954 0.583216
Si Si6 0.332168 0.674436 0.140166
Si Si7 0.378688 0.991844 0.184289
Si Si8 0.000000 0.000000 0.500000
O O1 0.812355 0.631976 0.484421
O O2 0.851323 0.378003 0.388635
O O3 0.131642 0.644100 0.212185
O O4 0.825360 0.884133 0.263333
O O5 0.363899 0.423315 0.254951
O O6 0.346020 0.959892 0.479300
O O7 0.059160 0.178510 0.498457
O O8 0.771505 0.373373 0.103291
O O9 0.751561 0.438727 0.259500
O O10 0.538030 0.765102 0.189125
O O11 0.903821 0.777727 0.980519
O O12 0.000000 0.000000 0.000000
O O13 0.500000 0.500000 0.500000
O O14 0.302225 0.908372 0.157174
O O15 0.493412 0.242015 0.036236
O O16 0.213327 0.026808 0.333374
#
# Coordination Sequence:
#
# PCOD9062177 Si02
#       8
#     2   2   2   2   2   2   2   1
#     4  12  24  48  79 113 166 216 273 342 417 492
#     4  12  27  48  78 115 160 220 269 341 409 492
#     4  11  24  46  77 117 161 207 267 345 408 497
#     4  11  23  47  79 116 162 212 269 338 423 485
#     4  12  28  46  77 116 159 213 278 339 413 495
#     4  11  26  50  79 112 161 217 272 338 414 493
#     4  11  26  50  81 121 163 213 281 344 411 498
#     4  12  26  50  82 116 166 216 278 346 410 484
#
# _framework density 26.351666000000002
#
# number of rings (size 3 to 8) (size 9 to 14) (size 15 to 20)
#    0.000    0.533    5.333    2.000    3.733    2.133 
#    2.400    0.000    0.000    0.000    0.000    0.000 
#    0.000    0.000    0.000    0.000    0.000    0.000 
#
# Total GULP energy -83978.913347 kJ/mol
# GULP energy per Si atom -5598.594223 kJ/mol
# Density = 2.629169 g / cm^3
# Si number density = 26.351666 Si / 1000 Ang^3
#
#
#
# Elastic Constant Matrix: (Units=GPa)
#
#
# Indices 1 2 3 4 5 6 
#
# 1 92.6796 35.5088 48.6287 4.4460 -8.5474 5.4665
# 2 35.5088 194.2727 85.5106 -7.7261 3.3685 -2.7956
# 3 48.6287 85.5106 216.8798 -2.5722 0.3690 -13.1683
# 4 4.4460 -7.7261 -2.5722 59.6271 -2.0044 -2.8647
# 5 -8.5474 3.3685 0.3690 -2.0044 52.1566 1.9572
# 6 5.4665 -2.7956 -13.1683 -2.8647 1.9572 36.6258
#
#
#
# Elastic Compliance Matrix: (Units=1/GPa)
#
#
# Indices 1 2 3 4 5 6 
#
# 1 0.013171 -0.001395 -0.002620 -0.001353 0.002337 -0.003245
# 2 -0.001395 0.006416 -0.002206 0.000820 -0.000596 0.000001
# 3 -0.002620 -0.002206 0.006224 0.000284 -0.000414 0.002505
# 4 -0.001353 0.000820 0.000284 0.017082 0.000316 0.001686
# 5 0.002337 -0.000596 -0.000414 0.000316 0.019668 -0.001569
# 6 -0.003245 0.000001 0.002505 0.001686 -0.001569 0.028904
#
#
# Mechanical properties :
#
#
# Convention : Reuss Voigt Hill
#
# Bulk Modulus (GPa) = 74.80132 93.68094 84.24113
# Shear Modulus (GPa) = 46.14009 51.96084 49.05047
#
# Velocity S-wave (km/s) = 4.18896 4.44534 4.31905
# Velocity P-wave (km/s) = 7.20027 7.87245 7.54385
#
# Compressibility (1/GPa) = 0.01336875
#
# Stress axis : x y z
#
# Youngs Moduli (GPa) = 75.92418 155.84904 160.65808
#
# Poissons Ratio (x) = 0.21743 0.42096
# Poissons Ratio (y) = 0.10592 0.35445
# Poissons Ratio (z) = 0.19894 0.34384
#
# Static dielectric constant tensor:
#      x y z
#    x 3.228870 -1.492150 0.757810 
#    y -1.492150 4.016560 -1.013820 
#    z 0.757810 -1.013820 2.439000 
# 
# From -- ./inp_files/563995.got.cif
#   From: 2010.05.17/outbox.cif.g08.bks.cpg/sg2_282_cif.got.tgz:563995.got - 2010.06.03 11:33:40.
