data_PCOD9062630
_publ_section_title
;
Structure prediction by ZEFSAII (Michael W. Deem and Ramdas Pophale) SiO2 
 PCOD9062630
Probable space group: P -1
;
_chemical_formula_sum "Si O2"
_cell_formula_units_Z 15
_cell_length_a 12.669775
_cell_length_b 5.442947
_cell_length_c 9.656455
_cell_angle_alpha 73.598018
_cell_angle_beta 80.648722
_cell_angle_gamma 78.382140
_cell_volume 621.764553
_symmetry_space_group_name_H-M "P -1"
_symmetry_group_IT_number 2
_symmetry_cell_setting 'triclinic'
loop_
_space_group_symop_operation_xyz
x,y,z
-x,-y,-z
loop_
_atom_site_type_symbol
_atom_site_label
_atom_site_fract_x
_atom_site_fract_y
_atom_site_fract_z
Si Si1 0.000000 0.500000 0.500000
Si Si2 0.612978 0.607599 0.291021
Si Si3 0.928866 0.185353 0.366808
Si Si4 0.721547 0.716817 0.966758
Si Si5 0.701603 0.004781 0.418131
Si Si6 0.809051 0.420484 0.724860
Si Si7 0.363971 0.861288 0.299970
Si Si8 0.062094 0.096591 0.097773
O O1 0.909364 0.447981 0.414801
O O2 0.899854 0.577482 0.624852
O O3 0.636005 0.299475 0.364721
O O4 0.485819 0.719712 0.307989
O O5 0.668862 0.795863 0.351182
O O6 0.655275 0.634914 0.121378
O O7 0.825983 0.050032 0.377411
O O8 0.000000 0.000000 0.500000
O O9 0.978718 0.246462 0.200100
O O10 0.753929 0.516531 0.866157
O O11 0.657518 0.970690 0.862521
O O12 0.837403 0.771070 0.988070
O O13 0.671851 0.949607 0.592484
O O14 0.717520 0.346970 0.655127
O O15 0.885968 0.146369 0.780934
O O16 0.000000 0.000000 0.000000
#
# Coordination Sequence:
#
# PCOD9062630 Si02
#       8
#     1   2   2   2   2   2   2   2
#     4  12  22  42  68 104 136 188 242 300 352 436
#     4  12  30  50  75 112 154 195 251 318 380 433
#     4  12  24  42  70 102 142 192 244 298 362 446
#     4  11  26  46  74 105 146 198 252 305 372 454
#     4  12  29  49  77 112 152 195 252 313 380 440
#     4  11  25  42  74 104 144 190 255 299 371 449
#     4  11  26  49  77 104 145 202 254 311 367 452
#     4  11  24  42  64 102 148 185 237 299 378 440
#
# _framework density 24.124887999999999
#
# number of rings (size 3 to 8) (size 9 to 14) (size 15 to 20)
#    0.000    0.533    4.000    2.800   11.200    2.133 
#    0.000    0.000    0.000    0.000    0.000    0.000 
#    0.000    0.000    0.000    0.000    0.000    0.000 
#
# Total GULP energy -83688.843697 kJ/mol
# GULP energy per Si atom -5579.256246 kJ/mol
# Density = 2.406998 g / cm^3
# Si number density = 24.124888 Si / 1000 Ang^3
#
#
#
# Elastic Constant Matrix: (Units=GPa)
#
#
# Indices 1 2 3 4 5 6 
#
# 1 125.8384 9.1153 33.6208 1.8331 10.9802 2.9278
# 2 9.1153 75.5551 23.4821 15.7338 14.8058 11.6286
# 3 33.6208 23.4821 112.1334 15.9298 -4.2145 11.9472
# 4 1.8331 15.7338 15.9298 36.7317 6.1194 9.3910
# 5 10.9802 14.8058 -4.2145 6.1194 38.1054 5.7489
# 6 2.9278 11.6286 11.9472 9.3910 5.7489 25.8676
#
#
#
# Elastic Compliance Matrix: (Units=1/GPa)
#
#
# Indices 1 2 3 4 5 6 
#
# 1 0.009019 0.000174 -0.003103 0.001210 -0.003299 0.000628
# 2 0.000174 0.016561 -0.002785 -0.004077 -0.005618 -0.003450
# 3 -0.003103 -0.002785 0.011447 -0.003470 0.004310 -0.003382
# 4 0.001210 -0.004077 -0.003470 0.032990 -0.003246 -0.007957
# 5 -0.003299 -0.005618 0.004310 -0.003246 0.031102 -0.004826
# 6 0.000628 -0.003450 -0.003382 -0.007957 -0.004826 0.045661
#
#
# Mechanical properties :
#
#
# Convention : Reuss Voigt Hill
#
# Bulk Modulus (GPa) = 39.06474 49.55146 44.30810
# Shear Modulus (GPa) = 29.98674 36.62820 33.30747
#
# Velocity S-wave (km/s) = 3.52942 3.90073 3.71971
# Velocity P-wave (km/s) = 5.73035 6.39310 6.07078
#
# Compressibility (1/GPa) = 0.02559854
#
# Stress axis : x y z
#
# Youngs Moduli (GPa) = 110.87907 60.38449 87.36054
#
# Poissons Ratio (x) = -0.01052 0.27112
# Poissons Ratio (y) = -0.01932 0.24327
# Poissons Ratio (z) = 0.34410 0.16815
#
# Static dielectric constant tensor:
#      x y z
#    x 1.964920 0.024760 -0.003930 
#    y 0.024760 2.223260 -0.054780 
#    z -0.003930 -0.054780 1.931800 
# 
# From -- ./inp_files/229552.got.cif
#   From: 2010.05.17/outbox.cif.g08.bks.cpg/sg2_115_cif.got.tgz:229552.got - 2010.06.03 11:33:40.
