data_PCOD9062499
_publ_section_title
;
Structure prediction by ZEFSAII (Michael W. Deem and Ramdas Pophale) SiO2 
 PCOD9062499
Probable space group: P -1
;
_chemical_formula_sum "Si O2"
_cell_formula_units_Z 12
_cell_length_a 11.367214
_cell_length_b 8.672384
_cell_length_c 6.043752
_cell_angle_alpha 82.375383
_cell_angle_beta 78.342170
_cell_angle_gamma 67.990465
_cell_volume 539.917416
_symmetry_space_group_name_H-M "P -1"
_symmetry_group_IT_number 2
_symmetry_cell_setting 'triclinic'
loop_
_space_group_symop_operation_xyz
x,y,z
-x,-y,-z
loop_
_atom_site_type_symbol
_atom_site_label
_atom_site_fract_x
_atom_site_fract_y
_atom_site_fract_z
Si Si1 0.374780 0.962526 0.990444
Si Si2 0.476195 0.359428 0.251487
Si Si3 0.845824 0.889312 0.599249
Si Si4 0.291727 0.255838 0.634902
Si Si5 0.699050 0.463678 0.105745
Si Si6 0.924801 0.127432 0.194542
O O1 0.316612 0.083813 0.784955
O O2 0.429054 0.773348 0.929560
O O3 0.273627 0.011480 0.216810
O O4 0.500000 0.000000 0.000000
O O5 0.419171 0.262796 0.463973
O O6 0.572240 0.449872 0.276503
O O7 0.354412 0.473047 0.130915
O O8 0.811965 0.746881 0.508696
O O9 0.972217 0.820219 0.715831
O O10 0.868500 0.023319 0.400421
O O11 0.259498 0.401117 0.802007
O O12 0.814308 0.287681 0.107327
O O13 0.000000 0.000000 0.000000
#
# Coordination Sequence:
#
# PCOD9062499 Si02
#       6
#     2   2   2   2   2   2
#     4  12  23  42  70 102 136 175 222 272 333 399
#     4  11  24  41  66 102 140 177 221 271 337 398
#     4  11  25  44  71 100 129 181 229 271 334 397
#     4  12  23  41  66 103 137 173 220 280 333 395
#     4  11  25  41  65  99 137 175 223 280 335 391
#     4  11  26  49  71  93 133 182 229 277 329 402
#
# _framework density 22.225622999999999
#
# number of rings (size 3 to 8) (size 9 to 14) (size 15 to 20)
#    0.000    0.667    3.333    4.000    2.333    6.000 
#    0.000    5.833    0.000    0.000    0.000    0.000 
#    0.000    0.000    0.000    0.000    0.000    0.000 
#
# Total GULP energy -67121.418540 kJ/mol
# GULP energy per Si atom -5593.451545 kJ/mol
# Density = 2.217504 g / cm^3
# Si number density = 22.225623 Si / 1000 Ang^3
#
#
#
# Elastic Constant Matrix: (Units=GPa)
#
#
# Indices 1 2 3 4 5 6 
#
# 1 125.6622 32.1369 50.8877 1.1859 16.3299 0.9945
# 2 32.1369 98.7949 36.9503 -10.5572 24.4232 -18.2478
# 3 50.8877 36.9503 77.0612 -8.7815 1.0547 -15.8841
# 4 1.1859 -10.5572 -8.7815 22.1322 12.0321 12.8893
# 5 16.3299 24.4232 1.0547 12.0321 60.2539 5.8420
# 6 0.9945 -18.2478 -15.8841 12.8893 5.8420 39.7840
#
#
#
# Elastic Compliance Matrix: (Units=1/GPa)
#
#
# Indices 1 2 3 4 5 6 
#
# 1 0.011809 -0.001056 -0.008090 -0.001322 -0.002049 -0.003281
# 2 -0.001056 0.015908 -0.005132 0.007634 -0.007981 0.003972
# 3 -0.008090 -0.005132 0.022114 0.001863 0.002967 0.005638
# 4 -0.001322 0.007634 0.001863 0.066323 -0.014551 -0.015072
# 5 -0.002049 -0.007981 0.002967 -0.014551 0.023351 -0.001140
# 6 -0.003281 0.003972 0.005638 -0.015072 -0.001140 0.034341
#
#
# Mechanical properties :
#
#
# Convention : Reuss Voigt Hill
#
# Bulk Modulus (GPa) = 47.00834 60.16312 53.58573
# Shear Modulus (GPa) = 23.86693 36.53691 30.20192
#
# Velocity S-wave (km/s) = 3.28052 4.05891 3.69030
# Velocity P-wave (km/s) = 5.96200 7.00674 6.50538
#
# Compressibility (1/GPa) = 0.02127282
#
# Stress axis : x y z
#
# Youngs Moduli (GPa) = 84.68195 62.86293 45.22031
#
# Poissons Ratio (x) = 0.06640 0.36585
# Poissons Ratio (y) = 0.08944 0.23208
# Poissons Ratio (z) = 0.68512 0.32262
#
# Static dielectric constant tensor:
#      x y z
#    x 1.923420 0.119450 0.197340 
#    y 0.119450 1.891890 0.097280 
#    z 0.197340 0.097280 2.133880 
# 
# From -- ./inp_files/25179.got.cif
#   From: 2010.05.17/outbox.cif.g08.bks.cpg/sg2_13_cif.got.tgz:25179.got - 2010.06.03 11:33:40.
