data_PCOD9062459
_publ_section_title
;
Structure prediction by ZEFSAII (Michael W. Deem and Ramdas Pophale) SiO2 
 PCOD9062459
Probable space group: P -1
;
_chemical_formula_sum "Si O2"
_cell_formula_units_Z 14
_cell_length_a 15.635684
_cell_length_b 5.746030
_cell_length_c 21.650903
_cell_angle_alpha 84.079110
_cell_angle_beta 160.075513
_cell_angle_gamma 95.611846
_cell_volume 659.344465
_symmetry_space_group_name_H-M "P -1"
_symmetry_group_IT_number 2
_symmetry_cell_setting 'triclinic'
loop_
_space_group_symop_operation_xyz
x,y,z
-x,-y,-z
loop_
_atom_site_type_symbol
_atom_site_label
_atom_site_fract_x
_atom_site_fract_y
_atom_site_fract_z
Si Si1 0.437859 0.983511 0.384653
Si Si2 0.154091 0.485565 0.168991
Si Si3 0.351648 0.380703 0.957586
Si Si4 0.237317 0.679726 0.990359
Si Si5 0.197715 0.296655 0.626933
Si Si6 0.001611 0.005791 0.276734
Si Si7 0.178829 0.925692 0.715890
O O1 0.315499 0.240957 0.280646
O O2 0.500000 0.000000 0.500000
O O3 0.289690 0.738340 0.271956
O O4 0.703092 0.968560 0.529527
O O5 0.956973 0.430043 0.091148
O O6 0.000000 0.500000 0.000000
O O7 0.273268 0.525117 0.958784
O O8 0.500000 0.500000 0.000000
O O9 0.565403 0.196531 0.127583
O O10 0.095522 0.254055 0.768166
O O11 0.118755 0.912756 0.872523
O O12 0.520294 0.682687 0.207910
O O13 0.000000 0.500000 0.500000
O O14 0.054891 0.146251 0.482589
O O15 0.229130 0.188229 0.719917
O O16 0.885316 0.127464 0.255381
#
# Coordination Sequence:
#
# PCOD9062459 Si02
#       7
#     2   2   2   2   2   2   2
#     4  12  27  53  81 113 150 194 269 325 379 454
#     4  12  30  53  79 113 155 201 257 331 390 455
#     4  12  23  41  71 106 144 182 241 297 365 447
#     4  12  25  44  74  98 144 194 242 299 382 435
#     4  11  24  42  62  99 143 188 226 292 353 448
#     4  12  26  42  75 102 140 194 243 305 374 439
#     4  11  24  41  63 101 142 180 240 284 358 444
#
# _framework density 21.23321
#
# number of rings (size 3 to 8) (size 9 to 14) (size 15 to 20)
#    0.000    0.286    5.714    3.000    4.000    1.143 
#    0.000    0.000    0.000    0.000    0.000    0.000 
#    0.000    0.000    0.000    0.000    0.000    0.000 
#
# Total GULP energy -77970.991265 kJ/mol
# GULP energy per Si atom -5569.356519 kJ/mol
# Density = 2.118488 g / cm^3
# Si number density = 21.233210 Si / 1000 Ang^3
#
#
#
# Elastic Constant Matrix: (Units=GPa)
#
#
# Indices 1 2 3 4 5 6 
#
# 1 98.2445 26.8358 19.6840 22.8407 16.7134 14.7208
# 2 26.8358 104.4651 48.1460 6.0841 10.0720 7.6004
# 3 19.6840 48.1460 103.5301 21.0524 24.4987 11.1733
# 4 22.8407 6.0841 21.0524 55.1981 3.5132 0.4661
# 5 16.7134 10.0720 24.4987 3.5132 52.6838 4.3320
# 6 14.7208 7.6004 11.1733 0.4661 4.3320 32.5870
#
#
#
# Elastic Compliance Matrix: (Units=1/GPa)
#
#
# Indices 1 2 3 4 5 6 
#
# 1 0.013388 -0.003033 0.001375 -0.005462 -0.003509 -0.005267
# 2 -0.003033 0.012944 -0.006186 0.002109 0.001200 0.000283
# 3 0.001375 -0.006186 0.015047 -0.005239 -0.005612 -0.003517
# 4 -0.005462 0.002109 -0.005239 0.021986 0.002038 0.003186
# 5 -0.003509 0.001200 -0.005612 0.002038 0.022320 0.000233
# 6 -0.005267 0.000283 -0.003517 0.003186 0.000233 0.034130
#
#
# Mechanical properties :
#
#
# Convention : Reuss Voigt Hill
#
# Bulk Modulus (GPa) = 38.92607 55.06349 46.99478
# Shear Modulus (GPa) = 34.70628 42.19870 38.45249
#
# Velocity S-wave (km/s) = 4.04732 4.46285 4.26015
# Velocity P-wave (km/s) = 6.34141 7.24880 6.81023
#
# Compressibility (1/GPa) = 0.02568972
#
# Stress axis : x y z
#
# Youngs Moduli (GPa) = 74.69496 77.25796 66.45687
#
# Poissons Ratio (x) = 0.23432 -0.09135
# Poissons Ratio (y) = 0.22655 0.41111
# Poissons Ratio (z) = -0.10267 0.47792
#
# Static dielectric constant tensor:
#      x y z
#    x 1.804080 -0.071750 0.153260 
#    y -0.071750 2.021570 -0.100810 
#    z 0.153260 -0.100810 1.420680 
# 
# From -- ./inp_files/53022.got.cif
#   From: 2010.05.17/outbox.cif.g08.bks.cpg/sg2_27_cif.got.tgz:53022.got - 2010.06.03 11:33:40.
