data_PCOD9062928
_publ_section_title
;
Structure prediction by ZEFSAII (Michael W. Deem and Ramdas Pophale) SiO2 
 PCOD9062928
Probable space group: P -1
;
_chemical_formula_sum "Si O2"
_cell_formula_units_Z 14
_cell_length_a 9.524695
_cell_length_b 15.255534
_cell_length_c 12.891271
_cell_angle_alpha 27.048357
_cell_angle_beta 118.210589
_cell_angle_gamma 127.830115
_cell_volume 658.535050
_symmetry_space_group_name_H-M "P -1"
_symmetry_group_IT_number 2
_symmetry_cell_setting 'triclinic'
loop_
_space_group_symop_operation_xyz
x,y,z
-x,-y,-z
loop_
_atom_site_type_symbol
_atom_site_label
_atom_site_fract_x
_atom_site_fract_y
_atom_site_fract_z
Si Si1 0.189061 0.227241 0.803174
Si Si2 0.593498 0.910376 0.820250
Si Si3 0.025068 0.898283 0.722426
Si Si4 0.330762 0.346997 0.033780
Si Si5 0.732745 0.703758 0.484994
Si Si6 0.367949 0.641310 0.539582
Si Si7 0.188706 0.621433 0.005063
O O1 0.253777 0.280914 0.650261
O O2 0.200965 0.455300 0.609380
O O3 0.339301 0.191519 0.956616
O O4 0.000000 0.000000 0.000000
O O5 0.690242 0.881607 0.780658
O O6 0.383753 0.753384 0.879355
O O7 0.627979 0.141248 0.639050
O O8 0.837661 0.703695 0.899227
O O9 0.168392 0.813838 0.849365
O O10 0.000000 0.000000 0.500000
O O11 0.098477 0.074617 0.651130
O O12 0.500000 0.500000 0.000000
O O13 0.352912 0.498379 0.784977
O O14 0.549774 0.693001 0.481977
O O15 0.775841 0.525219 0.744111
O O16 0.000000 0.500000 0.000000
#
# Coordination Sequence:
#
# PCOD9062928 Si02
#       7
#     2   2   2   2   2   2   2
#     4  11  26  47  72 103 146 186 243 298 352 427
#     4  11  25  46  71 104 142 188 238 292 360 422
#     4  12  25  43  68 103 141 183 236 293 352 427
#     4  11  24  43  67 100 144 185 234 291 351 424
#     4  12  23  44  74 102 142 190 233 296 357 420
#     4  11  24  45  71 103 143 184 239 297 357 421
#     4  12  24  42  72 105 140 182 237 283 358 431
#
# _framework density 21.259308999999998
#
# number of rings (size 3 to 8) (size 9 to 14) (size 15 to 20)
#    0.000    0.571    5.714    3.857    0.000    5.143 
#    0.000    0.000    0.000    0.000    0.000    0.000 
#    0.000    0.000    0.000    0.000    0.000    0.000 
#
# Total GULP energy -77973.767220 kJ/mol
# GULP energy per Si atom -5569.554801 kJ/mol
# Density = 2.121092 g / cm^3
# Si number density = 21.259309 Si / 1000 Ang^3
#
#
#
# Elastic Constant Matrix: (Units=GPa)
#
#
# Indices 1 2 3 4 5 6 
#
# 1 82.2750 14.1910 30.5771 6.8951 1.2757 -1.9791
# 2 14.1910 105.2273 26.1680 -6.4562 4.1182 -13.9196
# 3 30.5771 26.1680 71.5883 -8.1139 12.2038 -14.8432
# 4 6.8951 -6.4562 -8.1139 32.7021 -7.5461 -6.9969
# 5 1.2757 4.1182 12.2038 -7.5461 44.6693 -9.1316
# 6 -1.9791 -13.9196 -14.8432 -6.9969 -9.1316 43.8241
#
#
#
# Elastic Compliance Matrix: (Units=1/GPa)
#
#
# Indices 1 2 3 4 5 6 
#
# 1 0.015598 -0.000991 -0.007650 -0.006040 0.000071 -0.003151
# 2 -0.000991 0.010849 -0.002770 0.002504 0.000828 0.003035
# 3 -0.007650 -0.002770 0.020826 0.006964 -0.002737 0.006370
# 4 -0.006040 0.002504 0.006964 0.037777 0.006521 0.010272
# 5 0.000071 0.000828 -0.002737 0.006521 0.025314 0.005655
# 6 -0.003151 0.003035 0.006370 0.010272 0.005655 0.028616
#
#
# Mechanical properties :
#
#
# Convention : Reuss Voigt Hill
#
# Bulk Modulus (GPa) = 40.90167 44.55142 42.72655
# Shear Modulus (GPa) = 29.42018 36.78271 33.10144
#
# Velocity S-wave (km/s) = 3.72408 4.16407 3.95021
# Velocity P-wave (km/s) = 6.14596 6.64236 6.39898
#
# Compressibility (1/GPa) = 0.02444888
#
# Stress axis : x y z
#
# Youngs Moduli (GPa) = 64.11199 92.17837 48.01798
#
# Poissons Ratio (x) = 0.09138 0.36733
# Poissons Ratio (y) = 0.06356 0.13302
# Poissons Ratio (z) = 0.49045 0.25535
#
# Static dielectric constant tensor:
#      x y z
#    x 1.744890 -0.011880 0.086340 
#    y -0.011880 1.838160 -0.078260 
#    z 0.086340 -0.078260 1.761020 
# 
# From -- ./inp_files/178601.got.cif
#   From: 2010.05.17/outbox.cif.g08.bks.cpg/sg2_90_cif.got.tgz:178601.got - 2010.06.03 11:33:40.
