data_PCOD9062205
_publ_section_title
;
Structure prediction by ZEFSAII (Michael W. Deem and Ramdas Pophale) SiO2 
 PCOD9062205
Probable space group: P -1
;
_chemical_formula_sum "Si O2"
_cell_formula_units_Z 16
_cell_length_a 9.143449
_cell_length_b 9.100042
_cell_length_c 11.907677
_cell_angle_alpha 81.141507
_cell_angle_beta 98.379964
_cell_angle_gamma 133.684792
_cell_volume 706.866225
_symmetry_space_group_name_H-M "P -1"
_symmetry_group_IT_number 2
_symmetry_cell_setting 'triclinic'
loop_
_space_group_symop_operation_xyz
x,y,z
-x,-y,-z
loop_
_atom_site_type_symbol
_atom_site_label
_atom_site_fract_x
_atom_site_fract_y
_atom_site_fract_z
Si Si1 0.049931 0.843949 0.250837
Si Si2 0.469546 0.027729 0.619417
Si Si3 0.607667 0.646231 0.224919
Si Si4 0.049308 0.552707 0.133795
Si Si5 0.488878 0.232439 0.194229
Si Si6 0.454098 0.797706 0.040868
Si Si7 0.064042 0.872900 0.509612
Si Si8 0.232696 0.514523 0.333872
O O1 0.997766 0.665000 0.186258
O O2 0.111469 0.863602 0.386025
O O3 0.847848 0.801802 0.251130
O O4 0.243116 0.051410 0.186108
O O5 0.448204 0.866960 0.713353
O O6 0.261883 0.979191 0.596134
O O7 0.500000 0.000000 0.500000
O O8 0.665438 0.261188 0.643036
O O9 0.547243 0.435043 0.216764
O O10 0.588088 0.758285 0.112125
O O11 0.431330 0.565664 0.303740
O O12 0.290364 0.709916 0.127999
O O13 0.045002 0.410286 0.235724
O O14 0.000000 0.500000 0.000000
O O15 0.596746 0.291041 0.079008
O O16 0.500000 0.000000 0.000000
O O17 0.875676 0.644498 0.557732
O O18 0.000000 0.000000 0.500000
#
# Coordination Sequence:
#
# PCOD9062205 Si02
#       8
#     2   2   2   2   2   2   2   2
#     4  12  25  47  72 110 148 190 248 302 368 432
#     4  12  26  46  77 108 145 197 249 304 371 439
#     4  11  27  45  73 106 145 194 239 304 369 431
#     4  11  24  46  71 107 140 192 248 295 363 440
#     4  12  24  46  73 106 150 184 250 303 365 438
#     4  11  23  48  71  99 144 192 242 297 363 431
#     4  12  28  46  76 113 147 196 250 301 373 444
#     4  11  26  50  71 104 153 191 243 308 366 436
#
# _framework density 22.635119
#
# number of rings (size 3 to 8) (size 9 to 14) (size 15 to 20)
#    0.000    0.500    3.750    3.375    5.250    3.500 
#    4.500    0.000    0.000    0.000    0.000    0.000 
#    0.000    0.000    0.000    0.000    0.000    0.000 
#
# Total GULP energy -89087.382063 kJ/mol
# GULP energy per Si atom -5567.961379 kJ/mol
# Density = 2.258360 g / cm^3
# Si number density = 22.635119 Si / 1000 Ang^3
#
#
#
# Elastic Constant Matrix: (Units=GPa)
#
#
# Indices 1 2 3 4 5 6 
#
# 1 116.8958 41.2633 27.5200 0.3845 6.0939 -15.9366
# 2 41.2633 94.6665 35.6601 -0.8380 12.2474 -10.6106
# 3 27.5200 35.6601 99.8361 6.8566 -8.6635 -4.0781
# 4 0.3845 -0.8380 6.8566 34.2230 -2.3374 -4.3657
# 5 6.0939 12.2474 -8.6635 -2.3374 50.6818 -0.8310
# 6 -15.9366 -10.6106 -4.0781 -4.3657 -0.8310 28.9702
#
#
#
# Elastic Compliance Matrix: (Units=1/GPa)
#
#
# Indices 1 2 3 4 5 6 
#
# 1 0.010827 -0.003504 -0.001648 0.000656 -0.000632 0.004521
# 2 -0.003504 0.014640 -0.004571 0.001425 -0.003785 0.002897
# 3 -0.001648 -0.004571 0.012518 -0.002516 0.003309 -0.001103
# 4 0.000656 0.001425 -0.002516 0.030450 0.000635 0.005136
# 5 -0.000632 -0.003785 0.003309 0.000635 0.021307 -0.000561
# 6 0.004521 0.002897 -0.001103 0.005136 -0.000561 0.038669
#
#
# Mechanical properties :
#
#
# Convention : Reuss Voigt Hill
#
# Bulk Modulus (GPa) = 53.94250 57.80944 55.87597
# Shear Modulus (GPa) = 32.45981 36.57200 34.51590
#
# Velocity S-wave (km/s) = 3.79099 4.02396 3.90921
# Velocity P-wave (km/s) = 6.56088 6.86912 6.71677
#
# Compressibility (1/GPa) = 0.01853826
#
# Stress axis : x y z
#
# Youngs Moduli (GPa) = 92.36442 68.30822 79.88292
#
# Poissons Ratio (x) = 0.23935 0.13166
# Poissons Ratio (y) = 0.32364 0.36515
# Poissons Ratio (z) = 0.15223 0.31224
#
# Static dielectric constant tensor:
#      x y z
#    x 1.842270 0.127310 -0.023240 
#    y 0.127310 1.772850 0.209110 
#    z -0.023240 0.209110 1.569060 
# 
# From -- ./inp_files/382035.got.cif
#   From: 2010.05.17/outbox.cif.g08.bks.cpg/sg2_192_cif.got.tgz:382035.got - 2010.06.03 11:33:40.
