data_PCOD9062465
_publ_section_title
;
Structure prediction by ZEFSAII (Michael W. Deem and Ramdas Pophale) SiO2 
 PCOD9062465
Probable space group: P -1
;
_chemical_formula_sum "Si O2"
_cell_formula_units_Z 12
_cell_length_a 15.471736
_cell_length_b 8.591318
_cell_length_c 14.050955
_cell_angle_alpha 121.453181
_cell_angle_beta 27.567559
_cell_angle_gamma 138.725220
_cell_volume 502.350616
_symmetry_space_group_name_H-M "P -1"
_symmetry_group_IT_number 2
_symmetry_cell_setting 'triclinic'
loop_
_space_group_symop_operation_xyz
x,y,z
-x,-y,-z
loop_
_atom_site_type_symbol
_atom_site_label
_atom_site_fract_x
_atom_site_fract_y
_atom_site_fract_z
Si Si1 0.153487 0.535880 0.507715
Si Si2 0.865015 0.846025 0.714759
Si Si3 0.660456 0.452742 0.953614
Si Si4 0.664675 0.146049 0.172786
Si Si5 0.240266 0.552199 0.652474
Si Si6 0.505755 0.610559 0.693305
O O1 0.139380 0.329323 0.408152
O O2 0.192277 0.552683 0.588476
O O3 0.411257 0.830455 0.307827
O O4 0.877794 0.448650 0.727600
O O5 0.639017 0.817087 0.879925
O O6 0.758622 0.692023 0.869795
O O7 0.172944 0.130218 0.514935
O O8 0.644280 0.498770 0.093810
O O9 0.692844 0.219589 0.279676
O O10 0.603050 0.295235 0.229067
O O11 0.952761 0.280618 0.893758
O O12 0.483253 0.576379 0.429645
#
# Coordination Sequence:
#
# PCOD9062465 Si02
#       6
#     2   2   2   2   2   2
#     4  12  24  44  68  96 132 168 214 266 321 383
#     4  11  26  41  64 102 131 170 209 262 330 379
#     4  11  24  41  64 100 132 169 209 261 328 386
#     4  11  26  45  67  94 129 173 218 264 316 379
#     4  11  26  45  67  94 129 173 218 264 316 379
#     4  12  24  44  68  96 132 168 214 266 321 383
#
# _framework density 23.887699000000001
#
# number of rings (size 3 to 8) (size 9 to 14) (size 15 to 20)
#    0.000    0.667    5.000    2.000    4.667    0.667 
#    0.000    0.833    0.000    0.000    0.000    0.000 
#    0.000    0.000    0.000    0.000    0.000    0.000 
#
# Total GULP energy -67281.123370 kJ/mol
# GULP energy per Si atom -5606.760281 kJ/mol
# Density = 2.383333 g / cm^3
# Si number density = 23.887699 Si / 1000 Ang^3
#
#
#
# Elastic Constant Matrix: (Units=GPa)
#
#
# Indices 1 2 3 4 5 6 
#
# 1 90.4210 3.4544 27.6974 13.6314 9.8653 -11.5866
# 2 3.4544 40.9326 23.1114 4.8872 2.1002 9.6647
# 3 27.6974 23.1114 127.5406 12.9142 5.9255 6.9535
# 4 13.6314 4.8872 12.9142 30.8354 0.3994 1.7057
# 5 9.8653 2.1002 5.9255 0.3994 51.8398 0.9982
# 6 -11.5866 9.6647 6.9535 1.7057 0.9982 24.0494
#
#
#
# Elastic Compliance Matrix: (Units=1/GPa)
#
#
# Indices 1 2 3 4 5 6 
#
# 1 0.014075 -0.000880 -0.002696 -0.005386 -0.002455 0.008398
# 2 -0.000880 0.029830 -0.004410 -0.001880 -0.000311 -0.010990
# 3 -0.002696 -0.004410 0.009559 -0.001990 -0.000345 -0.002135
# 4 -0.005386 -0.001880 -0.001990 0.036143 0.001125 -0.003874
# 5 -0.002455 -0.000311 -0.000345 0.001125 0.019837 -0.001861
# 6 0.008398 -0.010990 -0.002135 -0.003874 -0.001861 0.051013
#
#
# Mechanical properties :
#
#
# Convention : Reuss Voigt Hill
#
# Bulk Modulus (GPa) = 26.67176 40.82449 33.74813
# Shear Modulus (GPa) = 26.46559 34.98699 30.72629
#
# Velocity S-wave (km/s) = 3.33215 3.83122 3.59037
# Velocity P-wave (km/s) = 5.09843 6.05791 5.59876
#
# Compressibility (1/GPa) = 0.03749284
#
# Stress axis : x y z
#
# Youngs Moduli (GPa) = 71.05007 33.52303 104.61185
#
# Poissons Ratio (x) = 0.02949 0.28198
# Poissons Ratio (y) = 0.06249 0.46139
# Poissons Ratio (z) = 0.19152 0.14785
#
# Static dielectric constant tensor:
#      x y z
#    x 1.912590 0.004070 0.007330 
#    y 0.004070 1.910390 -0.001390 
#    z 0.007330 -0.001390 1.891060 
# 
# From -- ./inp_files/292132.got.cif
#   From: 2010.05.17/outbox.cif.g08.bks.cpg/sg2_147_cif.got.tgz:292132.got - 2010.06.03 11:33:40.
