data_PCOD9062283
_publ_section_title
;
Structure prediction by ZEFSAII (Michael W. Deem and Ramdas Pophale) SiO2 
 PCOD9062283
Probable space group: P -1
;
_chemical_formula_sum "Si O2"
_cell_formula_units_Z 13
_cell_length_a 9.840203
_cell_length_b 9.941720
_cell_length_c 11.013523
_cell_angle_alpha 100.372368
_cell_angle_beta 127.139194
_cell_angle_gamma 41.145268
_cell_volume 481.490673
_symmetry_space_group_name_H-M "P -1"
_symmetry_group_IT_number 2
_symmetry_cell_setting 'triclinic'
loop_
_space_group_symop_operation_xyz
x,y,z
-x,-y,-z
loop_
_atom_site_type_symbol
_atom_site_label
_atom_site_fract_x
_atom_site_fract_y
_atom_site_fract_z
Si Si1 0.500000 0.000000 0.500000
Si Si2 0.658802 0.648893 0.569993
Si Si3 0.707529 0.131690 0.235640
Si Si4 0.077615 0.733572 0.164209
Si Si5 0.202611 0.463920 0.829659
Si Si6 0.356253 0.532619 0.689477
Si Si7 0.526597 0.970344 0.225265
O O1 0.357539 0.930703 0.436595
O O2 0.416845 0.101194 0.617331
O O3 0.726487 0.509075 0.697381
O O4 0.743654 0.501987 0.477342
O O5 0.844898 0.675328 0.686957
O O6 0.786181 0.223287 0.353838
O O7 0.624314 0.058476 0.261738
O O8 0.394464 0.371399 0.034874
O O9 0.931255 0.927182 0.219695
O O10 0.293245 0.677984 0.185942
O O11 0.816632 0.829578 0.966347
O O12 0.291178 0.506354 0.777752
O O13 0.301779 0.246993 0.806894
#
# Coordination Sequence:
#
# PCOD9062283 Si02
#       7
#     1   2   2   2   2   2   2
#     4  12  28  40  76 110 142 190 256 292 366 432
#     4  12  25  49  70 106 150 196 242 299 365 444
#     4  11  24  47  80 106 144 199 248 291 379 434
#     4  11  25  48  79 104 153 191 248 303 362 440
#     4  11  23  49  74 103 148 198 244 300 362 443
#     4  12  27  42  71 120 151 182 247 313 361 424
#     4  11  23  49  75 109 138 203 248 292 366 453
#
# _framework density 26.999485
#
# number of rings (size 3 to 8) (size 9 to 14) (size 15 to 20)
#    0.000    0.615    4.615    3.231    2.154    5.538 
#    0.000    0.000    0.000    0.000    0.000    0.000 
#    0.000    0.000    0.000    0.000    0.000    0.000 
#
# Total GULP energy -72778.263836 kJ/mol
# GULP energy per Si atom -5598.327987 kJ/mol
# Density = 2.693803 g / cm^3
# Si number density = 26.999485 Si / 1000 Ang^3
#
#
#
# Elastic Constant Matrix: (Units=GPa)
#
#
# Indices 1 2 3 4 5 6 
#
# 1 136.6285 10.6971 35.4778 -7.9213 24.9165 11.9653
# 2 10.6971 153.8116 33.7383 20.2683 17.9368 16.8351
# 3 35.4778 33.7383 77.1682 4.4056 0.1023 15.1678
# 4 -7.9213 20.2683 4.4056 39.6316 -1.0200 2.3564
# 5 24.9165 17.9368 0.1023 -1.0200 44.8547 0.2098
# 6 11.9653 16.8351 15.1678 2.3564 0.2098 52.2058
#
#
#
# Elastic Compliance Matrix: (Units=1/GPa)
#
#
# Indices 1 2 3 4 5 6 
#
# 1 0.009738 0.000906 -0.004738 0.001935 -0.005711 -0.001212
# 2 0.000906 0.008336 -0.003512 -0.003692 -0.003905 -0.001693
# 3 -0.004738 -0.003512 0.017258 -0.000802 0.003992 -0.002776
# 4 0.001935 -0.003692 -0.000802 0.027639 0.001033 -0.000272
# 5 -0.005711 -0.003905 0.003992 0.001033 0.027037 0.001253
# 6 -0.001212 -0.001693 -0.002776 -0.000272 0.001253 0.020792
#
#
# Mechanical properties :
#
#
# Convention : Reuss Voigt Hill
#
# Bulk Modulus (GPa) = 48.44013 58.60385 53.52199
# Shear Modulus (GPa) = 37.77274 46.51810 42.14542
#
# Velocity S-wave (km/s) = 3.74440 4.15532 3.95520
# Velocity P-wave (km/s) = 6.05592 6.69140 6.38158
#
# Compressibility (1/GPa) = 0.02064404
#
# Stress axis : x y z
#
# Youngs Moduli (GPa) = 102.68712 119.96254 57.94259
#
# Poissons Ratio (x) = -0.10864 0.27452
# Poissons Ratio (y) = -0.09300 0.20350
# Poissons Ratio (z) = 0.48651 0.42133
#
# Static dielectric constant tensor:
#      x y z
#    x 2.089780 -0.025910 0.085640 
#    y -0.025910 2.194840 -0.131720 
#    z 0.085640 -0.131720 2.176640 
# 
# From -- ./inp_files/153542.got.cif
#   From: 2010.05.17/outbox.cif.g08.bks.cpg/sg2_77_cif.got.tgz:153542.got - 2010.06.03 11:33:40.
