data_PCOD9062736
_publ_section_title
;
Structure prediction by ZEFSAII (Michael W. Deem and Ramdas Pophale) SiO2 
 PCOD9062736
Probable space group: P -1
;
_chemical_formula_sum "Si O2"
_cell_formula_units_Z 13
_cell_length_a 11.431606
_cell_length_b 8.218370
_cell_length_c 12.412754
_cell_angle_alpha 115.614070
_cell_angle_beta 41.039145
_cell_angle_gamma 135.590367
_cell_volume 521.213864
_symmetry_space_group_name_H-M "P -1"
_symmetry_group_IT_number 2
_symmetry_cell_setting 'triclinic'
loop_
_space_group_symop_operation_xyz
x,y,z
-x,-y,-z
loop_
_atom_site_type_symbol
_atom_site_label
_atom_site_fract_x
_atom_site_fract_y
_atom_site_fract_z
Si Si1 0.749648 0.171373 0.935083
Si Si2 0.311689 0.876369 0.501141
Si Si3 0.546581 0.369295 0.813945
Si Si4 0.527575 0.346850 0.358879
Si Si5 0.180441 0.423724 0.113572
Si Si6 0.212344 0.141604 0.313061
Si Si7 0.000000 0.500000 0.000000
O O1 0.851506 0.446874 0.923038
O O2 0.854980 0.071439 0.774992
O O3 0.788443 0.198126 0.042294
O O4 0.500000 0.000000 0.000000
O O5 0.370720 0.736644 0.350862
O O6 0.059082 0.724136 0.693356
O O7 0.500000 0.000000 0.500000
O O8 0.369647 0.085358 0.446841
O O9 0.611457 0.364898 0.891017
O O10 0.734485 0.652157 0.737270
O O11 0.291326 0.303589 0.965916
O O12 0.500000 0.500000 0.500000
O O13 0.433716 0.293032 0.285475
O O14 0.804825 0.494111 0.197815
O O15 0.000000 0.000000 0.500000
#
# Coordination Sequence:
#
# PCOD9062736 Si02
#       7
#     2   2   2   2   2   2   1
#     4  12  23  45  72 101 140 184 236 287 347 411
#     4  12  26  43  66  99 142 179 225 291 348 411
#     4  11  24  42  69  96 135 182 228 282 349 410
#     4  12  26  45  69 103 142 184 237 289 350 417
#     4  11  24  45  67 100 135 178 233 282 346 419
#     4  12  23  42  70 100 137 185 236 288 347 415
#     4  12  26  44  74 104 140 176 240 292 342 416
#
# _framework density 24.941780000000001
#
# number of rings (size 3 to 8) (size 9 to 14) (size 15 to 20)
#    0.000    0.308    3.077    6.000    0.000    1.846 
#    0.000    0.000    0.000    0.000    0.000    0.000 
#    0.000    0.000    0.000    0.000    0.000    0.000 
#
# Total GULP energy -72401.697973 kJ/mol
# GULP energy per Si atom -5569.361383 kJ/mol
# Density = 2.488501 g / cm^3
# Si number density = 24.941780 Si / 1000 Ang^3
#
#
#
# Elastic Constant Matrix: (Units=GPa)
#
#
# Indices 1 2 3 4 5 6 
#
# 1 75.5398 17.8650 6.3584 -2.4050 -14.5336 -6.3852
# 2 17.8650 129.0697 88.5804 42.4690 -14.7022 3.4260
# 3 6.3584 88.5804 203.9191 20.9646 -33.8823 -22.7017
# 4 -2.4050 42.4690 20.9646 61.9097 2.5072 6.9388
# 5 -14.5336 -14.7022 -33.8823 2.5072 40.9198 -4.6167
# 6 -6.3852 3.4260 -22.7017 6.9388 -4.6167 51.2257
#
#
#
# Elastic Compliance Matrix: (Units=1/GPa)
#
#
# Indices 1 2 3 4 5 6 
#
# 1 0.015528 -0.003736 0.002454 0.001664 0.006514 0.003635
# 2 -0.003736 0.015087 -0.006099 -0.008042 -0.000820 -0.003162
# 3 0.002454 -0.006099 0.009187 0.000288 0.006875 0.005366
# 4 0.001664 -0.008042 0.000288 0.022060 -0.003688 -0.002448
# 5 0.006514 -0.000820 0.006875 -0.003688 0.033211 0.007406
# 6 0.003635 -0.003162 0.005366 -0.002448 0.007406 0.023563
#
#
# Mechanical properties :
#
#
# Convention : Reuss Voigt Hill
#
# Bulk Modulus (GPa) = 39.93292 70.45956 55.19624
# Shear Modulus (GPa) = 35.27530 50.52602 42.90066
#
# Velocity S-wave (km/s) = 3.76481 4.50573 4.15183
# Velocity P-wave (km/s) = 5.91131 7.44175 6.72024
#
# Compressibility (1/GPa) = 0.02504199
#
# Stress axis : x y z
#
# Youngs Moduli (GPa) = 64.39840 66.28292 108.85483
#
# Poissons Ratio (x) = 0.24762 -0.26718
# Poissons Ratio (y) = 0.24058 0.66386
# Poissons Ratio (z) = -0.15806 0.40423
#
# Static dielectric constant tensor:
#      x y z
#    x 0.573740 -0.254410 -0.312960 
#    y -0.254410 1.779470 -0.069220 
#    z -0.312960 -0.069220 1.974040 
# 
# From -- ./inp_files/181714.got.cif
#   From: 2010.05.17/outbox.cif.g08.bks.cpg/sg2_91_cif.got.tgz:181714.got - 2010.06.03 11:33:40.
