data_PCOD9062691
_publ_section_title
;
Structure prediction by ZEFSAII (Michael W. Deem and Ramdas Pophale) SiO2 
 PCOD9062691
Probable space group: P -1
;
_chemical_formula_sum "Si O2"
_cell_formula_units_Z 15
_cell_length_a 13.192458
_cell_length_b 8.079773
_cell_length_c 13.648851
_cell_angle_alpha 32.471416
_cell_angle_beta 122.330445
_cell_angle_gamma 115.950868
_cell_volume 659.701611
_symmetry_space_group_name_H-M "P -1"
_symmetry_group_IT_number 2
_symmetry_cell_setting 'triclinic'
loop_
_space_group_symop_operation_xyz
x,y,z
-x,-y,-z
loop_
_atom_site_type_symbol
_atom_site_label
_atom_site_fract_x
_atom_site_fract_y
_atom_site_fract_z
Si Si1 0.894260 0.049301 0.841324
Si Si2 0.693021 0.500931 0.558174
Si Si3 0.000000 0.500000 0.500000
Si Si4 0.129737 0.547156 0.001534
Si Si5 0.135048 0.951923 0.630017
Si Si6 0.653424 0.676103 0.658578
Si Si7 0.558149 0.657016 0.206623
Si Si8 0.249493 0.645301 0.666620
O O1 0.766671 0.180097 0.751079
O O2 0.948970 0.283059 0.673410
O O3 0.860421 0.732861 0.929447
O O4 0.000000 0.000000 0.000000
O O5 0.618567 0.565949 0.586338
O O6 0.629928 0.592158 0.377784
O O7 0.800936 0.734089 0.509945
O O8 0.874938 0.432721 0.409622
O O9 0.230250 0.521990 0.147737
O O10 0.133137 0.865949 0.785691
O O11 0.000000 0.500000 0.000000
O O12 0.212886 0.704702 0.730645
O O13 0.000000 0.000000 0.500000
O O14 0.547669 0.589832 0.720534
O O15 0.696142 0.027247 0.504277
O O16 0.648686 0.599811 0.191797
O O17 0.500000 0.000000 0.000000
#
# Coordination Sequence:
#
# PCOD9062691 Si02
#       8
#     2   2   1   2   2   2   2   2
#     4  12  25  41  68 107 142 188 236 299 374 437
#     4  11  24  46  68 100 140 186 242 301 358 427
#     4  12  22  42  72 102 140 178 238 298 368 416
#     4  12  24  41  66 103 139 185 239 296 365 438
#     4  11  24  42  68 103 143 183 232 302 371 430
#     4  11  24  46  68  99 136 190 237 292 362 430
#     4  12  26  46  71 104 141 193 243 294 355 432
#     4  11  24  45  71  98 138 189 232 296 361 430
#
# _framework density 22.737552000000001
#
# number of rings (size 3 to 8) (size 9 to 14) (size 15 to 20)
#    0.000    0.533    2.667    6.400    1.867    3.200 
#    0.000    7.333    0.000    0.000    0.000    0.000 
#    0.000    0.000    0.000    0.000    0.000    0.000 
#
# Total GULP energy -83651.592775 kJ/mol
# GULP energy per Si atom -5576.772852 kJ/mol
# Density = 2.268580 g / cm^3
# Si number density = 22.737552 Si / 1000 Ang^3
#
#
#
# Elastic Constant Matrix: (Units=GPa)
#
#
# Indices 1 2 3 4 5 6 
#
# 1 85.9281 -1.4689 -12.6845 -15.2065 2.4739 12.9487
# 2 -1.4689 47.2276 -14.3219 -1.0585 11.9316 18.1596
# 3 -12.6845 -14.3219 52.0631 7.3856 3.2487 -6.2539
# 4 -15.2065 -1.0585 7.3856 37.1477 -1.6241 2.9002
# 5 2.4739 11.9316 3.2487 -1.6241 41.9921 -3.8558
# 6 12.9487 18.1596 -6.2539 2.9002 -3.8558 36.8967
#
#
#
# Elastic Compliance Matrix: (Units=1/GPa)
#
#
# Indices 1 2 3 4 5 6 
#
# 1 0.014606 0.005562 0.003477 0.005936 -0.003222 -0.008077
# 2 0.005562 0.034577 0.009032 0.002398 -0.012497 -0.018933
# 3 0.003477 0.009032 0.023015 -0.002948 -0.004853 -0.002040
# 4 0.005936 0.002398 -0.002948 0.030478 -0.000192 -0.006179
# 5 -0.003222 -0.012497 -0.004853 -0.000192 0.028793 0.009483
# 6 -0.008077 -0.018933 -0.002040 -0.006179 0.009483 0.040387
#
#
# Mechanical properties :
#
#
# Convention : Reuss Voigt Hill
#
# Bulk Modulus (GPa) = 9.23014 14.25203 11.74108
# Shear Modulus (GPa) = 29.09881 37.45357 33.27619
#
# Velocity S-wave (km/s) = 3.58127 4.06299 3.82971
# Velocity P-wave (km/s) = 4.60096 5.31904 4.97298
#
# Compressibility (1/GPa) = 0.10834073
#
# Stress axis : x y z
#
# Youngs Moduli (GPa) = 68.46296 28.92093 43.44946
#
# Poissons Ratio (x) = -0.16085 -0.15109
# Poissons Ratio (y) = -0.38076 -0.39244
# Poissons Ratio (z) = -0.23807 -0.26122
#
# Static dielectric constant tensor:
#      x y z
#    x 0.282080 0.593980 -0.687200 
#    y 0.593980 1.553870 0.266390 
#    z -0.687200 0.266390 1.538660 
# 
# From -- ./inp_files/259523.got.cif
#   From: 2010.05.17/outbox.cif.g08.bks.cpg/sg2_130_cif.got.tgz:259523.got - 2010.06.03 11:33:40.
