data_PCOD9062883
_publ_section_title
;
Structure prediction by ZEFSAII (Michael W. Deem and Ramdas Pophale) SiO2 
 PCOD9062883
Probable space group: P -1
;
_chemical_formula_sum "Si O2"
_cell_formula_units_Z 12
_cell_length_a 6.660179
_cell_length_b 6.916227
_cell_length_c 21.525185
_cell_angle_alpha 112.001950
_cell_angle_beta 133.180166
_cell_angle_gamma 91.230321
_cell_volume 611.147984
_symmetry_space_group_name_H-M "P -1"
_symmetry_group_IT_number 2
_symmetry_cell_setting 'triclinic'
loop_
_space_group_symop_operation_xyz
x,y,z
-x,-y,-z
loop_
_atom_site_type_symbol
_atom_site_label
_atom_site_fract_x
_atom_site_fract_y
_atom_site_fract_z
Si Si1 0.146890 0.905172 0.428263
Si Si2 0.233375 0.891842 0.227339
Si Si3 0.677925 0.029497 0.105910
Si Si4 0.860398 0.231518 0.447883
Si Si5 0.877003 0.557857 0.217391
Si Si6 0.662894 0.311094 0.900595
O O1 0.027566 0.105630 0.427406
O O2 0.506013 0.107699 0.341093
O O3 0.979773 0.710058 0.319240
O O4 0.094900 0.810193 0.475567
O O5 0.358441 0.813158 0.184311
O O6 0.114161 0.690163 0.229211
O O7 0.950598 0.946911 0.153744
O O8 0.825611 0.298408 0.185153
O O9 0.442583 0.875797 0.089467
O O10 0.500000 0.000000 0.000000
O O11 0.000000 0.500000 0.500000
O O12 0.500000 0.000000 0.500000
O O13 0.562605 0.563745 0.130678
O O14 0.000000 0.500000 0.000000
#
# Coordination Sequence:
#
# PCOD9062883 Si02
#       6
#     2   2   2   2   2   2
#     4  11  24  44  66  96 130 172 211 263 323 380
#     4  11  24  43  64  96 132 167 213 269 319 376
#     4  11  26  43  66  99 125 173 218 260 326 382
#     4  11  26  42  66  99 131 168 217 263 319 383
#     4  11  24  43  67  94 132 169 215 263 321 383
#     4  11  24  44  67  92 131 166 214 275 319 378
#
# _framework density 19.635176999999999
#
# number of rings (size 3 to 8) (size 9 to 14) (size 15 to 20)
#    0.000    1.000    3.333    2.000    4.667    7.333 
#    0.000    0.000    0.000    0.000    0.000    0.000 
#    0.000    0.000    0.000    0.000    0.000    0.000 
#
# Total GULP energy -67098.916661 kJ/mol
# GULP energy per Si atom -5591.576388 kJ/mol
# Density = 1.959049 g / cm^3
# Si number density = 19.635177 Si / 1000 Ang^3
#
#
#
# Elastic Constant Matrix: (Units=GPa)
#
#
# Indices 1 2 3 4 5 6 
#
# 1 90.7635 39.6300 9.8408 1.2255 1.4966 11.9364
# 2 39.6300 115.0499 22.0983 17.4098 5.0736 3.1261
# 3 9.8408 22.0983 79.1355 4.3757 11.0371 7.5663
# 4 1.2255 17.4098 4.3757 30.4162 5.7492 -0.4065
# 5 1.4966 5.0736 11.0371 5.7492 40.4444 3.5469
# 6 11.9364 3.1261 7.5663 -0.4065 3.5469 27.2505
#
#
#
# Elastic Compliance Matrix: (Units=1/GPa)
#
#
# Indices 1 2 3 4 5 6 
#
# 1 0.013879 -0.004976 0.000033 0.002158 0.000279 -0.005522
# 2 -0.004976 0.011775 -0.002481 -0.006190 0.000141 0.001407
# 3 0.000033 -0.002481 0.014088 -0.000037 -0.003247 -0.003220
# 4 0.002158 -0.006190 -0.000037 0.037234 -0.004668 0.000938
# 5 0.000279 0.000141 -0.003247 -0.004668 0.026489 -0.002754
# 6 -0.005522 0.001407 -0.003220 0.000938 -0.002754 0.040220
#
#
# Mechanical properties :
#
#
# Convention : Reuss Voigt Hill
#
# Bulk Modulus (GPa) = 40.16983 47.56523 43.86753
# Shear Modulus (GPa) = 29.97064 33.84756 31.90910
#
# Velocity S-wave (km/s) = 3.91112 4.15640 4.03562
# Velocity P-wave (km/s) = 6.39518 6.87832 6.64115
#
# Compressibility (1/GPa) = 0.02489430
#
# Stress axis : x y z
#
# Youngs Moduli (GPa) = 72.05058 84.92766 70.98241
#
# Poissons Ratio (x) = 0.42260 -0.00237
# Poissons Ratio (y) = 0.35852 0.17612
# Poissons Ratio (z) = -0.00240 0.21072
#
# Static dielectric constant tensor:
#      x y z
#    x 1.673250 -0.009910 0.002150 
#    y -0.009910 1.640450 0.003570 
#    z 0.002150 0.003570 1.680500 
# 
# From -- ./inp_files/580496.got.cif
#   From: 2010.05.17/outbox.cif.g08.bks.cpg/sg2_291_cif.got.tgz:580496.got - 2010.06.03 11:33:40.
