data_PCOD9062271
_publ_section_title
;
Structure prediction by ZEFSAII (Michael W. Deem and Ramdas Pophale) SiO2 
 PCOD9062271
Probable space group: P -1
;
_chemical_formula_sum "Si O2"
_cell_formula_units_Z 16
_cell_length_a 9.704071
_cell_length_b 15.440573
_cell_length_c 9.024388
_cell_angle_alpha 117.022946
_cell_angle_beta 75.403808
_cell_angle_gamma 143.765278
_cell_volume 694.978364
_symmetry_space_group_name_H-M "P -1"
_symmetry_group_IT_number 2
_symmetry_cell_setting 'triclinic'
loop_
_space_group_symop_operation_xyz
x,y,z
-x,-y,-z
loop_
_atom_site_type_symbol
_atom_site_label
_atom_site_fract_x
_atom_site_fract_y
_atom_site_fract_z
Si Si1 0.659652 0.674215 0.163320
Si Si2 0.128021 0.832739 0.068941
Si Si3 0.592330 0.308638 0.210855
Si Si4 0.171206 0.863127 0.551944
Si Si5 0.684642 0.171720 0.250331
Si Si6 0.024504 0.639486 0.183811
Si Si7 0.335126 0.326318 0.479508
Si Si8 0.509426 0.215372 0.839444
O O1 0.648313 0.666067 0.339682
O O2 0.568070 0.726696 0.167459
O O3 0.933470 0.807609 0.139112
O O4 0.500000 0.500000 0.000000
O O5 0.011720 0.671646 0.046037
O O6 0.399054 0.998639 0.180891
O O7 0.174809 0.832295 0.885682
O O8 0.719692 0.295295 0.262120
O O9 0.422070 0.274627 0.339810
O O10 0.785213 0.484816 0.216841
O O11 0.461980 0.191228 0.011059
O O12 0.219102 0.795054 0.587437
O O13 0.137589 0.797720 0.350837
O O14 0.930441 0.790862 0.588287
O O15 0.378932 0.053500 0.672245
O O16 0.210000 0.653447 0.150456
O O17 0.500000 0.500000 0.500000
#
# Coordination Sequence:
#
# PCOD9062271 Si02
#       8
#     2   2   2   2   2   2   2   2
#     4  12  29  47  78 107 149 198 245 305 373 448
#     4  11  23  49  70 105 147 191 245 306 363 436
#     4  12  27  47  74 110 151 196 248 309 365 442
#     4  12  27  47  76 106 151 196 244 312 364 446
#     4  11  26  44  75 108 146 191 245 309 367 431
#     4  12  24  48  75 103 152 194 249 308 363 435
#     4  12  27  50  69 109 153 193 241 309 375 436
#     4  12  27  46  75 112 141 202 251 297 374 439
#
# _framework density 23.022300000000001
#
# number of rings (size 3 to 8) (size 9 to 14) (size 15 to 20)
#    0.000    0.250    5.000    3.000    8.750    1.500 
#    0.000    0.000    0.000    0.000    0.000    0.000 
#    0.000    0.000    0.000    0.000    0.000    0.000 
#
# Total GULP energy -89526.654496 kJ/mol
# GULP energy per Si atom -5595.415906 kJ/mol
# Density = 2.296990 g / cm^3
# Si number density = 23.022300 Si / 1000 Ang^3
#
#
#
# Elastic Constant Matrix: (Units=GPa)
#
#
# Indices 1 2 3 4 5 6 
#
# 1 145.2797 19.8416 11.3423 -15.4120 -5.6272 7.9304
# 2 19.8416 80.4528 22.5962 -5.9420 -2.7611 6.8685
# 3 11.3423 22.5962 74.7374 -8.7633 -14.7527 8.1031
# 4 -15.4120 -5.9420 -8.7633 32.7804 3.3956 -9.1939
# 5 -5.6272 -2.7611 -14.7527 3.3956 40.7069 -9.4825
# 6 7.9304 6.8685 8.1031 -9.1939 -9.4825 50.5713
#
#
#
# Elastic Compliance Matrix: (Units=1/GPa)
#
#
# Indices 1 2 3 4 5 6 
#
# 1 0.007465 -0.001524 -0.000177 0.003052 0.000545 -0.000278
# 2 -0.001524 0.014038 -0.004030 0.000544 -0.001024 -0.001115
# 3 -0.000177 -0.004030 0.016027 0.002791 0.005157 -0.000519
# 4 0.003052 0.000544 0.002791 0.034261 -0.000177 0.005196
# 5 0.000545 -0.001024 0.005157 -0.000177 0.027468 0.004345
# 6 -0.000278 -0.001115 -0.000519 0.005196 0.004345 0.021812
#
#
# Mechanical properties :
#
#
# Convention : Reuss Voigt Hill
#
# Bulk Modulus (GPa) = 38.36046 45.33668 41.84857
# Shear Modulus (GPa) = 35.40540 41.25772 38.33156
#
# Velocity S-wave (km/s) = 3.92583 4.23788 4.08484
# Velocity P-wave (km/s) = 6.10311 6.60920 6.36119
#
# Compressibility (1/GPa) = 0.02606851
#
# Stress axis : x y z
#
# Youngs Moduli (GPa) = 133.95446 71.23719 62.39468
#
# Poissons Ratio (x) = 0.10854 0.01102
# Poissons Ratio (y) = 0.20409 0.25148
# Poissons Ratio (z) = 0.02366 0.28711
#
# Static dielectric constant tensor:
#      x y z
#    x 1.843590 0.018120 -0.019860 
#    y 0.018120 1.889770 0.052050 
#    z -0.019860 0.052050 1.867590 
# 
# From -- ./inp_files/208323.got.cif
#   From: 2010.05.17/outbox.cif.g08.bks.cpg/sg2_105_cif.got.tgz:208323.got - 2010.06.03 11:33:40.
