data_PCOD9062857
_publ_section_title
;
Structure prediction by ZEFSAII (Michael W. Deem and Ramdas Pophale) SiO2 
 PCOD9062857
Probable space group: P -1
;
_chemical_formula_sum "Si O2"
_cell_formula_units_Z 15
_cell_length_a 12.016027
_cell_length_b 7.387285
_cell_length_c 12.122368
_cell_angle_alpha 71.442784
_cell_angle_beta 125.187005
_cell_angle_gamma 140.897149
_cell_volume 537.040623
_symmetry_space_group_name_H-M "P -1"
_symmetry_group_IT_number 2
_symmetry_cell_setting 'triclinic'
loop_
_space_group_symop_operation_xyz
x,y,z
-x,-y,-z
loop_
_atom_site_type_symbol
_atom_site_label
_atom_site_fract_x
_atom_site_fract_y
_atom_site_fract_z
Si Si1 0.325020 0.958556 0.263661
Si Si2 0.609738 0.447576 0.006127
Si Si3 0.688331 0.223330 0.279490
Si Si4 0.000000 0.500000 0.000000
Si Si5 0.531460 0.464247 0.731438
Si Si6 0.143178 0.151788 0.444965
Si Si7 0.008181 0.925136 0.846355
Si Si8 0.134235 0.546829 0.422919
O O1 0.098968 0.710960 0.123548
O O2 0.270188 0.855852 0.379671
O O3 0.458028 0.953374 0.262194
O O4 0.446507 0.290835 0.265123
O O5 0.627590 0.291508 0.128602
O O6 0.500000 0.500000 0.000000
O O7 0.495795 0.299211 0.852457
O O8 0.839730 0.785010 0.047816
O O9 0.806013 0.417303 0.422430
O O10 0.883126 0.307573 0.325674
O O11 0.930045 0.230676 0.086541
O O12 0.350754 0.255686 0.575638
O O13 0.762295 0.663181 0.783830
O O14 0.994791 0.960998 0.293005
O O15 0.205997 0.440293 0.415336
O O16 0.000000 0.000000 0.500000
#
# Coordination Sequence:
#
# PCOD9062857 Si02
#       8
#     2   2   2   1   2   2   2   2
#     4  12  24  47  71 104 146 184 242 291 361 422
#     4  12  22  45  70 102 139 185 238 294 347 427
#     4  11  24  42  74 106 134 187 239 293 354 427
#     4  12  26  44  68 106 144 188 232 310 346 420
#     4  12  26  44  76 103 138 197 239 287 362 435
#     4  12  26  47  69 105 147 185 236 303 356 420
#     4  12  26  44  73 105 147 185 242 295 358 428
#     4  11  24  44  71 103 143 183 236 295 357 424
#
# _framework density 27.930848999999998
#
# number of rings (size 3 to 8) (size 9 to 14) (size 15 to 20)
#    0.000    0.267    5.333    3.600    1.867    2.133 
#    0.000    0.667    0.000    0.000    0.000    0.000 
#    0.000    0.000    0.000    0.000    0.000    0.000 
#
# Total GULP energy -83656.155577 kJ/mol
# GULP energy per Si atom -5577.077038 kJ/mol
# Density = 2.786728 g / cm^3
# Si number density = 27.930849 Si / 1000 Ang^3
#
#
#
# Elastic Constant Matrix: (Units=GPa)
#
#
# Indices 1 2 3 4 5 6 
#
# 1 88.0791 24.3765 21.1477 -9.6567 9.8334 22.8224
# 2 24.3765 115.9166 42.6209 -21.2745 9.7857 14.4917
# 3 21.1477 42.6209 176.6139 -31.0654 -6.0556 -2.1843
# 4 -9.6567 -21.2745 -31.0654 43.9644 6.9300 -7.4726
# 5 9.8334 9.7857 -6.0556 6.9300 28.7250 -9.5911
# 6 22.8224 14.4917 -2.1843 -7.4726 -9.5911 23.9362
#
#
#
# Elastic Compliance Matrix: (Units=1/GPa)
#
#
# Indices 1 2 3 4 5 6 
#
# 1 0.021699 0.002521 -0.004054 0.001079 -0.019430 -0.030035
# 2 0.002521 0.012673 -0.003242 0.003856 -0.011377 -0.013727
# 3 -0.004054 -0.003242 0.007975 0.003895 0.006729 0.010469
# 4 0.001079 0.003856 0.003895 0.029248 -0.006781 0.003406
# 5 -0.019430 -0.011377 0.006729 -0.006781 0.065087 0.049992
# 6 -0.030035 -0.013727 0.010469 0.003406 0.049992 0.100776
#
#
# Mechanical properties :
#
#
# Convention : Reuss Voigt Hill
#
# Bulk Modulus (GPa) = 30.49120 61.87775 46.18448
# Shear Modulus (GPa) = 19.38425 38.82275 29.10350
#
# Velocity S-wave (km/s) = 2.63726 3.73226 3.23148
# Velocity P-wave (km/s) = 4.49599 6.38553 5.52218
#
# Compressibility (1/GPa) = 0.03279635
#
# Stress axis : x y z
#
# Youngs Moduli (GPa) = 46.08470 78.90789 125.39018
#
# Poissons Ratio (x) = -0.19891 0.50839
# Poissons Ratio (y) = -0.11617 0.40649
# Poissons Ratio (z) = 0.18685 0.25580
#
# Static dielectric constant tensor:
#      x y z
#    x 3.138030 0.581830 0.433280 
#    y 0.581830 2.667230 0.202660 
#    z 0.433280 0.202660 2.362550 
# 
# From -- ./inp_files/240368.got.cif
#   From: 2010.05.17/outbox.cif.g08.bks.cpg/sg2_121_cif.got.tgz:240368.got - 2010.06.03 11:33:40.
