data_PCOD9062770
_publ_section_title
;
Structure prediction by ZEFSAII (Michael W. Deem and Ramdas Pophale) SiO2 
 PCOD9062770
Probable space group: P -1
;
_chemical_formula_sum "Si O2"
_cell_formula_units_Z 16
_cell_length_a 5.269984
_cell_length_b 11.568575
_cell_length_c 13.504367
_cell_angle_alpha 78.269074
_cell_angle_beta 83.524693
_cell_angle_gamma 62.015612
_cell_volume 711.715538
_symmetry_space_group_name_H-M "P -1"
_symmetry_group_IT_number 2
_symmetry_cell_setting 'triclinic'
loop_
_space_group_symop_operation_xyz
x,y,z
-x,-y,-z
loop_
_atom_site_type_symbol
_atom_site_label
_atom_site_fract_x
_atom_site_fract_y
_atom_site_fract_z
Si Si1 0.942109 0.376384 0.002631
Si Si2 0.739665 0.504660 0.795942
Si Si3 0.538454 0.890328 0.938687
Si Si4 0.859666 0.769367 0.554540
Si Si5 0.687433 0.233427 0.166914
Si Si6 0.713869 0.518824 0.326707
Si Si7 0.789122 0.942547 0.714340
Si Si8 0.621377 0.218067 0.576371
O O1 0.806789 0.333904 0.106945
O O2 0.239468 0.246740 0.997707
O O3 0.749018 0.417565 0.906010
O O4 0.000000 0.500000 0.000000
O O5 0.629831 0.659215 0.805409
O O6 0.518433 0.502435 0.725150
O O7 0.063762 0.449296 0.752156
O O8 0.290105 0.858247 0.912232
O O9 0.651988 0.922661 0.825135
O O10 0.500000 0.000000 0.000000
O O11 0.743774 0.868007 0.635517
O O12 0.594930 0.776787 0.501489
O O13 0.072853 0.618801 0.605290
O O14 0.069585 0.808645 0.474491
O O15 0.870913 0.138949 0.262675
O O16 0.534735 0.640278 0.386661
O O17 0.676177 0.095833 0.667539
#
# Coordination Sequence:
#
# PCOD9062770 Si02
#       8
#     2   2   2   2   2   2   2   2
#     4  11  24  42  70 108 140 192 252 301 355 437
#     4  12  24  42  75 106 143 192 244 291 365 439
#     4  11  27  45  71 105 151 191 237 306 369 434
#     4  12  25  49  74 105 144 190 244 301 367 438
#     4  11  24  45  72 101 149 194 247 304 358 434
#     4  12  26  45  74 108 145 186 234 313 372 430
#     4  11  27  46  73 104 142 195 244 289 369 444
#     4  12  28  46  75 110 144 186 245 308 365 436
#
# _framework density 22.480892999999998
#
# number of rings (size 3 to 8) (size 9 to 14) (size 15 to 20)
#    0.000    0.500    2.500    4.875    7.000    3.000 
#    0.000    0.000    0.000    0.000    0.000    0.000 
#    0.000    0.000    0.000    0.000    0.000    0.000 
#
# Total GULP energy -89532.550683 kJ/mol
# GULP energy per Si atom -5595.784418 kJ/mol
# Density = 2.242973 g / cm^3
# Si number density = 22.480893 Si / 1000 Ang^3
#
#
#
# Elastic Constant Matrix: (Units=GPa)
#
#
# Indices 1 2 3 4 5 6 
#
# 1 73.9014 12.3818 13.9698 16.6236 5.1519 12.9224
# 2 12.3818 121.9040 44.3562 4.4852 1.4655 27.9218
# 3 13.9698 44.3562 77.5692 2.8638 12.6540 11.7179
# 4 16.6236 4.4852 2.8638 55.6504 -0.3340 6.9362
# 5 5.1519 1.4655 12.6540 -0.3340 40.4862 4.0632
# 6 12.9224 27.9218 11.7179 6.9362 4.0632 21.6839
#
#
#
# Elastic Compliance Matrix: (Units=1/GPa)
#
#
# Indices 1 2 3 4 5 6 
#
# 1 0.016132 0.001285 -0.002069 -0.003717 -0.000595 -0.008851
# 2 0.001285 0.014018 -0.006306 0.000851 0.002936 -0.016232
# 3 -0.002069 -0.006306 0.017578 0.000095 -0.005080 0.000775
# 4 -0.003717 0.000851 0.000095 0.019691 0.001121 -0.005441
# 5 -0.000595 0.002936 -0.005080 0.001121 0.026876 -0.006076
# 6 -0.008851 -0.016232 0.000775 -0.005441 -0.006076 0.074753
#
#
# Mechanical properties :
#
#
# Convention : Reuss Voigt Hill
#
# Bulk Modulus (GPa) = 29.80630 46.08779 37.94705
# Shear Modulus (GPa) = 25.71861 37.07522 31.39691
#
# Velocity S-wave (km/s) = 3.38601 4.06543 3.74117
# Velocity P-wave (km/s) = 5.34547 6.52551 5.96474
#
# Compressibility (1/GPa) = 0.03354995
#
# Stress axis : x y z
#
# Youngs Moduli (GPa) = 61.98694 71.33499 56.88844
#
# Poissons Ratio (x) = -0.09170 0.11771
# Poissons Ratio (y) = -0.07968 0.35873
# Poissons Ratio (z) = 0.12826 0.44983
#
# Static dielectric constant tensor:
#      x y z
#    x 2.055380 0.064460 0.026920 
#    y 0.064460 1.836450 0.053110 
#    z 0.026920 0.053110 1.867400 
# 
# From -- ./inp_files/70274.got.cif
#   From: 2010.05.17/outbox.cif.g08.bks.cpg/sg2_36_cif.got.tgz:70274.got - 2010.06.03 11:33:40.
