data_PCOD9062353
_publ_section_title
;
Structure prediction by ZEFSAII (Michael W. Deem and Ramdas Pophale) SiO2 
 PCOD9062353
Probable space group: P -1
;
_chemical_formula_sum "Si O2"
_cell_formula_units_Z 16
_cell_length_a 8.072864
_cell_length_b 15.452347
_cell_length_c 6.407973
_cell_angle_alpha 115.674420
_cell_angle_beta 102.164373
_cell_angle_gamma 53.074010
_cell_volume 574.563645
_symmetry_space_group_name_H-M "P -1"
_symmetry_group_IT_number 2
_symmetry_cell_setting 'triclinic'
loop_
_space_group_symop_operation_xyz
x,y,z
-x,-y,-z
loop_
_atom_site_type_symbol
_atom_site_label
_atom_site_fract_x
_atom_site_fract_y
_atom_site_fract_z
Si Si1 0.073042 0.238581 0.159645
Si Si2 0.241752 0.517400 0.519713
Si Si3 0.941290 0.110245 0.235786
Si Si4 0.699218 0.447408 0.856360
Si Si5 0.523697 0.156463 0.179508
Si Si6 0.096874 0.820039 0.290546
Si Si7 0.812674 0.593843 0.266234
Si Si8 0.456085 0.845307 0.312185
O O1 0.854787 0.365878 0.243102
O O2 0.054036 0.171225 0.272349
O O3 0.274592 0.237298 0.201262
O O4 0.071866 0.162479 0.894826
O O5 0.375200 0.497882 0.334915
O O6 0.318771 0.408965 0.577817
O O7 0.024329 0.557362 0.390526
O O8 0.003530 0.080404 0.459263
O O9 0.689906 0.188467 0.250411
O O10 0.000000 0.000000 0.000000
O O11 0.816909 0.308214 0.726135
O O12 0.500000 0.500000 0.000000
O O13 0.833605 0.492955 0.023196
O O14 0.556627 0.105877 0.883223
O O15 0.560535 0.109415 0.394696
O O16 0.287193 0.814203 0.231873
O O17 0.682747 0.719326 0.252044
#
# Coordination Sequence:
#
# PCOD9062353 Si02
#       8
#     2   2   2   2   2   2   2   2
#     4  12  24  46  77 106 150 199 246 317 382 457
#     4  11  25  42  61 101 147 197 253 308 364 439
#     4  11  27  53  79 110 148 191 250 323 393 465
#     4  12  24  38  62  96 138 195 248 303 356 437
#     4  11  27  47  77 112 149 200 248 309 390 453
#     4  11  24  45  71 104 146 196 249 316 381 447
#     4  11  24  39  62  98 143 201 250 301 356 432
#     4  11  24  45  70 107 153 199 254 309 368 449
#
# _framework density 27.84722
#
# number of rings (size 3 to 8) (size 9 to 14) (size 15 to 20)
#    0.000    0.750    6.250    0.375    5.250    1.500 
#    0.000    0.625    0.000    0.000    0.000    0.000 
#    0.000    0.000    0.000    0.000    0.000    0.000 
#
# Total GULP energy -89169.477707 kJ/mol
# GULP energy per Si atom -5573.092357 kJ/mol
# Density = 2.778384 g / cm^3
# Si number density = 27.847220 Si / 1000 Ang^3
#
#
#
# Elastic Constant Matrix: (Units=GPa)
#
#
# Indices 1 2 3 4 5 6 
#
# 1 97.9884 16.9837 36.4849 3.6010 -3.6624 -4.1823
# 2 16.9837 79.3620 33.9339 -4.2842 -3.0268 0.1917
# 3 36.4849 33.9339 200.7669 -11.3139 -20.3360 7.7449
# 4 3.6010 -4.2842 -11.3139 46.4629 3.7992 0.3418
# 5 -3.6624 -3.0268 -20.3360 3.7992 51.1797 -14.0441
# 6 -4.1823 0.1917 7.7449 0.3418 -14.0441 30.5736
#
#
#
# Elastic Compliance Matrix: (Units=1/GPa)
#
#
# Indices 1 2 3 4 5 6 
#
# 1 0.011391 -0.001692 -0.001891 -0.001578 0.000741 0.002406
# 2 -0.001692 0.013863 -0.002001 0.000932 -0.000134 0.000117
# 3 -0.001891 -0.002001 0.005949 0.001275 0.001751 -0.000963
# 4 -0.001578 0.000932 0.001275 0.022185 -0.001620 -0.001537
# 5 0.000741 -0.000134 0.001751 -0.001620 0.023241 0.010353
# 6 0.002406 0.000117 -0.000963 -0.001537 0.010353 0.038053
#
#
# Mechanical properties :
#
#
# Convention : Reuss Voigt Hill
#
# Bulk Modulus (GPa) = 49.91149 61.43582 55.67366
# Shear Modulus (GPa) = 37.72781 45.02422 41.37601
#
# Velocity S-wave (km/s) = 3.68477 4.02534 3.85882
# Velocity P-wave (km/s) = 6.00547 6.61167 6.31585
#
# Compressibility (1/GPa) = 0.02003547
#
# Stress axis : x y z
#
# Youngs Moduli (GPa) = 87.78947 72.13338 168.09246
#
# Poissons Ratio (x) = 0.12205 0.31781
# Poissons Ratio (y) = 0.14854 0.33639
# Poissons Ratio (z) = 0.16598 0.14435
#
# Static dielectric constant tensor:
#      x y z
#    x 2.179140 0.025670 -0.052300 
#    y 0.025670 2.208900 -0.043850 
#    z -0.052300 -0.043850 2.395000 
# 
# From -- ./inp_files/49031.got.cif
#   From: 2010.05.17/outbox.cif.g08.bks.cpg/sg2_25_cif.got.tgz:49031.got - 2010.06.03 11:33:40.
