data_PCOD9062917
_publ_section_title
;
Structure prediction by ZEFSAII (Michael W. Deem and Ramdas Pophale) SiO2 
 PCOD9062917
Probable space group: P -1
;
_chemical_formula_sum "Si O2"
_cell_formula_units_Z 14
_cell_length_a 4.870722
_cell_length_b 24.030695
_cell_length_c 5.862977
_cell_angle_alpha 125.929293
_cell_angle_beta 69.845821
_cell_angle_gamma 99.580650
_cell_volume 521.077747
_symmetry_space_group_name_H-M "P -1"
_symmetry_group_IT_number 2
_symmetry_cell_setting 'triclinic'
loop_
_space_group_symop_operation_xyz
x,y,z
-x,-y,-z
loop_
_atom_site_type_symbol
_atom_site_label
_atom_site_fract_x
_atom_site_fract_y
_atom_site_fract_z
Si Si1 0.686248 0.187867 0.025847
Si Si2 0.788682 0.936830 0.904388
Si Si3 0.719931 0.184424 0.515590
Si Si4 0.951661 0.672683 0.219479
Si Si5 0.681480 0.342183 0.534166
Si Si6 0.735118 0.451145 0.437679
Si Si7 0.195611 0.067689 0.609549
O O1 0.563733 0.179745 0.301280
O O2 0.730147 0.270203 0.212222
O O3 0.546789 0.179015 0.791872
O O4 0.967035 0.134311 0.823151
O O5 0.639377 0.937643 0.696976
O O6 0.024277 0.873586 0.692014
O O7 0.641755 0.934818 0.194653
O O8 0.000000 0.000000 0.000000
O O9 0.899237 0.254205 0.646740
O O10 0.608441 0.671111 0.262679
O O11 0.009876 0.650657 0.411397
O O12 0.139058 0.616514 0.891658
O O13 0.615319 0.414996 0.609244
O O14 0.500000 0.500000 0.500000
O O15 0.000000 0.500000 0.500000
O O16 0.000000 0.000000 0.500000
#
# Coordination Sequence:
#
# PCOD9062917 Si02
#       7
#     2   2   2   2   2   2   2
#     4   9  17  33  55  86 123 166 216 269 326 391
#     4   8  13  22  42  75 113 157 206 257 320 381
#     4   9  17  33  55  86 123 166 216 269 326 391
#     4  11  24  43  66  95 131 173 222 276 337 406
#     4  11  24  43  66  95 131 173 222 276 337 406
#     4  12  26  44  68  98 132 170 220 280 338 408
#     4   8  13  22  42  75 113 157 206 257 320 381
#
# _framework density 26.867391999999999
#
# number of rings (size 3 to 8) (size 9 to 14) (size 15 to 20)
#    0.000    2.286    1.429    1.714    0.000    3.429 
#    0.000    0.000    0.000    0.000    0.000   50.000 
#    0.000    0.000    0.000    0.000    0.000    0.000 
#
# Total GULP energy -78198.805070 kJ/mol
# GULP energy per Si atom -5585.628934 kJ/mol
# Density = 2.680624 g / cm^3
# Si number density = 26.867392 Si / 1000 Ang^3
#
#
#
# Elastic Constant Matrix: (Units=GPa)
#
#
# Indices 1 2 3 4 5 6 
#
# 1 134.5868 44.5499 30.0314 4.9765 5.9005 1.3960
# 2 44.5499 199.3207 54.6196 -2.6803 2.8751 -9.0508
# 3 30.0314 54.6196 126.2334 -10.2834 27.3758 -5.3500
# 4 4.9765 -2.6803 -10.2834 78.7262 -33.1168 3.7041
# 5 5.9005 2.8751 27.3758 -33.1168 45.2496 -7.4128
# 6 1.3960 -9.0508 -5.3500 3.7041 -7.4128 30.8871
#
#
#
# Elastic Compliance Matrix: (Units=1/GPa)
#
#
# Indices 1 2 3 4 5 6 
#
# 1 0.008337 -0.001605 -0.001134 -0.001275 -0.001435 -0.001235
# 2 -0.001605 0.006165 -0.002648 0.000872 0.002367 0.001884
# 3 -0.001134 -0.002648 0.010824 -0.001786 -0.007615 -0.000463
# 4 -0.001275 0.000872 -0.001786 0.018943 0.015285 0.001400
# 5 -0.001435 0.002367 -0.007615 0.015285 0.039074 0.006984
# 6 -0.001235 0.001884 -0.000463 0.001400 0.006984 0.034412
#
#
# Mechanical properties :
#
#
# Convention : Reuss Voigt Hill
#
# Bulk Modulus (GPa) = 68.72119 79.83808 74.27963
# Shear Modulus (GPa) = 37.48715 53.03524 45.26120
#
# Velocity S-wave (km/s) = 3.73938 4.44775 4.10886
# Velocity P-wave (km/s) = 6.65412 7.49378 7.08640
#
# Compressibility (1/GPa) = 0.01455155
#
# Stress axis : x y z
#
# Youngs Moduli (GPa) = 119.94116 162.21870 92.39043
#
# Poissons Ratio (x) = 0.26041 0.10477
# Poissons Ratio (y) = 0.19254 0.24463
# Poissons Ratio (z) = 0.13601 0.42951
#
# Static dielectric constant tensor:
#      x y z
#    x 2.015860 -0.068800 0.213750 
#    y -0.068800 2.297990 -0.247900 
#    z 0.213750 -0.247900 2.418710 
# 
# From -- ./inp_files/12278.got.cif
#   From: 2010.05.17/outbox.cif.g08.bks.cpg/sg2_7_cif.got.tgz:12278.got - 2010.06.03 11:33:40.
