data_PCOD9062156
_publ_section_title
;
Structure prediction by ZEFSAII (Michael W. Deem and Ramdas Pophale) SiO2 
 PCOD9062156
Probable space group: P -1
;
_chemical_formula_sum "Si O2"
_cell_formula_units_Z 16
_cell_length_a 8.853556
_cell_length_b 14.531425
_cell_length_c 8.995050
_cell_angle_alpha 102.910445
_cell_angle_beta 123.835681
_cell_angle_gamma 108.584601
_cell_volume 784.179397
_symmetry_space_group_name_H-M "P -1"
_symmetry_group_IT_number 2
_symmetry_cell_setting 'triclinic'
loop_
_space_group_symop_operation_xyz
x,y,z
-x,-y,-z
loop_
_atom_site_type_symbol
_atom_site_label
_atom_site_fract_x
_atom_site_fract_y
_atom_site_fract_z
Si Si1 0.216934 0.621217 0.125125
Si Si2 0.541185 0.545279 0.204220
Si Si3 0.693041 0.702377 0.890273
Si Si4 0.395960 0.756135 0.569007
Si Si5 0.964781 0.252946 0.441940
Si Si6 0.981794 0.900829 0.350535
Si Si7 0.881272 0.221926 0.040357
Si Si8 0.798054 0.000464 0.805435
O O1 0.410205 0.603394 0.189398
O O2 0.269221 0.692285 0.329097
O O3 0.198186 0.695434 0.013372
O O4 0.000000 0.500000 0.000000
O O5 0.436404 0.429120 0.192500
O O6 0.797002 0.633436 0.391616
O O7 0.500000 0.500000 0.000000
O O8 0.539715 0.714607 0.700123
O O9 0.904120 0.730901 0.924907
O O10 0.773983 0.794001 0.105155
O O11 0.223043 0.735014 0.591091
O O12 0.575869 0.883280 0.668693
O O13 0.916289 0.216739 0.231798
O O14 0.964830 0.166100 0.526432
O O15 0.000000 0.000000 0.500000
O O16 0.136509 0.969217 0.320105
O O17 0.751192 0.092482 0.872415
O O18 0.000000 0.000000 0.000000
#
# Coordination Sequence:
#
# PCOD9062156 Si02
#       8
#     2   2   2   2   2   2   2   2
#     4  12  27  47  74 102 142 191 245 294 356 425
#     4  12  26  46  74 102 147 188 239 299 357 420
#     4  11  24  47  75 102 145 190 235 294 358 428
#     4  12  27  47  73 108 142 189 238 295 360 427
#     4  12  28  44  69 108 147 185 240 293 357 427
#     4  11  24  44  74 106 143 184 240 296 359 426
#     4  11  25  47  72 106 144 186 242 293 359 427
#     4  11  23  47  77 103 145 188 236 295 363 428
#
# _framework density 20.403496000000001
#
# number of rings (size 3 to 8) (size 9 to 14) (size 15 to 20)
#    0.000    0.500    5.000    3.750    5.250    4.000 
#    0.000    0.000    0.000    0.000    0.000    0.000 
#    0.000    0.000    0.000    0.000    0.000    0.000 
#
# Total GULP energy -89281.127138 kJ/mol
# GULP energy per Si atom -5580.070446 kJ/mol
# Density = 2.035706 g / cm^3
# Si number density = 20.403496 Si / 1000 Ang^3
#
#
#
# Elastic Constant Matrix: (Units=GPa)
#
#
# Indices 1 2 3 4 5 6 
#
# 1 63.2858 21.9889 33.7094 25.2650 -7.7624 23.1127
# 2 21.9889 192.8684 56.6154 30.7442 1.5896 20.9317
# 3 33.7094 56.6154 81.6025 15.2507 -10.6199 26.5606
# 4 25.2650 30.7442 15.2507 53.3642 7.2503 -1.1781
# 5 -7.7624 1.5896 -10.6199 7.2503 41.5950 -7.1285
# 6 23.1127 20.9317 26.5606 -1.1781 -7.1285 19.6111
#
#
#
# Elastic Compliance Matrix: (Units=1/GPa)
#
#
# Indices 1 2 3 4 5 6 
#
# 1 0.050336 0.005465 0.005317 -0.030567 0.003365 -0.072970
# 2 0.005465 0.007635 -0.002687 -0.006360 -0.000844 -0.011638
# 3 0.005317 -0.002687 0.027045 -0.009973 0.002960 -0.039549
# 4 -0.030567 -0.006360 -0.009973 0.041733 -0.005546 0.056812
# 5 0.003365 -0.000844 0.002960 -0.005546 0.026826 0.002344
# 6 -0.072970 -0.011638 -0.039549 0.056812 0.002344 0.207241
#
#
# Mechanical properties :
#
#
# Convention : Reuss Voigt Hill
#
# Bulk Modulus (GPa) = 9.88113 62.48713 36.18413
# Shear Modulus (GPa) = 13.21489 37.94357 25.57923
#
# Velocity S-wave (km/s) = 2.54771 4.31706 3.54456
# Velocity P-wave (km/s) = 3.67530 7.45262 5.87577
#
# Compressibility (1/GPa) = 0.10120301
#
# Stress axis : x y z
#
# Youngs Moduli (GPa) = 19.86655 130.98348 36.97591
#
# Poissons Ratio (x) = -0.71578 -0.19659
# Poissons Ratio (y) = -0.10856 0.09937
# Poissons Ratio (z) = -0.10562 0.35200
#
# Static dielectric constant tensor:
#      x y z
#    x 1.699640 -0.020970 0.017220 
#    y -0.020970 1.737920 -0.007070 
#    z 0.017220 -0.007070 1.706000 
# 
# From -- ./inp_files/208047.got.cif
#   From: 2010.05.17/outbox.cif.g08.bks.cpg/sg2_105_cif.got.tgz:208047.got - 2010.06.03 11:33:40.
