data_PCOD9062702
_publ_section_title
;
Structure prediction by ZEFSAII (Michael W. Deem and Ramdas Pophale) SiO2 
 PCOD9062702
Probable space group: P -1
;
_chemical_formula_sum "Si O2"
_cell_formula_units_Z 12
_cell_length_a 22.774574
_cell_length_b 20.021706
_cell_length_c 11.688307
_cell_angle_alpha 151.235449
_cell_angle_beta 28.905676
_cell_angle_gamma 168.330350
_cell_volume 510.851995
_symmetry_space_group_name_H-M "P -1"
_symmetry_group_IT_number 2
_symmetry_cell_setting 'triclinic'
loop_
_space_group_symop_operation_xyz
x,y,z
-x,-y,-z
loop_
_atom_site_type_symbol
_atom_site_label
_atom_site_fract_x
_atom_site_fract_y
_atom_site_fract_z
Si Si1 0.819880 0.849055 0.878271
Si Si2 0.428331 0.602521 0.561527
Si Si3 0.847104 0.642499 0.099273
Si Si4 0.528332 0.869734 0.215438
Si Si5 0.337618 0.544301 0.276632
Si Si6 0.053112 0.397813 0.729798
O O1 0.592239 0.543553 0.714786
O O2 0.847014 0.769779 0.816726
O O3 0.667913 0.828897 0.155967
O O4 0.086746 0.165971 0.816988
O O5 0.230197 0.512412 0.702517
O O6 0.274266 0.417209 0.667547
O O7 0.749124 0.999223 0.630603
O O8 0.607341 0.295317 0.925863
O O9 0.146365 0.862582 0.934710
O O10 0.331092 0.579125 0.208517
O O11 0.500000 0.000000 0.500000
O O12 0.253828 0.588529 0.561339
O O13 0.000000 0.500000 0.000000
#
# Coordination Sequence:
#
# PCOD9062702 Si02
#       6
#     2   2   2   2   2   2
#     4   9  21  44  68 104 129 175 226 272 338 383
#     4  11  24  42  68  97 136 172 220 274 331 393
#     4  11  24  42  68  97 136 172 220 274 331 393
#     4  11  25  43  65  98 131 183 219 269 330 392
#     4   9  22  41  70  92 136 169 226 276 322 389
#     4  11  25  43  65  98 131 183 219 269 330 392
#
# _framework density 23.490169000000002
#
# number of rings (size 3 to 8) (size 9 to 14) (size 15 to 20)
#    0.000    1.667    0.000    2.500    4.667   13.333 
#    0.000    8.333    0.000    0.000    0.000    0.000 
#    0.000    0.000    0.000    0.000    0.000    0.000 
#
# Total GULP energy -67051.804746 kJ/mol
# GULP energy per Si atom -5587.650395 kJ/mol
# Density = 2.343670 g / cm^3
# Si number density = 23.490169 Si / 1000 Ang^3
#
#
#
# Elastic Constant Matrix: (Units=GPa)
#
#
# Indices 1 2 3 4 5 6 
#
# 1 93.8554 51.6937 21.2507 0.3849 23.0320 5.3152
# 2 51.6937 100.1170 37.8177 13.9584 7.2602 13.7443
# 3 21.2507 37.8177 114.2120 -10.1535 12.8773 6.4674
# 4 0.3849 13.9584 -10.1535 80.5729 2.7990 34.1149
# 5 23.0320 7.2602 12.8773 2.7990 42.7259 -7.5596
# 6 5.3152 13.7443 6.4674 34.1149 -7.5596 44.1225
#
#
#
# Elastic Compliance Matrix: (Units=1/GPa)
#
#
# Indices 1 2 3 4 5 6 
#
# 1 0.017819 -0.008956 0.001256 0.003626 -0.009399 -0.003954
# 2 -0.008956 0.016561 -0.004523 -0.003470 0.003583 -0.000121
# 3 0.001256 -0.004523 0.011119 0.004159 -0.004297 -0.004324
# 4 0.003626 -0.003470 0.004159 0.021212 -0.007119 -0.017586
# 5 -0.009399 0.003583 -0.004297 -0.007119 0.031673 0.011577
# 6 -0.003954 -0.000121 -0.004324 -0.017586 0.011577 0.039393
#
#
# Mechanical properties :
#
#
# Convention : Reuss Voigt Hill
#
# Bulk Modulus (GPa) = 47.49882 58.85650 53.17766
# Shear Modulus (GPa) = 29.54376 46.64574 38.09475
#
# Velocity S-wave (km/s) = 3.55026 4.46102 4.03144
# Velocity P-wave (km/s) = 6.08855 7.18640 6.66014
#
# Compressibility (1/GPa) = 0.02105315
#
# Stress axis : x y z
#
# Youngs Moduli (GPa) = 56.12108 60.38115 89.93902
#
# Poissons Ratio (x) = 0.54076 -0.11296
# Poissons Ratio (y) = 0.50261 0.40680
# Poissons Ratio (z) = -0.07049 0.27311
#
# Static dielectric constant tensor:
#      x y z
#    x 1.882800 0.001600 -0.009130 
#    y 0.001600 1.909650 0.015690 
#    z -0.009130 0.015690 1.895180 
# 
# From -- ./inp_files/62268.got.cif
#   From: 2010.05.17/outbox.cif.g08.bks.cpg/sg2_32_cif.got.tgz:62268.got - 2010.06.03 11:33:40.
