data_PCOD9062908
_publ_section_title
;
Structure prediction by ZEFSAII (Michael W. Deem and Ramdas Pophale) SiO2 
 PCOD9062908
Probable space group: P -1
;
_chemical_formula_sum "Si O2"
_cell_formula_units_Z 14
_cell_length_a 9.500930
_cell_length_b 6.562743
_cell_length_c 27.755037
_cell_angle_alpha 49.087439
_cell_angle_beta 26.930402
_cell_angle_gamma 51.572968
_cell_volume 588.731686
_symmetry_space_group_name_H-M "P -1"
_symmetry_group_IT_number 2
_symmetry_cell_setting 'triclinic'
loop_
_space_group_symop_operation_xyz
x,y,z
-x,-y,-z
loop_
_atom_site_type_symbol
_atom_site_label
_atom_site_fract_x
_atom_site_fract_y
_atom_site_fract_z
Si Si1 0.549801 0.844522 0.386213
Si Si2 0.375398 0.470688 0.844623
Si Si3 0.100184 0.194733 0.533924
Si Si4 0.992307 0.442334 0.874014
Si Si5 0.477225 0.059910 0.054851
Si Si6 0.060535 0.425591 0.608208
Si Si7 0.436194 0.043854 0.743431
O O1 0.262098 0.664253 0.494036
O O2 0.814716 0.667136 0.362947
O O3 0.651386 0.932504 0.289581
O O4 0.400687 0.080300 0.429985
O O5 0.689326 0.492228 0.713696
O O6 0.098028 0.419602 0.900928
O O7 0.315054 0.766054 0.842035
O O8 0.463186 0.223424 0.891849
O O9 0.142035 0.198738 0.577833
O O10 0.000000 0.500000 0.500000
O O11 0.808200 0.027166 0.638554
O O12 0.846188 0.752840 0.862873
O O13 0.288384 0.315065 0.772733
O O14 0.735432 0.248229 0.965786
O O15 0.500000 0.000000 0.000000
#
# Coordination Sequence:
#
# PCOD9062908 Si02
#       7
#     2   2   2   2   2   2   2
#     4  11  25  43  65 103 152 191 240 292 348 413
#     4  12  26  47  75 109 144 188 245 298 366 435
#     4  12  22  42  67  97 145 196 240 288 348 413
#     4  11  27  50  76 108 142 190 236 301 370 441
#     4  11  28  54  79 106 142 184 237 307 376 439
#     4  11  24  43  66 104 143 195 241 292 348 423
#     4  12  25  43  74 107 145 192 242 298 356 425
#
# _framework density 23.779933
#
# number of rings (size 3 to 8) (size 9 to 14) (size 15 to 20)
#    0.000    0.571    4.286    3.000    4.000    4.571 
#    5.143    0.000    0.000    0.000    0.000    0.000 
#    0.000    0.000    0.000    0.000    0.000    0.000 
#
# Total GULP energy -78400.855926 kJ/mol
# GULP energy per Si atom -5600.061138 kJ/mol
# Density = 2.372581 g / cm^3
# Si number density = 23.779933 Si / 1000 Ang^3
#
#
#
# Elastic Constant Matrix: (Units=GPa)
#
#
# Indices 1 2 3 4 5 6 
#
# 1 123.8013 48.7960 22.2017 -19.9624 0.0845 1.8643
# 2 48.7960 131.1984 26.8097 -2.7810 6.0984 -5.2477
# 3 22.2017 26.8097 48.6620 -2.2359 -9.4438 0.3246
# 4 -19.9624 -2.7810 -2.2359 49.5728 0.8925 -1.0457
# 5 0.0845 6.0984 -9.4438 0.8925 32.8317 -8.3354
# 6 1.8643 -5.2477 0.3246 -1.0457 -8.3354 40.4627
#
#
#
# Elastic Compliance Matrix: (Units=1/GPa)
#
#
# Indices 1 2 3 4 5 6 
#
# 1 0.010529 -0.003237 -0.002953 0.003917 -0.000612 -0.000906
# 2 -0.003237 0.009917 -0.004599 -0.000884 -0.002917 0.000848
# 3 -0.002953 -0.004599 0.026085 -0.000403 0.008656 0.001103
# 4 0.003917 -0.000884 -0.000403 0.021694 -0.000510 0.000164
# 5 -0.000612 -0.002917 0.008656 -0.000510 0.035239 0.006826
# 6 -0.000906 0.000848 0.001103 0.000164 0.006826 0.026268
#
#
# Mechanical properties :
#
#
# Convention : Reuss Voigt Hill
#
# Bulk Modulus (GPa) = 40.07658 55.47516 47.77587
# Shear Modulus (GPa) = 31.32331 38.29705 34.81018
#
# Velocity S-wave (km/s) = 3.63328 4.01743 3.83018
# Velocity P-wave (km/s) = 5.87288 6.70066 6.30038
#
# Compressibility (1/GPa) = 0.02495223
#
# Stress axis : x y z
#
# Youngs Moduli (GPa) = 94.97956 100.84114 38.33659
#
# Poissons Ratio (x) = 0.32645 0.11320
# Poissons Ratio (y) = 0.30747 0.17630
# Poissons Ratio (z) = 0.28045 0.46375
#
# Static dielectric constant tensor:
#      x y z
#    x 1.865410 0.005260 -0.026260 
#    y 0.005260 1.908760 0.002360 
#    z -0.026260 0.002360 1.941160 
# 
# From -- ./inp_files/40070.got.cif
#   From: 2010.05.17/outbox.cif.g08.bks.cpg/sg2_21_cif.got.tgz:40070.got - 2010.06.03 11:33:40.
