data_PCOD9062161
_publ_section_title
;
Structure prediction by ZEFSAII (Michael W. Deem and Ramdas Pophale) SiO2 
 PCOD9062161
Probable space group: P -1
;
_chemical_formula_sum "Si O2"
_cell_formula_units_Z 12
_cell_length_a 9.722173
_cell_length_b 8.121743
_cell_length_c 8.593958
_cell_angle_alpha 117.203579
_cell_angle_beta 117.023456
_cell_angle_gamma 46.864645
_cell_volume 429.780046
_symmetry_space_group_name_H-M "P -1"
_symmetry_group_IT_number 2
_symmetry_cell_setting 'triclinic'
loop_
_space_group_symop_operation_xyz
x,y,z
-x,-y,-z
loop_
_atom_site_type_symbol
_atom_site_label
_atom_site_fract_x
_atom_site_fract_y
_atom_site_fract_z
Si Si1 0.232494 0.037072 0.228974
Si Si2 0.500000 0.000000 0.000000
Si Si3 0.557874 0.578641 0.332298
Si Si4 0.000000 0.500000 0.500000
Si Si5 0.140402 0.888162 0.817634
Si Si6 0.882554 0.777162 0.255696
Si Si7 0.686683 0.565672 0.739802
O O1 0.133963 0.300683 0.340625
O O2 0.075259 0.001176 0.198307
O O3 0.437459 0.838629 0.323517
O O4 0.237691 0.966373 0.019220
O O5 0.293369 0.209547 0.900922
O O6 0.566215 0.839190 0.810804
O O7 0.744736 0.389584 0.244040
O O8 0.639962 0.532832 0.526966
O O9 0.417859 0.502130 0.225564
O O10 0.910105 0.709601 0.418921
O O11 0.159479 0.976298 0.700147
O O12 0.084607 0.600425 0.194678
#
# Coordination Sequence:
#
# PCOD9062161 Si02
#       7
#     2   1   2   1   2   2   2
#     4  11  26  48  74 117 151 203 250 317 373 459
#     4  12  26  46  78 110 150 200 252 312 388 444
#     4  11  23  47  77 115 145 203 256 311 372 465
#     4  12  30  46  78 112 158 190 256 316 390 432
#     4  11  25  48  81 104 153 203 260 304 377 457
#     4  12  27  52  74 113 149 206 246 320 373 457
#     4  11  25  42  78 109 149 197 252 307 380 447
#
# _framework density 27.921257000000001
#
# number of rings (size 3 to 8) (size 9 to 14) (size 15 to 20)
#    0.000    0.667    3.333    3.000    7.000    1.333 
#    6.000    4.167    0.000    0.000    0.000    0.000 
#    0.000    0.000    0.000    0.000    0.000    0.000 
#
# Total GULP energy -66851.961493 kJ/mol
# GULP energy per Si atom -5570.996791 kJ/mol
# Density = 2.785771 g / cm^3
# Si number density = 27.921257 Si / 1000 Ang^3
#
#
#
# Elastic Constant Matrix: (Units=GPa)
#
#
# Indices 1 2 3 4 5 6 
#
# 1 72.3256 30.6914 5.8327 -18.2511 7.6130 -16.4387
# 2 30.6914 186.6566 53.7871 11.8538 -10.6697 -31.3105
# 3 5.8327 53.7871 87.8958 10.1123 -23.3080 -17.8769
# 4 -18.2511 11.8538 10.1123 63.1884 -12.0294 -12.1901
# 5 7.6130 -10.6697 -23.3080 -12.0294 29.5657 -7.0774
# 6 -16.4387 -31.3105 -17.8769 -12.1901 -7.0774 66.5394
#
#
#
# Elastic Compliance Matrix: (Units=1/GPa)
#
#
# Indices 1 2 3 4 5 6 
#
# 1 0.017607 -0.002754 0.000076 0.005950 -0.002104 0.003941
# 2 -0.002754 0.007231 -0.003725 -0.001213 0.000254 0.001526
# 3 0.000076 -0.003725 0.018526 0.001632 0.015138 0.005152
# 4 0.005950 -0.001213 0.001632 0.020401 0.009063 0.006039
# 5 -0.002104 0.000254 0.015138 0.009063 0.052695 0.010932
# 6 0.003941 0.001526 0.005152 0.006039 0.010932 0.020374
#
#
# Mechanical properties :
#
#
# Convention : Reuss Voigt Hill
#
# Bulk Modulus (GPa) = 32.72383 58.61115 45.66749
# Shear Modulus (GPa) = 31.28381 48.96314 40.12348
#
# Velocity S-wave (km/s) = 3.35091 4.19216 3.79492
# Velocity P-wave (km/s) = 5.16885 6.66854 5.96601
#
# Compressibility (1/GPa) = 0.03055877
#
# Stress axis : x y z
#
# Youngs Moduli (GPa) = 56.79402 138.28814 53.97786
#
# Poissons Ratio (x) = 0.38087 -0.00411
# Poissons Ratio (y) = 0.15642 0.20107
# Poissons Ratio (z) = -0.00432 0.51512
#
# Static dielectric constant tensor:
#      x y z
#    x 2.608220 0.050160 0.148770 
#    y 0.050160 2.054420 0.058120 
#    z 0.148770 0.058120 2.487470 
# 
# From -- ./inp_files/189850.got.cif
#   From: 2010.05.17/outbox.cif.g08.bks.cpg/sg2_95_cif.got.tgz:189850.got - 2010.06.03 11:33:40.
