data_PCOD9062175
_publ_section_title
;
Structure prediction by ZEFSAII (Michael W. Deem and Ramdas Pophale) SiO2 
 PCOD9062175
Probable space group: P -1
;
_chemical_formula_sum "Si O2"
_cell_formula_units_Z 12
_cell_length_a 18.321544
_cell_length_b 10.089982
_cell_length_c 4.832452
_cell_angle_alpha 69.974671
_cell_angle_beta 103.650034
_cell_angle_gamma 147.075146
_cell_volume 453.890861
_symmetry_space_group_name_H-M "P -1"
_symmetry_group_IT_number 2
_symmetry_cell_setting 'triclinic'
loop_
_space_group_symop_operation_xyz
x,y,z
-x,-y,-z
loop_
_atom_site_type_symbol
_atom_site_label
_atom_site_fract_x
_atom_site_fract_y
_atom_site_fract_z
Si Si1 0.353862 0.116212 0.777044
Si Si2 0.512594 0.910571 0.824457
Si Si3 0.136062 0.202263 0.291050
Si Si4 0.937121 0.299669 0.314596
Si Si5 0.615555 0.516937 0.331791
Si Si6 0.999752 0.225725 0.920153
O O1 0.480274 0.298180 0.554673
O O2 0.363547 0.281514 0.829081
O O3 0.218008 0.908010 0.626024
O O4 0.356005 0.981684 0.070882
O O5 0.410344 0.621680 0.859468
O O6 0.500000 0.000000 0.500000
O O7 0.500000 0.000000 0.000000
O O8 0.264571 0.367069 0.469523
O O9 0.135145 0.351083 0.021791
O O10 0.000000 0.000000 0.500000
O O11 0.104230 0.037295 0.146257
O O12 0.985002 0.622778 0.393441
O O13 0.000000 0.500000 0.000000
O O14 0.937408 0.167614 0.199207
#
# Coordination Sequence:
#
# PCOD9062175 Si02
#       6
#     2   2   2   2   2   2
#     4  11  26  50  81 116 157 206 272 324 394 479
#     4  12  27  52  73 114 163 205 257 319 400 474
#     4  11  23  47  79 114 157 197 260 327 383 464
#     4  12  27  50  77 109 158 210 260 319 394 466
#     4  11  25  50  84 118 157 211 262 335 391 469
#     4  11  24  47  75 116 149 198 265 315 384 465
#
# _framework density 26.438075999999999
#
# number of rings (size 3 to 8) (size 9 to 14) (size 15 to 20)
#    0.000    0.667    5.000    1.000    2.333    5.333 
#    6.000    0.000    0.000    0.000    0.000    0.000 
#    0.000    0.000    0.000    0.000    0.000    0.000 
#
# Total GULP energy -67127.665250 kJ/mol
# GULP energy per Si atom -5593.972104 kJ/mol
# Density = 2.637790 g / cm^3
# Si number density = 26.438076 Si / 1000 Ang^3
#
#
#
# Elastic Constant Matrix: (Units=GPa)
#
#
# Indices 1 2 3 4 5 6 
#
# 1 169.9855 62.0977 79.2943 11.8406 37.7554 4.5478
# 2 62.0977 89.3982 21.1499 15.2100 2.9466 -2.9755
# 3 79.2943 21.1499 174.1163 17.2251 18.9683 -5.8505
# 4 11.8406 15.2100 17.2251 49.7870 -14.2806 -1.0983
# 5 37.7554 2.9466 18.9683 -14.2806 66.6401 -1.3483
# 6 4.5478 -2.9755 -5.8505 -1.0983 -1.3483 40.6551
#
#
#
# Elastic Compliance Matrix: (Units=1/GPa)
#
#
# Indices 1 2 3 4 5 6 
#
# 1 0.011473 -0.006819 -0.003806 -0.000923 -0.005364 -0.002533
# 2 -0.006819 0.016143 0.001285 -0.003087 0.002165 0.002118
# 3 -0.003806 0.001285 0.007653 -0.002253 -0.000531 0.001543
# 4 -0.000923 -0.003087 -0.002253 0.023880 0.006427 0.000411
# 5 -0.005364 0.002165 -0.000531 0.006427 0.019508 0.001503
# 6 -0.002533 0.002118 0.001543 0.000411 0.001503 0.025318
#
#
# Mechanical properties :
#
#
# Convention : Reuss Voigt Hill
#
# Bulk Modulus (GPa) = 60.28100 84.28710 72.28405
# Shear Modulus (GPa) = 39.00607 49.48031 44.24319
#
# Velocity S-wave (km/s) = 3.84523 4.33084 4.09524
# Velocity P-wave (km/s) = 6.52416 7.54708 7.05419
#
# Compressibility (1/GPa) = 0.01658898
#
# Stress axis : x y z
#
# Youngs Moduli (GPa) = 87.16142 61.94644 130.66788
#
# Poissons Ratio (x) = 0.42244 0.49732
# Poissons Ratio (y) = 0.59439 -0.16796
# Poissons Ratio (z) = 0.33173 -0.07962
#
# Static dielectric constant tensor:
#      x y z
#    x 2.227580 -0.176000 0.081540 
#    y -0.176000 2.229690 -0.097260 
#    z 0.081540 -0.097260 2.107580 
# 
# From -- ./inp_files/90172.got.cif
#   From: 2010.05.17/outbox.cif.g08.bks.cpg/sg2_46_cif.got.tgz:90172.got - 2010.06.03 11:33:40.
