data_PCOD9062483
_publ_section_title
;
Structure prediction by ZEFSAII (Michael W. Deem and Ramdas Pophale) SiO2 
 PCOD9062483
Probable space group: P -1
;
_chemical_formula_sum "Si O2"
_cell_formula_units_Z 12
_cell_length_a 8.941258
_cell_length_b 13.387661
_cell_length_c 13.355054
_cell_angle_alpha 156.773973
_cell_angle_beta 92.206864
_cell_angle_gamma 74.795945
_cell_volume 515.093557
_symmetry_space_group_name_H-M "P -1"
_symmetry_group_IT_number 2
_symmetry_cell_setting 'triclinic'
loop_
_space_group_symop_operation_xyz
x,y,z
-x,-y,-z
loop_
_atom_site_type_symbol
_atom_site_label
_atom_site_fract_x
_atom_site_fract_y
_atom_site_fract_z
Si Si1 0.089541 0.139646 0.691860
Si Si2 0.937232 0.345243 0.278643
Si Si3 0.827971 0.797714 0.040152
Si Si4 0.565571 0.741917 0.107694
Si Si5 0.526318 0.687846 0.282953
Si Si6 0.519360 0.758818 0.693937
O O1 0.306780 0.930029 0.482112
O O2 0.088852 0.111156 0.785741
O O3 0.000000 0.000000 0.500000
O O4 0.000000 0.500000 0.000000
O O5 0.719210 0.573628 0.481045
O O6 0.000000 0.500000 0.500000
O O7 0.026878 0.342085 0.173303
O O8 0.000000 0.000000 0.000000
O O9 0.386375 0.374240 0.881647
O O10 0.743234 0.635989 0.948715
O O11 0.437630 0.112122 0.460074
O O12 0.642704 0.066562 0.229380
O O13 0.455295 0.606906 0.942020
O O14 0.500000 0.500000 0.500000
O O15 0.500000 0.000000 0.000000
#
# Coordination Sequence:
#
# PCOD9062483 Si02
#       6
#     2   2   2   2   2   2
#     4  11  24  41  65 100 144 193 242 297 354 439
#     4  12  25  47  75 109 150 193 248 319 379 449
#     4  11  25  45  75 105 150 195 252 302 382 441
#     4   9  19  35  62  92 125 181 223 288 340 424
#     4   9  18  37  58  88 132 174 233 281 343 402
#     4  12  25  47  75 109 145 197 250 314 383 449
#
# _framework density 23.296738999999999
#
# number of rings (size 3 to 8) (size 9 to 14) (size 15 to 20)
#    0.000    1.333    3.333    2.000    0.000    9.333 
#    0.000    5.000    0.000    0.000    0.000    0.000 
#    0.000    0.000    0.000    0.000    0.000    0.000 
#
# Total GULP energy -66999.545644 kJ/mol
# GULP energy per Si atom -5583.295470 kJ/mol
# Density = 2.324371 g / cm^3
# Si number density = 23.296739 Si / 1000 Ang^3
#
#
#
# Elastic Constant Matrix: (Units=GPa)
#
#
# Indices 1 2 3 4 5 6 
#
# 1 128.4849 75.7851 68.1713 -12.1410 -5.9132 21.9813
# 2 75.7851 146.9831 72.0540 -27.3725 -1.5990 7.4450
# 3 68.1713 72.0540 176.3768 -10.4666 23.0751 9.2083
# 4 -12.1410 -27.3725 -10.4666 35.7652 7.3366 -13.2097
# 5 -5.9132 -1.5990 23.0751 7.3366 72.1496 -5.7955
# 6 21.9813 7.4450 9.2083 -13.2097 -5.7955 63.8196
#
#
#
# Elastic Compliance Matrix: (Units=1/GPa)
#
#
# Indices 1 2 3 4 5 6 
#
# 1 0.013156 -0.005552 -0.003008 -0.002444 0.001861 -0.003786
# 2 -0.005552 0.012192 -0.002516 0.007599 0.000042 0.002430
# 3 -0.003008 -0.002516 0.008255 0.000029 -0.002955 -0.000124
# 4 -0.002444 0.007599 0.000029 0.036249 -0.003151 0.007168
# 5 0.001861 0.000042 -0.002955 -0.003151 0.015321 0.000519
# 6 -0.003786 0.002430 -0.000124 0.007168 0.000519 0.018239
#
#
# Mechanical properties :
#
#
# Convention : Reuss Voigt Hill
#
# Bulk Modulus (GPa) = 87.32673 98.20729 92.76701
# Shear Modulus (GPa) = 38.64560 50.06916 44.35738
#
# Velocity S-wave (km/s) = 4.07731 4.64097 4.36824
# Velocity P-wave (km/s) = 7.72864 8.42405 8.08382
#
# Compressibility (1/GPa) = 0.01145125
#
# Stress axis : x y z
#
# Youngs Moduli (GPa) = 76.01009 82.01971 121.13775
#
# Poissons Ratio (x) = 0.45537 0.36435
# Poissons Ratio (y) = 0.42200 0.30483
# Poissons Ratio (z) = 0.22862 0.20639
#
# Static dielectric constant tensor:
#      x y z
#    x 1.942410 0.079710 0.045380 
#    y 0.079710 2.588880 -0.071430 
#    z 0.045380 -0.071430 1.977380 
# 
# From -- ./inp_files/504803.got.cif
#   From: 2010.05.17/outbox.cif.g08.bks.cpg/sg2_253_cif.got.tgz:504803.got - 2010.06.03 11:33:40.
