data_PCOD9062686
_publ_section_title
;
Structure prediction by ZEFSAII (Michael W. Deem and Ramdas Pophale) SiO2 
 PCOD9062686
Probable space group: P -1
;
_chemical_formula_sum "Si O2"
_cell_formula_units_Z 16
_cell_length_a 12.522548
_cell_length_b 5.464293
_cell_length_c 11.344899
_cell_angle_alpha 72.198663
_cell_angle_beta 109.441254
_cell_angle_gamma 108.526105
_cell_volume 676.518753
_symmetry_space_group_name_H-M "P -1"
_symmetry_group_IT_number 2
_symmetry_cell_setting 'triclinic'
loop_
_space_group_symop_operation_xyz
x,y,z
-x,-y,-z
loop_
_atom_site_type_symbol
_atom_site_label
_atom_site_fract_x
_atom_site_fract_y
_atom_site_fract_z
Si Si1 0.828700 0.384992 0.040940
Si Si2 0.643376 0.448809 0.292250
Si Si3 0.868244 0.805504 0.194477
Si Si4 0.284793 0.886439 0.431268
Si Si5 0.816355 0.446434 0.758274
Si Si6 0.563001 0.576445 0.636010
Si Si7 0.568692 0.264416 0.051152
Si Si8 0.932412 0.969592 0.600232
O O1 0.880864 0.631479 0.109942
O O2 0.690231 0.355084 0.013381
O O3 0.142478 0.566741 0.092446
O O4 0.856145 0.103561 0.122819
O O5 0.750623 0.658727 0.242790
O O6 0.683008 0.340451 0.445214
O O7 0.527253 0.535473 0.276991
O O8 0.603127 0.230798 0.206170
O O9 0.981218 0.828167 0.312922
O O10 0.208484 0.807732 0.297000
O O11 0.396536 0.104834 0.398784
O O12 0.196723 0.988411 0.469527
O O13 0.685742 0.498182 0.704744
O O14 0.905218 0.679994 0.689588
O O15 0.500000 0.500000 0.500000
O O16 0.500000 0.500000 0.000000
O O17 0.500000 0.000000 0.000000
O O18 0.000000 0.000000 0.500000
#
# Coordination Sequence:
#
# PCOD9062686 Si02
#       8
#     2   2   2   2   2   2   2   2
#     4  11  27  47  73 107 151 190 251 296 369 436
#     4  11  24  44  72 106 148 188 243 301 364 435
#     4  11  28  49  75 109 145 198 247 308 360 438
#     4  11  26  45  72 108 139 192 242 305 371 435
#     4  11  26  46  74 105 146 191 240 305 364 442
#     4  11  24  42  68 111 147 189 238 296 373 439
#     4  11  24  42  68 102 142 197 238 290 352 431
#     4  11  28  48  77 104 143 187 250 307 372 430
#
# _framework density 23.650486999999998
#
# number of rings (size 3 to 8) (size 9 to 14) (size 15 to 20)
#    0.000    1.000    1.250    3.375   12.250    3.000 
#    0.000    0.000    0.000    0.000    0.000    0.000 
#    0.000    0.000    0.000    0.000    0.000    0.000 
#
# Total GULP energy -89494.192772 kJ/mol
# GULP energy per Si atom -5593.387048 kJ/mol
# Density = 2.359666 g / cm^3
# Si number density = 23.650487 Si / 1000 Ang^3
#
#
#
# Elastic Constant Matrix: (Units=GPa)
#
#
# Indices 1 2 3 4 5 6 
#
# 1 108.9736 30.6619 29.7332 -7.3160 -12.7243 4.9664
# 2 30.6619 121.3266 43.8360 30.1488 -5.9333 0.5873
# 3 29.7332 43.8360 101.6700 18.9612 -17.4105 -0.0675
# 4 -7.3160 30.1488 18.9612 46.8487 -6.1053 9.1424
# 5 -12.7243 -5.9333 -17.4105 -6.1053 43.1295 0.0023
# 6 4.9664 0.5873 -0.0675 9.1424 0.0023 34.4701
#
#
#
# Elastic Compliance Matrix: (Units=1/GPa)
#
#
# Indices 1 2 3 4 5 6 
#
# 1 0.011721 -0.003365 -0.002631 0.006057 0.002791 -0.003243
# 2 -0.003365 0.012011 -0.003042 -0.007691 -0.001657 0.002314
# 3 -0.002631 -0.003042 0.013211 -0.003603 0.003628 0.001412
# 4 0.006057 -0.007691 -0.003603 0.030921 0.003652 -0.008950
# 5 0.002791 -0.001657 0.003628 0.003652 0.025763 -0.001337
# 6 -0.003243 0.002314 0.001412 -0.008950 -0.001337 0.031815
#
#
# Mechanical properties :
#
#
# Convention : Reuss Voigt Hill
#
# Bulk Modulus (GPa) = 53.00322 60.04804 56.52563
# Shear Modulus (GPa) = 33.37603 40.07228 36.72416
#
# Velocity S-wave (km/s) = 3.76070 4.12072 3.94482
# Velocity P-wave (km/s) = 6.42782 6.93436 6.68589
#
# Compressibility (1/GPa) = 0.01886678
#
# Stress axis : x y z
#
# Youngs Moduli (GPa) = 85.31354 83.25931 75.69365
#
# Poissons Ratio (x) = 0.28014 0.19916
# Poissons Ratio (y) = 0.28705 0.23030
# Poissons Ratio (z) = 0.22447 0.25331
#
# Static dielectric constant tensor:
#      x y z
#    x 1.920810 -0.059970 0.030320 
#    y -0.059970 1.935220 -0.001100 
#    z 0.030320 -0.001100 1.935370 
# 
# From -- ./inp_files/510829.got.cif
#   From: 2010.05.17/outbox.cif.g08.bks.cpg/sg2_256_cif.got.tgz:510829.got - 2010.06.03 11:33:40.
