data_PCOD9062948
_publ_section_title
;
Structure prediction by ZEFSAII (Michael W. Deem and Ramdas Pophale) SiO2 
 PCOD9062948
Probable space group: P -1
;
_chemical_formula_sum "Si O2"
_cell_formula_units_Z 12
_cell_length_a 8.600611
_cell_length_b 17.880268
_cell_length_c 4.659069
_cell_angle_alpha 81.382174
_cell_angle_beta 67.158245
_cell_angle_gamma 47.853760
_cell_volume 483.102416
_symmetry_space_group_name_H-M "P -1"
_symmetry_group_IT_number 2
_symmetry_cell_setting 'triclinic'
loop_
_space_group_symop_operation_xyz
x,y,z
-x,-y,-z
loop_
_atom_site_type_symbol
_atom_site_label
_atom_site_fract_x
_atom_site_fract_y
_atom_site_fract_z
Si Si1 0.965660 0.731190 0.660661
Si Si2 0.520432 0.072002 0.121627
Si Si3 0.340942 0.731189 0.570884
Si Si4 0.236492 0.928015 0.549533
Si Si5 0.344299 0.382038 0.129851
Si Si6 0.990443 0.618020 0.248302
O O1 0.110768 0.759557 0.629807
O O2 0.101919 0.641910 0.380457
O O3 0.727791 0.831408 0.639579
O O4 0.924195 0.688129 0.983620
O O5 0.291642 0.972290 0.736012
O O6 0.583228 0.111182 0.805657
O O7 0.500000 0.000000 0.000000
O O8 0.278079 0.831443 0.691939
O O9 0.472286 0.641997 0.762190
O O10 0.511874 0.687991 0.204996
O O11 0.000000 0.000000 0.500000
O O12 0.159295 0.500057 0.106728
O O13 0.210681 0.359509 0.429493
#
# Coordination Sequence:
#
# PCOD9062948 Si02
#       6
#     2   2   2   2   2   2
#     4  12  25  42  67 100 137 178 227 283 344 407
#     4  12  26  46  72 101 138 180 229 284 346 414
#     4  12  25  42  67 100 137 178 227 283 344 407
#     4  12  26  46  72 101 138 180 229 284 346 414
#     4  11  24  43  67  96 134 182 232 282 341 407
#     4  11  24  43  67  96 134 182 232 282 341 407
#
# _framework density 24.839455000000001
#
# number of rings (size 3 to 8) (size 9 to 14) (size 15 to 20)
#    0.000    0.333    0.000   10.000    0.000    9.333 
#    0.000    0.000    0.000    0.000    0.000    0.000 
#    0.000    0.000    0.000    0.000    0.000    0.000 
#
# Total GULP energy -67165.784016 kJ/mol
# GULP energy per Si atom -5597.148668 kJ/mol
# Density = 2.478292 g / cm^3
# Si number density = 24.839455 Si / 1000 Ang^3
#
#
#
# Elastic Constant Matrix: (Units=GPa)
#
#
# Indices 1 2 3 4 5 6 
#
# 1 165.0608 54.2381 32.6169 6.6990 15.9529 1.4654
# 2 54.2381 110.0004 29.6713 7.4820 -3.6560 -0.0300
# 3 32.6169 29.6713 95.8531 -2.8515 9.7379 -1.0564
# 4 6.6990 7.4820 -2.8515 27.8909 -0.5982 1.8338
# 5 15.9529 -3.6560 9.7379 -0.5982 46.8853 -2.7450
# 6 1.4654 -0.0300 -1.0564 1.8338 -2.7450 28.8884
#
#
#
# Elastic Compliance Matrix: (Units=1/GPa)
#
#
# Indices 1 2 3 4 5 6 
#
# 1 0.007779 -0.003492 -0.001332 -0.001084 -0.002694 -0.000634
# 2 -0.003492 0.011841 -0.002822 -0.002602 0.002694 0.000507
# 3 -0.001332 -0.002822 0.012055 0.002252 -0.002233 0.000150
# 4 -0.001084 -0.002602 0.002252 0.037189 0.000043 -0.002222
# 5 -0.002694 0.002694 -0.002233 0.000043 0.023051 0.002245
# 6 -0.000634 0.000507 0.000150 -0.002222 0.002245 0.035009
#
#
# Mechanical properties :
#
#
# Convention : Reuss Voigt Hill
#
# Bulk Modulus (GPa) = 61.04279 67.10745 64.07512
# Shear Modulus (GPa) = 33.85756 37.69212 35.77484
#
# Velocity S-wave (km/s) = 3.69596 3.89965 3.79917
# Velocity P-wave (km/s) = 6.54537 6.88124 6.71540
#
# Compressibility (1/GPa) = 0.01638195
#
# Stress axis : x y z
#
# Youngs Moduli (GPa) = 128.55057 84.45319 82.95352
#
# Poissons Ratio (x) = 0.29495 0.11046
# Poissons Ratio (y) = 0.44895 0.23413
# Poissons Ratio (z) = 0.17117 0.23837
#
# Static dielectric constant tensor:
#      x y z
#    x 2.054890 0.017320 0.000490 
#    y 0.017320 1.878630 -0.014460 
#    z 0.000490 -0.014460 1.935030 
# 
# From -- ./inp_files/37751.got.cif
#   From: 2010.05.17/outbox.cif.g08.bks.cpg/sg2_19_cif.got.tgz:37751.got - 2010.06.03 11:33:40.
