data_PCOD9062262
_publ_section_title
;
Structure prediction by ZEFSAII (Michael W. Deem and Ramdas Pophale) SiO2 
 PCOD9062262
Probable space group: P -1
;
_chemical_formula_sum "Si O2"
_cell_formula_units_Z 14
_cell_length_a 12.763716
_cell_length_b 8.669432
_cell_length_c 10.200115
_cell_angle_alpha 126.209746
_cell_angle_beta 47.550539
_cell_angle_gamma 111.695868
_cell_volume 671.174472
_symmetry_space_group_name_H-M "P -1"
_symmetry_group_IT_number 2
_symmetry_cell_setting 'triclinic'
loop_
_space_group_symop_operation_xyz
x,y,z
-x,-y,-z
loop_
_atom_site_type_symbol
_atom_site_label
_atom_site_fract_x
_atom_site_fract_y
_atom_site_fract_z
Si Si1 0.294386 0.005919 0.052596
Si Si2 0.726313 0.336812 0.699011
Si Si3 0.226719 0.306809 0.670248
Si Si4 0.338371 0.397067 0.349672
Si Si5 0.477324 0.993172 0.360186
Si Si6 0.024091 0.980320 0.626366
Si Si7 0.336212 0.584021 0.919865
O O1 0.649215 0.822567 0.820741
O O2 0.381800 0.990226 0.836582
O O3 0.310498 0.807069 0.017804
O O4 0.127267 0.048304 0.195226
O O5 0.733147 0.479364 0.643841
O O6 0.864870 0.196001 0.527830
O O7 0.694666 0.444467 0.915831
O O8 0.595225 0.202037 0.715432
O O9 0.246879 0.405688 0.562766
O O10 0.364918 0.162490 0.498681
O O11 0.093548 0.173653 0.713673
O O12 0.235816 0.459990 0.853967
O O13 0.497392 0.464381 0.273810
O O14 0.500000 0.000000 0.500000
O O15 0.000000 0.000000 0.500000
#
# Coordination Sequence:
#
# PCOD9062262 Si02
#       7
#     2   2   2   2   2   2   2
#     4  12  24  42  72  93 140 175 230 265 348 388
#     4  11  25  42  71  99 140 175 229 274 341 400
#     4  11  25  42  71  99 140 175 229 274 341 400
#     4  12  23  41  70 107 131 178 226 284 335 403
#     4  11  24  44  70 101 133 179 225 290 331 403
#     4  11  23  49  66  97 135 191 222 272 332 418
#     4  12  23  41  70 107 131 178 226 284 335 403
#
# _framework density 20.858958000000001
#
# number of rings (size 3 to 8) (size 9 to 14) (size 15 to 20)
#    0.000    0.571    5.714    3.000    4.000    1.143 
#    0.000    2.857    0.000    0.000    0.000    0.000 
#    0.000    0.000    0.000    0.000    0.000    0.000 
#
# Total GULP energy -78404.450878 kJ/mol
# GULP energy per Si atom -5600.317920 kJ/mol
# Density = 2.081148 g / cm^3
# Si number density = 20.858958 Si / 1000 Ang^3
#
#
#
# Elastic Constant Matrix: (Units=GPa)
#
#
# Indices 1 2 3 4 5 6 
#
# 1 81.1461 37.1795 31.6849 -1.3472 16.6824 17.5666
# 2 37.1795 78.2669 13.5013 9.0424 19.3842 -2.8034
# 3 31.6849 13.5013 58.6484 -18.2725 17.8026 7.9129
# 4 -1.3472 9.0424 -18.2725 31.5448 4.7443 2.8728
# 5 16.6824 19.3842 17.8026 4.7443 50.8074 -3.4499
# 6 17.5666 -2.8034 7.9129 2.8728 -3.4499 40.2803
#
#
#
# Elastic Compliance Matrix: (Units=1/GPa)
#
#
# Indices 1 2 3 4 5 6 
#
# 1 0.021711 -0.008814 -0.008195 -0.000294 -0.001449 -0.008575
# 2 -0.008814 0.018931 -0.001710 -0.006913 -0.002693 0.005760
# 3 -0.008195 -0.001710 0.032149 0.020774 -0.010216 -0.005217
# 4 -0.000294 -0.006913 0.020774 0.047939 -0.009611 -0.008676
# 5 -0.001449 -0.002693 -0.010216 -0.009611 0.026027 0.005366
# 6 -0.008575 0.005760 -0.005217 -0.008676 0.005366 0.031070
#
#
# Mechanical properties :
#
#
# Convention : Reuss Voigt Hill
#
# Bulk Modulus (GPa) = 28.28626 42.53254 35.40940
# Shear Modulus (GPa) = 22.02172 33.57287 27.79730
#
# Velocity S-wave (km/s) = 3.25275 4.01623 3.65448
# Velocity P-wave (km/s) = 5.26282 6.47624 5.90080
#
# Compressibility (1/GPa) = 0.03535285
#
# Stress axis : x y z
#
# Youngs Moduli (GPa) = 46.05896 52.82464 31.10511
#
# Poissons Ratio (x) = 0.46560 0.25492
# Poissons Ratio (y) = 0.40597 0.05318
# Poissons Ratio (z) = 0.37747 0.09031
#
# Static dielectric constant tensor:
#      x y z
#    x 1.736740 -0.001780 -0.003630 
#    y -0.001780 1.742680 0.021310 
#    z -0.003630 0.021310 1.735020 
# 
# From -- ./inp_files/235810.got.cif
#   From: 2010.05.17/outbox.cif.g08.bks.cpg/sg2_118_cif.got.tgz:235810.got - 2010.06.03 11:33:40.
