data_PCOD9062704
_publ_section_title
;
Structure prediction by ZEFSAII (Michael W. Deem and Ramdas Pophale) SiO2 
 PCOD9062704
Probable space group: P -1
;
_chemical_formula_sum "Si O2"
_cell_formula_units_Z 16
_cell_length_a 11.902336
_cell_length_b 14.545376
_cell_length_c 9.009525
_cell_angle_alpha 91.643124
_cell_angle_beta 101.230257
_cell_angle_gamma 32.031032
_cell_volume 783.025160
_symmetry_space_group_name_H-M "P -1"
_symmetry_group_IT_number 2
_symmetry_cell_setting 'triclinic'
loop_
_space_group_symop_operation_xyz
x,y,z
-x,-y,-z
loop_
_atom_site_type_symbol
_atom_site_label
_atom_site_fract_x
_atom_site_fract_y
_atom_site_fract_z
Si Si1 0.628474 0.932857 0.183432
Si Si2 0.915557 0.054288 0.312756
Si Si3 0.843052 0.467510 0.191733
Si Si4 0.994866 0.193539 0.845600
Si Si5 0.614546 0.591547 0.837471
Si Si6 0.750307 0.689360 0.734036
Si Si7 0.359767 0.253894 0.630397
Si Si8 0.113088 0.099189 0.217174
O O1 0.839768 0.850375 0.197620
O O2 0.693439 0.794145 0.275854
O O3 0.454413 0.108030 0.249376
O O4 0.500000 0.000000 0.000000
O O5 0.647003 0.234849 0.251000
O O6 0.000706 0.085725 0.251494
O O7 0.005486 0.901963 0.244827
O O8 0.000000 0.000000 0.500000
O O9 0.731504 0.590845 0.310448
O O10 0.020851 0.417869 0.168144
O O11 0.982597 0.279176 0.249741
O O12 0.661344 0.571224 0.023843
O O13 0.754081 0.407227 0.810731
O O14 0.091356 0.115104 0.033515
O O15 0.715868 0.611783 0.785677
O O16 0.742536 0.691711 0.554303
O O17 0.628098 0.073917 0.679745
#
# Coordination Sequence:
#
# PCOD9062704 Si02
#       8
#     2   2   2   2   2   2   2   2
#     4  12  21  41  70  97 135 177 218 264 333 399
#     4  12  27  45  69  95 133 176 224 280 331 383
#     4  11  24  42  68  98 133 176 219 271 332 403
#     4  11  24  44  70  97 130 177 222 275 324 395
#     4  11  24  45  68  96 131 174 224 271 332 397
#     4  12  23  41  66 101 141 171 216 275 336 398
#     4  12  24  40  67 100 139 174 213 278 336 390
#     4  11  25  44  67  96 130 176 229 267 326 392
#
# _framework density 20.433571000000001
#
# number of rings (size 3 to 8) (size 9 to 14) (size 15 to 20)
#    0.000    0.500    3.750    5.250    0.000    4.500 
#    0.000    0.000    0.000    0.000    0.000    0.000 
#    0.000    0.000    0.000    0.000    0.000    0.000 
#
# Total GULP energy -89624.546489 kJ/mol
# GULP energy per Si atom -5601.534156 kJ/mol
# Density = 2.038706 g / cm^3
# Si number density = 20.433571 Si / 1000 Ang^3
#
#
#
# Elastic Constant Matrix: (Units=GPa)
#
#
# Indices 1 2 3 4 5 6 
#
# 1 133.2059 44.8194 24.5467 6.6279 13.4569 19.6679
# 2 44.8194 133.9128 65.0526 27.9541 33.9078 31.4072
# 3 24.5467 65.0526 81.5824 13.2049 18.2050 1.5442
# 4 6.6279 27.9541 13.2049 52.7005 8.2713 31.3607
# 5 13.4569 33.9078 18.2050 8.2713 31.3126 13.7674
# 6 19.6679 31.4072 1.5442 31.3607 13.7674 47.0097
#
#
#
# Elastic Compliance Matrix: (Units=1/GPa)
#
#
# Indices 1 2 3 4 5 6 
#
# 1 0.008909 -0.001771 -0.001717 0.002877 0.000304 -0.004496
# 2 -0.001771 0.017690 -0.011635 -0.000030 -0.007953 -0.008346
# 3 -0.001717 -0.011635 0.024026 -0.007131 -0.004850 0.013880
# 4 0.002877 -0.000030 -0.007131 0.034938 0.005025 -0.025728
# 5 0.000304 -0.007953 -0.004850 0.005025 0.047098 -0.011800
# 6 -0.004496 -0.008346 0.013880 -0.025728 -0.011800 0.048893
#
#
# Mechanical properties :
#
#
# Convention : Reuss Voigt Hill
#
# Bulk Modulus (GPa) = 49.07070 68.61537 58.84303
# Shear Modulus (GPa) = 22.87355 40.49005 31.68180
#
# Velocity S-wave (km/s) = 3.34939 4.45628 3.94188
# Velocity P-wave (km/s) = 6.24698 7.75439 7.04114
#
# Compressibility (1/GPa) = 0.02037876
#
# Stress axis : x y z
#
# Youngs Moduli (GPa) = 112.24065 56.52904 41.62183
#
# Poissons Ratio (x) = 0.10010 0.07147
# Poissons Ratio (y) = 0.19875 0.48429
# Poissons Ratio (z) = 0.19273 0.65774
#
# Static dielectric constant tensor:
#      x y z
#    x 1.694750 0.005030 -0.004380 
#    y 0.005030 1.719590 -0.000980 
#    z -0.004380 -0.000980 1.691520 
# 
# From -- ./inp_files/226073.got.cif
#   From: 2010.05.17/outbox.cif.g08.bks.cpg/sg2_114_cif.got.tgz:226073.got - 2010.06.03 11:33:40.
