data_PCOD9062160
_publ_section_title
;
Structure prediction by ZEFSAII (Michael W. Deem and Ramdas Pophale) SiO2 
 PCOD9062160
Probable space group: P -1
;
_chemical_formula_sum "Si O2"
_cell_formula_units_Z 14
_cell_length_a 5.263239
_cell_length_b 14.666761
_cell_length_c 12.626051
_cell_angle_alpha 42.794354
_cell_angle_beta 58.726036
_cell_angle_gamma 67.336536
_cell_volume 565.925521
_symmetry_space_group_name_H-M "P -1"
_symmetry_group_IT_number 2
_symmetry_cell_setting 'triclinic'
loop_
_space_group_symop_operation_xyz
x,y,z
-x,-y,-z
loop_
_atom_site_type_symbol
_atom_site_label
_atom_site_fract_x
_atom_site_fract_y
_atom_site_fract_z
Si Si1 0.063276 0.647918 0.618729
Si Si2 0.678485 0.064290 0.537835
Si Si3 0.737116 0.118768 0.721571
Si Si4 0.879526 0.895820 0.026780
Si Si5 0.364696 0.495509 0.414308
Si Si6 0.540195 0.779805 0.739401
Si Si7 0.254495 0.634015 0.120947
O O1 0.052627 0.752482 0.433445
O O2 0.417126 0.621999 0.578936
O O3 0.911108 0.505952 0.748486
O O4 0.868112 0.722578 0.687091
O O5 0.646795 0.098118 0.637927
O O6 0.606268 0.188630 0.370241
O O7 0.495918 0.929159 0.669250
O O8 0.000000 0.000000 0.500000
O O9 0.454199 0.140396 0.837585
O O10 0.881317 0.982128 0.846517
O O11 0.049820 0.758389 0.092105
O O12 0.000000 0.000000 0.000000
O O13 0.500000 0.500000 0.500000
O O14 0.434432 0.607007 0.214180
O O15 0.000000 0.500000 0.500000
O O16 0.415930 0.678474 0.940247
#
# Coordination Sequence:
#
# PCOD9062160 Si02
#       7
#     2   2   2   2   2   2   2
#     4  12  28  48  79 115 162 210 272 329 414 487
#     4  11  23  47  77 111 158 208 270 333 403 483
#     4  11  26  45  77 112 148 207 263 335 402 486
#     4  11  27  47  76 110 153 199 272 332 402 483
#     4  12  28  52  79 113 161 216 264 333 410 488
#     4  11  27  47  78 116 157 215 268 335 405 482
#     4  12  28  49  77 115 165 211 268 338 406 485
#
# _framework density 24.738239
#
# number of rings (size 3 to 8) (size 9 to 14) (size 15 to 20)
#    0.000    0.571    2.857    3.000    8.000    4.000 
#    0.000    0.000    0.000    0.000    0.000    0.000 
#    0.000    0.000    0.000    0.000    0.000    0.000 
#
# Total GULP energy -78188.724512 kJ/mol
# GULP energy per Si atom -5584.908894 kJ/mol
# Density = 2.468193 g / cm^3
# Si number density = 24.738239 Si / 1000 Ang^3
#
#
#
# Elastic Constant Matrix: (Units=GPa)
#
#
# Indices 1 2 3 4 5 6 
#
# 1 100.3977 53.4738 66.8680 10.3031 9.7337 -10.1357
# 2 53.4738 178.6201 72.1999 -6.8287 6.8090 -17.7380
# 3 66.8680 72.1999 243.7212 -6.2408 7.6699 1.8465
# 4 10.3031 -6.8287 -6.2408 32.5657 -5.0160 -6.9294
# 5 9.7337 6.8090 7.6699 -5.0160 53.5339 0.2048
# 6 -10.1357 -17.7380 1.8465 -6.9294 0.2048 53.0355
#
#
#
# Elastic Compliance Matrix: (Units=1/GPa)
#
#
# Indices 1 2 3 4 5 6 
#
# 1 0.014733 -0.003151 -0.003197 -0.006072 -0.002393 0.001089
# 2 -0.003151 0.007386 -0.001271 0.002797 0.000069 0.002278
# 3 -0.003197 -0.001271 0.005401 0.001582 0.000121 -0.001018
# 4 -0.006072 0.002797 0.001582 0.035012 0.003786 0.004280
# 5 -0.002393 0.000069 0.000121 0.003786 0.019443 -0.000019
# 6 0.001089 0.002278 -0.001018 0.004280 -0.000019 0.020420
#
#
# Mechanical properties :
#
#
# Convention : Reuss Voigt Hill
#
# Bulk Modulus (GPa) = 81.42386 100.86916 91.14651
# Shear Modulus (GPa) = 41.07492 49.84017 45.45755
#
# Velocity S-wave (km/s) = 4.07920 4.49341 4.29131
# Velocity P-wave (km/s) = 7.42779 8.23311 7.84080
#
# Compressibility (1/GPa) = 0.01228141
#
# Stress axis : x y z
#
# Youngs Moduli (GPa) = 67.87400 135.38739 185.14198
#
# Poissons Ratio (x) = 0.42662 0.59193
# Poissons Ratio (y) = 0.21388 0.23538
# Poissons Ratio (z) = 0.21700 0.17212
#
# Static dielectric constant tensor:
#      x y z
#    x 2.179640 0.084920 -0.015970 
#    y 0.084920 1.982050 -0.018390 
#    z -0.015970 -0.018390 1.963890 
# 
# From -- ./inp_files/368820.got.cif
#   From: 2010.05.17/outbox.cif.g08.bks.cpg/sg2_185_cif.got.tgz:368820.got - 2010.06.03 11:33:40.
