data_PCOD9062657
_publ_section_title
;
Structure prediction by ZEFSAII (Michael W. Deem and Ramdas Pophale) SiO2 
 PCOD9062657
Probable space group: P -1
;
_chemical_formula_sum "Si O2"
_cell_formula_units_Z 14
_cell_length_a 6.863778
_cell_length_b 5.592432
_cell_length_c 22.018483
_cell_angle_alpha 125.627267
_cell_angle_beta 114.003086
_cell_angle_gamma 67.839465
_cell_volume 616.281850
_symmetry_space_group_name_H-M "P -1"
_symmetry_group_IT_number 2
_symmetry_cell_setting 'triclinic'
loop_
_space_group_symop_operation_xyz
x,y,z
-x,-y,-z
loop_
_atom_site_type_symbol
_atom_site_label
_atom_site_fract_x
_atom_site_fract_y
_atom_site_fract_z
Si Si1 0.142159 0.663291 0.586421
Si Si2 0.762097 0.524133 0.000729
Si Si3 0.019125 0.367704 0.129044
Si Si4 0.349919 0.190676 0.648025
Si Si5 0.527540 0.032008 0.893619
Si Si6 0.858842 0.052417 0.706325
Si Si7 0.153343 0.710108 0.779969
O O1 0.261696 0.411220 0.612573
O O2 0.000000 0.500000 0.500000
O O3 0.283839 0.863782 0.595874
O O4 0.984632 0.914864 0.642619
O O5 0.596231 0.826267 0.040704
O O6 0.837977 0.402963 0.059862
O O7 0.625382 0.305824 0.917705
O O8 0.000000 0.500000 0.000000
O O9 0.058430 0.672473 0.210241
O O10 0.924650 0.210387 0.150090
O O11 0.251559 0.211078 0.108150
O O12 0.607810 0.141380 0.674606
O O13 0.262153 0.376144 0.725279
O O14 0.343140 0.896238 0.815327
O O15 0.932272 0.790041 0.725675
#
# Coordination Sequence:
#
# PCOD9062657 Si02
#       7
#     2   2   2   2   2   2   2
#     4  11  26  48  75 111 148 186 235 288 348 427
#     4  11  26  45  63  96 134 179 236 298 364 420
#     4  12  24  42  69  94 133 181 233 294 352 419
#     4  11  25  45  75 106 147 189 233 288 356 417
#     4  11  24  42  66  93 128 180 229 290 356 413
#     4  11  25  43  69 103 142 185 233 290 349 425
#     4  11  24  42  67 101 136 180 241 293 349 422
#
# _framework density 22.716878999999999
#
# number of rings (size 3 to 8) (size 9 to 14) (size 15 to 20)
#    0.000    0.857    4.286    1.714    2.000    5.714 
#    0.000    0.000    0.000    0.000    0.000    0.000 
#    0.000    0.000    0.000    0.000    0.000    0.000 
#
# Total GULP energy -78119.108028 kJ/mol
# GULP energy per Si atom -5579.936288 kJ/mol
# Density = 2.266517 g / cm^3
# Si number density = 22.716879 Si / 1000 Ang^3
#
#
#
# Elastic Constant Matrix: (Units=GPa)
#
#
# Indices 1 2 3 4 5 6 
#
# 1 130.4075 71.7126 27.3376 -12.0451 21.0768 -17.0296
# 2 71.7126 84.3473 32.7446 -3.3070 5.5126 -24.5069
# 3 27.3376 32.7446 84.0378 5.2719 23.5002 0.6613
# 4 -12.0451 -3.3070 5.2719 32.8566 8.2627 9.3286
# 5 21.0768 5.5126 23.5002 8.2627 33.5471 4.6368
# 6 -17.0296 -24.5069 0.6613 9.3286 4.6368 42.2413
#
#
#
# Elastic Compliance Matrix: (Units=1/GPa)
#
#
# Indices 1 2 3 4 5 6 
#
# 1 0.018944 -0.017170 0.003773 0.008815 -0.013501 -0.002848
# 2 -0.017170 0.033099 -0.010524 -0.008176 0.012962 0.012828
# 3 0.003773 -0.010524 0.018463 0.001835 -0.013502 -0.003797
# 4 0.008815 -0.008176 0.001835 0.038338 -0.013793 -0.008171
# 5 -0.013501 0.012962 -0.013502 -0.013793 0.049023 -0.000047
# 6 -0.002848 0.012828 -0.003797 -0.008171 -0.000047 0.031837
#
#
# Mechanical properties :
#
#
# Convention : Reuss Voigt Hill
#
# Bulk Modulus (GPa) = 44.12511 62.48691 53.30601
# Shear Modulus (GPa) = 20.39972 32.86217 26.63095
#
# Velocity S-wave (km/s) = 2.99991 3.80754 3.42760
# Velocity P-wave (km/s) = 5.60940 6.84809 6.25946
#
# Compressibility (1/GPa) = 0.02266283
#
# Stress axis : x y z
#
# Youngs Moduli (GPa) = 52.78759 30.21236 54.16219
#
# Poissons Ratio (x) = 0.51875 -0.20433
# Poissons Ratio (y) = 0.90638 0.56999
# Poissons Ratio (z) = -0.19914 0.31795
#
# Static dielectric constant tensor:
#      x y z
#    x 1.825850 0.092370 -0.015520 
#    y 0.092370 1.981650 0.042070 
#    z -0.015520 0.042070 1.821210 
# 
# From -- ./inp_files/10880.got.cif
#   From: 2010.05.17/outbox.cif.g08.bks.cpg/sg2_6_cif.got.tgz:10880.got - 2010.06.03 11:33:40.
