data_PCOD9062907
_publ_section_title
;
Structure prediction by ZEFSAII (Michael W. Deem and Ramdas Pophale) SiO2 
 PCOD9062907
Probable space group: P -1
;
_chemical_formula_sum "Si O2"
_cell_formula_units_Z 14
_cell_length_a 5.405368
_cell_length_b 8.926841
_cell_length_c 12.549066
_cell_angle_alpha 98.802791
_cell_angle_beta 90.703667
_cell_angle_gamma 98.440759
_cell_volume 591.540033
_symmetry_space_group_name_H-M "P -1"
_symmetry_group_IT_number 2
_symmetry_cell_setting 'triclinic'
loop_
_space_group_symop_operation_xyz
x,y,z
-x,-y,-z
loop_
_atom_site_type_symbol
_atom_site_label
_atom_site_fract_x
_atom_site_fract_y
_atom_site_fract_z
Si Si1 0.069461 0.334721 0.606781
Si Si2 0.074215 0.881461 0.842140
Si Si3 0.803796 0.095539 0.723640
Si Si4 0.772912 0.312354 0.376162
Si Si5 0.442523 0.163114 0.879181
Si Si6 0.003727 0.682048 0.024036
Si Si7 0.345960 0.124484 0.466335
O O1 0.180821 0.511100 0.637852
O O2 0.281332 0.234278 0.569156
O O3 0.924935 0.262232 0.701247
O O4 0.905188 0.310998 0.493488
O O5 0.135783 0.785065 0.729446
O O6 0.310461 0.997393 0.903254
O O7 0.900691 0.002353 0.811981
O O8 0.966511 0.762466 0.918963
O O9 0.520677 0.113582 0.755332
O O10 0.857823 0.987677 0.613129
O O11 0.490958 0.236761 0.391111
O O12 0.231614 0.273600 0.903837
O O13 0.711655 0.246553 0.931536
O O14 0.000000 0.500000 0.000000
O O15 0.500000 0.000000 0.500000
#
# Coordination Sequence:
#
# PCOD9062907 Si02
#       7
#     2   2   2   2   2   2   2
#     4  11  25  43  64 101 155 186 239 302 363 423
#     4  12  26  47  78 105 145 195 258 302 371 453
#     4  12  25  43  74 108 143 197 254 298 364 449
#     4  11  24  43  66 104 142 194 237 302 363 430
#     4  12  27  51  79 110 148 195 248 311 375 449
#     4  12  30  53  78 112 151 189 243 319 387 443
#     4  12  22  41  69 102 148 198 246 298 359 434
#
# _framework density 23.667034999999998
#
# number of rings (size 3 to 8) (size 9 to 14) (size 15 to 20)
#    0.000    0.286    5.714    3.000    4.000    0.000 
#    0.000    1.429    0.000    0.000    0.000    0.000 
#    0.000    0.000    0.000    0.000    0.000    0.000 
#
# Total GULP energy -78144.928837 kJ/mol
# GULP energy per Si atom -5581.780631 kJ/mol
# Density = 2.361317 g / cm^3
# Si number density = 23.667035 Si / 1000 Ang^3
#
#
#
# Elastic Constant Matrix: (Units=GPa)
#
#
# Indices 1 2 3 4 5 6 
#
# 1 91.4979 64.6809 43.3098 6.5973 -14.2767 -13.6186
# 2 64.6809 226.3195 55.7278 -1.5354 -15.5942 0.4361
# 3 43.3098 55.7278 86.4878 -5.0709 -10.1894 -12.6350
# 4 6.5973 -1.5354 -5.0709 49.3882 -2.7768 -1.6634
# 5 -14.2767 -15.5942 -10.1894 -2.7768 49.6040 5.6735
# 6 -13.6186 0.4361 -12.6350 -1.6634 5.6735 32.2499
#
#
#
# Elastic Compliance Matrix: (Units=1/GPa)
#
#
# Indices 1 2 3 4 5 6 
#
# 1 0.017227 -0.003413 -0.005675 -0.002720 0.002041 0.004598
# 2 -0.003413 0.006060 -0.002469 0.000344 0.000732 -0.002602
# 3 -0.005675 -0.002469 0.016852 0.002595 0.000711 0.004248
# 4 -0.002720 0.000344 0.002595 0.020967 0.000943 0.000779
# 5 0.002041 0.000732 0.000711 0.000943 0.021474 -0.002598
# 6 0.004598 -0.002602 0.004248 0.000779 -0.002598 0.035146
#
#
# Mechanical properties :
#
#
# Convention : Reuss Voigt Hill
#
# Bulk Modulus (GPa) = 58.73827 81.30471 70.02149
# Shear Modulus (GPa) = 34.12652 42.28753 38.20703
#
# Velocity S-wave (km/s) = 3.80141 4.23161 4.02226
# Velocity P-wave (km/s) = 6.64380 7.63567 7.15694
#
# Compressibility (1/GPa) = 0.01702467
#
# Stress axis : x y z
#
# Youngs Moduli (GPa) = 58.04883 165.02589 59.34156
#
# Poissons Ratio (x) = 0.56317 0.33676
# Poissons Ratio (y) = 0.19810 0.14652
# Poissons Ratio (z) = 0.32942 0.40747
#
# Static dielectric constant tensor:
#      x y z
#    x 2.019660 0.014000 0.056440 
#    y 0.014000 1.825390 0.008360 
#    z 0.056440 0.008360 1.983210 
# 
# From -- ./inp_files/128313.got.cif
#   From: 2010.05.17/outbox.cif.g08.bks.cpg/sg2_65_cif.got.tgz:128313.got - 2010.06.03 11:33:40.
