data_PCOD9062609
_publ_section_title
;
Structure prediction by ZEFSAII (Michael W. Deem and Ramdas Pophale) SiO2 
 PCOD9062609
Probable space group: P -1
;
_chemical_formula_sum "Si O2"
_cell_formula_units_Z 16
_cell_length_a 6.510406
_cell_length_b 20.001536
_cell_length_c 10.395298
_cell_angle_alpha 33.730142
_cell_angle_beta 113.086694
_cell_angle_gamma 111.203353
_cell_volume 689.784367
_symmetry_space_group_name_H-M "P -1"
_symmetry_group_IT_number 2
_symmetry_cell_setting 'triclinic'
loop_
_space_group_symop_operation_xyz
x,y,z
-x,-y,-z
loop_
_atom_site_type_symbol
_atom_site_label
_atom_site_fract_x
_atom_site_fract_y
_atom_site_fract_z
Si Si1 0.882077 0.715489 0.906189
Si Si2 0.634589 0.587595 0.492867
Si Si3 0.503352 0.866685 0.659103
Si Si4 0.027710 0.808928 0.521013
Si Si5 0.083969 0.717596 0.400826
Si Si6 0.648734 0.213429 0.981122
Si Si7 0.274448 0.963671 0.922652
Si Si8 0.569052 0.478769 0.197256
O O1 0.729407 0.826546 0.717848
O O2 0.951592 0.726864 0.755410
O O3 0.738460 0.592107 0.093613
O O4 0.100912 0.730525 0.023948
O O5 0.500000 0.500000 0.500000
O O6 0.497476 0.707162 0.271184
O O7 0.620243 0.531107 0.722813
O O8 0.880519 0.630405 0.435486
O O9 0.290964 0.844138 0.550408
O O10 0.500000 0.000000 0.500000
O O11 0.461760 0.788162 0.903645
O O12 0.003734 0.744817 0.481555
O O13 0.884390 0.926367 0.297452
O O14 0.301308 0.642647 0.577483
O O15 0.140873 0.845631 0.141136
O O16 0.659649 0.082709 0.128205
O O17 0.500000 0.000000 0.000000
O O18 0.500000 0.500000 0.000000
#
# Coordination Sequence:
#
# PCOD9062609 Si02
#       8
#     2   2   2   2   2   2   2   2
#     4  11  25  46  74 105 146 188 237 298 359 429
#     4  12  27  46  74 108 145 190 243 296 363 431
#     4  11  24  41  73 103 144 190 234 296 360 428
#     4  11  26  45  70 107 141 189 241 291 364 431
#     4  12  28  47  73 106 144 190 238 300 362 425
#     4  11  25  44  69 106 142 182 243 289 358 430
#     4  12  27  46  74 101 146 190 239 299 359 431
#     4  12  27  47  76 104 145 191 244 301 361 433
#
# _framework density 23.195656
#
# number of rings (size 3 to 8) (size 9 to 14) (size 15 to 20)
#    0.000    0.500    1.250    5.625   10.500    7.000 
#    0.000    0.000    0.000    0.000    0.000    0.000 
#    0.000    0.000    0.000    0.000    0.000    0.000 
#
# Total GULP energy -89631.586180 kJ/mol
# GULP energy per Si atom -5601.974136 kJ/mol
# Density = 2.314286 g / cm^3
# Si number density = 23.195656 Si / 1000 Ang^3
#
#
#
# Elastic Constant Matrix: (Units=GPa)
#
#
# Indices 1 2 3 4 5 6 
#
# 1 66.1473 -0.1637 7.1871 9.8401 -12.5703 -0.0598
# 2 -0.1637 78.1779 -6.5322 6.5976 -22.6375 3.0159
# 3 7.1871 -6.5322 73.8801 3.6156 -8.7236 7.2794
# 4 9.8401 6.5976 3.6156 38.5333 0.7916 4.2632
# 5 -12.5703 -22.6375 -8.7236 0.7916 35.3191 -9.8826
# 6 -0.0598 3.0159 7.2794 4.2632 -9.8826 43.7077
#
#
#
# Elastic Compliance Matrix: (Units=1/GPa)
#
#
# Indices 1 2 3 4 5 6 
#
# 1 0.017663 0.002939 -0.000383 -0.005428 0.008875 0.002421
# 2 0.002939 0.017220 0.002858 -0.004441 0.013392 0.001801
# 3 -0.000383 0.002858 0.014629 -0.001718 0.004971 -0.001343
# 4 -0.005428 -0.004441 -0.001718 0.028820 -0.006909 -0.003788
# 5 0.008875 0.013392 0.004971 -0.006909 0.043919 0.008864
# 6 0.002421 0.001801 -0.001343 -0.003788 0.008864 0.025356
#
#
# Mechanical properties :
#
#
# Convention : Reuss Voigt Hill
#
# Bulk Modulus (GPa) = 16.57303 24.35417 20.46360
# Shear Modulus (GPa) = 31.86924 38.02630 34.94777
#
# Velocity S-wave (km/s) = 3.71068 4.05331 3.88577
# Velocity P-wave (km/s) = 5.05166 5.69456 5.38271
#
# Compressibility (1/GPa) = 0.06033901
#
# Stress axis : x y z
#
# Youngs Moduli (GPa) = 56.61583 58.07348 68.35853
#
# Poissons Ratio (x) = -0.17071 0.02621
# Poissons Ratio (y) = -0.16642 -0.19535
# Poissons Ratio (z) = 0.02170 -0.16596
#
# Static dielectric constant tensor:
#      x y z
#    x 1.879060 0.024290 -0.048380 
#    y 0.024290 1.877530 -0.011210 
#    z -0.048380 -0.011210 1.898210 
# 
# From -- ./inp_files/371029.got.cif
#   From: 2010.05.17/outbox.cif.g08.bks.cpg/sg2_186_cif.got.tgz:371029.got - 2010.06.03 11:33:40.
