data_PCOD9062983
_publ_section_title
;
Structure prediction by ZEFSAII (Michael W. Deem and Ramdas Pophale) SiO2 
 PCOD9062983
Probable space group: P -1
;
_chemical_formula_sum "Si O2"
_cell_formula_units_Z 16
_cell_length_a 15.085986
_cell_length_b 6.361651
_cell_length_c 15.077786
_cell_angle_alpha 130.912928
_cell_angle_beta 139.607859
_cell_angle_gamma 48.952902
_cell_volume 670.791733
_symmetry_space_group_name_H-M "P -1"
_symmetry_group_IT_number 2
_symmetry_cell_setting 'triclinic'
loop_
_space_group_symop_operation_xyz
x,y,z
-x,-y,-z
loop_
_atom_site_type_symbol
_atom_site_label
_atom_site_fract_x
_atom_site_fract_y
_atom_site_fract_z
Si Si1 0.503983 0.882873 0.174723
Si Si2 0.670076 0.200909 0.509139
Si Si3 0.274282 0.603127 0.895718
Si Si4 0.964008 0.667538 0.611121
Si Si5 0.609514 0.175277 0.647047
Si Si6 0.964712 0.353182 0.026611
Si Si7 0.164747 0.434564 0.346884
Si Si8 0.644658 0.609560 0.916344
O O1 0.627140 0.577175 0.159237
O O2 0.564705 0.044232 0.341037
O O3 0.467892 0.088845 0.117534
O O4 0.349506 0.832847 0.053415
O O5 0.710347 0.426271 0.538008
O O6 0.826675 0.953626 0.571951
O O7 0.618454 0.330966 0.603069
O O8 0.108033 0.721479 0.774105
O O9 0.301176 0.392633 0.943387
O O10 0.911713 0.482520 0.594250
O O11 0.000000 0.500000 0.500000
O O12 0.760522 0.915700 0.697906
O O13 0.500000 0.000000 0.500000
O O14 0.572865 0.370796 0.760644
O O15 0.045216 0.498600 0.197995
O O16 0.792901 0.496686 0.942398
O O17 0.000000 0.500000 0.000000
O O18 0.000000 0.000000 0.000000
#
# Coordination Sequence:
#
# PCOD9062983 Si02
#       8
#     2   2   2   2   2   2   2   2
#     4  11  26  46  70 102 142 193 249 319 380 467
#     4  11  25  45  71 108 145 188 251 305 387 461
#     4  11  25  47  70 103 142 189 255 315 390 452
#     4  11  24  47  73 102 142 192 250 319 381 457
#     4  11  24  43  68 103 144 190 238 304 379 460
#     4  12  27  45  73 113 153 198 254 315 384 462
#     4  11  25  43  70 107 147 187 249 313 377 463
#     4  12  25  42  71 101 146 190 246 306 384 456
#
# _framework density 23.852409999999999
#
# number of rings (size 3 to 8) (size 9 to 14) (size 15 to 20)
#    0.000    0.750    3.750    2.625    5.250    5.500 
#    2.250    0.000    0.000    0.000    0.000    0.000 
#    0.000    0.000    0.000    0.000    0.000    0.000 
#
# Total GULP energy -89231.105673 kJ/mol
# GULP energy per Si atom -5576.944105 kJ/mol
# Density = 2.379812 g / cm^3
# Si number density = 23.852410 Si / 1000 Ang^3
#
#
#
# Elastic Constant Matrix: (Units=GPa)
#
#
# Indices 1 2 3 4 5 6 
#
# 1 98.4197 25.9980 35.3600 5.6898 -2.3320 20.4350
# 2 25.9980 85.5736 35.2162 -12.8743 2.4775 1.9757
# 3 35.3600 35.2162 152.1659 -15.7574 15.3895 6.7956
# 4 5.6898 -12.8743 -15.7574 33.7704 6.5258 4.9263
# 5 -2.3320 2.4775 15.3895 6.5258 43.5549 -6.7203
# 6 20.4350 1.9757 6.7956 4.9263 -6.7203 32.1092
#
#
#
# Elastic Compliance Matrix: (Units=1/GPa)
#
#
# Indices 1 2 3 4 5 6 
#
# 1 0.013803 -0.003617 -0.002629 -0.004172 0.001408 -0.007071
# 2 -0.003617 0.014361 -0.001866 0.005296 -0.001023 0.000786
# 3 -0.002629 -0.001866 0.008585 0.004749 -0.004026 -0.001600
# 4 -0.004172 0.005296 0.004749 0.037140 -0.008724 -0.006200
# 5 0.001408 -0.001023 -0.004026 -0.008724 0.026901 0.006988
# 6 -0.007071 0.000786 -0.001600 -0.006200 0.006988 0.038348
#
#
# Mechanical properties :
#
#
# Convention : Reuss Voigt Hill
#
# Bulk Modulus (GPa) = 48.72112 58.81198 53.76655
# Shear Modulus (GPa) = 30.82541 37.85926 34.34233
#
# Velocity S-wave (km/s) = 3.59881 3.98833 3.79857
# Velocity P-wave (km/s) = 6.14321 6.77637 6.46754
#
# Compressibility (1/GPa) = 0.02052498
#
# Stress axis : x y z
#
# Youngs Moduli (GPa) = 72.44691 69.63316 116.48091
#
# Poissons Ratio (x) = 0.25184 0.30624
# Poissons Ratio (y) = 0.26202 0.21739
# Poissons Ratio (z) = 0.19047 0.12996
#
# Static dielectric constant tensor:
#      x y z
#    x 1.972200 0.083600 0.012340 
#    y 0.083600 2.069590 -0.003760 
#    z 0.012340 -0.003760 1.929310 
# 
# From -- ./inp_files/526014.got.cif
#   From: 2010.05.17/outbox.cif.g08.bks.cpg/sg2_264_cif.got.tgz:526014.got - 2010.06.03 11:33:40.
