data_PCOD9062952
_publ_section_title
;
Structure prediction by ZEFSAII (Michael W. Deem and Ramdas Pophale) SiO2 
 PCOD9062952
Probable space group: P -1
;
_chemical_formula_sum "Si O2"
_cell_formula_units_Z 16
_cell_length_a 8.324311
_cell_length_b 21.684372
_cell_length_c 8.026395
_cell_angle_alpha 61.240465
_cell_angle_beta 33.344061
_cell_angle_gamma 54.836386
_cell_volume 651.039851
_symmetry_space_group_name_H-M "P -1"
_symmetry_group_IT_number 2
_symmetry_cell_setting 'triclinic'
loop_
_space_group_symop_operation_xyz
x,y,z
-x,-y,-z
loop_
_atom_site_type_symbol
_atom_site_label
_atom_site_fract_x
_atom_site_fract_y
_atom_site_fract_z
Si Si1 0.688007 0.680875 0.667624
Si Si2 0.846045 0.564175 0.185070
Si Si3 0.130841 0.829434 0.432333
Si Si4 0.764422 0.913404 0.198221
Si Si5 0.380935 0.829438 0.567687
Si Si6 0.269254 0.680880 0.332592
Si Si7 0.461613 0.564176 0.814766
Si Si8 0.504547 0.086607 0.198246
O O1 0.653293 0.757004 0.501542
O O2 0.571907 0.627462 0.720812
O O3 0.029300 0.647060 0.500236
O O4 0.446585 0.702160 0.000152
O O5 0.545794 0.627467 0.279154
O O6 0.703954 0.530806 0.499896
O O7 0.000000 0.500000 0.000000
O O8 0.113852 0.590847 0.999843
O O9 0.293412 0.804411 0.500032
O O10 0.075737 0.757006 0.498554
O O11 0.805123 0.896433 0.665253
O O12 0.322158 0.860687 0.094854
O O13 0.505680 0.896430 0.334697
O O14 0.652326 0.898472 0.499990
O O15 0.730649 0.000008 0.110153
O O16 0.095858 0.860709 0.905122
O O17 0.500000 0.500000 0.000000
#
# Coordination Sequence:
#
# PCOD9062952 Si02
#       8
#     2   2   2   2   2   2   2   2
#     4  12  26  47  74 104 142 189 240 291 351 419
#     4  12  27  49  76 109 147 186 234 289 354 422
#     4  12  25  42  68 101 138 181 233 294 355 416
#     4  11  24  43  67  97 136 184 236 290 352 423
#     4  12  25  42  68 101 138 181 233 294 355 416
#     4  12  26  47  74 104 142 189 240 291 351 419
#     4  12  27  49  76 109 147 186 234 289 354 422
#     4  11  24  43  67  97 136 184 236 290 352 423
#
# _framework density 24.576066000000001
#
# number of rings (size 3 to 8) (size 9 to 14) (size 15 to 20)
#    0.000    0.250    0.000    9.750    0.000    9.000 
#    0.000    0.000    0.000    0.000    0.000    0.000 
#    0.000    0.000    0.000    0.000    0.000    0.000 
#
# Total GULP energy -89600.683328 kJ/mol
# GULP energy per Si atom -5600.042708 kJ/mol
# Density = 2.452013 g / cm^3
# Si number density = 24.576066 Si / 1000 Ang^3
#
#
#
# Elastic Constant Matrix: (Units=GPa)
#
#
# Indices 1 2 3 4 5 6 
#
# 1 153.0474 61.7874 46.6593 1.8191 -21.3266 -2.0256
# 2 61.7874 133.6540 37.7554 5.0081 -0.7786 3.4415
# 3 46.6593 37.7554 130.0634 -3.7751 -7.7558 -0.5475
# 4 1.8191 5.0081 -3.7751 18.0598 -2.0004 -4.1611
# 5 -21.3266 -0.7786 -7.7558 -2.0004 57.2132 -2.4740
# 6 -2.0256 3.4415 -0.5475 -4.1611 -2.4740 11.7293
#
#
#
# Elastic Compliance Matrix: (Units=1/GPa)
#
#
# Indices 1 2 3 4 5 6 
#
# 1 0.009152 -0.003790 -0.001945 0.000921 0.003285 0.003621
# 2 -0.003790 0.010041 -0.001818 -0.004288 -0.001915 -0.005611
# 3 -0.001945 -0.001818 0.009051 0.003094 0.000666 0.001858
# 4 0.000921 -0.004288 0.003094 0.063283 0.003992 0.024854
# 5 0.003285 -0.001915 0.000666 0.003992 0.019193 0.006625
# 6 0.003621 -0.005611 0.001858 0.024854 0.006625 0.097830
#
#
# Mechanical properties :
#
#
# Convention : Reuss Voigt Hill
#
# Bulk Modulus (GPa) = 76.10746 78.79657 77.45201
# Shear Modulus (GPa) = 21.92644 35.43797 28.68220
#
# Velocity S-wave (km/s) = 2.99019 3.80145 3.41996
# Velocity P-wave (km/s) = 6.55416 7.16937 6.86866
#
# Compressibility (1/GPa) = 0.01313932
#
# Stress axis : x y z
#
# Youngs Moduli (GPa) = 109.26960 99.58717 110.48185
#
# Poissons Ratio (x) = 0.37743 0.21490
# Poissons Ratio (y) = 0.41412 0.20080
# Poissons Ratio (z) = 0.21254 0.18100
#
# Static dielectric constant tensor:
#      x y z
#    x 2.065350 -0.006550 -0.055350 
#    y -0.006550 1.869180 -0.002760 
#    z -0.055350 -0.002760 1.946340 
# 
# From -- ./inp_files/226247.got.cif
#   From: 2010.05.17/outbox.cif.g08.bks.cpg/sg2_114_cif.got.tgz:226247.got - 2010.06.03 11:33:40.
