data_PCOD9062217
_publ_section_title
;
Structure prediction by ZEFSAII (Michael W. Deem and Ramdas Pophale) SiO2 
 PCOD9062217
Probable space group: P -1
;
_chemical_formula_sum "Si O2"
_cell_formula_units_Z 14
_cell_length_a 7.945550
_cell_length_b 14.572594
_cell_length_c 11.634931
_cell_angle_alpha 146.046311
_cell_angle_beta 117.448187
_cell_angle_gamma 51.503746
_cell_volume 584.142354
_symmetry_space_group_name_H-M "P -1"
_symmetry_group_IT_number 2
_symmetry_cell_setting 'triclinic'
loop_
_space_group_symop_operation_xyz
x,y,z
-x,-y,-z
loop_
_atom_site_type_symbol
_atom_site_label
_atom_site_fract_x
_atom_site_fract_y
_atom_site_fract_z
Si Si1 0.962940 0.077700 0.438243
Si Si2 0.648026 0.925379 0.856591
Si Si3 0.539453 0.729925 0.994751
Si Si4 0.717567 0.403717 0.544495
Si Si5 0.868689 0.606490 0.430429
Si Si6 0.690181 0.788998 0.334427
Si Si7 0.930472 0.198593 0.025359
O O1 0.747686 0.235062 0.465439
O O2 0.099768 0.188086 0.593613
O O3 0.000000 0.000000 0.500000
O O4 0.050392 0.902413 0.195722
O O5 0.735832 0.717539 0.616317
O O6 0.864005 0.936180 0.971637
O O7 0.500000 0.000000 0.000000
O O8 0.514256 0.067403 0.860014
O O9 0.694235 0.572255 0.792989
O O10 0.306003 0.741856 0.939236
O O11 0.644262 0.691625 0.112571
O O12 0.500000 0.500000 0.500000
O O13 0.932362 0.347612 0.477015
O O14 0.713040 0.690414 0.359426
O O15 0.947467 0.387776 0.221668
O O16 0.500000 0.000000 0.500000
#
# Coordination Sequence:
#
# PCOD9062217 Si02
#       7
#     2   2   2   2   2   2   2
#     4  11  27  44  70 106 147 188 246 302 353 434
#     4  12  26  46  73 104 142 190 238 299 363 429
#     4  12  25  45  75 103 143 193 238 294 360 431
#     4  11  25  49  75 104 149 193 241 297 364 435
#     4  11  26  47  74 107 145 185 244 295 359 434
#     4  11  23  48  72  98 144 194 236 294 364 423
#     4  12  26  44  71 107 143 186 241 297 358 426
#
# _framework density 23.966763
#
# number of rings (size 3 to 8) (size 9 to 14) (size 15 to 20)
#    0.000    0.571    2.857    4.286    6.000    5.143 
#    0.000    0.000    0.000    0.000    0.000    0.000 
#    0.000    0.000    0.000    0.000    0.000    0.000 
#
# Total GULP energy -78304.421989 kJ/mol
# GULP energy per Si atom -5593.172999 kJ/mol
# Density = 2.391221 g / cm^3
# Si number density = 23.966763 Si / 1000 Ang^3
#
#
#
# Elastic Constant Matrix: (Units=GPa)
#
#
# Indices 1 2 3 4 5 6 
#
# 1 90.6579 25.3498 23.1743 -9.7696 -13.0226 -8.2692
# 2 25.3498 166.0310 28.9536 -6.1095 -4.7886 3.5389
# 3 23.1743 28.9536 104.9515 -10.9527 -17.9961 -0.9209
# 4 -9.7696 -6.1095 -10.9527 44.5995 2.3964 5.5525
# 5 -13.0226 -4.7886 -17.9961 2.3964 30.3466 2.4046
# 6 -8.2692 3.5389 -0.9209 5.5525 2.4046 31.6927
#
#
#
# Elastic Compliance Matrix: (Units=1/GPa)
#
#
# Indices 1 2 3 4 5 6 
#
# 1 0.012882 -0.001587 -0.001520 0.001654 0.004016 0.002900
# 2 -0.001587 0.006554 -0.001513 0.000356 -0.000476 -0.001216
# 3 -0.001520 -0.001513 0.011486 0.002055 0.005813 -0.000695
# 4 0.001654 0.000356 0.002055 0.023782 0.000403 -0.003746
# 5 0.004016 -0.000476 0.005813 0.000403 0.038151 -0.001695
# 6 0.002900 -0.001216 -0.000695 -0.003746 -0.001695 0.033210
#
#
# Mechanical properties :
#
#
# Convention : Reuss Voigt Hill
#
# Bulk Modulus (GPa) = 46.11809 57.39953 51.75881
# Shear Modulus (GPa) = 35.07939 40.27195 37.67567
#
# Velocity S-wave (km/s) = 3.82994 4.10362 3.96914
# Velocity P-wave (km/s) = 6.23235 6.81576 6.53058
#
# Compressibility (1/GPa) = 0.02168346
#
# Stress axis : x y z
#
# Youngs Moduli (GPa) = 77.62503 152.56960 87.05961
#
# Poissons Ratio (x) = 0.24212 0.13233
# Poissons Ratio (y) = 0.12319 0.13171
# Poissons Ratio (z) = 0.11799 0.23082
#
# Static dielectric constant tensor:
#      x y z
#    x 1.935160 -0.010070 0.003520 
#    y -0.010070 1.979710 0.029240 
#    z 0.003520 0.029240 1.826730 
# 
# From -- ./inp_files/223150.got.cif
#   From: 2010.05.17/outbox.cif.g08.bks.cpg/sg2_112_cif.got.tgz:223150.got - 2010.06.03 11:33:40.
