data_PCOD9062466
_publ_section_title
;
Structure prediction by ZEFSAII (Michael W. Deem and Ramdas Pophale) SiO2 
 PCOD9062466
Probable space group: P -1
;
_chemical_formula_sum "Si O2"
_cell_formula_units_Z 14
_cell_length_a 23.432220
_cell_length_b 5.332219
_cell_length_c 6.362778
_cell_angle_alpha 129.781987
_cell_angle_beta 97.263459
_cell_angle_gamma 77.191721
_cell_volume 595.618714
_symmetry_space_group_name_H-M "P -1"
_symmetry_group_IT_number 2
_symmetry_cell_setting 'triclinic'
loop_
_space_group_symop_operation_xyz
x,y,z
-x,-y,-z
loop_
_atom_site_type_symbol
_atom_site_label
_atom_site_fract_x
_atom_site_fract_y
_atom_site_fract_z
Si Si1 0.145671 0.554244 0.037834
Si Si2 0.248055 0.471045 0.698782
Si Si3 0.957512 0.297566 0.253612
Si Si4 0.599142 0.732126 0.866688
Si Si5 0.147496 0.868023 0.623832
Si Si6 0.489277 0.112371 0.788870
Si Si7 0.672192 0.117507 0.797119
O O1 0.200515 0.506108 0.881852
O O2 0.086956 0.560639 0.878263
O O3 0.152631 0.187449 0.941522
O O4 0.142495 0.853023 0.359810
O O5 0.208147 0.622396 0.566206
O O6 0.280750 0.111312 0.450809
O O7 0.296019 0.672390 0.912955
O O8 0.911977 0.227305 0.371628
O O9 0.000000 0.500000 0.500000
O O10 0.000000 0.000000 0.000000
O O11 0.630016 0.370009 0.760864
O O12 0.535385 0.828721 0.780654
O O13 0.639360 0.893146 0.812631
O O14 0.576606 0.896737 0.169019
O O15 0.500000 0.000000 0.500000
O O16 0.500000 0.500000 0.000000
#
# Coordination Sequence:
#
# PCOD9062466 Si02
#       7
#     2   2   2   2   2   2   2
#     4  11  24  44  68  95 135 184 229 280 362 417
#     4  11  28  46  68 102 140 185 230 301 344 429
#     4  11  24  41  64 100 136 170 232 291 342 425
#     4  11  28  50  74 112 144 192 238 302 356 432
#     4  11  24  44  68  95 135 184 229 280 362 417
#     4  11  26  50  75 105 149 190 236 292 369 427
#     4  12  28  46  76 105 148 185 248 297 358 419
#
# _framework density 23.504971999999999
#
# number of rings (size 3 to 8) (size 9 to 14) (size 15 to 20)
#    0.000    0.857    1.429    3.429    8.000   12.571 
#    0.000    0.000    0.000    0.000    0.000    0.000 
#    0.000    0.000    0.000    0.000    0.000    0.000 
#
# Total GULP energy -78106.123298 kJ/mol
# GULP energy per Si atom -5579.008807 kJ/mol
# Density = 2.345147 g / cm^3
# Si number density = 23.504972 Si / 1000 Ang^3
#
#
#
# Elastic Constant Matrix: (Units=GPa)
#
#
# Indices 1 2 3 4 5 6 
#
# 1 45.0396 84.7238 22.2906 10.7243 28.9298 -57.2717
# 2 84.7238 62.4951 41.3351 -3.7884 -61.1705 29.1433
# 3 22.2906 41.3351 146.9769 11.4276 -0.2503 -21.3015
# 4 10.7243 -3.7884 11.4276 25.5301 -8.2769 -2.1594
# 5 28.9298 -61.1705 -0.2503 -8.2769 -9.8268 54.1804
# 6 -57.2717 29.1433 -21.3015 -2.1594 54.1804 -8.2834
#
#
#
# Elastic Compliance Matrix: (Units=1/GPa)
#
#
# Indices 1 2 3 4 5 6 
#
# 1 0.011453 -0.000963 -0.002156 -0.000903 0.010920 -0.005370
# 2 -0.000963 0.008908 -0.001043 0.001533 -0.004636 0.009960
# 3 -0.002156 -0.001043 0.007584 -0.002281 0.001153 -0.000130
# 4 -0.000903 0.001533 -0.002281 0.041623 0.000300 0.008615
# 5 0.010920 -0.004636 0.001153 0.000300 0.016086 0.010361
# 6 -0.005370 0.009960 -0.000130 0.008615 0.010361 0.017307
#
#
# Mechanical properties :
#
#
# Convention : Reuss Voigt Hill
#
# Bulk Modulus (GPa) = 50.96171 61.24562 56.10367
# Shear Modulus (GPa) = 42.43578 8.56144 25.49861
#
# Velocity S-wave (km/s) = 4.25360 1.91058 3.29723
# Velocity P-wave (km/s) = 6.77145 5.56598 6.19809
#
# Compressibility (1/GPa) = 0.01962258
#
# Stress axis : x y z
#
# Youngs Moduli (GPa) = 87.31109 112.26308 131.84994
#
# Poissons Ratio (x) = 0.10811 0.28422
# Poissons Ratio (y) = 0.08408 0.13748
# Poissons Ratio (z) = 0.18821 0.11706
#
# Static dielectric constant tensor:
#      x y z
#    x 1.927540 0.135590 -0.050750 
#    y 0.135590 2.267240 -0.167490 
#    z -0.050750 -0.167490 1.962160 
# 
# From -- ./inp_files/12865.got.cif
#   From: 2010.05.17/outbox.cif.g08.bks.cpg/sg2_7_cif.got.tgz:12865.got - 2010.06.03 11:33:40.
