data_PCOD9062910
_publ_section_title
;
Structure prediction by ZEFSAII (Michael W. Deem and Ramdas Pophale) SiO2 
 PCOD9062910
Probable space group: P -1
;
_chemical_formula_sum "Si O2"
_cell_formula_units_Z 15
_cell_length_a 11.563987
_cell_length_b 11.985531
_cell_length_c 8.509429
_cell_angle_alpha 62.936564
_cell_angle_beta 141.224412
_cell_angle_gamma 117.902571
_cell_volume 644.045501
_symmetry_space_group_name_H-M "P -1"
_symmetry_group_IT_number 2
_symmetry_cell_setting 'triclinic'
loop_
_space_group_symop_operation_xyz
x,y,z
-x,-y,-z
loop_
_atom_site_type_symbol
_atom_site_label
_atom_site_fract_x
_atom_site_fract_y
_atom_site_fract_z
Si Si1 0.100697 0.252910 0.088074
Si Si2 0.463118 0.156958 0.547532
Si Si3 0.015668 0.244274 0.372428
Si Si4 0.643969 0.791662 0.020479
Si Si5 0.378972 0.861480 0.944060
Si Si6 0.125560 0.515717 0.779132
Si Si7 0.238440 0.957208 0.240026
Si Si8 0.500000 0.500000 0.000000
O O1 0.320700 0.249846 0.308796
O O2 0.055598 0.245691 0.229571
O O3 0.067732 0.384771 0.898562
O O4 0.968643 0.130855 0.939780
O O5 0.567032 0.197335 0.796047
O O6 0.315944 0.019850 0.448583
O O7 0.626961 0.139093 0.612191
O O8 0.934573 0.368626 0.261797
O O9 0.193651 0.225539 0.672810
O O10 0.837943 0.132967 0.291203
O O11 0.461348 0.808203 0.913382
O O12 0.719433 0.920164 0.914245
O O13 0.589951 0.653430 0.972057
O O14 0.500000 0.000000 0.000000
O O15 0.340546 0.534532 0.935947
O O16 0.000000 0.500000 0.500000
#
# Coordination Sequence:
#
# PCOD9062910 Si02
#       8
#     2   2   2   2   2   2   2   1
#     4  12  26  47  73 109 145 188 247 298 374 426
#     4  11  24  43  66 106 144 188 235 295 365 424
#     4  12  26  47  72 110 147 190 243 302 363 434
#     4  12  25  46  76 108 148 195 243 294 364 433
#     4  12  24  44  71 108 149 195 238 293 363 433
#     4  12  28  49  74 105 143 194 244 304 362 438
#     4  11  26  45  72 109 147 190 237 305 361 429
#     4  12  26  50  74 108 142 196 250 290 360 434
#
# _framework density 23.290279000000002
#
# number of rings (size 3 to 8) (size 9 to 14) (size 15 to 20)
#    0.000    0.267    6.667    1.600    1.867    5.333 
#    0.000    1.333    0.000    0.000    0.000    0.000 
#    0.000    0.000    0.000    0.000    0.000    0.000 
#
# Total GULP energy -83566.962552 kJ/mol
# GULP energy per Si atom -5571.130837 kJ/mol
# Density = 2.323727 g / cm^3
# Si number density = 23.290279 Si / 1000 Ang^3
#
#
#
# Elastic Constant Matrix: (Units=GPa)
#
#
# Indices 1 2 3 4 5 6 
#
# 1 105.3877 6.4704 33.9702 -1.9697 -7.2555 7.5216
# 2 6.4704 68.6344 -9.5929 -7.8507 -13.7881 5.7874
# 3 33.9702 -9.5929 65.1518 -9.7273 4.0481 11.9162
# 4 -1.9697 -7.8507 -9.7273 26.9621 -2.1753 2.4506
# 5 -7.2555 -13.7881 4.0481 -2.1753 31.3106 5.3436
# 6 7.5216 5.7874 11.9162 2.4506 5.3436 41.5953
#
#
#
# Elastic Compliance Matrix: (Units=1/GPa)
#
#
# Indices 1 2 3 4 5 6 
#
# 1 0.012003 -0.001734 -0.006935 -0.001885 0.002816 -0.000193
# 2 -0.001734 0.018635 0.005361 0.008421 0.008621 -0.005419
# 3 -0.006935 0.005361 0.022400 0.009691 -0.000371 -0.006432
# 4 -0.001885 0.008421 0.009691 0.044043 0.006275 -0.007008
# 5 0.002816 0.008621 -0.000371 0.006275 0.038041 -0.006859
# 6 -0.000193 -0.005419 -0.006432 -0.007008 -0.006859 0.027967
#
#
# Mechanical properties :
#
#
# Convention : Reuss Voigt Hill
#
# Bulk Modulus (GPa) = 21.54189 33.42991 27.48590
# Shear Modulus (GPa) = 27.00072 33.86201 30.43136
#
# Velocity S-wave (km/s) = 3.40856 3.81716 3.61863
# Velocity P-wave (km/s) = 4.97599 5.81484 5.41169
#
# Compressibility (1/GPa) = 0.04642119
#
# Stress axis : x y z
#
# Youngs Moduli (GPa) = 83.31192 53.66304 44.64212
#
# Poissons Ratio (x) = 0.09308 0.30959
# Poissons Ratio (y) = 0.14450 -0.23932
# Poissons Ratio (z) = 0.57776 -0.28768
#
# Static dielectric constant tensor:
#      x y z
#    x 1.495910 0.056090 0.205540 
#    y 0.056090 1.928240 -0.084260 
#    z 0.205540 -0.084260 1.856280 
# 
# From -- ./inp_files/257276.got.cif
#   From: 2010.05.17/outbox.cif.g08.bks.cpg/sg2_129_cif.got.tgz:257276.got - 2010.06.03 11:33:40.
