data_PCOD9062041
_publ_section_title
;
Structure prediction by ZEFSAII (Michael W. Deem and Ramdas Pophale) SiO2 
 PCOD9062041
Probable space group: P -1
;
_chemical_formula_sum "Si O2"
_cell_formula_units_Z 16
_cell_length_a 11.796441
_cell_length_b 12.562157
_cell_length_c 8.501299
_cell_angle_alpha 47.786912
_cell_angle_beta 115.694432
_cell_angle_gamma 133.114612
_cell_volume 680.363628
_symmetry_space_group_name_H-M "P -1"
_symmetry_group_IT_number 2
_symmetry_cell_setting 'triclinic'
loop_
_space_group_symop_operation_xyz
x,y,z
-x,-y,-z
loop_
_atom_site_type_symbol
_atom_site_label
_atom_site_fract_x
_atom_site_fract_y
_atom_site_fract_z
Si Si1 0.009229 0.302786 0.159618
Si Si2 0.585690 0.955869 0.970743
Si Si3 0.929297 0.402130 0.308441
Si Si4 0.090721 0.270254 0.727918
Si Si5 0.100198 0.990187 0.837947
Si Si6 0.567016 0.430593 0.383151
Si Si7 0.393591 0.824236 0.507440
Si Si8 0.635051 0.438021 0.787913
O O1 0.184979 0.444126 0.181230
O O2 0.904773 0.279959 0.265495
O O3 0.980474 0.127599 0.247118
O O4 0.984646 0.401167 0.905770
O O5 0.658093 0.110600 0.733441
O O6 0.457357 0.763980 0.009641
O O7 0.500000 0.000000 0.000000
O O8 0.721779 0.944331 0.127923
O O9 0.762145 0.329251 0.347053
O O10 0.028365 0.379158 0.516824
O O11 0.270083 0.402639 0.754308
O O12 0.089502 0.151947 0.703626
O O13 0.984499 0.138993 0.934063
O O14 0.521411 0.257865 0.431916
O O15 0.607064 0.421311 0.598992
O O16 0.441165 0.471388 0.273395
O O17 0.500000 0.000000 0.500000
#
# Coordination Sequence:
#
# PCOD9062041 Si02
#       8
#     2   2   2   2   2   2   2   2
#     4  11  26  44  71 104 140 181 239 295 339 416
#     4  12  25  44  71 100 143 183 232 288 349 420
#     4  11  25  44  68 100 141 180 235 283 353 407
#     4  11  23  47  70 101 136 188 234 284 357 421
#     4  11  26  44  71 104 138 185 235 290 354 418
#     4  11  24  45  73  97 142 185 231 284 351 429
#     4  12  27  44  68 107 138 183 235 292 348 412
#     4  11  24  47  70 105 137 188 231 283 357 415
#
# _framework density 23.516835
#
# number of rings (size 3 to 8) (size 9 to 14) (size 15 to 20)
#    0.000    0.750    5.000    1.500    7.000    2.500 
#    0.000    1.875    0.000    0.000    0.000    0.000 
#    0.000    0.000    0.000    0.000    0.000    0.000 
#
# Total GULP energy -89644.441051 kJ/mol
# GULP energy per Si atom -5602.777566 kJ/mol
# Density = 2.346331 g / cm^3
# Si number density = 23.516835 Si / 1000 Ang^3
#
#
#
# Elastic Constant Matrix: (Units=GPa)
#
#
# Indices 1 2 3 4 5 6 
#
# 1 141.4978 45.5065 16.4845 -2.5897 7.6653 -24.5494
# 2 45.5065 104.9704 -4.9209 -14.2520 6.7910 -36.3500
# 3 16.4845 -4.9209 63.5922 -3.8680 4.4040 -1.3253
# 4 -2.5897 -14.2520 -3.8680 18.5714 -3.0786 8.4555
# 5 7.6653 6.7910 4.4040 -3.0786 34.6948 -10.3377
# 6 -24.5494 -36.3500 -1.3253 8.4555 -10.3377 47.2865
#
#
#
# Elastic Compliance Matrix: (Units=1/GPa)
#
#
# Indices 1 2 3 4 5 6 
#
# 1 0.008900 -0.003615 -0.002698 -0.003195 -0.000538 0.002219
# 2 -0.003615 0.015254 0.002729 0.007949 0.000755 0.008670
# 3 -0.002698 0.002729 0.017057 0.005034 -0.001684 -0.000093
# 4 -0.003195 0.007949 0.005034 0.063804 0.002291 -0.006316
# 5 -0.000538 0.000755 -0.001684 0.002291 0.031197 0.006664
# 6 0.002219 0.008670 -0.000093 -0.006316 0.006664 0.031548
#
#
# Mechanical properties :
#
#
# Convention : Reuss Voigt Hill
#
# Bulk Modulus (GPa) = 29.37365 47.13338 38.25351
# Shear Modulus (GPa) = 26.84215 36.97657 31.90936
#
# Velocity S-wave (km/s) = 3.38213 3.96958 3.68757
# Velocity P-wave (km/s) = 5.26966 6.41062 5.86794
#
# Compressibility (1/GPa) = 0.03404412
#
# Stress axis : x y z
#
# Youngs Moduli (GPa) = 112.36056 65.55584 58.62841
#
# Poissons Ratio (x) = 0.23699 0.15815
# Poissons Ratio (y) = 0.40619 -0.16002
# Poissons Ratio (z) = 0.30310 -0.17893
#
# Static dielectric constant tensor:
#      x y z
#    x 1.842000 -0.031280 -0.026220 
#    y -0.031280 1.882880 0.017580 
#    z -0.026220 0.017580 1.908610 
# 
# From -- ./inp_files/261672.got.cif
#   From: 2010.05.17/outbox.cif.g08.bks.cpg/sg2_131_cif.got.tgz:261672.got - 2010.06.03 11:33:40.
