data_PCOD9062498
_publ_section_title
;
Structure prediction by ZEFSAII (Michael W. Deem and Ramdas Pophale) SiO2 
 PCOD9062498
Probable space group: P -1
;
_chemical_formula_sum "Si O2"
_cell_formula_units_Z 12
_cell_length_a 5.282932
_cell_length_b 10.242338
_cell_length_c 10.461082
_cell_angle_alpha 119.611993
_cell_angle_beta 63.942925
_cell_angle_gamma 102.980562
_cell_volume 442.073676
_symmetry_space_group_name_H-M "P -1"
_symmetry_group_IT_number 2
_symmetry_cell_setting 'triclinic'
loop_
_space_group_symop_operation_xyz
x,y,z
-x,-y,-z
loop_
_atom_site_type_symbol
_atom_site_label
_atom_site_fract_x
_atom_site_fract_y
_atom_site_fract_z
Si Si1 0.732755 0.101061 0.565664
Si Si2 0.830928 0.439395 0.630170
Si Si3 0.175358 0.450370 0.813114
Si Si4 0.939940 0.108235 0.188049
Si Si5 0.477269 0.824666 0.873602
Si Si6 0.903653 0.164001 0.812976
O O1 0.813393 0.255065 0.548770
O O2 0.658986 0.151369 0.753713
O O3 0.500000 0.000000 0.500000
O O4 0.000000 0.000000 0.500000
O O5 0.797784 0.778200 0.799395
O O6 0.000000 0.500000 0.500000
O O7 0.000253 0.485137 0.742030
O O8 0.503421 0.486320 0.736829
O O9 0.144085 0.269656 0.752899
O O10 0.000000 0.500000 0.000000
O O11 0.646644 0.180846 0.244684
O O12 0.970394 0.992963 0.242108
O O13 0.000000 0.000000 0.000000
O O14 0.246269 0.763836 0.994283
O O15 0.500000 0.000000 0.000000
#
# Coordination Sequence:
#
# PCOD9062498 Si02
#       6
#     2   2   2   2   2   2
#     4  11  24  41  66 102 134 181 251 306 353 431
#     4  11  25  50  75 102 150 201 242 303 375 445
#     4  11  24  43  73 107 136 184 255 312 360 434
#     4   8  15  27  46  75 109 154 192 231 319 418
#     4   8  15  27  46  75 109 154 192 231 319 418
#     4   9  19  36  59  85 133 174 212 295 367 408
#
# _framework density 27.144794000000001
#
# number of rings (size 3 to 8) (size 9 to 14) (size 15 to 20)
#    0.000    2.667    0.000    3.000    0.000   16.000 
#    0.000   15.000    0.000    0.000    0.000    1.167 
#    0.000    0.000    0.000    0.000    0.000    0.000 
#
# Total GULP energy -67128.663234 kJ/mol
# GULP energy per Si atom -5594.055270 kJ/mol
# Density = 2.708301 g / cm^3
# Si number density = 27.144794 Si / 1000 Ang^3
#
#
#
# Elastic Constant Matrix: (Units=GPa)
#
#
# Indices 1 2 3 4 5 6 
#
# 1 262.1508 90.4458 99.0461 -24.9397 41.5609 15.1624
# 2 90.4458 182.7434 81.6388 -36.1284 17.5164 25.6993
# 3 99.0461 81.6388 146.2717 -31.2364 19.6987 -2.1260
# 4 -24.9397 -36.1284 -31.2364 55.1382 -15.7533 -6.0422
# 5 41.5609 17.5164 19.6987 -15.7533 64.9652 -4.0431
# 6 15.1624 25.6993 -2.1260 -6.0422 -4.0431 47.8767
#
#
#
# Elastic Compliance Matrix: (Units=1/GPa)
#
#
# Indices 1 2 3 4 5 6 
#
# 1 0.005870 -0.001153 -0.003168 -0.000886 -0.002806 -0.001730
# 2 -0.001153 0.008779 -0.003583 0.002701 -0.000148 -0.004178
# 3 -0.003168 -0.003583 0.011700 0.003426 0.000520 0.003922
# 4 -0.000886 0.002701 0.003426 0.022984 0.004514 0.002265
# 5 -0.002806 -0.000148 0.000520 0.004514 0.018359 0.003111
# 6 -0.001730 -0.004178 0.003922 0.002265 0.003111 0.024400
#
#
# Mechanical properties :
#
#
# Convention : Reuss Voigt Hill
#
# Bulk Modulus (GPa) = 94.86437 125.93636 110.40037
# Shear Modulus (GPa) = 44.87774 54.93172 49.90473
#
# Velocity S-wave (km/s) = 4.07046 4.50339 4.29238
# Velocity P-wave (km/s) = 7.55744 8.57529 8.08241
#
# Compressibility (1/GPa) = 0.01054137
#
# Stress axis : x y z
#
# Youngs Moduli (GPa) = 170.36236 113.90325 85.46991
#
# Poissons Ratio (x) = 0.13134 0.27073
# Poissons Ratio (y) = 0.19645 0.30626
# Poissons Ratio (z) = 0.53964 0.40814
#
# Static dielectric constant tensor:
#      x y z
#    x 2.260130 -0.015120 -0.140620 
#    y -0.015120 2.240180 0.072590 
#    z -0.140620 0.072590 2.338760 
# 
# From -- ./inp_files/360451.got.cif
#   From: 2010.05.17/outbox.cif.g08.bks.cpg/sg2_181_cif.got.tgz:360451.got - 2010.06.03 11:33:40.
