data_PCOD9062527
_publ_section_title
;
Structure prediction by ZEFSAII (Michael W. Deem and Ramdas Pophale) SiO2 
 PCOD9062527
Probable space group: P -1
;
_chemical_formula_sum "Si O2"
_cell_formula_units_Z 14
_cell_length_a 11.692317
_cell_length_b 11.574844
_cell_length_c 5.021725
_cell_angle_alpha 108.209462
_cell_angle_beta 98.281094
_cell_angle_gamma 66.111089
_cell_volume 590.163021
_symmetry_space_group_name_H-M "P -1"
_symmetry_group_IT_number 2
_symmetry_cell_setting 'triclinic'
loop_
_space_group_symop_operation_xyz
x,y,z
-x,-y,-z
loop_
_atom_site_type_symbol
_atom_site_label
_atom_site_fract_x
_atom_site_fract_y
_atom_site_fract_z
Si Si1 0.115945 0.354970 0.628403
Si Si2 0.097174 0.632717 0.072574
Si Si3 0.785058 0.936384 0.477837
Si Si4 0.932074 0.910437 0.021356
Si Si5 0.361698 0.499015 0.958188
Si Si6 0.477344 0.924204 0.686583
Si Si7 0.319689 0.359024 0.343988
O O1 0.107824 0.492493 0.852838
O O2 0.208924 0.213003 0.676482
O O3 0.182982 0.356152 0.365760
O O4 0.980635 0.353254 0.667507
O O5 0.017496 0.755790 0.952117
O O6 0.240538 0.622439 0.115043
O O7 0.815659 0.936597 0.799543
O O8 0.665559 0.051164 0.400021
O O9 0.894329 0.944051 0.337353
O O10 0.000000 0.000000 0.000000
O O11 0.353786 0.388419 0.080933
O O12 0.500000 0.500000 0.000000
O O13 0.332404 0.468120 0.626392
O O14 0.573678 0.776709 0.629145
O O15 0.500000 0.000000 0.500000
O O16 0.500000 0.000000 0.000000
#
# Coordination Sequence:
#
# PCOD9062527 Si02
#       7
#     2   2   2   2   2   2   2
#     4   9  20  40  66 101 132 165 228 277 359 392
#     4   9  22  41  71  96 136 179 219 293 344 408
#     4  11  24  41  67  97 134 173 223 286 334 412
#     4  11  25  44  64  95 132 182 231 275 330 408
#     4  11  25  44  65 100 136 184 233 279 337 418
#     4  12  24  41  66 102 137 179 215 276 360 412
#     4  11  24  41  69  97 140 175 227 289 339 418
#
# _framework density 23.722259000000001
#
# number of rings (size 3 to 8) (size 9 to 14) (size 15 to 20)
#    0.000    1.429    1.429    2.571    2.000   11.429 
#    0.000    0.000    0.000    0.000    0.000    0.000 
#    0.000    0.000    0.000    0.000    0.000    0.000 
#
# Total GULP energy -78104.822282 kJ/mol
# GULP energy per Si atom -5578.915877 kJ/mol
# Density = 2.366827 g / cm^3
# Si number density = 23.722259 Si / 1000 Ang^3
#
#
#
# Elastic Constant Matrix: (Units=GPa)
#
#
# Indices 1 2 3 4 5 6 
#
# 1 155.6615 35.9512 26.2147 1.5809 -13.5377 -6.8894
# 2 35.9512 110.3593 10.1095 -22.0495 -5.8911 -17.7703
# 3 26.2147 10.1095 75.8252 -16.7762 -8.4944 0.8958
# 4 1.5809 -22.0495 -16.7762 29.8467 -0.1847 -5.5771
# 5 -13.5377 -5.8911 -8.4944 -0.1847 34.9631 -8.1336
# 6 -6.8894 -17.7703 0.8958 -5.5771 -8.1336 49.4263
#
#
#
# Elastic Compliance Matrix: (Units=1/GPa)
#
#
# Indices 1 2 3 4 5 6 
#
# 1 0.007848 -0.003109 -0.003098 -0.004479 0.001693 -0.000194
# 2 -0.003109 0.013607 0.002369 0.012761 0.003217 0.006385
# 3 -0.003098 0.002369 0.016979 0.011872 0.003874 0.002089
# 4 -0.004479 0.012761 0.011872 0.051859 0.006039 0.010594
# 5 0.001693 0.003217 0.003874 0.006039 0.032482 0.007349
# 6 -0.000194 0.006385 0.002089 0.010594 0.007349 0.024868
#
#
# Mechanical properties :
#
#
# Convention : Reuss Voigt Hill
#
# Bulk Modulus (GPa) = 32.51084 54.04407 43.27745
# Shear Modulus (GPa) = 30.19852 40.81860 35.50856
#
# Velocity S-wave (km/s) = 3.57179 4.15262 3.87311
# Velocity P-wave (km/s) = 5.54480 6.76933 6.18743
#
# Compressibility (1/GPa) = 0.03075897
#
# Stress axis : x y z
#
# Youngs Moduli (GPa) = 127.42034 73.49412 58.89493
#
# Poissons Ratio (x) = 0.22847 0.18245
# Poissons Ratio (y) = 0.39611 -0.13952
# Poissons Ratio (z) = 0.39473 -0.17411
#
# Static dielectric constant tensor:
#      x y z
#    x 2.534840 -0.326340 -0.014960 
#    y -0.326340 2.030180 0.022100 
#    z -0.014960 0.022100 1.940580 
# 
# From -- ./inp_files/67639.got.cif
#   From: 2010.05.17/outbox.cif.g08.bks.cpg/sg2_34_cif.got.tgz:67639.got - 2010.06.03 11:33:40.
