data_PCOD9062293
_publ_section_title
;
Structure prediction by ZEFSAII (Michael W. Deem and Ramdas Pophale) SiO2 
 PCOD9062293
Probable space group: P -1
;
_chemical_formula_sum "Si O2"
_cell_formula_units_Z 14
_cell_length_a 13.019553
_cell_length_b 12.971422
_cell_length_c 6.590464
_cell_angle_alpha 90.767247
_cell_angle_beta 119.034733
_cell_angle_gamma 134.476391
_cell_volume 572.197967
_symmetry_space_group_name_H-M "P -1"
_symmetry_group_IT_number 2
_symmetry_cell_setting 'triclinic'
loop_
_space_group_symop_operation_xyz
x,y,z
-x,-y,-z
loop_
_atom_site_type_symbol
_atom_site_label
_atom_site_fract_x
_atom_site_fract_y
_atom_site_fract_z
Si Si1 0.488817 0.183234 0.308774
Si Si2 0.028474 0.909673 0.920391
Si Si3 0.217436 0.441751 0.326739
Si Si4 0.540746 0.275979 0.878948
Si Si5 0.034746 0.402595 0.562963
Si Si6 0.642982 0.637562 0.322816
Si Si7 0.611769 0.051672 0.316316
O O1 0.651577 0.365974 0.592293
O O2 0.550051 0.107471 0.387398
O O3 0.515523 0.236233 0.098033
O O4 0.258610 0.046380 0.119992
O O5 0.928866 0.740340 0.936397
O O6 0.887887 0.813332 0.577665
O O7 0.000000 0.000000 0.000000
O O8 0.084887 0.386856 0.392734
O O9 0.386652 0.478413 0.554922
O O10 0.419556 0.290258 0.696832
O O11 0.460292 0.113332 0.700630
O O12 0.773892 0.469636 0.106723
O O13 0.000000 0.500000 0.500000
O O14 0.843162 0.219620 0.483065
O O15 0.500000 0.500000 0.000000
O O16 0.500000 0.000000 0.000000
#
# Coordination Sequence:
#
# PCOD9062293 Si02
#       7
#     2   2   2   2   2   2   2
#     4  10  18  32  53  78 105 140 176 221 261 310
#     4  10  23  37  54  77 106 146 185 213 259 315
#     4   9  19  33  52  75 113 133 174 213 270 307
#     4  10  19  30  48  79 111 135 165 216 271 315
#     4  11  16  28  48  77 112 133 163 215 270 311
#     4  10  19  37  52  78 114 138 169 223 273 307
#     4  10  18  26  46  78 107 134 170 210 267 316
#
# _framework density 24.467058999999999
#
# number of rings (size 3 to 8) (size 9 to 14) (size 15 to 20)
#    0.857    1.143    7.143    1.714    0.000    1.143 
#    2.571    0.000    0.000    0.857    0.000    2.000 
#    0.000    0.000    0.000    0.000    0.000    0.000 
#
# Total GULP energy -78061.438602 kJ/mol
# GULP energy per Si atom -5575.817043 kJ/mol
# Density = 2.441137 g / cm^3
# Si number density = 24.467059 Si / 1000 Ang^3
#
#
#
# Elastic Constant Matrix: (Units=GPa)
#
#
# Indices 1 2 3 4 5 6 
#
# 1 145.2644 84.8693 48.5566 41.4555 11.8155 -29.5354
# 2 84.8693 141.4023 54.9356 51.3322 0.4611 -34.2478
# 3 48.5566 54.9356 135.6346 46.4731 16.7656 17.4900
# 4 41.4555 51.3322 46.4731 58.0655 -3.2125 -6.7575
# 5 11.8155 0.4611 16.7656 -3.2125 52.1255 12.3495
# 6 -29.5354 -34.2478 17.4900 -6.7575 12.3495 45.5740
#
#
#
# Elastic Compliance Matrix: (Units=1/GPa)
#
#
# Indices 1 2 3 4 5 6 
#
# 1 0.012406 -0.003862 -0.002163 -0.003163 -0.003825 0.006536
# 2 -0.003862 0.015904 -0.003811 -0.007126 -0.000869 0.010090
# 3 -0.002163 -0.003811 0.013772 -0.007394 -0.001965 -0.010115
# 4 -0.003163 -0.007126 -0.007394 0.031845 0.005433 -0.001318
# 5 -0.003825 -0.000869 -0.001965 0.005433 0.022867 -0.007769
# 6 0.006536 0.010090 -0.010115 -0.001318 -0.007769 0.039552
#
#
# Mechanical properties :
#
#
# Convention : Reuss Voigt Hill
#
# Bulk Modulus (GPa) = 44.62477 88.78046 66.70262
# Shear Modulus (GPa) = 30.58306 46.74898 38.66602
#
# Velocity S-wave (km/s) = 3.53933 4.37589 3.97965
# Velocity P-wave (km/s) = 5.91445 7.86738 6.95976
#
# Compressibility (1/GPa) = 0.02240908
#
# Stress axis : x y z
#
# Youngs Moduli (GPa) = 80.60567 62.87555 72.61350
#
# Poissons Ratio (x) = 0.24283 0.15709
# Poissons Ratio (y) = 0.31131 0.27673
# Poissons Ratio (z) = 0.17438 0.23962
#
# Static dielectric constant tensor:
#      x y z
#    x 2.029240 0.082940 -0.001430 
#    y 0.082940 2.036270 -0.020990 
#    z -0.001430 -0.020990 2.246220 
# 
# From -- ./inp_files/274098.got.cif
#   From: 2010.05.17/outbox.cif.g08.bks.cpg/sg2_138_cif.got.tgz:274098.got - 2010.06.03 11:33:40.
