data_PCOD9062589
_publ_section_title
;
Structure prediction by ZEFSAII (Michael W. Deem and Ramdas Pophale) SiO2 
 PCOD9062589
Probable space group: P -1
;
_chemical_formula_sum "Si O2"
_cell_formula_units_Z 11
_cell_length_a 11.285541
_cell_length_b 14.199394
_cell_length_c 17.899415
_cell_angle_alpha 21.213629
_cell_angle_beta 29.669222
_cell_angle_gamma 30.231492
_cell_volume 489.865729
_symmetry_space_group_name_H-M "P -1"
_symmetry_group_IT_number 2
_symmetry_cell_setting 'triclinic'
loop_
_space_group_symop_operation_xyz
x,y,z
-x,-y,-z
loop_
_atom_site_type_symbol
_atom_site_label
_atom_site_fract_x
_atom_site_fract_y
_atom_site_fract_z
Si Si1 0.756502 0.044567 0.390841
Si Si2 0.988298 0.793939 0.723833
Si Si3 0.124883 0.517856 0.498459
Si Si4 0.000000 0.000000 0.000000
Si Si5 0.598324 0.736760 0.087518
Si Si6 0.337008 0.776089 0.845687
O O1 0.501063 0.986353 0.597596
O O2 0.932179 0.763974 0.467248
O O3 0.887608 0.121537 0.333033
O O4 0.710750 0.260382 0.188554
O O5 0.167900 0.489411 0.834300
O O6 0.000000 0.000000 0.500000
O O7 0.712850 0.803473 0.897071
O O8 0.140665 0.238189 0.738214
O O9 0.380013 0.598962 0.293965
O O10 0.000000 0.500000 0.500000
O O11 0.093721 0.893250 0.942276
O O12 0.500000 0.000000 0.000000
O O13 0.500000 0.500000 0.000000
#
# Coordination Sequence:
#
# PCOD9062589 Si02
#       6
#     2   2   2   1   2   2
#     4  11  24  47  71 108 155 193 250 318 377 450
#     4  11  27  51  78 111 151 207 261 312 380 458
#     4  12  25  46  76 112 154 195 253 316 384 451
#     4  12  24  42  68 110 140 200 244 300 368 456
#     4  11  26  51  78 108 154 202 255 321 382 455
#     4  11  24  41  71 106 149 193 244 305 380 445
#
# _framework density 22.455133
#
# number of rings (size 3 to 8) (size 9 to 14) (size 15 to 20)
#    0.000    0.727    5.455    1.091    2.545    6.545 
#    3.273    0.000    0.000    0.000    0.000    0.000 
#    0.000    0.000    0.000    0.000    0.000    0.000 
#
# Total GULP energy -61290.727461 kJ/mol
# GULP energy per Si atom -5571.884315 kJ/mol
# Density = 2.240402 g / cm^3
# Si number density = 22.455133 Si / 1000 Ang^3
#
#
#
# Elastic Constant Matrix: (Units=GPa)
#
#
# Indices 1 2 3 4 5 6 
#
# 1 125.2082 36.7870 83.2798 12.6595 -0.7581 14.9416
# 2 36.7870 129.7788 77.2743 16.0003 4.5914 19.3596
# 3 83.2798 77.2743 218.9175 39.3314 12.2473 0.7339
# 4 12.6595 16.0003 39.3314 60.7415 -1.7575 -5.5117
# 5 -0.7581 4.5914 12.2473 -1.7575 53.4421 6.1234
# 6 14.9416 19.3596 0.7339 -5.5117 6.1234 27.9702
#
#
#
# Elastic Compliance Matrix: (Units=1/GPa)
#
#
# Indices 1 2 3 4 5 6 
#
# 1 0.011866 0.000442 -0.004742 -0.000094 0.002014 -0.006979
# 2 0.000442 0.011312 -0.003957 -0.001246 0.000862 -0.008396
# 3 -0.004742 -0.003957 0.008429 -0.003045 -0.002328 0.004961
# 4 -0.000094 -0.001246 -0.003045 0.019225 0.000911 0.004582
# 5 0.002014 0.000862 -0.002328 0.000911 0.019893 -0.005787
# 6 -0.006979 -0.008396 0.004961 0.004582 -0.005787 0.047332
#
#
# Mechanical properties :
#
#
# Convention : Reuss Voigt Hill
#
# Bulk Modulus (GPa) = 66.26178 96.50962 81.38570
# Shear Modulus (GPa) = 35.81609 46.86832 41.34221
#
# Velocity S-wave (km/s) = 3.99809 4.57354 4.29546
# Velocity P-wave (km/s) = 7.13341 8.42389 7.80536
#
# Compressibility (1/GPa) = 0.01509166
#
# Stress axis : x y z
#
# Youngs Moduli (GPa) = 84.27693 88.40096 118.63302
#
# Poissons Ratio (x) = -0.03904 0.56258
# Poissons Ratio (y) = -0.03722 0.46945
# Poissons Ratio (z) = 0.39966 0.34982
#
# Static dielectric constant tensor:
#      x y z
#    x 1.822480 -0.028100 -0.015800 
#    y -0.028100 1.902490 -0.015890 
#    z -0.015800 -0.015890 1.839870 
# 
# From -- ./inp_files/569430.got.cif
#   From: 2010.05.17/outbox.cif.g08.bks.cpg/sg2_285_cif.got.tgz:569430.got - 2010.06.03 11:33:40.
