data_PCOD9062080
_publ_section_title
;
Structure prediction by ZEFSAII (Michael W. Deem and Ramdas Pophale) SiO2 
 PCOD9062080
Probable space group: P -1
;
_chemical_formula_sum "Si O2"
_cell_formula_units_Z 16
_cell_length_a 10.209985
_cell_length_b 12.350508
_cell_length_c 9.187857
_cell_angle_alpha 132.569307
_cell_angle_beta 95.029419
_cell_angle_gamma 58.938569
_cell_volume 665.221492
_symmetry_space_group_name_H-M "P -1"
_symmetry_group_IT_number 2
_symmetry_cell_setting 'triclinic'
loop_
_space_group_symop_operation_xyz
x,y,z
-x,-y,-z
loop_
_atom_site_type_symbol
_atom_site_label
_atom_site_fract_x
_atom_site_fract_y
_atom_site_fract_z
Si Si1 0.268488 0.974218 0.281587
Si Si2 0.159678 0.050018 0.666326
Si Si3 0.119392 0.368056 0.521246
Si Si4 0.426104 0.212506 0.215026
Si Si5 0.683834 0.278304 0.408278
Si Si6 0.651153 0.780206 0.099304
Si Si7 0.347184 0.620049 0.806710
Si Si8 0.838424 0.456424 0.060915
O O1 0.454536 0.916798 0.247751
O O2 0.216302 0.972901 0.439147
O O3 0.140091 0.181774 0.389692
O O4 0.289822 0.815128 0.042652
O O5 0.276763 0.104704 0.781261
O O6 0.181515 0.897301 0.638508
O O7 0.974496 0.246562 0.826701
O O8 0.301614 0.290491 0.408637
O O9 0.075154 0.485593 0.770235
O O10 0.000000 0.500000 0.500000
O O11 0.571578 0.226184 0.276633
O O12 0.333260 0.301464 0.133627
O O13 0.500000 0.000000 0.000000
O O14 0.546617 0.460802 0.656398
O O15 0.734741 0.336918 0.324432
O O16 0.747783 0.611445 0.069357
O O17 0.289527 0.542515 0.848501
#
# Coordination Sequence:
#
# PCOD9062080 Si02
#       8
#     2   2   2   2   2   2   2   2
#     4  12  26  46  73 105 138 189 239 284 347 414
#     4  12  26  44  72 104 143 184 232 298 347 412
#     4  12  26  44  71 107 143 182 232 292 351 416
#     4  12  21  41  73 106 129 178 238 294 345 399
#     4  11  23  47  72 101 137 181 239 288 344 414
#     4  12  24  43  75 103 142 176 238 297 342 410
#     4  11  26  49  70 104 140 186 239 281 351 422
#     4  12  28  46  68 106 148 187 226 287 363 416
#
# _framework density 24.052139
#
# number of rings (size 3 to 8) (size 9 to 14) (size 15 to 20)
#    0.000    0.250    6.250    2.250    3.500    3.000 
#    0.000    0.000    0.000    0.000    0.000    0.000 
#    0.000    0.000    0.000    0.000    0.000    0.000 
#
# Total GULP energy -89666.546938 kJ/mol
# GULP energy per Si atom -5604.159184 kJ/mol
# Density = 2.399740 g / cm^3
# Si number density = 24.052139 Si / 1000 Ang^3
#
#
#
# Elastic Constant Matrix: (Units=GPa)
#
#
# Indices 1 2 3 4 5 6 
#
# 1 26.3577 3.1530 3.5795 -4.2549 1.4795 7.8187
# 2 3.1530 192.4274 25.4684 4.4803 -0.0067 2.9778
# 3 3.5795 25.4684 127.0781 -3.9894 -3.5999 2.7249
# 4 -4.2549 4.4803 -3.9894 45.2351 8.6881 -4.6197
# 5 1.4795 -0.0067 -3.5999 8.6881 33.7515 1.8349
# 6 7.8187 2.9778 2.7249 -4.6197 1.8349 33.8501
#
#
#
# Elastic Compliance Matrix: (Units=1/GPa)
#
#
# Indices 1 2 3 4 5 6 
#
# 1 0.041423 -0.000511 -0.000832 0.003410 -0.002300 -0.008866
# 2 -0.000511 0.005370 -0.001074 -0.000736 0.000119 -0.000375
# 3 -0.000832 -0.001074 0.008155 0.000563 0.000779 -0.000335
# 4 0.003410 -0.000736 0.000563 0.024081 -0.006444 0.002867
# 5 -0.002300 0.000119 0.000779 -0.006444 0.031587 -0.002133
# 6 -0.008866 -0.000375 -0.000335 0.002867 -0.002133 0.032157
#
#
# Mechanical properties :
#
#
# Convention : Reuss Voigt Hill
#
# Bulk Modulus (GPa) = 19.95432 45.58499 32.76965
# Shear Modulus (GPa) = 30.43012 43.47819 36.95415
#
# Velocity S-wave (km/s) = 3.56079 4.25628 3.92397
# Velocity P-wave (km/s) = 5.02194 6.56873 5.84671
#
# Compressibility (1/GPa) = 0.05011447
#
# Stress axis : x y z
#
# Youngs Moduli (GPa) = 24.14105 186.21423 122.62819
#
# Poissons Ratio (x) = 0.09512 0.10208
# Poissons Ratio (y) = 0.01233 0.13165
# Poissons Ratio (z) = 0.02010 0.19991
#
# Static dielectric constant tensor:
#      x y z
#    x 1.977370 0.006300 0.021300 
#    y 0.006300 1.921570 -0.002610 
#    z 0.021300 -0.002610 1.886090 
# 
# From -- ./inp_files/187817.got.cif
#   From: 2010.05.17/outbox.cif.g08.bks.cpg/sg2_94_cif.got.tgz:187817.got - 2010.06.03 11:33:40.
