data_PCOD9062954
_publ_section_title
;
Structure prediction by ZEFSAII (Michael W. Deem and Ramdas Pophale) SiO2 
 PCOD9062954
Probable space group: P -1
;
_chemical_formula_sum "Si O2"
_cell_formula_units_Z 16
_cell_length_a 5.649279
_cell_length_b 24.907546
_cell_length_c 4.971010
_cell_angle_alpha 103.935320
_cell_angle_beta 80.119511
_cell_angle_gamma 108.211989
_cell_volume 641.345535
_symmetry_space_group_name_H-M "P -1"
_symmetry_group_IT_number 2
_symmetry_cell_setting 'triclinic'
loop_
_space_group_symop_operation_xyz
x,y,z
-x,-y,-z
loop_
_atom_site_type_symbol
_atom_site_label
_atom_site_fract_x
_atom_site_fract_y
_atom_site_fract_z
Si Si1 0.384089 0.238820 0.218980
Si Si2 0.669267 0.593275 0.108665
Si Si3 0.202554 0.109902 0.174471
Si Si4 0.693848 0.127695 0.496268
Si Si5 0.544495 0.963303 0.195864
Si Si6 0.818939 0.486486 0.771075
Si Si7 0.898423 0.664160 0.644256
Si Si8 0.313942 0.746688 0.328494
O O1 0.276203 0.171676 0.081929
O O2 0.227684 0.283699 0.275217
O O3 0.433482 0.236097 0.523959
O O4 0.623236 0.262262 0.002209
O O5 0.681068 0.536354 0.876378
O O6 0.831538 0.641936 0.934786
O O7 0.372904 0.576488 0.218250
O O8 0.780570 0.610291 0.403422
O O9 0.429847 0.111776 0.353229
O O10 0.923996 0.104893 0.324949
O O11 0.203731 0.055484 0.922613
O O12 0.636630 0.100287 0.771324
O O13 0.785260 0.197042 0.569840
O O14 0.500000 0.000000 0.500000
O O15 0.500000 0.000000 0.000000
O O16 0.000000 0.500000 0.500000
O O17 0.000000 0.500000 0.000000
O O18 0.155373 0.693587 0.471873
#
# Coordination Sequence:
#
# PCOD9062954 Si02
#       8
#     2   2   2   2   2   2   2   2
#     4  11  24  43  67  99 135 185 229 282 357 436
#     4  11  26  42  66 104 138 173 238 295 338 423
#     4  11  25  49  75 105 145 193 244 303 371 451
#     4  11  25  49  75 105 145 193 244 303 371 451
#     4  12  26  50  74 112 144 192 248 315 370 439
#     4  11  24  45  70  94 136 191 230 279 358 412
#     4  12  24  43  66 104 138 175 228 297 348 417
#     4  11  24  43  67  99 135 185 229 282 357 436
#
# _framework density 24.947547
#
# number of rings (size 3 to 8) (size 9 to 14) (size 15 to 20)
#    0.000    0.750    3.750    3.000    0.000   10.000 
#    0.000    0.000    0.000    0.000    0.000    0.000 
#    0.000    0.000    0.000    0.000    0.000    0.000 
#
# Total GULP energy -89211.273252 kJ/mol
# GULP energy per Si atom -5575.704578 kJ/mol
# Density = 2.489077 g / cm^3
# Si number density = 24.947547 Si / 1000 Ang^3
#
#
#
# Elastic Constant Matrix: (Units=GPa)
#
#
# Indices 1 2 3 4 5 6 
#
# 1 63.1641 19.4002 30.0894 -13.8475 -21.9397 3.3349
# 2 19.4002 108.2523 26.4243 -32.0279 -13.6487 -3.1973
# 3 30.0894 26.4243 150.0173 -29.7687 -5.7904 -5.9572
# 4 -13.8475 -32.0279 -29.7687 56.5507 -7.7900 -8.2338
# 5 -21.9397 -13.6487 -5.7904 -7.7900 43.3112 5.2347
# 6 3.3349 -3.1973 -5.9572 -8.2338 5.2347 43.7336
#
#
#
# Elastic Compliance Matrix: (Units=1/GPa)
#
#
# Indices 1 2 3 4 5 6 
#
# 1 0.023001 -0.000377 -0.003178 0.005047 0.012347 -0.002742
# 2 -0.000377 0.012294 -0.000324 0.007614 0.004799 0.001743
# 3 -0.003178 -0.000324 0.008145 0.003591 -0.000223 0.002031
# 4 0.005047 0.007614 0.003591 0.027136 0.009761 0.004602
# 5 0.012347 0.004799 -0.000223 0.009761 0.032910 -0.002723
# 6 -0.002742 0.001743 0.002031 0.004602 -0.002723 0.024671
#
#
# Mechanical properties :
#
#
# Convention : Reuss Voigt Hill
#
# Bulk Modulus (GPa) = 28.02597 52.58463 40.30530
# Shear Modulus (GPa) = 33.82708 45.08709 39.45708
#
# Velocity S-wave (km/s) = 3.68629 4.25582 3.98125
# Velocity P-wave (km/s) = 5.42002 6.72853 6.10941
#
# Compressibility (1/GPa) = 0.03568119
#
# Stress axis : x y z
#
# Youngs Moduli (GPa) = 43.47547 81.34235 122.77490
#
# Poissons Ratio (x) = 0.03070 0.39014
# Poissons Ratio (y) = 0.01641 0.03983
# Poissons Ratio (z) = 0.13815 0.02639
#
# Static dielectric constant tensor:
#      x y z
#    x 2.049040 0.107270 -0.006300 
#    y 0.107270 2.012700 0.001990 
#    z -0.006300 0.001990 1.977790 
# 
# From -- ./inp_files/13562.got.cif
#   From: 2010.05.17/outbox.cif.g08.bks.cpg/sg2_7_cif.got.tgz:13562.got - 2010.06.03 11:33:40.
