data_PCOD9062103
_publ_section_title
;
Structure prediction by ZEFSAII (Michael W. Deem and Ramdas Pophale) SiO2 
 PCOD9062103
Probable space group: P -1
;
_chemical_formula_sum "Si O2"
_cell_formula_units_Z 12
_cell_length_a 10.107962
_cell_length_b 9.342201
_cell_length_c 8.893301
_cell_angle_alpha 117.143512
_cell_angle_beta 112.620077
_cell_angle_gamma 47.894076
_cell_volume 550.478491
_symmetry_space_group_name_H-M "P -1"
_symmetry_group_IT_number 2
_symmetry_cell_setting 'triclinic'
loop_
_space_group_symop_operation_xyz
x,y,z
-x,-y,-z
loop_
_atom_site_type_symbol
_atom_site_label
_atom_site_fract_x
_atom_site_fract_y
_atom_site_fract_z
Si Si1 0.881445 0.440311 0.352051
Si Si2 0.634215 0.019291 0.167438
Si Si3 0.731151 0.386789 0.730275
Si Si4 0.583287 0.633204 0.513954
Si Si5 0.947189 0.025200 0.167374
Si Si6 0.837328 0.575366 0.076366
O O1 0.682402 0.627482 0.407236
O O2 0.921709 0.227063 0.304632
O O3 0.902271 0.436570 0.181384
O O4 0.000000 0.500000 0.500000
O O5 0.759341 0.799654 0.192589
O O6 0.529659 0.181436 0.332132
O O7 0.764608 0.048354 0.139949
O O8 0.500000 0.000000 0.000000
O O9 0.747566 0.458680 0.608384
O O10 0.552992 0.405668 0.630351
O O11 0.703501 0.548347 0.914971
O O12 0.893355 0.169877 0.761460
O O13 0.000000 0.000000 0.000000
O O14 0.000000 0.500000 0.000000
#
# Coordination Sequence:
#
# PCOD9062103 Si02
#       6
#     2   2   2   2   2   2
#     4  12  29  47  72 109 151 191 253 314 365 444
#     4  12  27  45  77 108 151 195 245 304 375 445
#     4  11  23  47  73 104 149 185 251 296 371 437
#     4  11  27  46  70 109 147 196 242 310 369 430
#     4  12  26  47  78 109 142 202 250 302 369 445
#     4  12  24  48  74 105 145 199 242 305 371 441
#
# _framework density 21.799216999999999
#
# number of rings (size 3 to 8) (size 9 to 14) (size 15 to 20)
#    0.000    0.333    5.000    3.000    4.667    4.000 
#    0.000    0.000    0.000    0.000    0.000    0.000 
#    0.000    0.000    0.000    0.000    0.000    0.000 
#
# Total GULP energy -66965.637336 kJ/mol
# GULP energy per Si atom -5580.469778 kJ/mol
# Density = 2.174960 g / cm^3
# Si number density = 21.799217 Si / 1000 Ang^3
#
#
#
# Elastic Constant Matrix: (Units=GPa)
#
#
# Indices 1 2 3 4 5 6 
#
# 1 126.0342 49.7262 56.6315 21.9980 10.1091 3.7351
# 2 49.7262 139.4293 48.7580 16.0116 -7.0134 12.8631
# 3 56.6315 48.7580 137.5480 21.2868 14.7028 1.4151
# 4 21.9980 16.0116 21.2868 44.9381 -1.0701 3.0340
# 5 10.1091 -7.0134 14.7028 -1.0701 47.3723 8.4350
# 6 3.7351 12.8631 1.4151 3.0340 8.4350 29.0780
#
#
#
# Elastic Compliance Matrix: (Units=1/GPa)
#
#
# Indices 1 2 3 4 5 6 
#
# 1 0.010992 -0.002748 -0.002847 -0.003162 -0.002097 0.000881
# 2 -0.002748 0.009748 -0.002593 -0.000484 0.003687 -0.004852
# 3 -0.002847 -0.002593 0.010119 -0.002711 -0.003385 0.002285
# 4 -0.003162 -0.000484 -0.002711 0.025494 0.002489 -0.002630
# 5 -0.002097 0.003687 -0.003385 0.002489 0.024747 -0.008635
# 6 0.000881 -0.004852 0.002285 -0.002630 -0.008635 0.039092
#
#
# Mechanical properties :
#
#
# Convention : Reuss Voigt Hill
#
# Bulk Modulus (GPa) = 69.04898 79.24921 74.14909
# Shear Modulus (GPa) = 35.36155 40.80407 38.08281
#
# Velocity S-wave (km/s) = 4.03196 4.33114 4.18422
# Velocity P-wave (km/s) = 7.30885 7.83867 7.57839
#
# Compressibility (1/GPa) = 0.01448247
#
# Stress axis : x y z
#
# Youngs Moduli (GPa) = 90.97578 102.58785 98.81974
#
# Poissons Ratio (x) = 0.28193 0.28133
# Poissons Ratio (y) = 0.25002 0.25626
# Poissons Ratio (z) = 0.25900 0.26603
#
# Static dielectric constant tensor:
#      x y z
#    x 1.911120 0.034920 -0.020770 
#    y 0.034920 1.857850 -0.005880 
#    z -0.020770 -0.005880 1.811590 
# 
# From -- ./inp_files/159878.got.cif
#   From: 2010.05.17/outbox.cif.g08.bks.cpg/sg2_80_cif.got.tgz:159878.got - 2010.06.03 11:33:40.
