data_PCOD9062860
_publ_section_title
;
Structure prediction by ZEFSAII (Michael W. Deem and Ramdas Pophale) SiO2 
 PCOD9062860
Probable space group: P -1
;
_chemical_formula_sum "Si O2"
_cell_formula_units_Z 16
_cell_length_a 9.172430
_cell_length_b 9.546602
_cell_length_c 14.094723
_cell_angle_alpha 106.737123
_cell_angle_beta 80.138450
_cell_angle_gamma 46.080548
_cell_volume 717.718302
_symmetry_space_group_name_H-M "P -1"
_symmetry_group_IT_number 2
_symmetry_cell_setting 'triclinic'
loop_
_space_group_symop_operation_xyz
x,y,z
-x,-y,-z
loop_
_atom_site_type_symbol
_atom_site_label
_atom_site_fract_x
_atom_site_fract_y
_atom_site_fract_z
Si Si1 0.666685 0.360983 0.547234
Si Si2 0.810611 0.943059 0.541681
Si Si3 0.674119 0.262001 0.183316
Si Si4 0.356854 0.458987 0.912083
Si Si5 0.438913 0.164796 0.119626
Si Si6 0.967582 0.719506 0.286755
Si Si7 0.133630 0.829618 0.166696
Si Si8 0.433102 0.101124 0.759731
O O1 0.500000 0.500000 0.500000
O O2 0.543563 0.551669 0.681682
O O3 0.936078 0.208081 0.469405
O O4 0.691138 0.178899 0.552133
O O5 0.877249 0.784186 0.416746
O O6 0.629079 0.013174 0.649019
O O7 0.682488 0.392629 0.137575
O O8 0.628358 0.151826 0.105015
O O9 0.912505 0.068694 0.181922
O O10 0.642446 0.238125 0.858205
O O11 0.287258 0.352477 0.867548
O O12 0.227812 0.622083 0.050617
O O13 0.180708 0.440428 0.189739
O O14 0.449237 0.075564 0.201466
O O15 0.500000 0.000000 0.000000
O O16 0.747799 0.861184 0.269033
O O17 0.060421 0.810704 0.269587
#
# Coordination Sequence:
#
# PCOD9062860 Si02
#       8
#     2   2   2   2   2   2   2   2
#     4  11  24  42  78 105 143 185 238 296 360 418
#     4  11  25  47  69 108 142 185 238 298 354 424
#     4  12  23  47  71 106 136 188 238 286 358 426
#     4  11  25  45  69 106 137 181 236 298 338 419
#     4  12  28  46  71 104 145 189 239 290 360 426
#     4  12  25  48  73  99 147 191 232 292 364 427
#     4  11  24  42  74  99 140 181 232 290 354 414
#     4  12  28  45  72 104 145 185 241 294 356 419
#
# _framework density 22.292870000000001
#
# number of rings (size 3 to 8) (size 9 to 14) (size 15 to 20)
#    0.000    0.500    5.000    2.250    7.000    3.500 
#    0.000    0.000    0.000    0.000    0.000    0.000 
#    0.000    0.000    0.000    0.000    0.000    0.000 
#
# Total GULP energy -89669.071382 kJ/mol
# GULP energy per Si atom -5604.316961 kJ/mol
# Density = 2.224213 g / cm^3
# Si number density = 22.292870 Si / 1000 Ang^3
#
#
#
# Elastic Constant Matrix: (Units=GPa)
#
#
# Indices 1 2 3 4 5 6 
#
# 1 43.7014 34.5346 9.2380 1.4860 3.0549 -12.9207
# 2 34.5346 143.1928 22.9898 -7.1834 -10.1800 -26.6335
# 3 9.2380 22.9898 77.1583 -0.8402 13.9011 -10.4686
# 4 1.4860 -7.1834 -0.8402 32.9304 4.0293 1.9472
# 5 3.0549 -10.1800 13.9011 4.0293 35.6553 0.6623
# 6 -12.9207 -26.6335 -10.4686 1.9472 0.6623 34.8128
#
#
#
# Elastic Compliance Matrix: (Units=1/GPa)
#
#
# Indices 1 2 3 4 5 6 
#
# 1 0.030373 -0.006547 -0.000068 -0.002662 -0.004265 0.006474
# 2 -0.006547 0.010145 -0.002356 0.001683 0.004103 0.004451
# 3 -0.000068 -0.002356 0.015279 0.000534 -0.006737 0.002865
# 4 -0.002662 0.001683 0.000534 0.031310 -0.003015 -0.001234
# 5 -0.004265 0.004103 -0.006737 -0.003015 0.032568 -0.000921
# 6 0.006474 0.004451 0.002865 -0.001234 -0.000921 0.035481
#
#
# Mechanical properties :
#
#
# Convention : Reuss Voigt Hill
#
# Bulk Modulus (GPa) = 26.41664 44.17525 35.29594
# Shear Modulus (GPa) = 26.92290 33.83236 30.37763
#
# Velocity S-wave (km/s) = 3.47896 3.89990 3.69543
# Velocity P-wave (km/s) = 5.29274 6.33545 5.83742
#
# Compressibility (1/GPa) = 0.03785493
#
# Stress axis : x y z
#
# Youngs Moduli (GPa) = 32.92369 98.57324 65.45005
#
# Poissons Ratio (x) = 0.64535 0.00446
# Poissons Ratio (y) = 0.21555 0.15419
# Poissons Ratio (z) = 0.00224 0.23223
#
# Static dielectric constant tensor:
#      x y z
#    x 1.795330 -0.005770 0.018880 
#    y -0.005770 1.789420 0.009930 
#    z 0.018880 0.009930 1.836750 
# 
# From -- ./inp_files/188071.got.cif
#   From: 2010.05.17/outbox.cif.g08.bks.cpg/sg2_95_cif.got.tgz:188071.got - 2010.06.03 11:33:40.
