data_PCOD9062572
_publ_section_title
;
Structure prediction by ZEFSAII (Michael W. Deem and Ramdas Pophale) SiO2 
 PCOD9062572
Probable space group: P -1
;
_chemical_formula_sum "Si O2"
_cell_formula_units_Z 12
_cell_length_a 12.984278
_cell_length_b 14.460956
_cell_length_c 5.568401
_cell_angle_alpha 109.092578
_cell_angle_beta 78.875796
_cell_angle_gamma 150.221977
_cell_volume 481.393721
_symmetry_space_group_name_H-M "P -1"
_symmetry_group_IT_number 2
_symmetry_cell_setting 'triclinic'
loop_
_space_group_symop_operation_xyz
x,y,z
-x,-y,-z
loop_
_atom_site_type_symbol
_atom_site_label
_atom_site_fract_x
_atom_site_fract_y
_atom_site_fract_z
Si Si1 0.891186 0.943937 0.753129
Si Si2 0.605644 0.918730 0.242022
Si Si3 0.437035 0.608910 0.735484
Si Si4 0.276475 0.647562 0.534849
Si Si5 0.847755 0.267381 0.117569
Si Si6 0.963835 0.193947 0.689310
O O1 0.895787 0.065756 0.823737
O O2 0.645506 0.714923 0.683966
O O3 0.000000 0.000000 0.500000
O O4 0.000000 0.000000 0.000000
O O5 0.678141 0.059013 0.140440
O O6 0.813960 0.054942 0.412702
O O7 0.433413 0.823029 0.422215
O O8 0.499311 0.735890 0.024276
O O9 0.390740 0.641847 0.560099
O O10 0.211906 0.378887 0.694813
O O11 0.236238 0.690208 0.806904
O O12 0.054901 0.440939 0.339778
O O13 0.920371 0.271090 0.849023
#
# Coordination Sequence:
#
# PCOD9062572 Si02
#       6
#     2   2   2   2   2   2
#     4  12  29  52  80 112 143 189 256 319 382 454
#     4  12  22  44  69 102 144 201 244 295 359 438
#     4  12  26  46  75 104 148 192 243 307 374 442
#     4  11  24  41  70 109 148 197 248 295 359 444
#     4  11  24  41  70 109 148 197 248 295 359 444
#     4  12  26  46  75 104 148 192 243 307 374 442
#
# _framework density 24.927619
#
# number of rings (size 3 to 8) (size 9 to 14) (size 15 to 20)
#    0.000    0.333    6.667    1.500    0.000    6.000 
#    0.000    0.000    0.000    0.000    0.000    0.000 
#    0.000    0.000    0.000    0.000    0.000    0.000 
#
# Total GULP energy -67228.552024 kJ/mol
# GULP energy per Si atom -5602.379335 kJ/mol
# Density = 2.487088 g / cm^3
# Si number density = 24.927619 Si / 1000 Ang^3
#
#
#
# Elastic Constant Matrix: (Units=GPa)
#
#
# Indices 1 2 3 4 5 6 
#
# 1 32.8742 15.3535 14.4672 2.6379 -4.9544 7.3741
# 2 15.3535 151.3581 29.8520 20.2431 4.1406 15.7333
# 3 14.4672 29.8520 98.0659 17.8696 5.8315 11.4840
# 4 2.6379 20.2431 17.8696 47.4506 9.2378 4.7205
# 5 -4.9544 4.1406 5.8315 9.2378 45.1634 -4.1881
# 6 7.3741 15.7333 11.4840 4.7205 -4.1881 44.2283
#
#
#
# Elastic Compliance Matrix: (Units=1/GPa)
#
#
# Indices 1 2 3 4 5 6 
#
# 1 0.034852 -0.002483 -0.004280 0.000252 0.004233 -0.003442
# 2 -0.002483 0.007625 -0.001290 -0.002360 -0.000485 -0.001757
# 3 -0.004280 -0.001290 0.012116 -0.003328 -0.001397 -0.001750
# 4 0.000252 -0.002360 -0.003328 0.024317 -0.004425 -0.001353
# 5 0.004233 -0.000485 -0.001397 -0.004425 0.023975 0.002572
# 6 -0.003442 -0.001757 -0.001750 -0.001353 0.002572 0.024652
#
#
# Mechanical properties :
#
#
# Convention : Reuss Voigt Hill
#
# Bulk Modulus (GPa) = 25.98330 44.62707 35.30518
# Shear Modulus (GPa) = 31.95482 42.21016 37.08249
#
# Velocity S-wave (km/s) = 3.58425 4.11945 3.86113
# Velocity P-wave (km/s) = 5.25122 6.36930 5.83709
#
# Compressibility (1/GPa) = 0.03848626
#
# Stress axis : x y z
#
# Youngs Moduli (GPa) = 28.69274 131.15290 82.53585
#
# Poissons Ratio (x) = 0.32563 0.35328
# Poissons Ratio (y) = 0.07124 0.10648
# Poissons Ratio (z) = 0.12281 0.16920
#
# Static dielectric constant tensor:
#      x y z
#    x 2.040540 0.009120 -0.051620 
#    y 0.009120 2.000350 -0.042920 
#    z -0.051620 -0.042920 1.973100 
# 
# From -- ./inp_files/78157.got.cif
#   From: 2010.05.17/outbox.cif.g08.bks.cpg/sg2_40_cif.got.tgz:78157.got - 2010.06.03 11:33:40.
