data_PCOD9062870
_publ_section_title
;
Structure prediction by ZEFSAII (Michael W. Deem and Ramdas Pophale) SiO2 
 PCOD9062870
Probable space group: P -1
;
_chemical_formula_sum "Si O2"
_cell_formula_units_Z 12
_cell_length_a 24.659956
_cell_length_b 5.399468
_cell_length_c 11.679072
_cell_angle_alpha 60.945584
_cell_angle_beta 158.244926
_cell_angle_gamma 120.451441
_cell_volume 496.324778
_symmetry_space_group_name_H-M "P -1"
_symmetry_group_IT_number 2
_symmetry_cell_setting 'triclinic'
loop_
_space_group_symop_operation_xyz
x,y,z
-x,-y,-z
loop_
_atom_site_type_symbol
_atom_site_label
_atom_site_fract_x
_atom_site_fract_y
_atom_site_fract_z
Si Si1 0.432691 0.804719 0.806447
Si Si2 0.613013 0.420614 0.645902
Si Si3 0.086584 0.736045 0.204419
Si Si4 0.130721 0.290992 0.560599
Si Si5 0.892069 0.730110 0.221602
Si Si6 0.580784 0.879542 0.855679
O O1 0.255546 0.788195 0.476292
O O2 0.490980 0.968171 0.766789
O O3 0.500000 0.500000 0.000000
O O4 0.500000 0.000000 0.000000
O O5 0.500000 0.500000 0.500000
O O6 0.534467 0.356552 0.385420
O O7 0.640055 0.121961 0.823665
O O8 0.767404 0.636670 0.904147
O O9 0.093945 0.585506 0.376438
O O10 0.000000 0.500000 0.000000
O O11 0.000000 0.000000 0.000000
O O12 0.180363 0.293712 0.789151
O O13 0.272941 0.224245 0.787018
O O14 0.989384 0.041132 0.325587
O O15 0.000000 0.500000 0.500000
#
# Coordination Sequence:
#
# PCOD9062870 Si02
#       6
#     2   2   2   2   2   2
#     4  12  28  51  84 114 149 215 271 321 401 478
#     4  11  24  43  72 113 155 199 256 328 396 472
#     4  12  30  54  78 117 159 209 269 339 398 472
#     4  11  25  47  73 110 153 207 266 323 401 480
#     4  11  24  42  76 110 151 207 254 322 406 478
#     4  11  25  46  75 112 153 202 267 326 392 481
#
# _framework density 24.177716
#
# number of rings (size 3 to 8) (size 9 to 14) (size 15 to 20)
#    0.000    0.667    5.000    1.000    7.000    2.667 
#    0.000    0.000    0.000    0.000    0.000    0.000 
#    0.000    0.000    0.000    0.000    0.000    0.000 
#
# Total GULP energy -67156.412640 kJ/mol
# GULP energy per Si atom -5596.367720 kJ/mol
# Density = 2.412269 g / cm^3
# Si number density = 24.177716 Si / 1000 Ang^3
#
#
#
# Elastic Constant Matrix: (Units=GPa)
#
#
# Indices 1 2 3 4 5 6 
#
# 1 118.8673 33.0728 40.3221 11.8192 9.2060 -10.2990
# 2 33.0728 94.7871 58.8543 -18.0076 0.1846 -8.9458
# 3 40.3221 58.8543 149.6208 10.9049 13.1637 -8.9625
# 4 11.8192 -18.0076 10.9049 63.5461 -16.6048 -3.9342
# 5 9.2060 0.1846 13.1637 -16.6048 40.2236 0.4858
# 6 -10.2990 -8.9458 -8.9625 -3.9342 0.4858 47.7201
#
#
#
# Elastic Compliance Matrix: (Units=1/GPa)
#
#
# Indices 1 2 3 4 5 6 
#
# 1 0.010481 -0.003902 -0.000605 -0.003873 -0.003795 0.001136
# 2 -0.003902 0.018365 -0.007335 0.009124 0.006953 0.001904
# 3 -0.000605 -0.007335 0.010597 -0.005200 -0.005444 0.000111
# 4 -0.003873 0.009124 -0.005200 0.023202 0.012104 0.001688
# 5 -0.003795 0.006953 -0.005444 0.012104 0.032474 0.000129
# 6 0.001136 0.001904 0.000111 0.001688 0.000129 0.021716
#
#
# Mechanical properties :
#
#
# Convention : Reuss Voigt Hill
#
# Bulk Modulus (GPa) = 63.46098 69.75262 66.60680
# Shear Modulus (GPa) = 34.29958 45.69970 39.99964
#
# Velocity S-wave (km/s) = 3.77058 4.35231 4.07185
# Velocity P-wave (km/s) = 6.72763 7.35999 7.05090
#
# Compressibility (1/GPa) = 0.01575772
#
# Stress axis : x y z
#
# Youngs Moduli (GPa) = 95.40785 54.45002 94.36969
#
# Poissons Ratio (x) = 0.21248 0.05714
# Poissons Ratio (y) = 0.37231 0.69221
# Poissons Ratio (z) = 0.05776 0.39940
#
# Static dielectric constant tensor:
#      x y z
#    x 1.961630 -0.005310 0.018380 
#    y -0.005310 2.011710 -0.083040 
#    z 0.018380 -0.083040 1.968000 
# 
# From -- ./inp_files/26283.got.cif
#   From: 2010.05.17/outbox.cif.g08.bks.cpg/sg2_14_cif.got.tgz:26283.got - 2010.06.03 11:33:40.
