data_PCOD9062991
_publ_section_title
;
Structure prediction by ZEFSAII (Michael W. Deem and Ramdas Pophale) SiO2 
 PCOD9062991
Probable space group: P -1
;
_chemical_formula_sum "Si O2"
_cell_formula_units_Z 14
_cell_length_a 4.989411
_cell_length_b 5.834361
_cell_length_c 21.346290
_cell_angle_alpha 109.849835
_cell_angle_beta 104.562930
_cell_angle_gamma 84.235963
_cell_volume 565.616367
_symmetry_space_group_name_H-M "P -1"
_symmetry_group_IT_number 2
_symmetry_cell_setting 'triclinic'
loop_
_space_group_symop_operation_xyz
x,y,z
-x,-y,-z
loop_
_atom_site_type_symbol
_atom_site_label
_atom_site_fract_x
_atom_site_fract_y
_atom_site_fract_z
Si Si1 0.552827 0.444827 0.926454
Si Si2 0.192120 0.960823 0.652714
Si Si3 0.308966 0.337993 0.370741
Si Si4 0.221006 0.860909 0.455718
Si Si5 0.815509 0.924004 0.921166
Si Si6 0.808854 0.655991 0.214111
Si Si7 0.664129 0.602432 0.770667
O O1 0.653817 0.696299 0.923923
O O2 0.285169 0.368925 0.864739
O O3 0.728063 0.194315 0.917113
O O4 0.500000 0.500000 0.000000
O O5 0.451429 0.862890 0.618721
O O6 0.000952 0.741244 0.641229
O O7 0.283558 0.100515 0.733168
O O8 0.969658 0.128197 0.617742
O O9 0.329073 0.582368 0.434384
O O10 0.350213 0.358709 0.300417
O O11 0.500000 0.000000 0.500000
O O12 0.000000 0.000000 0.500000
O O13 0.837284 0.792805 0.841285
O O14 0.000000 0.000000 0.000000
O O15 0.636887 0.450087 0.222864
O O16 0.137572 0.635294 0.233283
#
# Coordination Sequence:
#
# PCOD9062991 Si02
#       7
#     2   2   2   2   2   2   2
#     4  11  24  43  68 106 147 198 249 311 376 445
#     4  12  26  45  75 107 140 189 246 299 365 443
#     4  12  26  45  75 107 140 189 246 299 365 443
#     4  12  28  48  72 104 148 186 234 304 372 446
#     4  11  24  43  68 106 147 198 249 311 376 445
#     4  11  24  45  73 105 143 189 241 302 365 439
#     4  11  24  45  73 105 143 189 241 302 365 439
#
# _framework density 24.751757999999999
#
# number of rings (size 3 to 8) (size 9 to 14) (size 15 to 20)
#    0.000    0.571    1.429    6.000    2.000    9.143 
#    0.000    0.000    0.000    0.000    0.000    0.000 
#    0.000    0.000    0.000    0.000    0.000    0.000 
#
# Total GULP energy -77997.045584 kJ/mol
# GULP energy per Si atom -5571.217542 kJ/mol
# Density = 2.469542 g / cm^3
# Si number density = 24.751758 Si / 1000 Ang^3
#
#
#
# Elastic Constant Matrix: (Units=GPa)
#
#
# Indices 1 2 3 4 5 6 
#
# 1 98.9178 12.6055 27.1203 13.5547 5.7385 -13.3026
# 2 12.6055 54.9685 35.2500 20.0610 11.1467 2.2593
# 3 27.1203 35.2500 140.5594 27.3394 -10.4024 0.5761
# 4 13.5547 20.0610 27.3394 62.3734 -7.0384 -1.9846
# 5 5.7385 11.1467 -10.4024 -7.0384 42.9524 -0.8319
# 6 -13.3026 2.2593 0.5761 -1.9846 -0.8319 29.8248
#
#
#
# Elastic Compliance Matrix: (Units=1/GPa)
#
#
# Indices 1 2 3 4 5 6 
#
# 1 0.011760 -0.000672 -0.001972 -0.001539 -0.002026 0.005175
# 2 -0.000672 0.026741 -0.005899 -0.007033 -0.009488 -0.002944
# 3 -0.001972 -0.005899 0.009542 -0.001441 0.003857 -0.000605
# 4 -0.001539 -0.007033 -0.001441 0.019863 0.004963 0.001334
# 5 -0.002026 -0.009488 0.003857 0.004963 0.027778 0.000845
# 6 0.005175 -0.002944 -0.000605 0.001334 0.000845 0.036185
#
#
# Mechanical properties :
#
#
# Convention : Reuss Voigt Hill
#
# Bulk Modulus (GPa) = 32.30252 49.37748 40.84000
# Shear Modulus (GPa) = 31.39227 41.66146 36.52686
#
# Velocity S-wave (km/s) = 3.56516 4.10710 3.84569
# Velocity P-wave (km/s) = 5.47961 6.51793 6.02119
#
# Compressibility (1/GPa) = 0.03095734
#
# Stress axis : x y z
#
# Youngs Moduli (GPa) = 85.03206 37.39597 104.79482
#
# Poissons Ratio (x) = 0.02514 0.20669
# Poissons Ratio (y) = 0.05716 0.61814
# Poissons Ratio (z) = 0.16771 0.22058
#
# Static dielectric constant tensor:
#      x y z
#    x 1.924540 -0.016020 0.014730 
#    y -0.016020 2.046450 -0.109080 
#    z 0.014730 -0.109080 1.873040 
# 
# From -- ./inp_files/12838.got.cif
#   From: 2010.05.17/outbox.cif.g08.bks.cpg/sg2_7_cif.got.tgz:12838.got - 2010.06.03 11:33:40.
