data_PCOD9062540
_publ_section_title
;
Structure prediction by ZEFSAII (Michael W. Deem and Ramdas Pophale) SiO2 
 PCOD9062540
Probable space group: P -1
;
_chemical_formula_sum "Si O2"
_cell_formula_units_Z 16
_cell_length_a 20.060799
_cell_length_b 9.592513
_cell_length_c 12.359842
_cell_angle_alpha 140.906490
_cell_angle_beta 41.694246
_cell_angle_gamma 109.317413
_cell_volume 803.276274
_symmetry_space_group_name_H-M "P -1"
_symmetry_group_IT_number 2
_symmetry_cell_setting 'triclinic'
loop_
_space_group_symop_operation_xyz
x,y,z
-x,-y,-z
loop_
_atom_site_type_symbol
_atom_site_label
_atom_site_fract_x
_atom_site_fract_y
_atom_site_fract_z
Si Si1 0.238270 0.199207 0.720148
Si Si2 0.238309 0.805736 0.326649
Si Si3 0.535014 0.405028 0.223176
Si Si4 0.695380 0.201424 0.413846
Si Si5 0.695338 0.592301 0.804760
Si Si6 0.125832 0.245585 0.248310
Si Si7 0.464956 0.181411 0.363285
Si Si8 0.957419 0.213238 0.585187
O O1 0.331186 0.240467 0.569107
O O2 0.194113 0.064930 0.611739
O O3 0.313196 0.978726 0.593467
O O4 0.127458 0.479825 0.078552
O O5 0.313250 0.538929 0.153625
O O6 0.127511 0.812718 0.411420
O O7 0.331224 0.777463 0.106073
O O8 0.432435 0.578472 0.359613
O O9 0.499983 0.240533 0.240546
O O10 0.533332 0.619009 0.433339
O O11 0.737647 0.364918 0.524741
O O12 0.792999 0.991167 0.080146
O O13 0.792938 0.659037 0.748078
O O14 0.567522 0.870528 0.089419
O O15 0.000000 0.500000 0.500000
O O16 0.079094 0.149405 0.341813
O O17 0.000000 0.000000 0.500000
#
# Coordination Sequence:
#
# PCOD9062540 Si02
#       8
#     2   2   2   2   2   2   2   2
#     4  11  24  44  68  97 129 168 215 265 321 382
#     4  11  24  44  68  97 129 168 215 265 321 382
#     4  11  24  41  68  99 132 168 210 264 328 385
#     4  11  24  42  69  99 128 167 215 266 318 382
#     4  11  24  42  69  99 128 167 215 266 318 382
#     4  12  24  45  68  93 127 174 217 264 314 374
#     4  11  24  41  68  99 132 168 210 264 328 385
#     4  12  28  45  66  93 133 172 217 266 316 376
#
# _framework density 19.918426
#
# number of rings (size 3 to 8) (size 9 to 14) (size 15 to 20)
#    0.000    0.750    5.000    1.500    3.500    7.000 
#    0.000    0.000    0.000    0.000    0.000    0.000 
#    0.000    0.000    0.000    0.000    0.000    0.000 
#
# Total GULP energy -89496.116860 kJ/mol
# GULP energy per Si atom -5593.507304 kJ/mol
# Density = 1.987309 g / cm^3
# Si number density = 19.918426 Si / 1000 Ang^3
#
#
#
# Elastic Constant Matrix: (Units=GPa)
#
#
# Indices 1 2 3 4 5 6 
#
# 1 71.2969 27.1978 56.3752 1.5978 31.7569 1.3592
# 2 27.1978 119.0512 37.1489 -18.6920 25.5330 -5.0019
# 3 56.3752 37.1489 45.6059 -4.4721 12.0496 32.4725
# 4 1.5978 -18.6920 -4.4721 35.6583 0.7820 -11.4895
# 5 31.7569 25.5330 12.0496 0.7820 23.5657 10.7068
# 6 1.3592 -5.0019 32.4725 -11.4895 10.7068 21.7222
#
#
#
# Elastic Compliance Matrix: (Units=1/GPa)
#
#
# Indices 1 2 3 4 5 6 
#
# 1 0.009835 -0.008124 0.009200 -0.010921 0.001559 -0.022784
# 2 -0.008124 0.008971 0.006039 0.004563 -0.000227 -0.003929
# 3 0.009200 0.006039 0.000565 0.009519 -0.028118 0.018864
# 4 -0.010921 0.004563 0.009519 0.033462 0.001844 0.004294
# 5 0.001559 -0.000227 -0.028118 0.001844 0.045646 0.020360
# 6 -0.022784 -0.003929 0.018864 0.004294 0.020360 0.010593
#
#
# Mechanical properties :
#
#
# Convention : Reuss Voigt Hill
#
# Bulk Modulus (GPa) = 29.75926 53.04421 41.40173
# Shear Modulus (GPa) = 47.15135 23.87138 35.51136
#
# Velocity S-wave (km/s) = 4.87069 3.46563 4.22695
# Velocity P-wave (km/s) = 6.82675 6.53473 6.68233
#
# Compressibility (1/GPa) = 0.03360299
#
# Stress axis : x y z
#
# Youngs Moduli (GPa) = 101.67801 111.46698 1769.63438
#
# Poissons Ratio (x) = 0.90555 -16.28135
# Poissons Ratio (y) = 0.82603 -10.68753
# Poissons Ratio (z) = -0.93548 -0.67319
#
# Static dielectric constant tensor:
#      x y z
#    x 1.683550 -0.006880 0.014710 
#    y -0.006880 1.730820 -0.008260 
#    z 0.014710 -0.008260 1.677300 
# 
# From -- ./inp_files/279900.got.cif
#   From: 2010.05.17/outbox.cif.g08.bks.cpg/sg2_140_cif.got.tgz:279900.got - 2010.06.03 11:33:40.
