data_PCOD9062957
_publ_section_title
;
Structure prediction by ZEFSAII (Michael W. Deem and Ramdas Pophale) SiO2 
 PCOD9062957
Probable space group: P -1
;
_chemical_formula_sum "Si O2"
_cell_formula_units_Z 16
_cell_length_a 18.562800
_cell_length_b 17.264306
_cell_length_c 6.577915
_cell_angle_alpha 50.731641
_cell_angle_beta 134.016566
_cell_angle_gamma 148.703651
_cell_volume 783.151678
_symmetry_space_group_name_H-M "P -1"
_symmetry_group_IT_number 2
_symmetry_cell_setting 'triclinic'
loop_
_space_group_symop_operation_xyz
x,y,z
-x,-y,-z
loop_
_atom_site_type_symbol
_atom_site_label
_atom_site_fract_x
_atom_site_fract_y
_atom_site_fract_z
Si Si1 0.597545 0.609859 0.821174
Si Si2 0.944371 0.424241 0.234665
Si Si3 0.906032 0.588700 0.149962
Si Si4 0.573388 0.400293 0.839010
Si Si5 0.610738 0.096916 0.244821
Si Si6 0.589627 0.911756 0.843703
Si Si7 0.104257 0.101536 0.847028
Si Si8 0.912595 0.090003 0.187709
O O1 0.614831 0.528898 0.837447
O O2 0.523098 0.638552 0.482317
O O3 0.500000 0.500000 0.000000
O O4 0.745271 0.754916 0.984068
O O5 0.963752 0.540202 0.208293
O O6 0.774380 0.257190 0.222408
O O7 0.056358 0.420611 0.535299
O O8 0.000000 0.500000 0.000000
O O9 0.731193 0.472178 0.961891
O O10 0.996303 0.754936 0.000627
O O11 0.484205 0.252912 0.043933
O O12 0.526466 0.113053 0.201575
O O13 0.617842 0.999013 0.551855
O O14 0.500000 0.000000 0.000000
O O15 0.755732 0.016677 0.086385
O O16 0.021147 0.124199 0.513325
O O17 0.124804 0.024287 0.860285
O O18 0.000000 0.000000 0.000000
#
# Coordination Sequence:
#
# PCOD9062957 Si02
#       8
#     2   2   2   2   2   2   2   2
#     4  11  24  43  67  99 137 172 225 280 334 400
#     4  11  26  44  69  99 135 175 225 278 335 403
#     4  11  24  45  66  94 136 177 222 273 340 396
#     4  11  24  43  68  99 134 180 221 279 336 400
#     4  11  26  44  67 101 135 175 225 280 334 402
#     4  11  24  45  68  94 140 177 222 275 340 400
#     4  11  24  43  67  99 137 172 225 280 334 400
#     4  11  24  43  68  99 134 180 221 279 336 400
#
# _framework density 20.430271000000001
#
# number of rings (size 3 to 8) (size 9 to 14) (size 15 to 20)
#    0.000    1.000    2.500    3.000    3.500   10.000 
#    0.000    0.000    0.000    0.000    0.000    0.000 
#    0.000    0.000    0.000    0.000    0.000    0.000 
#
# Total GULP energy -89359.183736 kJ/mol
# GULP energy per Si atom -5584.948984 kJ/mol
# Density = 2.038377 g / cm^3
# Si number density = 20.430271 Si / 1000 Ang^3
#
#
#
# Elastic Constant Matrix: (Units=GPa)
#
#
# Indices 1 2 3 4 5 6 
#
# 1 42.8892 21.7463 58.5560 0.3234 2.1110 10.5843
# 2 21.7463 155.4271 91.0391 3.2223 5.2960 5.6901
# 3 58.5560 91.0391 179.6232 -2.6106 7.0321 -6.7738
# 4 0.3234 3.2223 -2.6106 41.9943 0.7072 -5.6705
# 5 2.1110 5.2960 7.0321 0.7072 35.6873 -0.8267
# 6 10.5843 5.6901 -6.7738 -5.6705 -0.8267 29.2667
#
#
#
# Elastic Compliance Matrix: (Units=1/GPa)
#
#
# Indices 1 2 3 4 5 6 
#
# 1 0.061240 0.007287 -0.024896 -0.006709 -0.000375 -0.030637
# 2 0.007287 0.010361 -0.007901 -0.002270 -0.000527 -0.006933
# 3 -0.024896 -0.007901 0.018360 0.004051 -0.000693 0.015554
# 4 -0.006709 -0.002270 0.004051 0.025476 -0.000367 0.008731
# 5 -0.000375 -0.000527 -0.000693 -0.000367 0.028284 0.000806
# 6 -0.030637 -0.006933 0.015554 0.008731 0.000806 0.051911
#
#
# Mechanical properties :
#
#
# Convention : Reuss Voigt Hill
#
# Bulk Modulus (GPa) = 25.67840 80.06916 52.87378
# Shear Modulus (GPa) = 19.25817 35.16286 27.21051
#
# Velocity S-wave (km/s) = 3.07356 4.15313 3.65344
# Velocity P-wave (km/s) = 5.01914 7.89142 6.61310
#
# Compressibility (1/GPa) = 0.03894323
#
# Stress axis : x y z
#
# Youngs Moduli (GPa) = 16.32913 96.51764 54.46659
#
# Poissons Ratio (x) = -0.70336 1.35598
# Poissons Ratio (y) = -0.11900 0.43032
# Poissons Ratio (z) = 0.40652 0.76255
#
# Static dielectric constant tensor:
#      x y z
#    x 1.698750 -0.009730 0.044990 
#    y -0.009730 1.692090 0.016030 
#    z 0.044990 0.016030 1.682280 
# 
# From -- ./inp_files/111606.got.cif
#   From: 2010.05.17/outbox.cif.g08.bks.cpg/sg2_56_cif.got.tgz:111606.got - 2010.06.03 11:33:40.
