data_PCOD9062525
_publ_section_title
;
Structure prediction by ZEFSAII (Michael W. Deem and Ramdas Pophale) SiO2 
 PCOD9062525
Probable space group: P -1
;
_chemical_formula_sum "Si O2"
_cell_formula_units_Z 16
_cell_length_a 12.462450
_cell_length_b 8.942876
_cell_length_c 12.862984
_cell_angle_alpha 59.376109
_cell_angle_beta 146.442497
_cell_angle_gamma 106.628933
_cell_volume 652.453281
_symmetry_space_group_name_H-M "P -1"
_symmetry_group_IT_number 2
_symmetry_cell_setting 'triclinic'
loop_
_space_group_symop_operation_xyz
x,y,z
-x,-y,-z
loop_
_atom_site_type_symbol
_atom_site_label
_atom_site_fract_x
_atom_site_fract_y
_atom_site_fract_z
Si Si1 0.202539 0.047629 0.687028
Si Si2 0.276070 0.525725 0.415587
Si Si3 0.712340 0.392703 0.307111
Si Si4 0.882383 0.536256 0.001416
Si Si5 0.454869 0.243109 0.473583
Si Si6 0.595673 0.330232 0.914199
Si Si7 0.866202 0.709655 0.250860
Si Si8 0.460842 0.942772 0.742982
O O1 0.329129 0.072832 0.679839
O O2 0.158472 0.207690 0.679592
O O3 0.342827 0.871800 0.922826
O O4 0.000000 0.000000 0.500000
O O5 0.354557 0.401978 0.420095
O O6 0.332819 0.715332 0.389198
O O7 0.420284 0.406327 0.661567
O O8 0.036062 0.558339 0.205744
O O9 0.500779 0.534953 0.118305
O O10 0.810072 0.520305 0.270656
O O11 0.651185 0.214053 0.293435
O O12 0.894745 0.325746 0.563097
O O13 0.685399 0.706095 0.759878
O O14 0.796159 0.370209 0.018546
O O15 0.000000 0.500000 0.000000
O O16 0.453697 0.057514 0.592267
O O17 0.694337 0.853737 0.996156
#
# Coordination Sequence:
#
# PCOD9062525 Si02
#       8
#     2   2   2   2   2   2   2   2
#     4  12  26  42  68 105 135 172 228 278 326 397
#     4   9  19  39  62  94 127 166 218 279 322 384
#     4  11  26  44  63  95 142 181 224 262 342 401
#     4   9  20  38  65  94 128 170 217 275 334 382
#     4   9  20  36  63  95 126 164 218 274 331 379
#     4  11  24  41  67  97 132 174 222 272 327 400
#     4  11  25  44  65  94 137 187 221 268 331 401
#     4  12  24  43  68  97 139 178 219 281 328 401
#
# _framework density 24.522828000000001
#
# number of rings (size 3 to 8) (size 9 to 14) (size 15 to 20)
#    0.000    1.500    2.500    2.250    5.250    2.000 
#    0.000    2.500    0.000    4.500    0.000    0.000 
#    0.000    0.000    0.000    0.000    0.000    0.000 
#
# Total GULP energy -89426.009633 kJ/mol
# GULP energy per Si atom -5589.125602 kJ/mol
# Density = 2.446701 g / cm^3
# Si number density = 24.522828 Si / 1000 Ang^3
#
#
#
# Elastic Constant Matrix: (Units=GPa)
#
#
# Indices 1 2 3 4 5 6 
#
# 1 52.7352 34.0513 3.0257 -5.4240 4.8231 18.4766
# 2 34.0513 126.0695 46.5991 9.5734 2.6330 20.3320
# 3 3.0257 46.5991 137.7098 32.6407 -2.3535 6.4915
# 4 -5.4240 9.5734 32.6407 40.5702 0.1144 3.0417
# 5 4.8231 2.6330 -2.3535 0.1144 35.7600 -4.7232
# 6 18.4766 20.3320 6.4915 3.0417 -4.7232 30.3446
#
#
#
# Elastic Compliance Matrix: (Units=1/GPa)
#
#
# Indices 1 2 3 4 5 6 
#
# 1 0.029335 -0.005993 0.000585 0.006038 -0.005535 -0.015439
# 2 -0.005993 0.011423 -0.003484 -0.000442 -0.000700 -0.003324
# 3 0.000585 -0.003484 0.010146 -0.007317 0.000960 0.000690
# 4 0.006038 -0.000442 -0.007317 0.031853 -0.002069 -0.005330
# 5 -0.005535 -0.000700 0.000960 -0.002069 0.029955 0.008504
# 6 -0.015439 -0.003324 0.000690 -0.005330 0.008504 0.046293
#
#
# Mechanical properties :
#
#
# Convention : Reuss Voigt Hill
#
# Bulk Modulus (GPa) = 30.19261 53.76297 41.97779
# Shear Modulus (GPa) = 26.62012 36.85753 31.73882
#
# Velocity S-wave (km/s) = 3.29830 3.88105 3.60148
# Velocity P-wave (km/s) = 5.18110 6.48495 5.86935
#
# Compressibility (1/GPa) = 0.03312069
#
# Stress axis : x y z
#
# Youngs Moduli (GPa) = 34.08887 87.54345 98.56179
#
# Poissons Ratio (x) = 0.52463 -0.05769
# Poissons Ratio (y) = 0.20429 0.34340
# Poissons Ratio (z) = -0.01995 0.30501
#
# Static dielectric constant tensor:
#      x y z
#    x 2.101580 -0.104010 -0.006010 
#    y -0.104010 1.982270 0.064210 
#    z -0.006010 0.064210 1.985510 
# 
# From -- ./inp_files/528340.got.cif
#   From: 2010.05.17/outbox.cif.g08.bks.cpg/sg2_265_cif.got.tgz:528340.got - 2010.06.03 11:33:40.
