data_PCOD9062332
_publ_section_title
;
Structure prediction by ZEFSAII (Michael W. Deem and Ramdas Pophale) SiO2 
 PCOD9062332
Probable space group: P -1
;
_chemical_formula_sum "Si O2"
_cell_formula_units_Z 12
_cell_length_a 13.106653
_cell_length_b 7.248571
_cell_length_c 9.199306
_cell_angle_alpha 57.158616
_cell_angle_beta 143.954015
_cell_angle_gamma 112.644471
_cell_volume 429.547978
_symmetry_space_group_name_H-M "P -1"
_symmetry_group_IT_number 2
_symmetry_cell_setting 'triclinic'
loop_
_space_group_symop_operation_xyz
x,y,z
-x,-y,-z
loop_
_atom_site_type_symbol
_atom_site_label
_atom_site_fract_x
_atom_site_fract_y
_atom_site_fract_z
Si Si1 0.205220 0.332722 0.550968
Si Si2 0.406941 0.741928 0.653296
Si Si3 0.289422 0.245233 0.234830
Si Si4 0.690917 0.137324 0.222664
Si Si5 0.080225 0.150292 0.786294
Si Si6 0.182614 0.686137 0.007925
O O1 0.281014 0.564562 0.535121
O O2 0.163047 0.273226 0.695734
O O3 0.019363 0.329295 0.257081
O O4 0.325705 0.119924 0.716301
O O5 0.568419 0.719066 0.739660
O O6 0.437149 0.728547 0.868327
O O7 0.332939 0.000982 0.448099
O O8 0.112101 0.256924 0.931349
O O9 0.270920 0.441167 0.246828
O O10 0.717391 0.245825 0.050868
O O11 0.881404 0.146284 0.513786
O O12 0.177137 0.899956 0.011702
#
# Coordination Sequence:
#
# PCOD9062332 Si02
#       6
#     2   2   2   2   2   2
#     4   9  19  37  60  83 105 133 175 225 270 313
#     4  11  24  37  50  76 114 149 178 213 260 314
#     4  11  24  37  50  76 114 149 178 213 260 314
#     4   9  19  37  60  83 105 133 175 225 270 313
#     4   9  19  37  60  83 105 133 175 225 270 313
#     4   9  19  37  60  83 105 133 175 225 270 313
#
# _framework density 27.936343000000001
#
# number of rings (size 3 to 8) (size 9 to 14) (size 15 to 20)
#    0.000    2.333    0.000    4.000    0.000   10.667 
#    0.000   10.000    0.000    0.000    0.000    0.000 
#    0.000    0.000    0.000    0.000    0.000    0.000 
#
# Total GULP energy -67349.842064 kJ/mol
# GULP energy per Si atom -5612.486839 kJ/mol
# Density = 2.787276 g / cm^3
# Si number density = 27.936343 Si / 1000 Ang^3
#
#
#
# Elastic Constant Matrix: (Units=GPa)
#
#
# Indices 1 2 3 4 5 6 
#
# 1 119.6284 57.9417 10.8108 -4.2136 14.0538 -1.3726
# 2 57.9417 194.3521 30.5694 -20.0122 15.9371 5.2582
# 3 10.8108 30.5694 54.5086 -17.6144 12.7262 5.7842
# 4 -4.2136 -20.0122 -17.6144 52.7180 -10.2075 7.9346
# 5 14.0538 15.9371 12.7262 -10.2075 28.5182 -1.4441
# 6 -1.3726 5.2582 5.7842 7.9346 -1.4441 48.1047
#
#
#
# Elastic Compliance Matrix: (Units=1/GPa)
#
#
# Indices 1 2 3 4 5 6 
#
# 1 0.010151 -0.002853 0.000049 -0.001088 -0.003786 0.000661
# 2 -0.002853 0.006606 -0.002420 0.001447 -0.000727 -0.000773
# 3 0.000049 -0.002420 0.023803 0.006210 -0.007266 -0.003839
# 4 -0.001088 0.001447 0.006210 0.023171 0.005017 -0.004607
# 5 -0.003786 -0.000727 -0.007266 0.005017 0.042441 0.001292
# 6 0.000661 -0.000773 -0.003839 -0.004607 0.001292 0.022152
#
#
# Mechanical properties :
#
#
# Convention : Reuss Voigt Hill
#
# Bulk Modulus (GPa) = 33.20905 63.01478 48.11191
# Shear Modulus (GPa) = 33.60025 43.81268 38.70646
#
# Velocity S-wave (km/s) = 3.47182 3.96448 3.72630
# Velocity P-wave (km/s) = 5.29005 6.60012 5.98106
#
# Compressibility (1/GPa) = 0.03011228
#
# Stress axis : x y z
#
# Youngs Moduli (GPa) = 98.51393 151.37567 42.01106
#
# Poissons Ratio (x) = 0.43195 -0.00206
# Poissons Ratio (y) = 0.28111 0.10165
# Poissons Ratio (z) = -0.00483 0.36626
#
# Static dielectric constant tensor:
#      x y z
#    x 2.110010 0.027680 -0.003950 
#    y 0.027680 2.107100 -0.021830 
#    z -0.003950 -0.021830 2.246120 
# 
# From -- ./inp_files/446857.got.cif
#   From: 2010.05.17/outbox.cif.g08.bks.cpg/sg2_224_cif.got.tgz:446857.got - 2010.06.03 11:33:40.
