data_PCOD9062130
_publ_section_title
;
Structure prediction by ZEFSAII (Michael W. Deem and Ramdas Pophale) SiO2 
 PCOD9062130
Probable space group: P -1
;
_chemical_formula_sum "Si O2"
_cell_formula_units_Z 14
_cell_length_a 13.368301
_cell_length_b 5.601812
_cell_length_c 9.132441
_cell_angle_alpha 109.515833
_cell_angle_beta 121.758030
_cell_angle_gamma 67.079665
_cell_volume 528.266885
_symmetry_space_group_name_H-M "P -1"
_symmetry_group_IT_number 2
_symmetry_cell_setting 'triclinic'
loop_
_space_group_symop_operation_xyz
x,y,z
-x,-y,-z
loop_
_atom_site_type_symbol
_atom_site_label
_atom_site_fract_x
_atom_site_fract_y
_atom_site_fract_z
Si Si1 0.230208 0.430030 0.969414
Si Si2 0.927369 0.303756 0.484612
Si Si3 0.340788 0.556640 0.815247
Si Si4 0.429353 0.671221 0.614578
Si Si5 0.387742 0.991094 0.141621
Si Si6 0.039522 0.383093 0.167981
Si Si7 0.737908 0.106064 0.710008
O O1 0.314194 0.359643 0.876262
O O2 0.093461 0.580931 0.857781
O O3 0.253606 0.161802 0.019385
O O4 0.267534 0.624773 0.153376
O O5 0.799046 0.308112 0.312618
O O6 0.901179 0.427658 0.652778
O O7 0.000000 0.500000 0.500000
O O8 0.000000 0.000000 0.500000
O O9 0.406411 0.497570 0.697741
O O10 0.402951 0.739447 0.999223
O O11 0.500000 0.500000 0.500000
O O12 0.509826 0.858577 0.772256
O O13 0.305480 0.846156 0.479940
O O14 0.365102 0.984176 0.295878
O O15 0.130707 0.096750 0.202765
O O16 0.000000 0.500000 0.000000
#
# Coordination Sequence:
#
# PCOD9062130 Si02
#       7
#     2   2   2   2   2   2   2
#     4  11  23  47  74 111 151 200 257 316 407 481
#     4  12  29  51  78 119 163 210 263 331 408 497
#     4  11  28  46  76 108 157 205 261 330 401 482
#     4  12  27  50  76 111 153 208 277 331 396 467
#     4  11  24  51  74 107 155 210 263 325 394 483
#     4  12  26  45  80 113 154 203 258 329 404 477
#     4  11  26  45  78 110 153 199 261 334 399 463
#
# _framework density 26.501754999999999
#
# number of rings (size 3 to 8) (size 9 to 14) (size 15 to 20)
#    0.000    0.571    4.286    2.143    8.000    0.571 
#    2.571    0.000    0.000    0.000    0.000    0.000 
#    0.000    0.000    0.000    0.000    0.000    0.000 
#
# Total GULP energy -78304.373071 kJ/mol
# GULP energy per Si atom -5593.169505 kJ/mol
# Density = 2.644144 g / cm^3
# Si number density = 26.501755 Si / 1000 Ang^3
#
#
#
# Elastic Constant Matrix: (Units=GPa)
#
#
# Indices 1 2 3 4 5 6 
#
# 1 128.9602 24.9045 42.2345 -11.0126 -9.7685 0.6333
# 2 24.9045 101.2806 32.9697 -12.8180 -7.2290 -22.7584
# 3 42.2345 32.9697 174.2349 -26.0909 -4.4046 3.4764
# 4 -11.0126 -12.8180 -26.0909 44.9975 -1.7670 5.0326
# 5 -9.7685 -7.2290 -4.4046 -1.7670 51.7568 -4.1575
# 6 0.6333 -22.7584 3.4764 5.0326 -4.1575 38.6172
#
#
#
# Elastic Compliance Matrix: (Units=1/GPa)
#
#
# Indices 1 2 3 4 5 6 
#
# 1 0.008781 -0.001638 -0.001635 0.000889 0.001244 -0.000944
# 2 -0.001638 0.013011 -0.001968 0.001359 0.002023 0.007913
# 3 -0.001635 -0.001968 0.007057 0.003377 -0.000046 -0.002213
# 4 0.000889 0.001359 0.003377 0.025133 0.001290 -0.002654
# 5 0.001244 0.002023 -0.000046 0.001290 0.020134 0.003175
# 6 -0.000944 0.007913 -0.002213 -0.002654 0.003175 0.031461
#
#
# Mechanical properties :
#
#
# Convention : Reuss Voigt Hill
#
# Bulk Modulus (GPa) = 54.44680 67.18813 60.81747
# Shear Modulus (GPa) = 40.92252 47.36542 44.14397
#
# Velocity S-wave (km/s) = 3.93382 4.23218 4.08573
# Velocity P-wave (km/s) = 6.42047 7.02063 6.72725
#
# Compressibility (1/GPa) = 0.01836655
#
# Stress axis : x y z
#
# Youngs Moduli (GPa) = 113.88371 76.85547 141.70571
#
# Poissons Ratio (x) = 0.12587 0.23172
# Poissons Ratio (y) = 0.18651 0.27893
# Poissons Ratio (z) = 0.18623 0.15128
#
# Static dielectric constant tensor:
#      x y z
#    x 2.210310 -0.031760 0.009980 
#    y -0.031760 2.140250 -0.031260 
#    z 0.009980 -0.031260 2.048540 
# 
# From -- ./inp_files/289237.got.cif
#   From: 2010.05.17/outbox.cif.g08.bks.cpg/sg2_145_cif.got.tgz:289237.got - 2010.06.03 11:33:40.
