data_PCOD9062313
_publ_section_title
;
Structure prediction by ZEFSAII (Michael W. Deem and Ramdas Pophale) SiO2 
 PCOD9062313
Probable space group: P -1
;
_chemical_formula_sum "Si O2"
_cell_formula_units_Z 14
_cell_length_a 8.995295
_cell_length_b 9.398860
_cell_length_c 11.906078
_cell_angle_alpha 61.107968
_cell_angle_beta 128.249396
_cell_angle_gamma 133.215893
_cell_volume 573.012874
_symmetry_space_group_name_H-M "P -1"
_symmetry_group_IT_number 2
_symmetry_cell_setting 'triclinic'
loop_
_space_group_symop_operation_xyz
x,y,z
-x,-y,-z
loop_
_atom_site_type_symbol
_atom_site_label
_atom_site_fract_x
_atom_site_fract_y
_atom_site_fract_z
Si Si1 0.078805 0.985954 0.269476
Si Si2 0.020080 0.763739 0.723709
Si Si3 0.481761 0.589340 0.321843
Si Si4 0.652892 0.962155 0.411737
Si Si5 0.587426 0.826985 0.827717
Si Si6 0.428671 0.786586 0.006055
Si Si7 0.191209 0.463240 0.642424
O O1 0.935605 0.753169 0.281423
O O2 0.948406 0.063017 0.247958
O O3 0.288541 0.041613 0.430838
O O4 0.185538 0.106360 0.159660
O O5 0.758035 0.590296 0.676082
O O6 0.178237 0.695622 0.870465
O O7 0.119460 0.860463 0.612091
O O8 0.583529 0.768128 0.387278
O O9 0.657775 0.533081 0.391483
O O10 0.431338 0.661659 0.155213
O O11 0.463072 0.007215 0.284867
O O12 0.586834 0.808056 0.967988
O O13 0.372978 0.628874 0.749555
O O14 0.500000 0.000000 0.000000
O O15 0.000000 0.500000 0.500000
#
# Coordination Sequence:
#
# PCOD9062313 Si02
#       7
#     2   2   2   2   2   2   2
#     4  12  24  45  69 105 148 183 230 293 356 410
#     4  11  24  43  72 107 138 187 233 287 350 411
#     4  12  25  46  74 104 140 191 236 288 350 414
#     4  11  24  43  74 102 144 186 236 288 345 424
#     4  11  25  45  71 103 144 185 231 292 356 410
#     4  11  23  50  74 100 142 182 243 290 339 426
#     4  12  26  44  70 106 146 182 234 290 354 420
#
# _framework density 24.432261
#
# number of rings (size 3 to 8) (size 9 to 14) (size 15 to 20)
#    0.000    0.571    7.143    1.286    0.000    4.571 
#    2.571    1.429    0.000    0.000    0.000    0.000 
#    0.000    0.000    0.000    0.000    0.000    0.000 
#
# Total GULP energy -78551.609423 kJ/mol
# GULP energy per Si atom -5610.829245 kJ/mol
# Density = 2.437665 g / cm^3
# Si number density = 24.432261 Si / 1000 Ang^3
#
#
#
# Elastic Constant Matrix: (Units=GPa)
#
#
# Indices 1 2 3 4 5 6 
#
# 1 98.3589 40.5218 19.3949 -1.6483 -11.0588 3.4378
# 2 40.5218 130.6982 26.3356 13.1002 -12.1775 9.5564
# 3 19.3949 26.3356 106.0164 -14.0207 -13.9080 1.0745
# 4 -1.6483 13.1002 -14.0207 33.1312 -5.0487 -0.7223
# 5 -11.0588 -12.1775 -13.9080 -5.0487 52.2666 -2.3321
# 6 3.4378 9.5564 1.0745 -0.7223 -2.3321 45.5130
#
#
#
# Elastic Compliance Matrix: (Units=1/GPa)
#
#
# Indices 1 2 3 4 5 6 
#
# 1 0.012035 -0.003599 -0.000834 0.001923 0.001671 -0.000018
# 2 -0.003599 0.009933 -0.002424 -0.005122 0.000332 -0.001821
# 3 -0.000834 -0.002424 0.011382 0.006189 0.002910 0.000551
# 4 0.001923 -0.005122 0.006189 0.035624 0.004372 0.001573
# 5 0.001671 0.000332 0.002910 0.004372 0.020799 0.000871
# 6 -0.000018 -0.001821 0.000551 0.001573 0.000871 0.022412
#
#
# Mechanical properties :
#
#
# Convention : Reuss Voigt Hill
#
# Bulk Modulus (GPa) = 50.92954 56.39756 53.66355
# Shear Modulus (GPa) = 37.75181 42.77022 40.26101
#
# Velocity S-wave (km/s) = 3.93512 4.18851 4.06379
# Velocity P-wave (km/s) = 6.44495 6.82091 6.63559
#
# Compressibility (1/GPa) = 0.01963497
#
# Stress axis : x y z
#
# Youngs Moduli (GPa) = 83.09295 100.67468 87.85799
#
# Poissons Ratio (x) = 0.36233 0.07327
# Poissons Ratio (y) = 0.29905 0.21301
# Poissons Ratio (z) = 0.06929 0.24408
#
# Static dielectric constant tensor:
#      x y z
#    x 1.933540 0.008210 0.027560 
#    y 0.008210 1.919860 0.029850 
#    z 0.027560 0.029850 1.940870 
# 
# From -- ./inp_files/381813.got.cif
#   From: 2010.05.17/outbox.cif.g08.bks.cpg/sg2_191_cif.got.tgz:381813.got - 2010.06.03 11:33:40.
