data_PCOD9062053
_publ_section_title
;
Structure prediction by ZEFSAII (Michael W. Deem and Ramdas Pophale) SiO2 
 PCOD9062053
Probable space group: P -1
;
_chemical_formula_sum "Si O2"
_cell_formula_units_Z 16
_cell_length_a 9.141856
_cell_length_b 17.680199
_cell_length_c 6.895363
_cell_angle_alpha 62.307751
_cell_angle_beta 116.950066
_cell_angle_gamma 124.209674
_cell_volume 787.567307
_symmetry_space_group_name_H-M "P -1"
_symmetry_group_IT_number 2
_symmetry_cell_setting 'triclinic'
loop_
_space_group_symop_operation_xyz
x,y,z
-x,-y,-z
loop_
_atom_site_type_symbol
_atom_site_label
_atom_site_fract_x
_atom_site_fract_y
_atom_site_fract_z
Si Si1 0.367631 0.195061 0.856230
Si Si2 0.169600 0.101812 0.450917
Si Si3 0.885254 0.541211 0.756334
Si Si4 0.642442 0.359100 0.585073
Si Si5 0.476534 0.095921 0.359205
Si Si6 0.832653 0.271202 0.513949
Si Si7 0.642136 0.586480 0.857391
Si Si8 0.879522 0.760934 0.041235
O O1 0.248653 0.150781 0.645709
O O2 0.555984 0.283681 0.797367
O O3 0.401542 0.115081 0.087612
O O4 0.261383 0.233298 0.892982
O O5 0.333906 0.094536 0.439548
O O6 0.101128 0.164249 0.203286
O O7 0.000000 0.000000 0.500000
O O8 0.777948 0.463476 0.619829
O O9 0.736791 0.551954 0.791298
O O10 0.019923 0.644266 0.628554
O O11 0.000000 0.500000 0.000000
O O12 0.744354 0.320449 0.545113
O O13 0.471365 0.363435 0.369032
O O14 0.669218 0.188236 0.399451
O O15 0.500000 0.000000 0.500000
O O16 0.937621 0.224284 0.757993
O O17 0.793330 0.658852 0.006871
O O18 0.500000 0.500000 0.000000
#
# Coordination Sequence:
#
# PCOD9062053 Si02
#       8
#     2   2   2   2   2   2   2   2
#     4  11  23  47  70  96 137 181 223 278 340 403
#     4  11  26  46  72  98 132 182 228 279 342 405
#     4  12  25  40  67 101 138 183 226 283 341 401
#     4  12  22  44  67  96 137 180 227 277 341 403
#     4  11  27  45  69 103 137 178 226 283 340 405
#     4  12  25  44  65 103 139 176 228 284 341 405
#     4  12  23  42  66  99 136 180 232 274 333 405
#     4  11  25  43  68 101 135 175 227 282 335 407
#
# _framework density 20.315722999999998
#
# number of rings (size 3 to 8) (size 9 to 14) (size 15 to 20)
#    0.000    0.500    2.500    6.000    3.500    2.500 
#    0.000    0.000    0.000    0.000    0.000    0.000 
#    0.000    0.000    0.000    0.000    0.000    0.000 
#
# Total GULP energy -89586.363018 kJ/mol
# GULP energy per Si atom -5599.147689 kJ/mol
# Density = 2.026948 g / cm^3
# Si number density = 20.315723 Si / 1000 Ang^3
#
#
#
# Elastic Constant Matrix: (Units=GPa)
#
#
# Indices 1 2 3 4 5 6 
#
# 1 87.6468 17.3412 32.2700 -10.1935 -0.4845 -9.4670
# 2 17.3412 112.5056 28.2371 -8.2088 -17.9881 13.6090
# 3 32.2700 28.2371 110.4000 -2.1809 1.0866 -4.2675
# 4 -10.1935 -8.2088 -2.1809 31.1862 4.5254 3.3125
# 5 -0.4845 -17.9881 1.0866 4.5254 36.4188 -3.1062
# 6 -9.4670 13.6090 -4.2675 3.3125 -3.1062 39.0745
#
#
#
# Elastic Compliance Matrix: (Units=1/GPa)
#
#
# Indices 1 2 3 4 5 6 
#
# 1 0.013717 -0.001462 -0.003438 0.003619 -0.000622 0.003101
# 2 -0.001462 0.011243 -0.002625 0.002034 0.004990 -0.004332
# 3 -0.003438 -0.002625 0.010776 -0.000983 -0.001437 0.001227
# 4 0.003619 0.002034 -0.000983 0.034554 -0.003480 -0.003145
# 5 -0.000622 0.004990 -0.001437 -0.003480 0.030447 0.000670
# 6 0.003101 -0.004332 0.001227 -0.003145 0.000670 0.028306
#
#
# Mechanical properties :
#
#
# Convention : Reuss Voigt Hill
#
# Bulk Modulus (GPa) = 48.33985 51.80543 50.07264
# Shear Modulus (GPa) = 33.11518 36.84951 34.98235
#
# Velocity S-wave (km/s) = 4.04174 4.26354 4.15412
# Velocity P-wave (km/s) = 6.75476 7.05639 6.90722
#
# Compressibility (1/GPa) = 0.02068687
#
# Stress axis : x y z
#
# Youngs Moduli (GPa) = 72.90275 88.94613 92.79546
#
# Poissons Ratio (x) = 0.13003 0.31904
# Poissons Ratio (y) = 0.10657 0.24356
# Poissons Ratio (z) = 0.25065 0.23345
#
# Static dielectric constant tensor:
#      x y z
#    x 1.683970 0.008870 0.006150 
#    y 0.008870 1.708410 -0.001240 
#    z 0.006150 -0.001240 1.725200 
# 
# From -- ./inp_files/39483.got.cif
#   From: 2010.05.17/outbox.cif.g08.bks.cpg/sg2_20_cif.got.tgz:39483.got - 2010.06.03 11:33:40.
