data_PCOD9062138
_publ_section_title
;
Structure prediction by ZEFSAII (Michael W. Deem and Ramdas Pophale) SiO2 
 PCOD9062138
Probable space group: P -1
;
_chemical_formula_sum "Si O2"
_cell_formula_units_Z 15
_cell_length_a 19.127026
_cell_length_b 15.966931
_cell_length_c 10.626832
_cell_angle_alpha 146.601443
_cell_angle_beta 146.490211
_cell_angle_gamma 21.491006
_cell_volume 627.824022
_symmetry_space_group_name_H-M "P -1"
_symmetry_group_IT_number 2
_symmetry_cell_setting 'triclinic'
loop_
_space_group_symop_operation_xyz
x,y,z
-x,-y,-z
loop_
_atom_site_type_symbol
_atom_site_label
_atom_site_fract_x
_atom_site_fract_y
_atom_site_fract_z
Si Si1 0.617020 0.551510 0.597485
Si Si2 0.449329 0.120682 0.441744
Si Si3 0.000000 0.000000 0.500000
Si Si4 0.994408 0.360850 0.518708
Si Si5 0.845406 0.004613 0.486479
Si Si6 0.313332 0.315009 0.909284
Si Si7 0.854495 0.263324 0.976021
Si Si8 0.431353 0.685270 0.229704
O O1 0.770692 0.276313 0.513493
O O2 0.388786 0.744868 0.544356
O O3 0.592626 0.577230 0.443204
O O4 0.678552 0.644028 0.882292
O O5 0.223801 0.386186 0.446973
O O6 0.592110 0.133635 0.648670
O O7 0.500000 0.000000 0.500000
O O8 0.500591 0.952797 0.199051
O O9 0.933878 0.903612 0.355038
O O10 0.121396 0.386177 0.694649
O O11 0.968374 0.265428 0.245938
O O12 0.104282 0.174654 0.565269
O O13 0.958566 0.057750 0.770225
O O14 0.286100 0.492006 0.006459
O O15 0.742508 0.242570 0.867850
O O16 0.500000 0.500000 0.000000
#
# Coordination Sequence:
#
# PCOD9062138 Si02
#       8
#     2   2   1   2   2   2   2   2
#     4  11  27  50  73 111 150 195 249 306 384 439
#     4  12  26  48  75 112 153 199 250 305 377 448
#     4  12  24  46  78 108 146 194 248 314 372 450
#     4  12  26  49  73 112 150 201 252 301 379 446
#     4  11  26  47  75 108 150 190 253 318 367 442
#     4  12  26  50  74 106 160 202 240 315 374 454
#     4  11  23  47  75 111 148 194 253 314 373 432
#     4  11  23  47  80 109 144 193 251 315 366 438
#
# _framework density 23.892046000000001
#
# number of rings (size 3 to 8) (size 9 to 14) (size 15 to 20)
#    0.000    0.533    4.000    3.600    1.867    3.200 
#    2.400    2.000    0.000    0.000    0.000    0.000 
#    0.000    0.000    0.000    0.000    0.000    0.000 
#
# Total GULP energy -83641.243449 kJ/mol
# GULP energy per Si atom -5576.082897 kJ/mol
# Density = 2.383767 g / cm^3
# Si number density = 23.892046 Si / 1000 Ang^3
#
#
#
# Elastic Constant Matrix: (Units=GPa)
#
#
# Indices 1 2 3 4 5 6 
#
# 1 89.1257 41.5778 24.1048 -3.4167 21.8341 18.6407
# 2 41.5778 157.2805 24.7651 12.8740 8.4026 -7.3974
# 3 24.1048 24.7651 127.9207 4.6494 3.8277 8.3839
# 4 -3.4167 12.8740 4.6494 34.6953 3.9887 5.0973
# 5 21.8341 8.4026 3.8277 3.9887 33.5988 3.2724
# 6 18.6407 -7.3974 8.3839 5.0973 3.2724 28.1669
#
#
#
# Elastic Compliance Matrix: (Units=1/GPa)
#
#
# Indices 1 2 3 4 5 6 
#
# 1 0.020588 -0.005918 -0.001716 0.007915 -0.011202 -0.014799
# 2 -0.005918 0.008720 -0.000914 -0.004941 0.001656 0.007180
# 3 -0.001716 -0.000914 0.008429 -0.000806 0.000629 -0.001540
# 4 0.007915 -0.004941 -0.000806 0.034031 -0.006719 -0.011674
# 5 -0.011202 0.001656 0.000629 -0.006719 0.036907 0.004589
# 6 -0.014799 0.007180 -0.001540 -0.011674 0.004589 0.049220
#
#
# Mechanical properties :
#
#
# Convention : Reuss Voigt Hill
#
# Bulk Modulus (GPa) = 48.44612 61.69137 55.06874
# Shear Modulus (GPa) = 27.49187 38.21746 32.85467
#
# Velocity S-wave (km/s) = 3.39583 4.00383 3.71230
# Velocity P-wave (km/s) = 5.97467 6.87394 6.44002
#
# Compressibility (1/GPa) = 0.02064149
#
# Stress axis : x y z
#
# Youngs Moduli (GPa) = 48.57191 114.67884 118.63738
#
# Poissons Ratio (x) = 0.67865 0.20363
# Poissons Ratio (y) = 0.28744 0.10839
# Poissons Ratio (z) = 0.08337 0.10477
#
# Static dielectric constant tensor:
#      x y z
#    x 2.080430 0.010180 -0.162980 
#    y 0.010180 1.930540 -0.037330 
#    z -0.162980 -0.037330 1.988710 
# 
# From -- ./inp_files/472520.got.cif
#   From: 2010.05.17/outbox.cif.g08.bks.cpg/sg2_237_cif.got.tgz:472520.got - 2010.06.03 11:33:40.
