data_PCOD9062827
_publ_section_title
;
Structure prediction by ZEFSAII (Michael W. Deem and Ramdas Pophale) SiO2 
 PCOD9062827
Probable space group: P -1
;
_chemical_formula_sum "Si O2"
_cell_formula_units_Z 14
_cell_length_a 4.977237
_cell_length_b 14.063181
_cell_length_c 15.284129
_cell_angle_alpha 40.386939
_cell_angle_beta 102.955820
_cell_angle_gamma 117.551013
_cell_volume 599.104067
_symmetry_space_group_name_H-M "P -1"
_symmetry_group_IT_number 2
_symmetry_cell_setting 'triclinic'
loop_
_space_group_symop_operation_xyz
x,y,z
-x,-y,-z
loop_
_atom_site_type_symbol
_atom_site_label
_atom_site_fract_x
_atom_site_fract_y
_atom_site_fract_z
Si Si1 0.660245 0.827977 0.266900
Si Si2 0.322440 0.357929 0.435042
Si Si3 0.779794 0.839069 0.850750
Si Si4 0.064807 0.845741 0.137337
Si Si5 0.810557 0.021774 0.550671
Si Si6 0.055932 0.468845 0.747639
Si Si7 0.899173 0.390799 0.982243
O O1 0.796121 0.755116 0.252900
O O2 0.562184 0.705212 0.428172
O O3 0.964085 0.995897 0.200224
O O4 0.395232 0.876576 0.181118
O O5 0.597562 0.426682 0.336072
O O6 0.178631 0.482832 0.355852
O O7 0.028227 0.198025 0.486494
O O8 0.715351 0.893156 0.713606
O O9 0.465984 0.736471 0.953713
O O10 0.924603 0.718331 0.928108
O O11 0.024473 0.721777 0.141981
O O12 0.000000 0.000000 0.000000
O O13 0.500000 0.000000 0.500000
O O14 0.000000 0.000000 0.500000
O O15 0.000593 0.492725 0.828183
O O16 0.000000 0.500000 0.000000
#
# Coordination Sequence:
#
# PCOD9062827 Si02
#       7
#     2   2   2   2   2   2   2
#     4  11  25  47  76 105 147 186 240 306 363 430
#     4  11  26  46  71 108 149 187 240 298 371 428
#     4  11  25  46  69 103 136 188 243 292 360 424
#     4  12  26  46  76 109 144 194 246 294 363 436
#     4  11  24  42  73 100 136 188 241 299 344 426
#     4  12  27  46  71 107 149 188 246 303 355 442
#     4  12  27  45  70  99 147 194 236 298 365 424
#
# _framework density 23.368226
#
# number of rings (size 3 to 8) (size 9 to 14) (size 15 to 20)
#    0.000    0.571    0.000    6.857    6.000   10.286 
#    0.000    0.000    0.000    0.000    0.000    0.000 
#    0.000    0.000    0.000    0.000    0.000    0.000 
#
# Total GULP energy -78423.927715 kJ/mol
# GULP energy per Si atom -5601.709123 kJ/mol
# Density = 2.331504 g / cm^3
# Si number density = 23.368226 Si / 1000 Ang^3
#
#
#
# Elastic Constant Matrix: (Units=GPa)
#
#
# Indices 1 2 3 4 5 6 
#
# 1 196.2555 28.9584 54.4843 6.4343 -0.0069 8.2467
# 2 28.9584 88.4759 10.6585 7.8383 6.1096 -9.0000
# 3 54.4843 10.6585 136.7885 23.7165 -3.4152 10.9805
# 4 6.4343 7.8383 23.7165 37.0906 -0.1255 4.9432
# 5 -0.0069 6.1096 -3.4152 -0.1255 48.6133 2.7271
# 6 8.2467 -9.0000 10.9805 4.9432 2.7271 46.2289
#
#
#
# Elastic Compliance Matrix: (Units=1/GPa)
#
#
# Indices 1 2 3 4 5 6 
#
# 1 0.006035 -0.001891 -0.002343 0.000985 0.000133 -0.001001
# 2 -0.001891 0.012619 -0.000057 -0.002735 -0.001777 0.003205
# 3 -0.002343 -0.000057 0.009297 -0.005354 0.000717 -0.001271
# 4 0.000985 -0.002735 -0.005354 0.031163 0.000204 -0.002781
# 5 0.000133 -0.001777 0.000717 0.000204 0.020946 -0.001798
# 6 -0.001001 0.003205 -0.001271 -0.002781 -0.001798 0.023139
#
#
# Mechanical properties :
#
#
# Convention : Reuss Voigt Hill
#
# Bulk Modulus (GPa) = 51.63487 67.74695 59.69091
# Shear Modulus (GPa) = 42.28729 48.21446 45.25088
#
# Velocity S-wave (km/s) = 4.25856 4.54723 4.40526
# Velocity P-wave (km/s) = 6.80622 7.52487 7.17455
#
# Compressibility (1/GPa) = 0.01936676
#
# Stress axis : x y z
#
# Youngs Moduli (GPa) = 165.70471 79.24252 107.56505
#
# Poissons Ratio (x) = 0.14986 0.25208
# Poissons Ratio (y) = 0.31338 0.00618
# Poissons Ratio (z) = 0.38833 0.00455
#
# Static dielectric constant tensor:
#      x y z
#    x 1.809990 0.017590 0.027370 
#    y 0.017590 1.961430 0.024880 
#    z 0.027370 0.024880 1.914440 
# 
# From -- ./inp_files/484256.got.cif
#   From: 2010.05.17/outbox.cif.g08.bks.cpg/sg2_243_cif.got.tgz:484256.got - 2010.06.03 11:33:40.
