data_PCOD9062250
_publ_section_title
;
Structure prediction by ZEFSAII (Michael W. Deem and Ramdas Pophale) SiO2 
 PCOD9062250
Probable space group: P -1
;
_chemical_formula_sum "Si O2"
_cell_formula_units_Z 12
_cell_length_a 7.596592
_cell_length_b 11.599271
_cell_length_c 9.193270
_cell_angle_alpha 119.642815
_cell_angle_beta 127.510501
_cell_angle_gamma 95.717782
_cell_volume 454.414763
_symmetry_space_group_name_H-M "P -1"
_symmetry_group_IT_number 2
_symmetry_cell_setting 'triclinic'
loop_
_space_group_symop_operation_xyz
x,y,z
-x,-y,-z
loop_
_atom_site_type_symbol
_atom_site_label
_atom_site_fract_x
_atom_site_fract_y
_atom_site_fract_z
Si Si1 0.091231 0.939051 0.375409
Si Si2 0.323277 0.634022 0.720518
Si Si3 0.537173 0.608563 0.399994
Si Si4 0.612605 0.183236 0.398649
Si Si5 0.054245 0.838338 0.987342
Si Si6 0.601040 0.284919 0.866551
O O1 0.156026 0.822782 0.412291
O O2 0.950896 0.871358 0.105783
O O3 0.379024 0.105706 0.579834
O O4 0.000000 0.000000 0.500000
O O5 0.454301 0.545125 0.665200
O O6 0.351879 0.775837 0.727742
O O7 0.000000 0.500000 0.500000
O O8 0.453780 0.700758 0.985178
O O9 0.364537 0.660787 0.427777
O O10 0.442068 0.601894 0.183047
O O11 0.839964 0.758210 0.698732
O O12 0.327284 0.008770 0.177480
O O13 0.130477 0.713692 0.993176
#
# Coordination Sequence:
#
# PCOD9062250 Si02
#       6
#     2   2   2   2   2   2
#     4  11  25  44  77 114 140 182 247 308 359 419
#     4  12  28  47  69 109 150 194 242 289 355 432
#     4  12  24  48  77 101 149 198 230 295 366 428
#     4  11  25  47  74 106 144 193 238 296 362 424
#     4  11  23  48  78 106 145 185 242 302 362 426
#     4  11  24  47  73 103 149 185 242 295 355 425
#
# _framework density 26.407596000000002
#
# number of rings (size 3 to 8) (size 9 to 14) (size 15 to 20)
#    0.000    0.667    5.000    2.500    4.667    2.667 
#    0.000    1.667    0.000    0.000    0.000    0.000 
#    0.000    0.000    0.000    0.000    0.000    0.000 
#
# Total GULP energy -67156.403995 kJ/mol
# GULP energy per Si atom -5596.367000 kJ/mol
# Density = 2.634749 g / cm^3
# Si number density = 26.407596 Si / 1000 Ang^3
#
#
#
# Elastic Constant Matrix: (Units=GPa)
#
#
# Indices 1 2 3 4 5 6 
#
# 1 80.1441 36.3712 23.1376 0.9916 -15.7492 -16.4010
# 2 36.3712 178.8631 41.9257 -25.5410 2.1576 -2.3325
# 3 23.1376 41.9257 123.6200 -6.0600 -9.9760 16.9116
# 4 0.9916 -25.5410 -6.0600 52.9003 4.8409 -5.8835
# 5 -15.7492 2.1576 -9.9760 4.8409 43.2383 1.7039
# 6 -16.4010 -2.3325 16.9116 -5.8835 1.7039 49.5302
#
#
#
# Elastic Compliance Matrix: (Units=1/GPa)
#
#
# Indices 1 2 3 4 5 6 
#
# 1 0.017007 -0.003134 -0.002565 -0.001993 0.005749 0.005925
# 2 -0.003134 0.007233 -0.001947 0.003598 -0.002373 0.000477
# 3 -0.002565 -0.001947 0.009954 -0.000400 0.001679 -0.004445
# 4 -0.001993 0.003598 -0.000400 0.021203 -0.003461 0.002284
# 5 0.005749 -0.002373 0.001679 -0.003461 0.026119 -0.000091
# 6 0.005925 0.000477 -0.004445 0.002284 -0.000091 0.023966
#
#
# Mechanical properties :
#
#
# Convention : Reuss Voigt Hill
#
# Bulk Modulus (GPa) = 52.90158 65.05513 58.97836
# Shear Modulus (GPa) = 39.34728 47.87994 43.61361
#
# Velocity S-wave (km/s) = 3.86424 4.26269 4.06834
# Velocity P-wave (km/s) = 6.32345 6.99398 6.66715
#
# Compressibility (1/GPa) = 0.01890303
#
# Stress axis : x y z
#
# Youngs Moduli (GPa) = 58.79901 138.25289 100.46603
#
# Poissons Ratio (x) = 0.43326 0.25766
# Poissons Ratio (y) = 0.18426 0.19560
# Poissons Ratio (z) = 0.15080 0.26917
#
# Static dielectric constant tensor:
#      x y z
#    x 2.202100 0.047700 0.033710 
#    y 0.047700 2.054110 -0.020420 
#    z 0.033710 -0.020420 2.086120 
# 
# From -- ./inp_files/156852.got.cif
#   From: 2010.05.17/outbox.cif.g08.bks.cpg/sg2_79_cif.got.tgz:156852.got - 2010.06.03 11:33:40.
