data_PCOD9062004
_publ_section_title
;
Structure prediction by ZEFSAII (Michael W. Deem and Ramdas Pophale) SiO2 
 PCOD9062004
Probable space group: P -1
;
_chemical_formula_sum "Si O2"
_cell_formula_units_Z 14
_cell_length_a 9.141855
_cell_length_b 12.201348
_cell_length_c 9.388074
_cell_angle_alpha 125.829759
_cell_angle_beta 63.606794
_cell_angle_gamma 136.357641
_cell_volume 585.536331
_symmetry_space_group_name_H-M "P -1"
_symmetry_group_IT_number 2
_symmetry_cell_setting 'triclinic'
loop_
_space_group_symop_operation_xyz
x,y,z
-x,-y,-z
loop_
_atom_site_type_symbol
_atom_site_label
_atom_site_fract_x
_atom_site_fract_y
_atom_site_fract_z
Si Si1 0.801045 0.973893 0.127207
Si Si2 0.291009 0.155408 0.614516
Si Si3 0.268226 0.616235 0.353052
Si Si4 0.721589 0.605528 0.392646
Si Si5 0.644326 0.285312 0.039391
Si Si6 0.810838 0.192499 0.653294
Si Si7 0.827803 0.290953 0.251934
O O1 0.805270 0.932594 0.258775
O O2 0.821038 0.143760 0.218898
O O3 0.583071 0.829036 0.026646
O O4 0.000000 0.000000 0.000000
O O5 0.512328 0.343561 0.707120
O O6 0.213055 0.221454 0.583981
O O7 0.292485 0.008173 0.428147
O O8 0.317914 0.785374 0.386027
O O9 0.219695 0.621263 0.542009
O O10 0.074583 0.446805 0.225899
O O11 0.500000 0.500000 0.500000
O O12 0.695957 0.468049 0.189890
O O13 0.951733 0.692518 0.427803
O O14 0.671722 0.228364 0.139083
O O15 0.796228 0.276670 0.865145
#
# Coordination Sequence:
#
# PCOD9062004 Si02
#       7
#     2   2   2   2   2   2   2
#     4  12  29  46  74 113 158 197 252 319 386 447
#     4  12  27  48  76 110 156 200 251 318 391 445
#     4  11  23  46  78 106 143 204 253 309 372 461
#     4  12  30  49  77 114 155 198 253 321 388 448
#     4  12  27  49  79 112 151 201 262 310 374 453
#     4  12  25  51  78 111 152 202 261 308 379 460
#     4  11  25  46  77 108 148 198 256 307 376 455
#
# _framework density 23.909701999999999
#
# number of rings (size 3 to 8) (size 9 to 14) (size 15 to 20)
#    0.000    0.286    4.286    3.429    8.000    1.714 
#    0.000    0.000    0.000    0.000    0.000    0.000 
#    0.000    0.000    0.000    0.000    0.000    0.000 
#
# Total GULP energy -78157.981575 kJ/mol
# GULP energy per Si atom -5582.712970 kJ/mol
# Density = 2.385528 g / cm^3
# Si number density = 23.909702 Si / 1000 Ang^3
#
#
#
# Elastic Constant Matrix: (Units=GPa)
#
#
# Indices 1 2 3 4 5 6 
#
# 1 75.7575 15.1795 29.9412 -12.5637 5.4734 1.4566
# 2 15.1795 91.9196 38.3189 6.5770 -1.0847 -12.4571
# 3 29.9412 38.3189 117.6377 -10.6547 5.0386 -4.8186
# 4 -12.5637 6.5770 -10.6547 41.2177 -0.4640 5.1299
# 5 5.4734 -1.0847 5.0386 -0.4640 25.2763 -5.0697
# 6 1.4566 -12.4571 -4.8186 5.1299 -5.0697 57.4772
#
#
#
# Elastic Compliance Matrix: (Units=1/GPa)
#
#
# Indices 1 2 3 4 5 6 
#
# 1 0.015762 -0.002005 -0.002881 0.004564 -0.003195 -0.001765
# 2 -0.002005 0.013807 -0.004350 -0.004319 0.002473 0.003282
# 3 -0.002881 -0.004350 0.010954 0.002671 -0.001767 -0.000346
# 4 0.004564 -0.004319 0.002671 0.027439 -0.001893 -0.003444
# 5 -0.003195 0.002473 -0.001767 -0.001893 0.041541 0.004302
# 6 -0.001765 0.003282 -0.000346 -0.003444 0.004302 0.018812
#
#
# Mechanical properties :
#
#
# Convention : Reuss Voigt Hill
#
# Bulk Modulus (GPa) = 45.34877 50.24378 47.79628
# Shear Modulus (GPa) = 32.43876 38.25257 35.34566
#
# Velocity S-wave (km/s) = 3.68736 4.00418 3.84904
# Velocity P-wave (km/s) = 6.09399 6.51441 6.30771
#
# Compressibility (1/GPa) = 0.02205131
#
# Stress axis : x y z
#
# Youngs Moduli (GPa) = 63.44409 72.42960 91.29030
#
# Poissons Ratio (x) = 0.14525 0.26297
# Poissons Ratio (y) = 0.12723 0.39707
# Poissons Ratio (z) = 0.18276 0.31504
#
# Static dielectric constant tensor:
#      x y z
#    x 1.869680 0.087720 -0.009400 
#    y 0.087720 1.938590 0.008500 
#    z -0.009400 0.008500 1.923840 
# 
# From -- ./inp_files/189949.got.cif
#   From: 2010.05.17/outbox.cif.g08.bks.cpg/sg2_95_cif.got.tgz:189949.got - 2010.06.03 11:33:40.
