data_PCOD9062873
_publ_section_title
;
Structure prediction by ZEFSAII (Michael W. Deem and Ramdas Pophale) SiO2 
 PCOD9062873
Probable space group: P -1
;
_chemical_formula_sum "Si O2"
_cell_formula_units_Z 12
_cell_length_a 11.637890
_cell_length_b 12.578778
_cell_length_c 5.030370
_cell_angle_alpha 96.345996
_cell_angle_beta 115.163888
_cell_angle_gamma 123.038041
_cell_volume 498.631207
_symmetry_space_group_name_H-M "P -1"
_symmetry_group_IT_number 2
_symmetry_cell_setting 'triclinic'
loop_
_space_group_symop_operation_xyz
x,y,z
-x,-y,-z
loop_
_atom_site_type_symbol
_atom_site_label
_atom_site_fract_x
_atom_site_fract_y
_atom_site_fract_z
Si Si1 0.231936 0.735437 0.314359
Si Si2 0.358566 0.330295 0.288793
Si Si3 0.419418 0.127614 0.479292
Si Si4 0.910105 0.536022 0.607739
Si Si5 0.843407 0.722907 0.424752
Si Si6 0.231461 0.938081 0.735762
O O1 0.394152 0.817974 0.310648
O O2 0.209031 0.602969 0.369207
O O3 0.252149 0.831753 0.597532
O O4 0.059576 0.667749 0.972059
O O5 0.500000 0.500000 0.500000
O O6 0.425449 0.252101 0.417443
O O7 0.205621 0.270017 0.325161
O O8 0.284813 0.295380 0.911413
O O9 0.320403 0.062195 0.638807
O O10 0.320412 0.006521 0.122399
O O11 0.825897 0.583853 0.373735
O O12 0.000000 0.500000 0.500000
O O13 0.034185 0.852352 0.561245
#
# Coordination Sequence:
#
# PCOD9062873 Si02
#       6
#     2   2   2   2   2   2
#     4  11  25  45  70 110 146 179 240 299 352 421
#     4  12  28  49  74 104 140 188 234 298 350 415
#     4  12  28  45  73 104 146 191 236 284 358 424
#     4  11  24  42  77 105 136 187 233 297 363 401
#     4  12  26  48  73 103 146 180 244 288 345 428
#     4  12  26  46  72 106 143 193 232 291 354 415
#
# _framework density 24.065881000000001
#
# number of rings (size 3 to 8) (size 9 to 14) (size 15 to 20)
#    0.000    0.333    1.667    6.500    7.000    4.000 
#    0.000    0.000    0.000    0.000    0.000    0.000 
#    0.000    0.000    0.000    0.000    0.000    0.000 
#
# Total GULP energy -67310.240097 kJ/mol
# GULP energy per Si atom -5609.186675 kJ/mol
# Density = 2.401111 g / cm^3
# Si number density = 24.065881 Si / 1000 Ang^3
#
#
#
# Elastic Constant Matrix: (Units=GPa)
#
#
# Indices 1 2 3 4 5 6 
#
# 1 96.4413 30.0009 12.3444 7.1765 4.8967 -1.9740
# 2 30.0009 125.5691 39.1453 1.0341 22.8886 2.3223
# 3 12.3444 39.1453 40.7737 -3.3216 0.9183 4.6026
# 4 7.1765 1.0341 -3.3216 38.7777 4.0511 0.1721
# 5 4.8967 22.8886 0.9183 4.0511 34.6036 -0.6801
# 6 -1.9740 2.3223 4.6026 0.1721 -0.6801 48.0341
#
#
#
# Elastic Compliance Matrix: (Units=1/GPa)
#
#
# Indices 1 2 3 4 5 6 
#
# 1 0.011447 -0.002290 -0.001536 -0.002214 0.000209 0.000739
# 2 -0.002290 0.013997 -0.012598 -0.000134 -0.008578 0.000315
# 3 -0.001536 -0.012598 0.037512 0.003101 0.007134 -0.002959
# 4 -0.002214 -0.000134 0.003101 0.026764 -0.002824 -0.000518
# 5 0.000209 -0.008578 0.007134 -0.002824 0.034689 0.000241
# 6 0.000739 0.000315 -0.002959 -0.000518 0.000241 0.021122
#
#
# Mechanical properties :
#
#
# Convention : Reuss Voigt Hill
#
# Bulk Modulus (GPa) = 33.21356 47.30725 40.26040
# Shear Modulus (GPa) = 26.53712 36.36932 31.45322
#
# Velocity S-wave (km/s) = 3.32427 3.89168 3.61912
# Velocity P-wave (km/s) = 5.34467 6.31614 5.85060
#
# Compressibility (1/GPa) = 0.03010819
#
# Stress axis : x y z
#
# Youngs Moduli (GPa) = 87.35800 71.44359 26.65847
#
# Poissons Ratio (x) = 0.16358 0.04095
# Poissons Ratio (y) = 0.20002 0.33585
# Poissons Ratio (z) = 0.13418 0.90006
#
# Static dielectric constant tensor:
#      x y z
#    x 1.877580 -0.001010 -0.008750 
#    y -0.001010 1.964560 0.011180 
#    z -0.008750 0.011180 1.882490 
# 
# From -- ./inp_files/70908.got.cif
#   From: 2010.05.17/outbox.cif.g08.bks.cpg/sg2_36_cif.got.tgz:70908.got - 2010.06.03 11:33:40.
