data_PCOD9062598
_publ_section_title
;
Structure prediction by ZEFSAII (Michael W. Deem and Ramdas Pophale) SiO2 
 PCOD9062598
Probable space group: P -1
;
_chemical_formula_sum "Si O2"
_cell_formula_units_Z 16
_cell_length_a 19.189248
_cell_length_b 5.406725
_cell_length_c 8.872349
_cell_angle_alpha 58.801778
_cell_angle_beta 83.661588
_cell_angle_gamma 67.853398
_cell_volume 725.101677
_symmetry_space_group_name_H-M "P -1"
_symmetry_group_IT_number 2
_symmetry_cell_setting 'triclinic'
loop_
_space_group_symop_operation_xyz
x,y,z
-x,-y,-z
loop_
_atom_site_type_symbol
_atom_site_label
_atom_site_fract_x
_atom_site_fract_y
_atom_site_fract_z
Si Si1 0.955052 0.778324 0.032000
Si Si2 0.195138 0.769538 0.020550
Si Si3 0.451754 0.306917 0.508723
Si Si4 0.985414 0.687798 0.597700
Si Si5 0.252702 0.995682 0.671938
Si Si6 0.680106 0.205505 0.813719
Si Si7 0.660526 0.723756 0.206892
Si Si8 0.814091 0.829041 0.687487
O O1 0.952103 0.569218 0.237490
O O2 0.000000 0.500000 0.000000
O O3 0.871027 0.993039 0.936176
O O4 0.000000 0.000000 0.000000
O O5 0.278063 0.683701 0.097732
O O6 0.177360 0.464415 0.118353
O O7 0.192130 0.915853 0.811866
O O8 0.500000 0.500000 0.500000
O O9 0.389485 0.534772 0.335451
O O10 0.413853 0.210357 0.693982
O O11 0.500000 0.000000 0.500000
O O12 0.899350 0.794652 0.644530
O O13 0.000000 0.500000 0.500000
O O14 0.000000 0.000000 0.500000
O O15 0.310464 0.643631 0.726810
O O16 0.284969 0.190726 0.714598
O O17 0.219991 0.177962 0.469208
O O18 0.745977 0.094887 0.705728
O O19 0.658526 0.935663 0.991010
#
# Coordination Sequence:
#
# PCOD9062598 Si02
#       8
#     2   2   2   2   2   2   2   2
#     4  12  25  46  68  97 144 189 240 301 366 435
#     4  11  25  44  73 104 138 191 243 304 363 428
#     4  12  28  48  76 107 151 191 226 290 365 432
#     4  12  28  46  67 104 146 191 248 303 370 437
#     4  11  24  41  72 106 142 176 239 304 349 415
#     4  11  26  45  77 107 142 186 249 293 358 432
#     4  11  24  47  71 110 144 180 239 294 347 432
#     4  12  24  44  76 100 143 195 244 305 363 423
#
# _framework density 22.06587
#
# number of rings (size 3 to 8) (size 9 to 14) (size 15 to 20)
#    0.000    0.500    3.750    3.750    3.500    3.000 
#    0.000    0.000    0.000    0.000    0.000    0.000 
#    0.000    0.000    0.000    0.000    0.000    0.000 
#
# Total GULP energy -89279.645072 kJ/mol
# GULP energy per Si atom -5579.977817 kJ/mol
# Density = 2.201565 g / cm^3
# Si number density = 22.065870 Si / 1000 Ang^3
#
#
#
# Elastic Constant Matrix: (Units=GPa)
#
#
# Indices 1 2 3 4 5 6 
#
# 1 99.0239 40.5046 33.4230 -11.7062 -9.2353 -9.6116
# 2 40.5046 143.7986 13.6788 1.4660 2.2157 -14.4750
# 3 33.4230 13.6788 76.0428 4.9736 -3.9986 -7.4081
# 4 -11.7062 1.4660 4.9736 41.9701 -4.6751 -3.1114
# 5 -9.2353 2.2157 -3.9986 -4.6751 46.1109 -3.9922
# 6 -9.6116 -14.4750 -7.4081 -3.1114 -3.9922 45.1029
#
#
#
# Elastic Compliance Matrix: (Units=1/GPa)
#
#
# Indices 1 2 3 4 5 6 
#
# 1 0.014589 -0.003492 -0.005798 0.005369 0.003278 0.001696
# 2 -0.003492 0.008115 0.000272 -0.001278 -0.001046 0.001724
# 3 -0.005798 0.000272 0.015994 -0.003433 -0.000028 0.001239
# 4 0.005369 -0.001278 -0.003433 0.026361 0.003712 0.002317
# 5 0.003278 -0.001046 -0.000028 0.003712 0.022997 0.002650
# 6 0.001696 0.001724 0.001239 0.002317 0.002650 0.023684
#
#
# Mechanical properties :
#
#
# Convention : Reuss Voigt Hill
#
# Bulk Modulus (GPa) = 48.40007 54.89755 51.64881
# Shear Modulus (GPa) = 36.58640 42.05402 39.32021
#
# Velocity S-wave (km/s) = 4.07634 4.37033 4.22589
# Velocity P-wave (km/s) = 6.64359 7.09925 6.87520
#
# Compressibility (1/GPa) = 0.02066113
#
# Stress axis : x y z
#
# Youngs Moduli (GPa) = 68.54463 123.23299 62.52499
#
# Poissons Ratio (x) = 0.43037 0.36249
# Poissons Ratio (y) = 0.23938 -0.01700
# Poissons Ratio (z) = 0.39739 -0.03350
#
# Static dielectric constant tensor:
#      x y z
#    x 1.799750 0.018970 -0.021800 
#    y 0.018970 1.893670 0.109740 
#    z -0.021800 0.109740 1.872420 
# 
# From -- ./inp_files/48025.got.cif
#   From: 2010.05.17/outbox.cif.g08.bks.cpg/sg2_25_cif.got.tgz:48025.got - 2010.06.03 11:33:40.
