data_PCOD9062710
_publ_section_title
;
Structure prediction by ZEFSAII (Michael W. Deem and Ramdas Pophale) SiO2 
 PCOD9062710
Probable space group: P -1
;
_chemical_formula_sum "Si O2"
_cell_formula_units_Z 14
_cell_length_a 12.277356
_cell_length_b 9.537384
_cell_length_c 6.669219
_cell_angle_alpha 99.866544
_cell_angle_beta 128.663127
_cell_angle_gamma 74.388700
_cell_volume 587.271212
_symmetry_space_group_name_H-M "P -1"
_symmetry_group_IT_number 2
_symmetry_cell_setting 'triclinic'
loop_
_space_group_symop_operation_xyz
x,y,z
-x,-y,-z
loop_
_atom_site_type_symbol
_atom_site_label
_atom_site_fract_x
_atom_site_fract_y
_atom_site_fract_z
Si Si1 0.920573 0.911079 0.601483
Si Si2 0.513867 0.348931 0.097837
Si Si3 0.815512 0.982639 0.895904
Si Si4 0.737104 0.302114 0.691563
Si Si5 0.216916 0.461739 0.884372
Si Si6 0.638027 0.037084 0.062588
Si Si7 0.950220 0.351906 0.608394
O O1 0.994496 0.777945 0.517026
O O2 0.867042 0.870369 0.748670
O O3 0.778231 0.997571 0.352555
O O4 0.043861 0.999609 0.813945
O O5 0.598276 0.343699 0.402207
O O6 0.597459 0.211902 0.034371
O O7 0.500000 0.500000 0.000000
O O8 0.353132 0.336682 0.960898
O O9 0.761406 0.139990 0.767882
O O10 0.691204 0.960194 0.895320
O O11 0.865326 0.312121 0.689322
O O12 0.735699 0.415206 0.897298
O O13 0.091749 0.407246 0.841674
O O14 0.152647 0.527441 0.614948
O O15 0.500000 0.000000 0.000000
#
# Coordination Sequence:
#
# PCOD9062710 Si02
#       7
#     2   2   2   2   2   2   2
#     4  11  24  45  71 101 139 181 237 292 347 418
#     4  12  24  47  70 100 142 193 234 289 355 425
#     4  11  25  43  73 106 131 185 244 287 350 424
#     4  12  23  45  71 102 138 186 244 289 346 430
#     4  11  24  43  64 100 138 186 235 290 351 414
#     4  12  27  47  70 105 148 185 230 296 364 418
#     4  11  24  42  68  99 143 182 231 295 356 407
#
# _framework density 23.83907
#
# number of rings (size 3 to 8) (size 9 to 14) (size 15 to 20)
#    0.000    0.571    4.286    3.857    4.000    0.571 
#    0.000    0.000    0.000    0.000    0.000    0.000 
#    0.000    0.000    0.000    0.000    0.000    0.000 
#
# Total GULP energy -78442.183939 kJ/mol
# GULP energy per Si atom -5603.013138 kJ/mol
# Density = 2.378481 g / cm^3
# Si number density = 23.839070 Si / 1000 Ang^3
#
#
#
# Elastic Constant Matrix: (Units=GPa)
#
#
# Indices 1 2 3 4 5 6 
#
# 1 169.7511 11.5397 39.2330 -20.5005 -6.5744 -8.5749
# 2 11.5397 51.3051 22.4559 -17.6283 6.4408 -11.5742
# 3 39.2330 22.4559 87.0975 -30.6926 14.1330 -5.6135
# 4 -20.5005 -17.6283 -30.6926 39.8631 -19.5824 -6.7839
# 5 -6.5744 6.4408 14.1330 -19.5824 35.1810 -5.2993
# 6 -8.5749 -11.5742 -5.6135 -6.7839 -5.2993 37.6361
#
#
#
# Elastic Compliance Matrix: (Units=1/GPa)
#
#
# Indices 1 2 3 4 5 6 
#
# 1 0.007552 0.001694 -0.002249 0.006694 0.006334 0.004004
# 2 0.001694 0.028088 -0.002225 0.017639 0.007841 0.012975
# 3 -0.002249 -0.002225 0.017521 0.012070 0.000213 0.003622
# 4 0.006694 0.017639 0.012070 0.066780 0.034200 0.025603
# 5 0.006334 0.007841 0.000213 0.034200 0.049691 0.017047
# 6 0.004004 0.012975 0.003622 0.025603 0.017047 0.039028
#
#
# Mechanical properties :
#
#
# Convention : Reuss Voigt Hill
#
# Bulk Modulus (GPa) = 21.00847 50.51231 35.76039
# Shear Modulus (GPa) = 21.73102 38.19771 29.96437
#
# Velocity S-wave (km/s) = 3.02250 4.00724 3.54919
# Velocity P-wave (km/s) = 4.58393 6.53035 5.64171
#
# Compressibility (1/GPa) = 0.04759984
#
# Stress axis : x y z
#
# Youngs Moduli (GPa) = 132.42163 35.60285 57.07563
#
# Poissons Ratio (x) = -0.06032 0.12837
# Poissons Ratio (y) = -0.22435 0.12699
# Poissons Ratio (z) = 0.29784 0.07922
#
# Static dielectric constant tensor:
#      x y z
#    x 1.931760 0.029800 -0.010800 
#    y 0.029800 1.937820 0.005050 
#    z -0.010800 0.005050 1.892870 
# 
# From -- ./inp_files/68616.got.cif
#   From: 2010.05.17/outbox.cif.g08.bks.cpg/sg2_35_cif.got.tgz:68616.got - 2010.06.03 11:33:40.
