data_PCOD9062721
_publ_section_title
;
Structure prediction by ZEFSAII (Michael W. Deem and Ramdas Pophale) SiO2 
 PCOD9062721
Probable space group: P -1
;
_chemical_formula_sum "Si O2"
_cell_formula_units_Z 12
_cell_length_a 5.172138
_cell_length_b 14.170417
_cell_length_c 13.476219
_cell_angle_alpha 37.964785
_cell_angle_beta 127.743981
_cell_angle_gamma 123.473067
_cell_volume 475.615409
_symmetry_space_group_name_H-M "P -1"
_symmetry_group_IT_number 2
_symmetry_cell_setting 'triclinic'
loop_
_space_group_symop_operation_xyz
x,y,z
-x,-y,-z
loop_
_atom_site_type_symbol
_atom_site_label
_atom_site_fract_x
_atom_site_fract_y
_atom_site_fract_z
Si Si1 0.718297 0.328605 0.785011
Si Si2 0.272146 0.915593 0.864750
Si Si3 0.637964 0.040171 0.365370
Si Si4 0.563632 0.367395 0.489348
Si Si5 0.073901 0.802986 0.445224
Si Si6 0.313602 0.336301 0.054025
O O1 0.688336 0.326183 0.662006
O O2 0.500888 0.455848 0.668155
O O3 0.576255 0.171590 0.939231
O O4 0.104478 0.362103 0.883114
O O5 0.460047 0.984414 0.755021
O O6 0.995197 0.774694 0.874170
O O7 0.106414 0.056047 0.753721
O O8 0.575871 0.216558 0.214493
O O9 0.399444 0.905549 0.477976
O O10 0.000000 0.000000 0.500000
O O11 0.803685 0.316737 0.504077
O O12 0.184940 0.281576 0.467333
O O13 0.500000 0.500000 0.000000
#
# Coordination Sequence:
#
# PCOD9062721 Si02
#       6
#     2   2   2   2   2   2
#     4   9  24  44  65 103 142 177 235 279 343 410
#     4   9  22  45  62 103 135 173 231 282 338 404
#     4  11  24  42  69 102 139 180 236 285 337 417
#     4  11  24  45  72 104 135 190 221 288 334 421
#     4  11  24  43  71 103 134 181 233 276 353 393
#     4   9  22  41  64  97 135 183 219 286 336 404
#
# _framework density 25.230471000000001
#
# number of rings (size 3 to 8) (size 9 to 14) (size 15 to 20)
#    1.000    1.000    1.667    0.000    2.333   11.333 
#    0.000    0.000    0.000    0.000    0.000    0.000 
#    0.000    0.000    0.000    0.000    0.000    0.000 
#
# Total GULP energy -66919.174752 kJ/mol
# GULP energy per Si atom -5576.597896 kJ/mol
# Density = 2.517305 g / cm^3
# Si number density = 25.230471 Si / 1000 Ang^3
#
#
#
# Elastic Constant Matrix: (Units=GPa)
#
#
# Indices 1 2 3 4 5 6 
#
# 1 89.5146 31.1626 25.8779 -17.0023 6.5817 -2.3052
# 2 31.1626 96.4122 14.5610 7.4284 22.0671 1.2812
# 3 25.8779 14.5610 135.5371 5.6329 13.1639 -20.4885
# 4 -17.0023 7.4284 5.6329 43.0878 -4.1664 12.2902
# 5 6.5817 22.0671 13.1639 -4.1664 17.5374 -2.3918
# 6 -2.3052 1.2812 -20.4885 12.2902 -2.3918 47.4938
#
#
#
# Elastic Compliance Matrix: (Units=1/GPa)
#
#
# Indices 1 2 3 4 5 6 
#
# 1 0.015887 -0.006987 -0.003833 0.009498 0.007586 -0.002770
# 2 -0.006987 0.018539 0.002267 -0.008957 -0.024367 0.001229
# 3 -0.003833 0.002267 0.009745 -0.005481 -0.009362 0.004903
# 4 0.009498 -0.008957 -0.005481 0.033705 0.018538 -0.009450
# 5 0.007586 -0.024367 -0.009362 0.018538 0.095860 -0.002983
# 6 -0.002770 0.001229 0.004903 -0.009450 -0.002983 0.025298
#
#
# Mechanical properties :
#
#
# Convention : Reuss Voigt Hill
#
# Bulk Modulus (GPa) = 36.94851 51.62963 44.28907
# Shear Modulus (GPa) = 22.20624 38.28129 30.24376
#
# Velocity S-wave (km/s) = 2.96993 3.89943 3.46598
# Velocity P-wave (km/s) = 5.14167 6.38606 5.79735
#
# Compressibility (1/GPa) = 0.02706469
#
# Stress axis : x y z
#
# Youngs Moduli (GPa) = 62.94513 53.93966 102.62109
#
# Poissons Ratio (x) = 0.37690 0.39332
# Poissons Ratio (y) = 0.43982 -0.23265
# Poissons Ratio (z) = 0.24125 -0.12229
#
# Static dielectric constant tensor:
#      x y z
#    x 2.066200 0.028520 -0.037320 
#    y 0.028520 2.128210 0.038850 
#    z -0.037320 0.038850 1.980100 
# 
# From -- ./inp_files/458508.got.cif
#   From: 2010.05.17/outbox.cif.g08.bks.cpg/sg2_230_cif.got.tgz:458508.got - 2010.06.03 11:33:40.
