data_PCOD9062450
_publ_section_title
;
Structure prediction by ZEFSAII (Michael W. Deem and Ramdas Pophale) SiO2 
 PCOD9062450
Probable space group: P -1
;
_chemical_formula_sum "Si O2"
_cell_formula_units_Z 16
_cell_length_a 6.330579
_cell_length_b 25.954102
_cell_length_c 6.543444
_cell_angle_alpha 75.335956
_cell_angle_beta 46.149167
_cell_angle_gamma 79.439352
_cell_volume 750.013779
_symmetry_space_group_name_H-M "P -1"
_symmetry_group_IT_number 2
_symmetry_cell_setting 'triclinic'
loop_
_space_group_symop_operation_xyz
x,y,z
-x,-y,-z
loop_
_atom_site_type_symbol
_atom_site_label
_atom_site_fract_x
_atom_site_fract_y
_atom_site_fract_z
Si Si1 0.362233 0.341658 0.179727
Si Si2 0.963125 0.907842 0.140306
Si Si3 0.165539 0.007226 0.172752
Si Si4 0.490007 0.163493 0.257889
Si Si5 0.320550 0.741811 0.681227
Si Si6 0.148457 0.505740 0.123672
Si Si7 0.670418 0.750783 0.039366
Si Si8 0.872900 0.409783 0.651837
O O1 0.566535 0.312894 0.240109
O O2 0.311376 0.297017 0.088251
O O3 0.079696 0.363618 0.466955
O O4 0.542972 0.388596 0.902382
O O5 0.701882 0.882548 0.468618
O O6 0.881556 0.934874 0.953029
O O7 0.077594 0.958553 0.136024
O O8 0.204901 0.862543 0.988901
O O9 0.000000 0.000000 0.500000
O O10 0.500000 0.000000 0.000000
O O11 0.526735 0.209010 0.358131
O O12 0.356287 0.194239 0.122076
O O13 0.978662 0.748519 0.948963
O O14 0.406894 0.744020 0.382842
O O15 0.070163 0.566122 0.185236
O O16 0.959910 0.460842 0.408689
O O17 0.500000 0.500000 0.000000
O O18 0.000000 0.500000 0.000000
#
# Coordination Sequence:
#
# PCOD9062450 Si02
#       8
#     2   2   2   2   2   2   2   2
#     4  11  24  45  64 102 130 175 222 275 334 406
#     4  11  24  41  62  92 124 169 210 273 322 392
#     4  11  24  41  62  90 126 163 214 269 326 392
#     4  11  24  41  64  92 130 163 220 261 326 398
#     4  11  24  42  65  95 131 170 214 273 327 394
#     4  11  26  50  73 107 147 188 238 298 353 423
#     4  11  24  42  65  95 131 170 214 273 327 394
#     4  11  24  45  70 102 136 183 230 283 346 414
#
# _framework density 21.332939
#
# number of rings (size 3 to 8) (size 9 to 14) (size 15 to 20)
#    0.000    1.000    1.250    4.500    0.000   17.000 
#    4.500    0.000    0.000    0.000    0.000    0.000 
#    0.000    0.000    0.000    0.000    0.000    0.000 
#
# Total GULP energy -89216.728735 kJ/mol
# GULP energy per Si atom -5576.045546 kJ/mol
# Density = 2.128438 g / cm^3
# Si number density = 21.332939 Si / 1000 Ang^3
#
#
#
# Elastic Constant Matrix: (Units=GPa)
#
#
# Indices 1 2 3 4 5 6 
#
# 1 53.4424 2.2469 18.4414 -4.2462 2.0313 1.8443
# 2 2.2469 50.6643 -8.4457 2.1366 9.2187 3.6023
# 3 18.4414 -8.4457 84.1621 2.4647 -2.9166 1.9863
# 4 -4.2462 2.1366 2.4647 48.3080 2.1815 -7.1785
# 5 2.0313 9.2187 -2.9166 2.1815 29.4565 -0.0998
# 6 1.8443 3.6023 1.9863 -7.1785 -0.0998 21.2913
#
#
#
# Elastic Compliance Matrix: (Units=1/GPa)
#
#
# Indices 1 2 3 4 5 6 
#
# 1 0.020670 -0.001488 -0.004788 0.002143 -0.001594 -0.000377
# 2 -0.001488 0.021742 0.002436 -0.001574 -0.006359 -0.004337
# 3 -0.004788 0.002436 0.013295 -0.001511 0.000990 -0.001742
# 4 0.002143 -0.001574 -0.001511 0.022246 -0.001426 0.007716
# 5 -0.001594 -0.006359 0.000990 -0.001426 0.036255 0.000811
# 6 -0.000377 -0.004337 -0.001742 0.007716 0.000811 0.050502
#
#
# Mechanical properties :
#
#
# Convention : Reuss Voigt Hill
#
# Bulk Modulus (GPa) = 20.82171 23.63934 22.23052
# Shear Modulus (GPa) = 26.53944 31.54622 29.04283
#
# Velocity S-wave (km/s) = 3.53095 3.84963 3.69373
# Velocity P-wave (km/s) = 5.13858 5.55561 5.35116
#
# Compressibility (1/GPa) = 0.04802681
#
# Stress axis : x y z
#
# Youngs Moduli (GPa) = 48.37873 45.99471 75.21615
#
# Poissons Ratio (x) = 0.06846 0.36011
# Poissons Ratio (y) = 0.07201 -0.18323
# Poissons Ratio (z) = 0.23162 -0.11204
#
# Static dielectric constant tensor:
#      x y z
#    x 1.831390 0.006150 0.019780 
#    y 0.006150 1.766000 0.028410 
#    z 0.019780 0.028410 1.739620 
# 
# From -- ./inp_files/14469.got.cif
#   From: 2010.05.17/outbox.cif.g08.bks.cpg/sg2_8_cif.got.tgz:14469.got - 2010.06.03 11:33:40.
