data_PCOD9062392
_publ_section_title
;
Structure prediction by ZEFSAII (Michael W. Deem and Ramdas Pophale) SiO2 
 PCOD9062392
Probable space group: P -1
;
_chemical_formula_sum "Si O2"
_cell_formula_units_Z 16
_cell_length_a 13.967147
_cell_length_b 9.822409
_cell_length_c 13.981212
_cell_angle_alpha 90.191967
_cell_angle_beta 34.831449
_cell_angle_gamma 65.605887
_cell_volume 751.168595
_symmetry_space_group_name_H-M "P -1"
_symmetry_group_IT_number 2
_symmetry_cell_setting 'triclinic'
loop_
_space_group_symop_operation_xyz
x,y,z
-x,-y,-z
loop_
_atom_site_type_symbol
_atom_site_label
_atom_site_fract_x
_atom_site_fract_y
_atom_site_fract_z
Si Si1 0.572624 0.677002 0.605713
Si Si2 0.275819 0.926297 0.375462
Si Si3 0.638569 0.912573 0.987975
Si Si4 0.883765 0.923517 0.943355
Si Si5 0.087942 0.543637 0.512333
Si Si6 0.601579 0.335794 0.549255
Si Si7 0.246178 0.702521 0.254254
Si Si8 0.861302 0.488932 0.188481
O O1 0.691056 0.647281 0.609367
O O2 0.593474 0.500334 0.583430
O O3 0.732635 0.635708 0.385731
O O4 0.297298 0.891082 0.837734
O O5 0.451724 0.949314 0.212341
O O6 0.377917 0.774137 0.376776
O O7 0.286744 0.823742 0.272010
O O8 0.991621 0.139447 0.618681
O O9 0.757227 0.973165 0.943152
O O10 0.875148 0.685615 0.764759
O O11 0.500000 0.000000 0.000000
O O12 0.146026 0.837511 0.714671
O O13 0.950180 0.735124 0.928244
O O14 0.160375 0.644611 0.405170
O O15 0.000000 0.500000 0.500000
O O16 0.365372 0.446316 0.680221
O O17 0.500000 0.500000 0.000000
O O18 0.000000 0.500000 0.000000
#
# Coordination Sequence:
#
# PCOD9062392 Si02
#       8
#     2   2   2   2   2   2   2   2
#     4  11  24  44  69  99 136 176 229 274 338 406
#     4  11  24  40  64  94 131 176 228 274 339 397
#     4  12  22  41  66  96 137 182 225 275 336 399
#     4  11  24  44  69  98 134 177 223 279 338 406
#     4  12  23  42  66 100 139 181 223 275 331 402
#     4  11  24  44  70  97 133 175 224 286 339 397
#     4  11  24  42  62  95 137 178 223 277 329 401
#     4  11  25  48  73  99 135 174 226 287 342 398
#
# _framework density 21.300145000000001
#
# number of rings (size 3 to 8) (size 9 to 14) (size 15 to 20)
#    0.000    0.750    5.000    3.750    3.500    2.500 
#    0.000    1.250    0.000    0.000    0.000    0.000 
#    0.000    0.000    0.000    0.000    0.000    0.000 
#
# Total GULP energy -89420.387127 kJ/mol
# GULP energy per Si atom -5588.774195 kJ/mol
# Density = 2.125166 g / cm^3
# Si number density = 21.300145 Si / 1000 Ang^3
#
#
#
# Elastic Constant Matrix: (Units=GPa)
#
#
# Indices 1 2 3 4 5 6 
#
# 1 90.9427 14.3063 31.5362 -1.5216 -9.3305 -12.3489
# 2 14.3063 48.1588 45.7922 -1.9492 5.5932 -10.7733
# 3 31.5362 45.7922 138.6614 27.0001 -4.3064 -0.3395
# 4 -1.5216 -1.9492 27.0001 46.0787 1.9057 -1.4480
# 5 -9.3305 5.5932 -4.3064 1.9057 30.6184 -2.9817
# 6 -12.3489 -10.7733 -0.3395 -1.4480 -2.9817 29.4613
#
#
#
# Elastic Compliance Matrix: (Units=1/GPa)
#
#
# Indices 1 2 3 4 5 6 
#
# 1 0.013473 0.000458 -0.003582 0.002597 0.003970 0.006303
# 2 0.000458 0.040780 -0.016156 0.012034 -0.008909 0.014608
# 3 -0.003582 -0.016156 0.015464 -0.010257 0.003959 -0.007335
# 4 0.002597 0.012034 -0.010257 0.028673 -0.004013 0.006374
# 5 0.003970 -0.008909 0.003959 -0.004013 0.036494 0.001948
# 6 0.006303 0.014608 -0.007335 0.006374 0.001948 0.042352
#
#
# Mechanical properties :
#
#
# Convention : Reuss Voigt Hill
#
# Bulk Modulus (GPa) = 32.09580 51.22578 41.66079
# Shear Modulus (GPa) = 22.10610 33.64024 27.87317
#
# Velocity S-wave (km/s) = 3.22504 3.97841 3.62137
# Velocity P-wave (km/s) = 5.38228 6.72349 6.08992
#
# Compressibility (1/GPa) = 0.03115673
#
# Stress axis : x y z
#
# Youngs Moduli (GPa) = 74.22363 24.52193 64.66553
#
# Poissons Ratio (x) = -0.01123 0.23166
# Poissons Ratio (y) = -0.03400 1.04472
# Poissons Ratio (z) = 0.26590 0.39617
#
# Static dielectric constant tensor:
#      x y z
#    x 1.809130 -0.020560 -0.020210 
#    y -0.020560 1.779610 0.011180 
#    z -0.020210 0.011180 1.793300 
# 
# From -- ./inp_files/529741.got.cif
#   From: 2010.05.17/outbox.cif.g08.bks.cpg/sg2_265_cif.got.tgz:529741.got - 2010.06.03 11:33:40.
