data_PCOD9062719
_publ_section_title
;
Structure prediction by ZEFSAII (Michael W. Deem and Ramdas Pophale) SiO2 
 PCOD9062719
Probable space group: P -1
;
_chemical_formula_sum "Si O2"
_cell_formula_units_Z 16
_cell_length_a 8.868020
_cell_length_b 7.947625
_cell_length_c 15.101984
_cell_angle_alpha 139.542969
_cell_angle_beta 87.386191
_cell_angle_gamma 101.203821
_cell_volume 668.695573
_symmetry_space_group_name_H-M "P -1"
_symmetry_group_IT_number 2
_symmetry_cell_setting 'triclinic'
loop_
_space_group_symop_operation_xyz
x,y,z
-x,-y,-z
loop_
_atom_site_type_symbol
_atom_site_label
_atom_site_fract_x
_atom_site_fract_y
_atom_site_fract_z
Si Si1 0.704743 0.345276 0.309707
Si Si2 0.806183 0.080820 0.856933
Si Si3 0.612437 0.464655 0.061729
Si Si4 0.427884 0.316505 0.172918
Si Si5 0.207888 0.669773 0.345109
Si Si6 0.245092 0.951118 0.637849
Si Si7 0.964597 0.111075 0.139329
Si Si8 0.117847 0.096961 0.396426
O O1 0.555711 0.369363 0.268441
O O2 0.686092 0.206220 0.350919
O O3 0.808137 0.642252 0.444132
O O4 0.796716 0.162619 0.179063
O O5 0.709258 0.910846 0.871473
O O6 0.986368 0.099579 0.880710
O O7 0.781342 0.924728 0.702451
O O8 0.747052 0.346094 0.968080
O O9 0.509817 0.273203 0.062027
O O10 0.685996 0.737814 0.220708
O O11 0.500000 0.500000 0.000000
O O12 0.346770 0.561228 0.255399
O O13 0.275773 0.848092 0.499223
O O14 0.079137 0.403479 0.271039
O O15 0.124343 0.838027 0.350267
O O16 0.056313 0.891672 0.621440
O O17 0.000000 0.000000 0.000000
#
# Coordination Sequence:
#
# PCOD9062719 Si02
#       8
#     2   2   2   2   2   2   2   2
#     4  12  24  45  73 104 144 190 238 292 359 420
#     4  11  25  46  69 101 143 189 239 290 353 426
#     4  12  27  46  72 107 149 188 237 297 362 423
#     4  11  26  47  73 103 145 189 236 295 359 434
#     4  11  26  45  71 107 142 188 239 291 361 421
#     4  12  26  45  75 105 146 188 242 299 354 422
#     4  11  24  42  69 101 139 185 234 288 353 424
#     4  12  25  45  76 104 147 185 244 301 349 428
#
# _framework density 23.927181000000001
#
# number of rings (size 3 to 8) (size 9 to 14) (size 15 to 20)
#    0.000    0.500    2.500    5.625    3.500    9.500 
#    0.000    0.000    0.000    0.000    0.000    0.000 
#    0.000    0.000    0.000    0.000    0.000    0.000 
#
# Total GULP energy -89556.197409 kJ/mol
# GULP energy per Si atom -5597.262338 kJ/mol
# Density = 2.387272 g / cm^3
# Si number density = 23.927181 Si / 1000 Ang^3
#
#
#
# Elastic Constant Matrix: (Units=GPa)
#
#
# Indices 1 2 3 4 5 6 
#
# 1 74.5583 15.5587 18.8296 8.8283 0.8502 -13.4062
# 2 15.5587 81.6031 -0.3542 -6.3352 3.2196 -15.3666
# 3 18.8296 -0.3542 102.9536 0.6112 -5.1923 -0.7093
# 4 8.8283 -6.3352 0.6112 42.4956 -1.7209 -1.2992
# 5 0.8502 3.2196 -5.1923 -1.7209 50.8526 -1.0652
# 6 -13.4062 -15.3666 -0.7093 -1.2992 -1.0652 37.0359
#
#
#
# Elastic Compliance Matrix: (Units=1/GPa)
#
#
# Indices 1 2 3 4 5 6 
#
# 1 0.015887 -0.002440 -0.002884 -0.003501 -0.000429 0.004548
# 2 -0.002440 0.013890 0.000482 0.002698 -0.000594 0.004967
# 3 -0.002884 0.000482 0.010289 0.000548 0.001074 -0.000596
# 4 -0.003501 0.002698 0.000548 0.024709 0.000796 0.000752
# 5 -0.000429 -0.000594 0.001074 0.000796 0.019851 0.000218
# 6 0.004548 0.004967 -0.000596 0.000752 0.000218 0.030729
#
#
# Mechanical properties :
#
#
# Convention : Reuss Voigt Hill
#
# Bulk Modulus (GPa) = 32.91279 36.35369 34.63324
# Shear Modulus (GPa) = 36.99193 41.08222 39.03707
#
# Velocity S-wave (km/s) = 3.93621 4.14813 4.04356
# Velocity P-wave (km/s) = 5.86887 6.17811 6.02547
#
# Compressibility (1/GPa) = 0.03038332
#
# Stress axis : x y z
#
# Youngs Moduli (GPa) = 62.94483 71.99450 97.19156
#
# Poissons Ratio (x) = 0.17567 0.28025
# Poissons Ratio (y) = 0.15359 -0.04687
# Poissons Ratio (z) = 0.18150 -0.03472
#
# Static dielectric constant tensor:
#      x y z
#    x 1.936230 0.015200 -0.009910 
#    y 0.015200 1.958100 -0.002410 
#    z -0.009910 -0.002410 1.900710 
# 
# From -- ./inp_files/393180.got.cif
#   From: 2010.05.17/outbox.cif.g08.bks.cpg/sg2_197_cif.got.tgz:393180.got - 2010.06.03 11:33:40.
