data_PCOD9062660
_publ_section_title
;
Structure prediction by ZEFSAII (Michael W. Deem and Ramdas Pophale) SiO2 
 PCOD9062660
Probable space group: P -1
;
_chemical_formula_sum "Si O2"
_cell_formula_units_Z 16
_cell_length_a 9.096633
_cell_length_b 6.393724
_cell_length_c 14.593946
_cell_angle_alpha 112.829881
_cell_angle_beta 71.354906
_cell_angle_gamma 79.508834
_cell_volume 694.215598
_symmetry_space_group_name_H-M "P -1"
_symmetry_group_IT_number 2
_symmetry_cell_setting 'triclinic'
loop_
_space_group_symop_operation_xyz
x,y,z
-x,-y,-z
loop_
_atom_site_type_symbol
_atom_site_label
_atom_site_fract_x
_atom_site_fract_y
_atom_site_fract_z
Si Si1 0.692403 0.468892 0.159842
Si Si2 0.812144 0.549479 0.570485
Si Si3 0.152956 0.670323 0.284712
Si Si4 0.615384 0.082510 0.647080
Si Si5 0.320682 0.452511 0.024557
Si Si6 0.375845 0.747949 0.525933
Si Si7 0.839405 0.951894 0.072069
Si Si8 0.157454 0.187616 0.744940
O O1 0.528227 0.709913 0.233269
O O2 0.694408 0.216521 0.154613
O O3 0.815429 0.557675 0.210013
O O4 0.748163 0.419458 0.035714
O O5 0.806671 0.529810 0.678149
O O6 0.773885 0.332991 0.491648
O O7 0.000000 0.500000 0.500000
O O8 0.673460 0.798925 0.607503
O O9 0.219848 0.867452 0.346832
O O10 0.242668 0.563017 0.154369
O O11 0.965261 0.787408 0.310240
O O12 0.572026 0.158590 0.563237
O O13 0.500000 0.500000 0.000000
O O14 0.255761 0.217356 0.984996
O O15 0.500000 0.500000 0.500000
O O16 0.318836 0.961501 0.647278
O O17 0.890119 0.858652 0.150027
O O18 0.000000 0.000000 0.000000
#
# Coordination Sequence:
#
# PCOD9062660 Si02
#       8
#     2   2   2   2   2   2   2   2
#     4  11  24  44  67 101 138 184 233 293 350 423
#     4  11  25  43  67  99 137 181 234 290 354 424
#     4  11  24  43  67  99 137 183 234 285 361 422
#     4  11  24  43  65  98 140 178 232 294 349 425
#     4  11  24  46  69 103 141 190 236 294 356 424
#     4  11  24  42  66  99 134 182 233 285 354 427
#     4  11  25  44  72 105 143 185 240 295 356 431
#     4  11  24  42  68  99 141 181 236 290 355 426
#
# _framework density 23.047598000000001
#
# number of rings (size 3 to 8) (size 9 to 14) (size 15 to 20)
#    0.000    1.000    1.250    4.500    0.000   16.500 
#    0.000    0.000    0.000    0.000    0.000    0.000 
#    0.000    0.000    0.000    0.000    0.000    0.000 
#
# Total GULP energy -89170.766936 kJ/mol
# GULP energy per Si atom -5573.172933 kJ/mol
# Density = 2.299514 g / cm^3
# Si number density = 23.047598 Si / 1000 Ang^3
#
#
#
# Elastic Constant Matrix: (Units=GPa)
#
#
# Indices 1 2 3 4 5 6 
#
# 1 110.7955 43.1628 27.2456 9.9399 13.0246 10.5027
# 2 43.1628 111.5684 27.2512 17.1869 9.5619 -7.0810
# 3 27.2456 27.2512 88.6276 0.6048 16.8329 -6.2610
# 4 9.9399 17.1869 0.6048 28.9466 0.4565 2.9676
# 5 13.0246 9.5619 16.8329 0.4565 43.9671 5.9231
# 6 10.5027 -7.0810 -6.2610 2.9676 5.9231 35.5077
#
#
#
# Elastic Compliance Matrix: (Units=1/GPa)
#
#
# Indices 1 2 3 4 5 6 
#
# 1 0.011851 -0.003979 -0.002525 -0.001180 -0.001064 -0.004468
# 2 -0.003979 0.012321 -0.002010 -0.006299 -0.001206 0.004007
# 3 -0.002525 -0.002010 0.013775 0.001495 -0.004564 0.003411
# 4 -0.001180 -0.006299 0.001495 0.039063 0.001297 -0.004125
# 5 -0.001064 -0.001206 -0.004564 0.001297 0.025747 -0.005134
# 6 -0.004468 0.004007 0.003411 -0.004125 -0.005134 0.032086
#
#
# Mechanical properties :
#
#
# Convention : Reuss Voigt Hill
#
# Bulk Modulus (GPa) = 47.80338 56.25675 52.03006
# Shear Modulus (GPa) = 31.47708 35.90639 33.69173
#
# Velocity S-wave (km/s) = 3.69960 3.95134 3.82754
# Velocity P-wave (km/s) = 6.24785 6.72899 6.49288
#
# Compressibility (1/GPa) = 0.02091902
#
# Stress axis : x y z
#
# Youngs Moduli (GPa) = 84.38036 81.15907 72.59425
#
# Poissons Ratio (x) = 0.32291 0.18332
# Poissons Ratio (y) = 0.33572 0.14595
# Poissons Ratio (z) = 0.21308 0.16316
#
# Static dielectric constant tensor:
#      x y z
#    x 2.071730 0.009240 -0.061020 
#    y 0.009240 1.863070 0.004670 
#    z -0.061020 0.004670 1.843080 
# 
# From -- ./inp_files/488631.got.cif
#   From: 2010.05.17/outbox.cif.g08.bks.cpg/sg2_245_cif.got.tgz:488631.got - 2010.06.03 11:33:40.
