data_PCOD9062035
_publ_section_title
;
Structure prediction by ZEFSAII (Michael W. Deem and Ramdas Pophale) SiO2 
 PCOD9062035
Probable space group: P -1
;
_chemical_formula_sum "Si O2"
_cell_formula_units_Z 15
_cell_length_a 14.473165
_cell_length_b 8.665314
_cell_length_c 14.510766
_cell_angle_alpha 86.849057
_cell_angle_beta 19.496369
_cell_angle_gamma 84.587747
_cell_volume 601.501342
_symmetry_space_group_name_H-M "P -1"
_symmetry_group_IT_number 2
_symmetry_cell_setting 'triclinic'
loop_
_space_group_symop_operation_xyz
x,y,z
-x,-y,-z
loop_
_atom_site_type_symbol
_atom_site_label
_atom_site_fract_x
_atom_site_fract_y
_atom_site_fract_z
Si Si1 0.995826 0.608262 0.786889
Si Si2 0.027375 0.145862 0.904365
Si Si3 0.517457 0.540660 0.774131
Si Si4 0.363683 0.153477 0.996842
Si Si5 0.535678 0.851963 0.648251
Si Si6 0.783790 0.653127 0.690841
Si Si7 0.000000 0.500000 0.000000
Si Si8 0.106744 0.043728 0.530174
O O1 0.788509 0.767123 0.954237
O O2 0.265965 0.601681 0.466300
O O3 0.798432 0.483194 0.943493
O O4 0.054944 0.567462 0.839662
O O5 0.336116 0.130893 0.572777
O O6 0.796757 0.123175 0.043908
O O7 0.970974 0.321791 0.991976
O O8 0.000000 0.000000 0.000000
O O9 0.599997 0.675293 0.626181
O O10 0.552845 0.596341 0.842428
O O11 0.299535 0.280708 0.133069
O O12 0.198285 0.005139 0.172724
O O13 0.689826 0.095540 0.703632
O O14 0.707254 0.946587 0.552876
O O15 0.894258 0.795634 0.527860
O O16 0.000000 0.500000 0.500000
#
# Coordination Sequence:
#
# PCOD9062035 Si02
#       8
#     2   2   2   2   2   2   1   2
#     4  12  26  45  74 106 149 189 253 304 377 446
#     4  12  27  47  73 109 145 196 253 311 381 454
#     4  11  23  47  69 107 142 193 240 306 366 444
#     4  12  26  49  72 112 147 198 249 304 380 446
#     4  11  23  48  70 101 147 192 242 302 380 439
#     4  11  25  47  79 109 149 199 247 310 371 455
#     4  12  28  48  80 110 152 194 254 320 374 444
#     4  11  27  47  75 106 155 192 244 308 372 452
#
# _framework density 24.937602999999999
#
# number of rings (size 3 to 8) (size 9 to 14) (size 15 to 20)
#    0.000    0.533    4.000    2.800    3.733    6.933 
#    0.000    0.000    0.000    0.000    0.000    0.000 
#    0.000    0.000    0.000    0.000    0.000    0.000 
#
# Total GULP energy -83637.483777 kJ/mol
# GULP energy per Si atom -5575.832252 kJ/mol
# Density = 2.488084 g / cm^3
# Si number density = 24.937603 Si / 1000 Ang^3
#
#
#
# Elastic Constant Matrix: (Units=GPa)
#
#
# Indices 1 2 3 4 5 6 
#
# 1 99.0955 32.9702 6.2408 10.2128 11.5013 11.7912
# 2 32.9702 116.1547 6.6821 -6.7289 15.2689 -12.3944
# 3 6.2408 6.6821 80.4247 1.2060 -11.2377 4.4827
# 4 10.2128 -6.7289 1.2060 29.3989 -0.2333 -5.1416
# 5 11.5013 15.2689 -11.2377 -0.2333 21.7673 -1.4350
# 6 11.7912 -12.3944 4.4827 -5.1416 -1.4350 44.6608
#
#
#
# Elastic Compliance Matrix: (Units=1/GPa)
#
#
# Indices 1 2 3 4 5 6 
#
# 1 0.013432 -0.004029 -0.001036 -0.006546 -0.005237 -0.005482
# 2 -0.004029 0.011522 -0.001904 0.004903 -0.006567 0.004806
# 3 -0.001036 -0.001904 0.014027 -0.000837 0.009018 -0.001469
# 4 -0.006546 0.004903 -0.000837 0.038788 0.000508 0.007655
# 5 -0.005237 -0.006567 0.009018 0.000508 0.058014 0.000577
# 6 -0.005482 0.004806 -0.001469 0.007655 0.000577 0.026219
#
#
# Mechanical properties :
#
#
# Convention : Reuss Voigt Hill
#
# Bulk Modulus (GPa) = 39.92806 43.05123 41.48964
# Shear Modulus (GPa) = 27.13156 35.81753 31.47455
#
# Velocity S-wave (km/s) = 3.30203 3.79395 3.55650
# Velocity P-wave (km/s) = 5.53026 6.04095 5.79124
#
# Compressibility (1/GPa) = 0.02504504
#
# Stress axis : x y z
#
# Youngs Moduli (GPa) = 74.45088 86.78705 71.29046
#
# Poissons Ratio (x) = 0.34964 0.07383
# Poissons Ratio (y) = 0.29994 0.13572
# Poissons Ratio (z) = 0.07710 0.16522
#
# Static dielectric constant tensor:
#      x y z
#    x 2.044040 -0.016510 0.053900 
#    y -0.016510 2.010900 0.065530 
#    z 0.053900 0.065530 1.990850 
# 
# From -- ./inp_files/313355.got.cif
#   From: 2010.05.17/outbox.cif.g08.bks.cpg/sg2_157_cif.got.tgz:313355.got - 2010.06.03 11:33:40.
