data_PCOD9062696
_publ_section_title
;
Structure prediction by ZEFSAII (Michael W. Deem and Ramdas Pophale) SiO2 
 PCOD9062696
Probable space group: P -1
;
_chemical_formula_sum "Si O2"
_cell_formula_units_Z 14
_cell_length_a 9.308279
_cell_length_b 8.829727
_cell_length_c 24.806943
_cell_angle_alpha 39.446696
_cell_angle_beta 29.181522
_cell_angle_gamma 50.007840
_cell_volume 628.338790
_symmetry_space_group_name_H-M "P -1"
_symmetry_group_IT_number 2
_symmetry_cell_setting 'triclinic'
loop_
_space_group_symop_operation_xyz
x,y,z
-x,-y,-z
loop_
_atom_site_type_symbol
_atom_site_label
_atom_site_fract_x
_atom_site_fract_y
_atom_site_fract_z
Si Si1 0.922109 0.670352 0.930521
Si Si2 0.322579 0.701524 0.056421
Si Si3 0.742854 0.884293 0.241947
Si Si4 0.414012 0.617183 0.703335
Si Si5 0.557209 0.082059 0.784333
Si Si6 0.738488 0.082012 0.528378
Si Si7 0.969421 0.233855 0.300879
O O1 0.099526 0.575706 0.848360
O O2 0.589676 0.699654 0.012385
O O3 0.074798 0.919059 0.834454
O O4 0.000000 0.500000 0.000000
O O5 0.002853 0.737238 0.176704
O O6 0.242615 0.426319 0.140735
O O7 0.393951 0.912452 0.930974
O O8 0.591720 0.966402 0.212992
O O9 0.479766 0.794051 0.393955
O O10 0.542528 0.362412 0.725798
O O11 0.590068 0.833973 0.618406
O O12 0.323809 0.719980 0.647614
O O13 0.893992 0.014234 0.688934
O O14 0.886016 0.240494 0.388611
O O15 0.000000 0.000000 0.500000
#
# Coordination Sequence:
#
# PCOD9062696 Si02
#       7
#     2   2   2   2   2   2   2
#     4  11  24  42  68 107 149 183 231 296 360 425
#     4  12  25  43  75 110 148 186 233 294 366 431
#     4  11  24  44  71 105 142 188 237 295 351 419
#     4  11  26  47  73 105 140 192 238 295 354 427
#     4  12  24  46  74 110 142 186 239 292 363 427
#     4  11  26  51  72 100 144 190 246 294 351 419
#     4  12  25  46  74 104 146 193 236 293 355 425
#
# _framework density 22.280972999999999
#
# number of rings (size 3 to 8) (size 9 to 14) (size 15 to 20)
#    0.000    0.571    4.286    3.429    4.000    1.143 
#    0.000    0.000    0.000    0.000    0.000    0.000 
#    0.000    0.000    0.000    0.000    0.000    0.000 
#
# Total GULP energy -78139.682341 kJ/mol
# GULP energy per Si atom -5581.405882 kJ/mol
# Density = 2.223026 g / cm^3
# Si number density = 22.280973 Si / 1000 Ang^3
#
#
#
# Elastic Constant Matrix: (Units=GPa)
#
#
# Indices 1 2 3 4 5 6 
#
# 1 74.2374 -67.7847 11.2320 -33.5153 35.6951 -11.5728
# 2 -67.7847 13.4003 -18.6347 -18.5796 36.0410 -12.1802
# 3 11.2320 -18.6347 79.7828 -1.7343 32.4404 -13.3593
# 4 -33.5153 -18.5796 -1.7343 19.2159 11.3105 1.5968
# 5 35.6951 36.0410 32.4404 11.3105 35.1144 -2.8673
# 6 -11.5728 -12.1802 -13.3593 1.5968 -2.8673 31.5659
#
#
#
# Elastic Compliance Matrix: (Units=1/GPa)
#
#
# Indices 1 2 3 4 5 6 
#
# 1 0.004563 -0.005895 -0.005050 -0.001859 0.006509 -0.002054
# 2 -0.005895 0.003426 -0.001984 -0.011895 0.008112 -0.000340
# 3 -0.005050 -0.001984 0.014759 -0.007491 -0.003752 0.003667
# 4 -0.001859 -0.011895 -0.007491 0.031397 0.010162 -0.009107
# 5 0.006509 0.008112 -0.003752 0.010162 0.014112 0.004696
# 6 -0.002054 -0.000340 0.003667 -0.009107 0.004696 0.033235
#
#
# Mechanical properties :
#
#
# Convention : Reuss Voigt Hill
#
# Bulk Modulus (GPa) = -321.41608 1.89398 -159.76105
# Shear Modulus (GPa) = 39.58436 33.35311 36.46873
#
# Velocity S-wave (km/s) = 4.21954 3.87322 4.05009
# Velocity P-wave (km/s) = 10.99225 4.56665 7.07019
#
# Compressibility (1/GPa) = -0.00311123
#
# Stress axis : x y z
#
# Youngs Moduli (GPa) = 219.17536 291.86451 67.75715
#
# Poissons Ratio (x) = 1.72057 0.34220
# Poissons Ratio (y) = 1.29206 0.13442
# Poissons Ratio (z) = 1.10691 0.57903
#
# Static dielectric constant tensor:
#      x y z
#    x 3.004860 -0.705330 0.390450 
#    y -0.705330 2.276310 -0.188180 
#    z 0.390450 -0.188180 1.924520 
# 
# From -- ./inp_files/201740.got.cif
#   From: 2010.05.17/outbox.cif.g08.bks.cpg/sg2_101_cif.got.tgz:201740.got - 2010.06.03 11:33:40.
