data_PCOD9062664
_publ_section_title
;
Structure prediction by ZEFSAII (Michael W. Deem and Ramdas Pophale) SiO2 
 PCOD9062664
Probable space group: P -1
;
_chemical_formula_sum "Si O2"
_cell_formula_units_Z 16
_cell_length_a 11.266388
_cell_length_b 11.909307
_cell_length_c 19.686656
_cell_angle_alpha 139.141378
_cell_angle_beta 149.469039
_cell_angle_gamma 61.503071
_cell_volume 747.332915
_symmetry_space_group_name_H-M "P -1"
_symmetry_group_IT_number 2
_symmetry_cell_setting 'triclinic'
loop_
_space_group_symop_operation_xyz
x,y,z
-x,-y,-z
loop_
_atom_site_type_symbol
_atom_site_label
_atom_site_fract_x
_atom_site_fract_y
_atom_site_fract_z
Si Si1 0.755498 0.072372 0.474890
Si Si2 0.942676 0.784699 0.842611
Si Si3 0.703446 0.452557 0.808582
Si Si4 0.429468 0.883973 0.025614
Si Si5 0.328251 0.160005 0.010262
Si Si6 0.727121 0.956296 0.558528
Si Si7 0.626007 0.393072 0.587287
Si Si8 0.651397 0.741085 0.185644
O O1 0.637528 0.215196 0.473894
O O2 0.030027 0.181470 0.615993
O O3 0.817393 0.069279 0.583164
O O4 0.574884 0.843859 0.254929
O O5 0.862110 0.618639 0.785949
O O6 0.674417 0.663338 0.607294
O O7 0.178583 0.806220 0.919190
O O8 0.000000 0.000000 0.000000
O O9 0.460409 0.281518 0.655499
O O10 0.649639 0.372325 0.668936
O O11 0.677588 0.645221 0.884016
O O12 0.000000 0.500000 0.000000
O O13 0.435751 0.080152 0.087663
O O14 0.469751 0.797723 0.934702
O O15 0.628834 0.850624 0.157308
O O16 0.003669 0.008749 0.759878
O O17 0.500000 0.000000 0.500000
O O18 0.500000 0.500000 0.000000
#
# Coordination Sequence:
#
# PCOD9062664 Si02
#       8
#     2   2   2   2   2   2   2   2
#     4  11  24  42  67 100 133 175 233 295 345 413
#     4  11  24  44  71 100 137 183 233 290 355 421
#     4  12  25  41  71 103 135 186 233 292 349 412
#     4  11  24  45  70  97 142 185 225 287 355 424
#     4  11  25  47  67 101 144 182 236 287 351 432
#     4  12  23  44  71 100 139 178 239 295 342 414
#     4  11  24  43  67 103 135 173 242 289 350 423
#     4  11  25  45  70  98 137 182 232 285 355 423
#
# _framework density 21.409469000000001
#
# number of rings (size 3 to 8) (size 9 to 14) (size 15 to 20)
#    0.000    0.750    3.750    3.000    1.750    3.000 
#    0.000    9.375    0.000    0.000    0.000    0.000 
#    0.000    0.000    0.000    0.000    0.000    0.000 
#
# Total GULP energy -89102.713792 kJ/mol
# GULP energy per Si atom -5568.919612 kJ/mol
# Density = 2.136074 g / cm^3
# Si number density = 21.409469 Si / 1000 Ang^3
#
#
#
# Elastic Constant Matrix: (Units=GPa)
#
#
# Indices 1 2 3 4 5 6 
#
# 1 87.1122 19.0935 19.3925 2.9242 12.3278 -14.9465
# 2 19.0935 111.8814 18.8721 13.0814 -9.3163 -11.9572
# 3 19.3925 18.8721 74.2666 19.1437 4.6424 -11.0781
# 4 2.9242 13.0814 19.1437 32.5148 -4.1245 -8.5947
# 5 12.3278 -9.3163 4.6424 -4.1245 24.4409 0.0873
# 6 -14.9465 -11.9572 -11.0781 -8.5947 0.0873 42.5894
#
#
#
# Elastic Compliance Matrix: (Units=1/GPa)
#
#
# Indices 1 2 3 4 5 6 
#
# 1 0.014215 -0.002360 -0.002355 0.001162 -0.007440 0.003963
# 2 -0.002360 0.010415 -0.001641 -0.002032 0.005125 0.001248
# 3 -0.002355 -0.001641 0.017443 -0.009604 -0.004376 0.001321
# 4 0.001162 -0.002032 -0.009604 0.039418 0.007097 0.005279
# 5 -0.007440 0.005125 -0.004376 0.007097 0.048654 -0.000978
# 6 0.003963 0.001248 0.001321 0.005279 -0.000978 0.026632
#
#
# Mechanical properties :
#
#
# Convention : Reuss Voigt Hill
#
# Bulk Modulus (GPa) = 34.05898 43.10851 38.58375
# Shear Modulus (GPa) = 27.88970 34.30250 31.09610
#
# Velocity S-wave (km/s) = 3.61318 4.00711 3.81523
# Velocity P-wave (km/s) = 5.77492 6.44889 6.12119
#
# Compressibility (1/GPa) = 0.02936083
#
# Stress axis : x y z
#
# Youngs Moduli (GPa) = 70.34801 96.01187 57.32922
#
# Poissons Ratio (x) = 0.22664 0.13502
# Poissons Ratio (y) = 0.16606 0.09406
# Poissons Ratio (z) = 0.16568 0.15752
#
# Static dielectric constant tensor:
#      x y z
#    x 1.800070 0.011550 -0.005410 
#    y 0.011550 1.770330 -0.038210 
#    z -0.005410 -0.038210 1.776330 
# 
# From -- ./inp_files/595142.got.cif
#   From: 2010.05.17/outbox.cif.g08.bks.cpg/sg2_298_cif.got.tgz:595142.got - 2010.06.03 11:33:40.
