data_PCOD9062514
_publ_section_title
;
Structure prediction by ZEFSAII (Michael W. Deem and Ramdas Pophale) SiO2 
 PCOD9062514
Probable space group: P -1
;
_chemical_formula_sum "Si O2"
_cell_formula_units_Z 15
_cell_length_a 21.361649
_cell_length_b 6.429772
_cell_length_c 11.855219
_cell_angle_alpha 120.567119
_cell_angle_beta 148.601161
_cell_angle_gamma 47.843421
_cell_volume 620.103179
_symmetry_space_group_name_H-M "P -1"
_symmetry_group_IT_number 2
_symmetry_cell_setting 'triclinic'
loop_
_space_group_symop_operation_xyz
x,y,z
-x,-y,-z
loop_
_atom_site_type_symbol
_atom_site_label
_atom_site_fract_x
_atom_site_fract_y
_atom_site_fract_z
Si Si1 0.765350 0.330860 0.212368
Si Si2 0.500000 0.500000 0.000000
Si Si3 0.505091 0.960394 0.632044
Si Si4 0.040160 0.325433 0.670298
Si Si5 0.736517 0.120660 0.667662
Si Si6 0.680408 0.403253 0.424731
Si Si7 0.931698 0.481857 0.775814
Si Si8 0.781477 0.426302 0.011804
O O1 0.626656 0.493015 0.118103
O O2 0.878261 0.425216 0.428563
O O3 0.854467 0.998276 0.293385
O O4 0.732677 0.363647 0.037314
O O5 0.623663 0.264944 0.214776
O O6 0.394303 0.869631 0.469477
O O7 0.656361 0.721138 0.845968
O O8 0.500000 0.000000 0.500000
O O9 0.448432 0.261293 0.692595
O O10 0.049187 0.315624 0.817657
O O11 0.087035 0.535062 0.756532
O O12 0.686828 0.333265 0.545830
O O13 0.814751 0.193517 0.903328
O O14 0.833931 0.809997 0.679856
O O15 0.827491 0.368901 0.606390
O O16 0.000000 0.500000 0.000000
#
# Coordination Sequence:
#
# PCOD9062514 Si02
#       8
#     2   1   2   2   2   2   2   2
#     4  11  26  47  74 102 143 187 237 290 355 423
#     4  12  24  48  74  98 140 192 230 290 354 414
#     4  11  24  41  67 101 142 177 233 295 352 414
#     4  11  25  48  68 107 142 186 236 292 354 419
#     4  11  25  42  70 106 137 185 237 293 353 420
#     4  11  24  45  66 103 140 185 234 289 352 416
#     4  11  24  44  69 101 143 183 231 293 352 417
#     4  12  24  42  75 105 137 187 235 291 355 424
#
# _framework density 24.189520999999999
#
# number of rings (size 3 to 8) (size 9 to 14) (size 15 to 20)
#    0.000    0.800    2.667    4.000    5.600    3.200 
#    4.800    4.000    0.000    0.000    0.000    0.000 
#    0.000    0.000    0.000    0.000    0.000    0.000 
#
# Total GULP energy -83758.982081 kJ/mol
# GULP energy per Si atom -5583.932139 kJ/mol
# Density = 2.413446 g / cm^3
# Si number density = 24.189521 Si / 1000 Ang^3
#
#
#
# Elastic Constant Matrix: (Units=GPa)
#
#
# Indices 1 2 3 4 5 6 
#
# 1 135.8870 24.4986 25.8057 -4.5224 7.6900 6.3928
# 2 24.4986 52.5965 9.2770 -4.9516 20.0127 2.4407
# 3 25.8057 9.2770 100.7086 7.0106 16.1636 5.4339
# 4 -4.5224 -4.9516 7.0106 26.4974 9.6910 4.6180
# 5 7.6900 20.0127 16.1636 9.6910 51.1361 -2.7158
# 6 6.3928 2.4407 5.4339 4.6180 -2.7158 29.3275
#
#
#
# Elastic Compliance Matrix: (Units=1/GPa)
#
#
# Indices 1 2 3 4 5 6 
#
# 1 0.008453 -0.003554 -0.001924 0.001383 0.000393 -0.001372
# 2 -0.003554 0.026162 -0.000062 0.009241 -0.011644 -0.003925
# 3 -0.001924 -0.000062 0.011118 -0.001935 -0.002919 -0.001601
# 4 0.001383 0.009241 -0.001935 0.046381 -0.012490 -0.009172
# 5 0.000393 -0.011644 -0.002919 -0.012490 0.027660 0.005952
# 6 -0.001372 -0.003925 -0.001601 -0.009172 0.005952 0.037015
#
#
# Mechanical properties :
#
#
# Convention : Reuss Voigt Hill
#
# Bulk Modulus (GPa) = 28.85703 45.37277 37.11490
# Shear Modulus (GPa) = 27.86759 36.69959 32.28359
#
# Velocity S-wave (km/s) = 3.39787 3.89931 3.65720
# Velocity P-wave (km/s) = 5.22967 6.25066 5.76282
#
# Compressibility (1/GPa) = 0.03465360
#
# Stress axis : x y z
#
# Youngs Moduli (GPa) = 118.29451 38.22393 89.94468
#
# Poissons Ratio (x) = 0.13583 0.17306
# Poissons Ratio (y) = 0.42038 0.00558
# Poissons Ratio (z) = 0.22761 0.00237
#
# Static dielectric constant tensor:
#      x y z
#    x 1.749840 0.203640 0.153520 
#    y 0.203640 1.679810 -0.280880 
#    z 0.153520 -0.280880 1.672280 
# 
# From -- ./inp_files/72172.got.cif
#   From: 2010.05.17/outbox.cif.g08.bks.cpg/sg2_37_cif.got.tgz:72172.got - 2010.06.03 11:33:40.
