data_PCOD9062839
_publ_section_title
;
Structure prediction by ZEFSAII (Michael W. Deem and Ramdas Pophale) SiO2 
 PCOD9062839
Probable space group: P -1
;
_chemical_formula_sum "Si O2"
_cell_formula_units_Z 12
_cell_length_a 8.513419
_cell_length_b 9.169139
_cell_length_c 8.330701
_cell_angle_alpha 84.838480
_cell_angle_beta 65.729331
_cell_angle_gamma 64.818318
_cell_volume 533.632227
_symmetry_space_group_name_H-M "P -1"
_symmetry_group_IT_number 2
_symmetry_cell_setting 'triclinic'
loop_
_space_group_symop_operation_xyz
x,y,z
-x,-y,-z
loop_
_atom_site_type_symbol
_atom_site_label
_atom_site_fract_x
_atom_site_fract_y
_atom_site_fract_z
Si Si1 0.401485 0.195824 0.509681
Si Si2 0.059408 0.884991 0.138446
Si Si3 0.930938 0.711010 0.631722
Si Si4 0.767951 0.153539 0.470419
Si Si5 0.055056 0.402445 0.821452
Si Si6 0.330034 0.974085 0.150245
O O1 0.239473 0.246056 0.432463
O O2 0.584777 0.237679 0.421687
O O3 0.277617 0.287393 0.707790
O O4 0.500000 0.000000 0.500000
O O5 0.039198 0.721655 0.140368
O O6 0.274682 0.855805 0.079584
O O7 0.922675 0.994209 0.329564
O O8 0.000000 0.000000 0.000000
O O9 0.122613 0.740847 0.521362
O O10 0.987953 0.534312 0.694708
O O11 0.834889 0.843051 0.798924
O O12 0.683606 0.091532 0.660916
O O13 0.000000 0.500000 0.000000
O O14 0.500000 0.000000 0.000000
#
# Coordination Sequence:
#
# PCOD9062839 Si02
#       6
#     2   2   2   2   2   2
#     4  12  24  43  81 103 139 199 257 288 366 454
#     4  11  24  45  75 103 144 195 244 301 372 449
#     4  11  25  46  73 106 152 188 241 322 374 422
#     4  11  24  46  75 108 141 196 259 296 363 455
#     4  12  26  46  71 113 155 187 237 319 382 427
#     4  11  24  42  73 107 142 193 251 301 360 446
#
# _framework density 22.487396
#
# number of rings (size 3 to 8) (size 9 to 14) (size 15 to 20)
#    0.000    0.667    3.333    5.500    7.000    0.667 
#    0.000    0.833    0.000    0.000    0.000    0.000 
#    0.000    0.000    0.000    0.000    0.000    0.000 
#
# Total GULP energy -66928.555980 kJ/mol
# GULP energy per Si atom -5577.379665 kJ/mol
# Density = 2.243621 g / cm^3
# Si number density = 22.487396 Si / 1000 Ang^3
#
#
#
# Elastic Constant Matrix: (Units=GPa)
#
#
# Indices 1 2 3 4 5 6 
#
# 1 203.7034 74.7976 64.8238 -16.6139 -18.0351 24.9588
# 2 74.7976 159.7100 60.0896 -16.6198 -4.7172 11.3687
# 3 64.8238 60.0896 117.4388 -14.9457 -9.7427 8.0846
# 4 -16.6139 -16.6198 -14.9457 44.7476 2.2134 -5.9814
# 5 -18.0351 -4.7172 -9.7427 2.2134 44.4764 -3.8736
# 6 24.9588 11.3687 8.0846 -5.9814 -3.8736 39.0430
#
#
#
# Elastic Compliance Matrix: (Units=1/GPa)
#
#
# Indices 1 2 3 4 5 6 
#
# 1 0.007009 -0.002053 -0.002385 0.000536 0.001803 -0.003128
# 2 -0.002053 0.008535 -0.003092 0.001357 -0.000707 -0.000394
# 3 -0.002385 -0.003092 0.011725 0.001876 0.001215 0.000405
# 4 0.000536 0.001357 0.001876 0.024026 -0.000203 0.002535
# 5 0.001803 -0.000707 0.001215 -0.000203 0.023512 0.001103
# 6 -0.003128 -0.000394 0.000405 0.002535 0.001103 0.028141
#
#
# Mechanical properties :
#
#
# Convention : Reuss Voigt Hill
#
# Bulk Modulus (GPa) = 81.91619 97.80822 89.86220
# Shear Modulus (GPa) = 40.95722 44.39616 42.67669
#
# Velocity S-wave (km/s) = 4.27235 4.44809 4.36111
# Velocity P-wave (km/s) = 7.80025 8.36480 8.08745
#
# Compressibility (1/GPa) = 0.01220760
#
# Stress axis : x y z
#
# Youngs Moduli (GPa) = 142.68340 117.16557 85.28441
#
# Poissons Ratio (x) = 0.24059 0.20339
# Poissons Ratio (y) = 0.29299 0.26373
# Poissons Ratio (z) = 0.34028 0.36232
#
# Static dielectric constant tensor:
#      x y z
#    x 2.042370 -0.007290 0.103630 
#    y -0.007290 1.836420 -0.018710 
#    z 0.103630 -0.018710 1.949620 
# 
# From -- ./inp_files/153636.got.cif
#   From: 2010.05.17/outbox.cif.g08.bks.cpg/sg2_77_cif.got.tgz:153636.got - 2010.06.03 11:33:40.
