data_PCOD9062187
_publ_section_title
;
Structure prediction by ZEFSAII (Michael W. Deem and Ramdas Pophale) SiO2 
 PCOD9062187
Probable space group: P -1
;
_chemical_formula_sum "Si O2"
_cell_formula_units_Z 14
_cell_length_a 13.925303
_cell_length_b 11.001609
_cell_length_c 8.359657
_cell_angle_alpha 115.937607
_cell_angle_beta 38.731667
_cell_angle_gamma 127.699843
_cell_volume 631.975252
_symmetry_space_group_name_H-M "P -1"
_symmetry_group_IT_number 2
_symmetry_cell_setting 'triclinic'
loop_
_space_group_symop_operation_xyz
x,y,z
-x,-y,-z
loop_
_atom_site_type_symbol
_atom_site_label
_atom_site_fract_x
_atom_site_fract_y
_atom_site_fract_z
Si Si1 0.368143 0.388557 0.470809
Si Si2 0.137062 0.638813 0.286226
Si Si3 0.824764 0.912939 0.275148
Si Si4 0.510394 0.787180 0.038124
Si Si5 0.129574 0.933975 0.365124
Si Si6 0.803789 0.427752 0.164251
Si Si7 0.492265 0.839606 0.449948
O O1 0.500000 0.500000 0.500000
O O2 0.213439 0.244907 0.680875
O O3 0.282127 0.487004 0.576451
O O4 0.442031 0.321397 0.199421
O O5 0.317877 0.751284 0.208645
O O6 0.073601 0.751287 0.342424
O O7 0.000000 0.500000 0.500000
O O8 0.194565 0.563007 0.024198
O O9 0.656809 0.867565 0.358768
O O10 0.843768 0.023105 0.458878
O O11 0.000000 0.000000 0.000000
O O12 0.497041 0.762223 0.231149
O O13 0.676396 0.958585 0.898437
O O14 0.000000 0.000000 0.500000
O O15 0.682418 0.254738 0.275523
O O16 0.000000 0.500000 0.000000
O O17 0.500000 0.000000 0.500000
#
# Coordination Sequence:
#
# PCOD9062187 Si02
#       7
#     2   2   2   2   2   2   2
#     4  11  23  48  68 100 140 188 233 296 364 416
#     4  12  26  46  73 108 143 189 241 301 361 426
#     4  11  25  42  70  99 141 183 231 292 348 425
#     4  11  24  46  73 103 143 189 241 294 359 436
#     4  11  25  46  71 106 142 188 241 295 358 429
#     4  12  27  45  70 101 147 182 233 299 359 430
#     4  12  25  45  71 105 139 190 238 292 355 425
#
# _framework density 22.152766
#
# number of rings (size 3 to 8) (size 9 to 14) (size 15 to 20)
#    0.000    0.571    2.857    4.714    8.000    0.571 
#    2.571    0.000    0.000    0.000    0.000    0.000 
#    0.000    0.000    0.000    0.000    0.000    0.000 
#
# Total GULP energy -78127.727097 kJ/mol
# GULP energy per Si atom -5580.551935 kJ/mol
# Density = 2.210235 g / cm^3
# Si number density = 22.152766 Si / 1000 Ang^3
#
#
#
# Elastic Constant Matrix: (Units=GPa)
#
#
# Indices 1 2 3 4 5 6 
#
# 1 116.3689 26.1397 52.0571 -5.2497 -1.0884 14.8891
# 2 26.1397 118.1775 66.6575 -6.6078 -1.8086 -13.6062
# 3 52.0571 66.6575 138.1592 -35.1728 22.0983 -2.5382
# 4 -5.2497 -6.6078 -35.1728 52.0348 5.6449 1.4650
# 5 -1.0884 -1.8086 22.0983 5.6449 50.0127 2.4434
# 6 14.8891 -13.6062 -2.5382 1.4650 2.4434 44.3059
#
#
#
# Elastic Compliance Matrix: (Units=1/GPa)
#
#
# Indices 1 2 3 4 5 6 
#
# 1 0.011611 0.000090 -0.005792 -0.002976 0.003361 -0.004293
# 2 0.000090 0.013308 -0.008235 -0.004449 0.004454 0.003486
# 3 -0.005792 -0.008235 0.017869 0.011478 -0.009644 0.000593
# 4 -0.002976 -0.004449 0.011478 0.027020 -0.008340 -0.000142
# 5 0.003361 0.004454 -0.009644 -0.008340 0.025502 -0.001445
# 6 -0.004293 0.003486 0.000593 -0.000142 -0.001445 0.025202
#
#
# Mechanical properties :
#
#
# Convention : Reuss Voigt Hill
#
# Bulk Modulus (GPa) = 67.05956 73.60157 70.33057
# Shear Modulus (GPa) = 32.60313 44.46075 38.53194
#
# Velocity S-wave (km/s) = 3.84049 4.48482 4.17510
# Velocity P-wave (km/s) = 7.07128 7.75338 7.42017
#
# Compressibility (1/GPa) = 0.01491212
#
# Stress axis : x y z
#
# Youngs Moduli (GPa) = 86.12662 75.14282 55.96160
#
# Poissons Ratio (x) = -0.00673 0.32414
# Poissons Ratio (y) = -0.00772 0.46087
# Poissons Ratio (z) = 0.49886 0.61884
#
# Static dielectric constant tensor:
#      x y z
#    x 1.808150 0.015800 -0.019010 
#    y 0.015800 1.892390 0.070940 
#    z -0.019010 0.070940 1.820050 
# 
# From -- ./inp_files/184456.got.cif
#   From: 2010.05.17/outbox.cif.g08.bks.cpg/sg2_93_cif.got.tgz:184456.got - 2010.06.03 11:33:40.
