data_PCOD9062067
_publ_section_title
;
Structure prediction by ZEFSAII (Michael W. Deem and Ramdas Pophale) SiO2 
 PCOD9062067
Probable space group: P -1
;
_chemical_formula_sum "Si O2"
_cell_formula_units_Z 16
_cell_length_a 8.020306
_cell_length_b 9.278741
_cell_length_c 15.959341
_cell_angle_alpha 65.250435
_cell_angle_beta 145.063611
_cell_angle_gamma 124.147724
_cell_volume 560.713265
_symmetry_space_group_name_H-M "P -1"
_symmetry_group_IT_number 2
_symmetry_cell_setting 'triclinic'
loop_
_space_group_symop_operation_xyz
x,y,z
-x,-y,-z
loop_
_atom_site_type_symbol
_atom_site_label
_atom_site_fract_x
_atom_site_fract_y
_atom_site_fract_z
Si Si1 0.028759 0.334923 0.621649
Si Si2 0.313881 0.680479 0.095427
Si Si3 0.069068 0.537681 0.274816
Si Si4 0.393363 0.817486 0.904896
Si Si5 0.504147 0.787924 0.708185
Si Si6 0.647439 0.888295 0.420278
Si Si7 0.928650 0.958336 0.698130
Si Si8 0.861722 0.746621 0.014808
O O1 0.961872 0.440397 0.644076
O O2 0.811784 0.310875 0.455136
O O3 0.392529 0.366047 0.741624
O O4 0.919255 0.142169 0.664169
O O5 0.391586 0.750381 0.014647
O O6 0.179542 0.775292 0.086185
O O7 0.000000 0.500000 0.000000
O O8 0.426719 0.683254 0.361346
O O9 0.909620 0.335820 0.230838
O O10 0.850824 0.608691 0.114048
O O11 0.736510 0.865954 0.990805
O O12 0.279158 0.972624 0.820584
O O13 0.790065 0.833360 0.749114
O O14 0.589878 0.697440 0.843154
O O15 0.513385 0.975493 0.694501
O O16 0.715385 0.887307 0.546550
O O17 0.000000 0.000000 0.500000
#
# Coordination Sequence:
#
# PCOD9062067 Si02
#       8
#     2   2   2   2   2   2   2   2
#     4  11  24  49  78 104 145 201 244 301 374 431
#     4  12  25  47  74 104 153 197 242 301 376 437
#     4  12  24  45  76 107 144 197 247 302 368 433
#     4  12  26  46  73 108 154 190 246 306 366 436
#     4  11  23  47  73 104 149 192 244 301 368 441
#     4  11  24  44  70 106 151 190 246 306 364 433
#     4  11  23  47  71 104 149 197 240 302 367 443
#     4  12  26  46  72 111 150 191 245 305 363 442
#
# _framework density 28.535083
#
# number of rings (size 3 to 8) (size 9 to 14) (size 15 to 20)
#    0.000    0.500    6.250    2.625    3.500    1.500 
#    2.250    3.750    0.000    0.000    0.000    0.000 
#    0.000    0.000    0.000    0.000    0.000    0.000 
#
# Total GULP energy -89555.410527 kJ/mol
# GULP energy per Si atom -5597.213158 kJ/mol
# Density = 2.847014 g / cm^3
# Si number density = 28.535083 Si / 1000 Ang^3
#
#
#
# Elastic Constant Matrix: (Units=GPa)
#
#
# Indices 1 2 3 4 5 6 
#
# 1 200.1845 41.5110 63.9932 13.2190 20.2246 10.5296
# 2 41.5110 75.3654 21.1589 27.7545 -11.2185 -3.8981
# 3 63.9932 21.1589 144.9761 15.8649 9.1507 19.3976
# 4 13.2190 27.7545 15.8649 60.3912 6.2905 -0.0473
# 5 20.2246 -11.2185 9.1507 6.2905 72.3501 3.5643
# 6 10.5296 -3.8981 19.3976 -0.0473 3.5643 46.3918
#
#
#
# Elastic Compliance Matrix: (Units=1/GPa)
#
#
# Indices 1 2 3 4 5 6 
#
# 1 0.006714 -0.003844 -0.002289 0.001132 -0.002246 -0.000716
# 2 -0.003844 0.019586 -0.000880 -0.008430 0.004832 0.002506
# 3 -0.002289 -0.000880 0.008621 -0.001329 -0.000317 -0.003136
# 4 0.001132 -0.008430 -0.001329 0.020874 -0.003264 -0.000137
# 5 -0.002246 0.004832 -0.000317 -0.003264 0.015530 -0.000148
# 6 -0.000716 0.002506 -0.003136 -0.000137 -0.000148 0.023251
#
#
# Mechanical properties :
#
#
# Convention : Reuss Voigt Hill
#
# Bulk Modulus (GPa) = 47.85301 74.87248 61.36275
# Shear Modulus (GPa) = 43.26474 55.41748 49.34111
#
# Velocity S-wave (km/s) = 3.89806 4.41169 4.16280
# Velocity P-wave (km/s) = 6.08819 7.22816 6.68253
#
# Compressibility (1/GPa) = 0.02089733
#
# Stress axis : x y z
#
# Youngs Moduli (GPa) = 148.94282 51.05621 115.98950
#
# Poissons Ratio (x) = 0.19624 0.26548
# Poissons Ratio (y) = 0.57247 0.10204
# Poissons Ratio (z) = 0.34091 0.04492
#
# Static dielectric constant tensor:
#      x y z
#    x 2.185320 -0.037990 0.047570 
#    y -0.037990 2.345350 0.095740 
#    z 0.047570 0.095740 2.201650 
# 
# From -- ./inp_files/559837.got.cif
#   From: 2010.05.17/outbox.cif.g08.bks.cpg/sg2_280_cif.got.tgz:559837.got - 2010.06.03 11:33:40.
