data_PCOD9062211
_publ_section_title
;
Structure prediction by ZEFSAII (Michael W. Deem and Ramdas Pophale) SiO2 
 PCOD9062211
Probable space group: P -1
;
_chemical_formula_sum "Si O2"
_cell_formula_units_Z 14
_cell_length_a 12.044830
_cell_length_b 7.748128
_cell_length_c 8.824916
_cell_angle_alpha 104.675887
_cell_angle_beta 117.914406
_cell_angle_gamma 113.219360
_cell_volume 563.231737
_symmetry_space_group_name_H-M "P -1"
_symmetry_group_IT_number 2
_symmetry_cell_setting 'triclinic'
loop_
_space_group_symop_operation_xyz
x,y,z
-x,-y,-z
loop_
_atom_site_type_symbol
_atom_site_label
_atom_site_fract_x
_atom_site_fract_y
_atom_site_fract_z
Si Si1 0.151968 0.979828 0.165853
Si Si2 0.325122 0.805365 0.394114
Si Si3 0.293817 0.008838 0.682357
Si Si4 0.316225 0.371935 0.579455
Si Si5 0.822722 0.612706 0.001244
Si Si6 0.054866 0.368986 0.594516
Si Si7 0.640821 0.803051 0.929937
O O1 0.209285 0.857428 0.268633
O O2 0.968683 0.825656 0.051809
O O3 0.237265 0.223785 0.346486
O O4 0.226567 0.012154 0.057058
O O5 0.500000 0.000000 0.500000
O O6 0.315301 0.838799 0.573481
O O7 0.269362 0.581649 0.224554
O O8 0.355536 0.227715 0.671389
O O9 0.376687 0.085046 0.913370
O O10 0.107054 0.880986 0.554451
O O11 0.188474 0.380136 0.588933
O O12 0.475874 0.615332 0.706200
O O13 0.883967 0.557567 0.176294
O O14 0.712938 0.677158 0.005736
O O15 0.000000 0.500000 0.500000
#
# Coordination Sequence:
#
# PCOD9062211 Si02
#       7
#     2   2   2   2   2   2   2
#     4  11  25  46  72 106 144 191 243 289 352 435
#     4  11  26  45  73 103 152 189 230 294 369 418
#     4  11  24  46  69 103 142 190 239 293 352 427
#     4  11  23  48  72 103 146 187 242 299 354 416
#     4  12  24  48  74 104 148 190 237 296 360 423
#     4  12  27  43  74 106 145 189 242 293 359 428
#     4  12  26  43  79 106 138 191 246 294 356 419
#
# _framework density 24.856553000000002
#
# number of rings (size 3 to 8) (size 9 to 14) (size 15 to 20)
#    0.000    0.571    4.286    4.714    4.000    2.286 
#    0.000    1.429    0.000    0.000    0.000    0.000 
#    0.000    0.000    0.000    0.000    0.000    0.000 
#
# Total GULP energy -78425.993422 kJ/mol
# GULP energy per Si atom -5601.856673 kJ/mol
# Density = 2.479998 g / cm^3
# Si number density = 24.856553 Si / 1000 Ang^3
#
#
#
# Elastic Constant Matrix: (Units=GPa)
#
#
# Indices 1 2 3 4 5 6 
#
# 1 81.0266 16.2202 26.0301 1.5866 -5.3945 4.8596
# 2 16.2202 82.1793 29.4416 -9.0123 -3.7569 -4.5628
# 3 26.0301 29.4416 130.4876 11.9599 -28.7029 -5.4648
# 4 1.5866 -9.0123 11.9599 35.9491 13.5817 5.4515
# 5 -5.3945 -3.7569 -28.7029 13.5817 49.8551 9.2632
# 6 4.8596 -4.5628 -5.4648 5.4515 9.2632 22.4049
#
#
#
# Elastic Compliance Matrix: (Units=1/GPa)
#
#
# Indices 1 2 3 4 5 6 
#
# 1 0.013811 -0.002121 -0.002266 -0.000052 0.000846 -0.004317
# 2 -0.002121 0.014728 -0.004169 0.006184 -0.003660 0.002451
# 3 -0.002266 -0.004169 0.011626 -0.008047 0.008126 0.001076
# 4 -0.000052 0.006184 -0.008047 0.037866 -0.013700 -0.004241
# 5 0.000846 -0.003660 0.008126 -0.013700 0.029755 -0.007916
# 6 -0.004317 0.002451 0.001076 -0.004241 -0.007916 0.050636
#
#
# Mechanical properties :
#
#
# Convention : Reuss Voigt Hill
#
# Bulk Modulus (GPa) = 43.37974 48.56414 45.97194
# Shear Modulus (GPa) = 27.28994 36.44193 31.86594
#
# Velocity S-wave (km/s) = 3.31705 3.83311 3.58438
# Velocity P-wave (km/s) = 5.67101 6.25863 5.97205
#
# Compressibility (1/GPa) = 0.02305223
#
# Stress axis : x y z
#
# Youngs Moduli (GPa) = 72.40858 67.89957 86.01083
#
# Poissons Ratio (x) = 0.14399 0.19494
# Poissons Ratio (y) = 0.15355 0.35859
# Poissons Ratio (z) = 0.16411 0.28308
#
# Static dielectric constant tensor:
#      x y z
#    x 1.937220 -0.007590 0.009270 
#    y -0.007590 2.002600 -0.069470 
#    z 0.009270 -0.069470 2.036690 
# 
# From -- ./inp_files/159978.got.cif
#   From: 2010.05.17/outbox.cif.g08.bks.cpg/sg2_80_cif.got.tgz:159978.got - 2010.06.03 11:33:40.
