data_PCOD9062730
_publ_section_title
;
Structure prediction by ZEFSAII (Michael W. Deem and Ramdas Pophale) SiO2 
 PCOD9062730
Probable space group: P -1
;
_chemical_formula_sum "Si O2"
_cell_formula_units_Z 16
_cell_length_a 19.754459
_cell_length_b 12.102833
_cell_length_c 21.714894
_cell_angle_alpha 151.476560
_cell_angle_beta 18.802119
_cell_angle_gamma 141.637803
_cell_volume 759.794276
_symmetry_space_group_name_H-M "P -1"
_symmetry_group_IT_number 2
_symmetry_cell_setting 'triclinic'
loop_
_space_group_symop_operation_xyz
x,y,z
-x,-y,-z
loop_
_atom_site_type_symbol
_atom_site_label
_atom_site_fract_x
_atom_site_fract_y
_atom_site_fract_z
Si Si1 0.867227 0.660556 0.604120
Si Si2 0.837473 0.752505 0.235523
Si Si3 0.684256 0.745807 0.228173
Si Si4 0.092063 0.123837 0.200541
Si Si5 0.536185 0.668848 0.789269
Si Si6 0.609632 0.279229 0.342983
Si Si7 0.039384 0.979201 0.382413
Si Si8 0.874485 0.548739 0.330143
O O1 0.803114 0.829699 0.802606
O O2 0.657212 0.652078 0.741698
O O3 0.987733 0.387179 0.388979
O O4 0.021300 0.773090 0.483271
O O5 0.822919 0.744821 0.170336
O O6 0.589866 0.785539 0.485215
O O7 0.918740 0.979100 0.294850
O O8 0.000000 0.500000 0.000000
O O9 0.543301 0.563312 0.267451
O O10 0.500000 0.000000 0.500000
O O11 0.879211 0.632028 0.954697
O O12 0.250495 0.945614 0.928229
O O13 0.715815 0.665437 0.580855
O O14 0.303267 0.879714 0.093849
O O15 0.500000 0.500000 0.500000
O O16 0.748989 0.388893 0.323622
O O17 0.926444 0.773269 0.359607
O O18 0.000000 0.000000 0.500000
#
# Coordination Sequence:
#
# PCOD9062730 Si02
#       8
#     2   2   2   2   2   2   2   2
#     4  11  26  49  69  98 149 191 235 294 355 435
#     4  12  24  46  71 105 144 185 241 293 356 434
#     4  11  24  42  69 106 144 181 229 301 369 426
#     4  11  27  48  68 103 147 190 238 292 357 432
#     4  11  24  43  70 103 140 182 237 299 357 427
#     4  12  25  42  75 104 138 189 238 299 361 428
#     4  11  25  45  71 104 136 187 242 295 357 429
#     4  11  24  42  70 111 136 179 241 299 369 421
#
# _framework density 21.058330000000002
#
# number of rings (size 3 to 8) (size 9 to 14) (size 15 to 20)
#    0.000    0.750    5.000    1.125    7.000    1.500 
#    2.250    1.250    0.000    0.000    0.000    0.000 
#    0.000    0.000    0.000    0.000    0.000    0.000 
#
# Total GULP energy -89368.509304 kJ/mol
# GULP energy per Si atom -5585.531832 kJ/mol
# Density = 2.101040 g / cm^3
# Si number density = 21.058330 Si / 1000 Ang^3
#
#
#
# Elastic Constant Matrix: (Units=GPa)
#
#
# Indices 1 2 3 4 5 6 
#
# 1 101.6211 32.1337 35.1174 4.0366 2.2265 12.2157
# 2 32.1337 86.2259 64.0944 -1.4107 0.6408 -3.1173
# 3 35.1174 64.0944 109.6868 -11.2897 11.9709 -7.8119
# 4 4.0366 -1.4107 -11.2897 48.8034 -4.0466 1.0947
# 5 2.2265 0.6408 11.9709 -4.0466 32.4162 0.4996
# 6 12.2157 -3.1173 -7.8119 1.0947 0.4996 34.7009
#
#
#
# Elastic Compliance Matrix: (Units=1/GPa)
#
#
# Indices 1 2 3 4 5 6 
#
# 1 0.012393 -0.002594 -0.003016 -0.001665 0.000186 -0.005225
# 2 -0.002594 0.021845 -0.012563 -0.001715 0.004171 0.000042
# 3 -0.003016 -0.012563 0.018755 0.003628 -0.006081 0.004128
# 4 -0.001665 -0.001715 0.003628 0.021529 0.001488 0.000548
# 5 0.000186 0.004171 -0.006081 0.001488 0.033209 -0.001585
# 6 -0.005225 0.000042 0.004128 0.000548 -0.001585 0.031596
#
#
# Mechanical properties :
#
#
# Convention : Reuss Voigt Hill
#
# Bulk Modulus (GPa) = 60.07265 62.24721 61.15993
# Shear Modulus (GPa) = 27.59039 34.26333 30.92686
#
# Velocity S-wave (km/s) = 3.62358 4.03807 3.83643
# Velocity P-wave (km/s) = 6.78939 7.16693 6.98071
#
# Compressibility (1/GPa) = 0.01664651
#
# Stress axis : x y z
#
# Youngs Moduli (GPa) = 80.69016 45.77602 53.32002
#
# Poissons Ratio (x) = 0.11877 0.16079
# Poissons Ratio (y) = 0.20935 0.66988
# Poissons Ratio (z) = 0.24332 0.57510
#
# Static dielectric constant tensor:
#      x y z
#    x 1.890130 0.007710 0.075760 
#    y 0.007710 1.812080 0.017660 
#    z 0.075760 0.017660 1.797800 
# 
# From -- ./inp_files/600111.got.cif
#   From: 2010.05.17/outbox.cif.g08.bks.cpg/sg2_301_cif.got.tgz:600111.got - 2010.06.03 11:33:40.
