data_PCOD9062735
_publ_section_title
;
Structure prediction by ZEFSAII (Michael W. Deem and Ramdas Pophale) SiO2 
 PCOD9062735
Probable space group: P -1
;
_chemical_formula_sum "Si O2"
_cell_formula_units_Z 16
_cell_length_a 20.034080
_cell_length_b 5.257546
_cell_length_c 9.118138
_cell_angle_alpha 88.798823
_cell_angle_beta 50.183813
_cell_angle_gamma 102.581688
_cell_volume 703.298650
_symmetry_space_group_name_H-M "P -1"
_symmetry_group_IT_number 2
_symmetry_cell_setting 'triclinic'
loop_
_space_group_symop_operation_xyz
x,y,z
-x,-y,-z
loop_
_atom_site_type_symbol
_atom_site_label
_atom_site_fract_x
_atom_site_fract_y
_atom_site_fract_z
Si Si1 0.954235 0.262409 0.458972
Si Si2 0.739754 0.555613 0.220528
Si Si3 0.813956 0.046156 0.436105
Si Si4 0.453803 0.709357 0.637680
Si Si5 0.089437 0.668609 0.956262
Si Si6 0.108831 0.047738 0.168607
Si Si7 0.717489 0.465907 0.578523
Si Si8 0.457158 0.713210 0.986227
O O1 0.877381 0.266470 0.452864
O O2 0.000000 0.500000 0.500000
O O3 0.034751 0.203790 0.254180
O O4 0.900075 0.022394 0.646961
O O5 0.653847 0.379761 0.251229
O O6 0.825887 0.448973 0.139987
O O7 0.697291 0.569745 0.442814
O O8 0.791935 0.804867 0.039117
O O9 0.868836 0.072020 0.207860
O O10 0.733709 0.179948 0.527446
O O11 0.791046 0.743115 0.522120
O O12 0.500000 0.500000 0.500000
O O13 0.500000 0.000000 0.500000
O O14 0.465418 0.720960 0.798109
O O15 0.000000 0.500000 0.000000
O O16 0.069152 0.778200 0.137018
O O17 0.645752 0.395819 0.810509
O O18 0.500000 0.500000 0.000000
O O19 0.500000 0.000000 0.000000
#
# Coordination Sequence:
#
# PCOD9062735 Si02
#       8
#     2   2   2   2   2   2   2   2
#     4  11  26  42  62  95 141 194 247 309 366 440
#     4  11  25  44  72 109 150 195 255 312 386 464
#     4  11  25  42  68  98 142 185 242 294 371 434
#     4  12  29  51  83 115 158 206 258 325 397 464
#     4  11  24  43  70 105 145 195 250 311 374 455
#     4  11  24  42  69  95 144 190 250 304 375 441
#     4  11  25  44  70 106 141 186 239 309 362 461
#     4  12  26  50  80 112 150 197 250 321 396 467
#
# _framework density 22.749936999999999
#
# number of rings (size 3 to 8) (size 9 to 14) (size 15 to 20)
#    0.000    0.750    1.250    5.250   10.500    3.000 
#    0.000    0.000    0.000    0.000    0.000    0.000 
#    0.000    0.000    0.000    0.000    0.000    0.000 
#
# Total GULP energy -89220.529904 kJ/mol
# GULP energy per Si atom -5576.283119 kJ/mol
# Density = 2.269816 g / cm^3
# Si number density = 22.749937 Si / 1000 Ang^3
#
#
#
# Elastic Constant Matrix: (Units=GPa)
#
#
# Indices 1 2 3 4 5 6 
#
# 1 89.7168 45.6407 42.3697 -0.6522 14.5862 16.7968
# 2 45.6407 137.2397 53.2189 -2.7503 2.8194 2.7748
# 3 42.3697 53.2189 163.6895 -6.0645 25.5167 7.4486
# 4 -0.6522 -2.7503 -6.0645 45.7778 0.8178 -0.9180
# 5 14.5862 2.8194 25.5167 0.8178 32.0300 3.3032
# 6 16.7968 2.7748 7.4486 -0.9180 3.3032 39.3788
#
#
#
# Elastic Compliance Matrix: (Units=1/GPa)
#
#
# Indices 1 2 3 4 5 6 
#
# 1 0.016131 -0.004499 -0.001678 -0.000290 -0.005004 -0.005833
# 2 -0.004499 0.009669 -0.002514 0.000159 0.003046 0.001461
# 3 -0.001678 -0.002514 0.008283 0.001019 -0.005621 -0.000179
# 4 -0.000290 0.000159 0.001019 0.022019 -0.001312 0.000543
# 5 -0.005004 0.003046 -0.005621 -0.001312 0.037765 -0.000215
# 6 -0.005833 0.001461 -0.000179 0.000543 -0.000215 0.027844
#
#
# Mechanical properties :
#
#
# Convention : Reuss Voigt Hill
#
# Bulk Modulus (GPa) = 59.87995 74.78939 67.33467
# Shear Modulus (GPa) = 34.56370 40.06509 37.31439
#
# Velocity S-wave (km/s) = 3.90203 4.20111 4.05433
# Velocity P-wave (km/s) = 6.83222 7.51521 7.18184
#
# Compressibility (1/GPa) = 0.01670008
#
# Stress axis : x y z
#
# Youngs Moduli (GPa) = 61.99312 103.42533 120.72863
#
# Poissons Ratio (x) = 0.46530 0.20257
# Poissons Ratio (y) = 0.27890 0.30357
# Poissons Ratio (z) = 0.10402 0.26006
#
# Static dielectric constant tensor:
#      x y z
#    x 2.019100 -0.167770 0.053810 
#    y -0.167770 2.110850 -0.162300 
#    z 0.053810 -0.162300 1.971780 
# 
# From -- ./inp_files/340461.got.cif
#   From: 2010.05.17/outbox.cif.g08.bks.cpg/sg2_171_cif.got.tgz:340461.got - 2010.06.03 11:33:40.
