data_PCOD9062634
_publ_section_title
;
Structure prediction by ZEFSAII (Michael W. Deem and Ramdas Pophale) SiO2 
 PCOD9062634
Probable space group: P -1
;
_chemical_formula_sum "Si O2"
_cell_formula_units_Z 14
_cell_length_a 5.398571
_cell_length_b 20.963144
_cell_length_c 19.527797
_cell_angle_alpha 20.387044
_cell_angle_beta 53.951449
_cell_angle_gamma 44.716674
_cell_volume 513.807469
_symmetry_space_group_name_H-M "P -1"
_symmetry_group_IT_number 2
_symmetry_cell_setting 'triclinic'
loop_
_space_group_symop_operation_xyz
x,y,z
-x,-y,-z
loop_
_atom_site_type_symbol
_atom_site_label
_atom_site_fract_x
_atom_site_fract_y
_atom_site_fract_z
Si Si1 0.537006 0.244381 0.188171
Si Si2 0.317539 0.855808 0.483774
Si Si3 0.372194 0.850778 0.137027
Si Si4 0.662072 0.415787 0.462253
Si Si5 0.604442 0.427514 0.781894
Si Si6 0.286768 0.954571 0.785421
Si Si7 0.800851 0.574915 0.805807
O O1 0.508534 0.180082 0.180958
O O2 0.202990 0.355178 0.185076
O O3 0.661226 0.413850 0.991810
O O4 0.878724 0.013370 0.396336
O O5 0.527963 0.618657 0.652318
O O6 0.493651 0.791595 0.595052
O O7 0.429516 0.995199 0.279340
O O8 0.673638 0.627250 0.268688
O O9 0.311093 0.721219 0.337864
O O10 0.500000 0.000000 0.000000
O O11 0.000000 0.000000 0.000000
O O12 0.315293 0.536889 0.344337
O O13 0.946137 0.208337 0.575698
O O14 0.200077 0.459042 0.822160
O O15 0.850136 0.178137 0.019905
#
# Coordination Sequence:
#
# PCOD9062634 Si02
#       7
#     2   2   2   2   2   2   2
#     4  11  24  42  64  96 139 193 250 306 361 419
#     4  12  23  42  68  93 136 190 246 297 372 416
#     4  11  28  55  84 120 154 193 238 299 370 458
#     4  11  26  48  79 110 146 190 235 296 374 449
#     4  12  25  43  68 104 141 188 241 301 358 429
#     4  12  25  43  68 104 141 188 241 301 358 429
#     4  11  24  42  64  96 139 193 250 306 361 419
#
# _framework density 27.247564000000001
#
# number of rings (size 3 to 8) (size 9 to 14) (size 15 to 20)
#    0.000    0.571    5.714    1.286    0.000   12.000 
#    0.000    0.000    0.000    0.000    0.000    0.000 
#    0.000    0.000    0.000    0.000    0.000    0.000 
#
# Total GULP energy -78202.210221 kJ/mol
# GULP energy per Si atom -5585.872159 kJ/mol
# Density = 2.718555 g / cm^3
# Si number density = 27.247564 Si / 1000 Ang^3
#
#
#
# Elastic Constant Matrix: (Units=GPa)
#
#
# Indices 1 2 3 4 5 6 
#
# 1 76.7403 17.6499 53.0926 -5.7740 -7.7405 21.0193
# 2 17.6499 99.3526 57.8831 -16.3309 5.5810 20.0649
# 3 53.0926 57.8831 239.5723 -6.8179 -25.7832 16.5633
# 4 -5.7740 -16.3309 -6.8179 52.4330 2.5807 6.1718
# 5 -7.7405 5.5810 -25.7832 2.5807 53.9947 -4.4449
# 6 21.0193 20.0649 16.5633 6.1718 -4.4449 36.5753
#
#
#
# Elastic Compliance Matrix: (Units=1/GPa)
#
#
# Indices 1 2 3 4 5 6 
#
# 1 0.018209 0.001482 -0.003625 0.003210 -0.000268 -0.010210
# 2 0.001482 0.014786 -0.003568 0.005534 -0.004006 -0.008768
# 3 -0.003625 -0.003568 0.005993 -0.001094 0.002917 0.001866
# 4 0.003210 0.005534 -0.001094 0.022114 -0.002383 -0.008406
# 5 -0.000268 -0.004006 0.002917 -0.002383 0.020728 0.003952
# 6 -0.010210 -0.008768 0.001866 -0.008406 0.003952 0.039072
#
#
# Mechanical properties :
#
#
# Convention : Reuss Voigt Hill
#
# Bulk Modulus (GPa) = 36.27680 74.76848 55.52264
# Shear Modulus (GPa) = 35.33204 47.73658 41.53431
#
# Velocity S-wave (km/s) = 3.60489 4.19018 3.90850
# Velocity P-wave (km/s) = 5.53801 7.13513 6.38670
#
# Compressibility (1/GPa) = 0.02756583
#
# Stress axis : x y z
#
# Youngs Moduli (GPa) = 54.91715 67.63039 166.85028
#
# Poissons Ratio (x) = -0.10022 0.60483
# Poissons Ratio (y) = -0.08138 0.59539
# Poissons Ratio (z) = 0.19907 0.24133
#
# Static dielectric constant tensor:
#      x y z
#    x 2.278210 -0.043070 0.030330 
#    y -0.043070 2.256490 0.054710 
#    z 0.030330 0.054710 2.133660 
# 
# From -- ./inp_files/584248.got.cif
#   From: 2010.05.17/outbox.cif.g08.bks.cpg/sg2_293_cif.got.tgz:584248.got - 2010.06.03 11:33:40.
