data_PCOD9062575
_publ_section_title
;
Structure prediction by ZEFSAII (Michael W. Deem and Ramdas Pophale) SiO2 
 PCOD9062575
Probable space group: P -1
;
_chemical_formula_sum "Si O2"
_cell_formula_units_Z 14
_cell_length_a 11.718838
_cell_length_b 9.074145
_cell_length_c 7.597262
_cell_angle_alpha 50.804935
_cell_angle_beta 96.629530
_cell_angle_gamma 117.894645
_cell_volume 533.863011
_symmetry_space_group_name_H-M "P -1"
_symmetry_group_IT_number 2
_symmetry_cell_setting 'triclinic'
loop_
_space_group_symop_operation_xyz
x,y,z
-x,-y,-z
loop_
_atom_site_type_symbol
_atom_site_label
_atom_site_fract_x
_atom_site_fract_y
_atom_site_fract_z
Si Si1 0.532936 0.807981 0.115840
Si Si2 0.267961 0.058791 0.649778
Si Si3 0.113022 0.613607 0.112473
Si Si4 0.073932 0.212875 0.618347
Si Si5 0.362550 0.424635 0.129538
Si Si6 0.825443 0.504394 0.218035
Si Si7 0.212934 0.898180 0.276693
O O1 0.651812 0.896356 0.926642
O O2 0.600800 0.795222 0.317550
O O3 0.405807 0.589190 0.182682
O O4 0.500000 0.000000 0.000000
O O5 0.144262 0.075715 0.691167
O O6 0.300061 0.175971 0.379359
O O7 0.220313 0.801802 0.859937
O O8 0.105148 0.385176 0.333649
O O9 0.156151 0.741121 0.211761
O O10 0.962604 0.563658 0.098435
O O11 0.134720 0.342289 0.715125
O O12 0.913664 0.079359 0.709632
O O13 0.500000 0.500000 0.000000
O O14 0.269041 0.457898 0.954119
O O15 0.763749 0.255853 0.469153
#
# Coordination Sequence:
#
# PCOD9062575 Si02
#       7
#     2   2   2   2   2   2   2
#     4  11  26  45  72  95 132 190 238 264 323 414
#     4  11  24  41  70  97 128 179 235 278 323 409
#     4   8  18  38  67 100 127 170 221 275 341 399
#     4   9  18  40  75  97 128 169 229 280 335 401
#     4  12  28  43  61 100 143 183 221 282 341 392
#     4   9  19  39  65  97 138 166 210 286 344 391
#     4   8  18  38  69 100 124 176 227 275 327 402
#
# _framework density 26.223958
#
# number of rings (size 3 to 8) (size 9 to 14) (size 15 to 20)
#    0.000    2.286    0.000    3.000    8.000    7.429 
#    0.000    2.857    0.000    0.000    0.000    0.000 
#    0.000    0.000    0.000    0.000    0.000    0.000 
#
# Total GULP energy -78534.387678 kJ/mol
# GULP energy per Si atom -5609.599120 kJ/mol
# Density = 2.616427 g / cm^3
# Si number density = 26.223958 Si / 1000 Ang^3
#
#
#
# Elastic Constant Matrix: (Units=GPa)
#
#
# Indices 1 2 3 4 5 6 
#
# 1 121.4809 22.7914 59.6797 13.7202 18.2118 12.2383
# 2 22.7914 115.0266 43.9453 5.2619 20.8488 26.1785
# 3 59.6797 43.9453 179.7711 24.5925 39.0094 23.2070
# 4 13.7202 5.2619 24.5925 47.9614 0.9574 7.2157
# 5 18.2118 20.8488 39.0094 0.9574 40.1224 10.8253
# 6 12.2383 26.1785 23.2070 7.2157 10.8253 48.5542
#
#
#
# Elastic Compliance Matrix: (Units=1/GPa)
#
#
# Indices 1 2 3 4 5 6 
#
# 1 0.010057 -0.000544 -0.002616 -0.001379 -0.001589 -0.000432
# 2 -0.000544 0.010832 -0.001308 0.000371 -0.002909 -0.004484
# 3 -0.002616 -0.001308 0.008673 -0.003295 -0.006244 -0.000899
# 4 -0.001379 0.000371 -0.003295 0.023204 0.003776 -0.002568
# 5 -0.001589 -0.002909 -0.006244 0.003776 0.033997 -0.003188
# 6 -0.000432 -0.004484 -0.000899 -0.002568 -0.003188 0.024644
#
#
# Mechanical properties :
#
#
# Convention : Reuss Voigt Hill
#
# Bulk Modulus (GPa) = 48.48469 74.34571 61.41520
# Shear Modulus (GPa) = 39.30268 46.65175 42.97721
#
# Velocity S-wave (km/s) = 3.87555 4.22236 4.05267
# Velocity P-wave (km/s) = 6.20929 7.22378 6.73566
#
# Compressibility (1/GPa) = 0.02062507
#
# Stress axis : x y z
#
# Youngs Moduli (GPa) = 99.43739 92.31917 115.30588
#
# Poissons Ratio (x) = 0.05019 0.30169
# Poissons Ratio (y) = 0.05406 0.15081
# Poissons Ratio (z) = 0.26018 0.12075
#
# Static dielectric constant tensor:
#      x y z
#    x 1.991590 -0.060850 -0.024630 
#    y -0.060850 2.179010 0.057060 
#    z -0.024630 0.057060 2.019490 
# 
# From -- ./inp_files/256099.got.cif
#   From: 2010.05.17/outbox.cif.g08.bks.cpg/sg2_129_cif.got.tgz:256099.got - 2010.06.03 11:33:40.
