data_PCOD9062550
_publ_section_title
;
Structure prediction by ZEFSAII (Michael W. Deem and Ramdas Pophale) SiO2 
 PCOD9062550
Probable space group: P -1
;
_chemical_formula_sum "Si O2"
_cell_formula_units_Z 14
_cell_length_a 8.693534
_cell_length_b 8.269122
_cell_length_c 19.207277
_cell_angle_alpha 144.405339
_cell_angle_beta 119.378618
_cell_angle_gamma 48.826110
_cell_volume 601.772031
_symmetry_space_group_name_H-M "P -1"
_symmetry_group_IT_number 2
_symmetry_cell_setting 'triclinic'
loop_
_space_group_symop_operation_xyz
x,y,z
-x,-y,-z
loop_
_atom_site_type_symbol
_atom_site_label
_atom_site_fract_x
_atom_site_fract_y
_atom_site_fract_z
Si Si1 0.063010 0.694802 0.859322
Si Si2 0.343794 0.390080 0.091329
Si Si3 0.666232 0.537398 0.278244
Si Si4 0.369841 0.328659 0.919136
Si Si5 0.225464 0.909165 0.488887
Si Si6 0.942909 0.242577 0.719978
Si Si7 0.605632 0.292040 0.324407
O O1 0.135221 0.738678 0.815933
O O2 0.242593 0.430397 0.855536
O O3 0.927265 0.528253 0.766998
O O4 0.000000 0.000000 0.000000
O O5 0.479256 0.553174 0.198445
O O6 0.151447 0.566551 0.162329
O O7 0.272306 0.437082 0.011950
O O8 0.500000 0.000000 0.000000
O O9 0.647679 0.453537 0.323619
O O10 0.705034 0.835880 0.388179
O O11 0.467132 0.945523 0.806059
O O12 0.500000 0.500000 0.000000
O O13 0.191485 0.889344 0.391468
O O14 0.423925 0.558150 0.424551
O O15 0.000000 0.000000 0.500000
O O16 0.171816 0.935408 0.671130
#
# Coordination Sequence:
#
# PCOD9062550 Si02
#       7
#     2   2   2   2   2   2   2
#     4  11  25  41  68 105 142 182 238 287 355 428
#     4  12  23  45  75 103 147 186 229 299 362 419
#     4  12  24  45  74 104 140 191 237 290 352 430
#     4  11  24  41  69 105 141 182 232 290 357 419
#     4  12  26  50  73  99 142 190 238 298 358 417
#     4  11  26  47  69 105 143 187 237 291 358 419
#     4  11  27  47  71 106 142 183 248 292 347 437
#
# _framework density 23.264621999999999
#
# number of rings (size 3 to 8) (size 9 to 14) (size 15 to 20)
#    0.000    0.571    5.714    1.286    4.000    2.286 
#    0.000    0.000    0.000    0.000    0.000    0.000 
#    0.000    0.000    0.000    0.000    0.000    0.000 
#
# Total GULP energy -78073.864222 kJ/mol
# GULP energy per Si atom -5576.704587 kJ/mol
# Density = 2.321167 g / cm^3
# Si number density = 23.264622 Si / 1000 Ang^3
#
#
#
# Elastic Constant Matrix: (Units=GPa)
#
#
# Indices 1 2 3 4 5 6 
#
# 1 114.1636 33.7825 48.6521 21.2668 -8.7395 -2.3976
# 2 33.7825 65.1491 16.2867 -4.0425 -6.9620 -19.6620
# 3 48.6521 16.2867 151.4259 10.6900 9.1309 -12.4860
# 4 21.2668 -4.0425 10.6900 35.9855 -5.7204 -4.5808
# 5 -8.7395 -6.9620 9.1309 -5.7204 52.4082 -3.6673
# 6 -2.3976 -19.6620 -12.4860 -4.5808 -3.6673 35.2221
#
#
#
# Elastic Compliance Matrix: (Units=1/GPa)
#
#
# Indices 1 2 3 4 5 6 
#
# 1 0.014693 -0.009266 -0.003628 -0.009436 0.000356 -0.006648
# 2 -0.009266 0.025943 0.000476 0.010924 0.004121 0.015870
# 3 -0.003628 0.000476 0.008055 -0.000137 -0.001773 0.002672
# 4 -0.009436 0.010924 -0.000137 0.036732 0.004658 0.010669
# 5 0.000356 0.004121 -0.001773 0.004658 0.020818 0.004469
# 6 -0.006648 0.015870 0.002672 0.010669 0.004469 0.039598
#
#
# Mechanical properties :
#
#
# Convention : Reuss Voigt Hill
#
# Bulk Modulus (GPa) = 41.91964 58.68679 50.30322
# Shear Modulus (GPa) = 27.99150 40.19098 34.09124
#
# Velocity S-wave (km/s) = 3.47245 4.16090 3.83217
# Velocity P-wave (km/s) = 5.84251 6.95447 6.42260
#
# Compressibility (1/GPa) = 0.02385517
#
# Stress axis : x y z
#
# Youngs Moduli (GPa) = 68.06157 38.54605 124.14396
#
# Poissons Ratio (x) = 0.35716 0.45034
# Poissons Ratio (y) = 0.63064 -0.05904
# Poissons Ratio (z) = 0.24690 -0.01833
#
# Static dielectric constant tensor:
#      x y z
#    x 2.031230 -0.021030 0.002630 
#    y -0.021030 1.874730 0.081760 
#    z 0.002630 0.081760 1.890040 
# 
# From -- ./inp_files/296676.got.cif
#   From: 2010.05.17/outbox.cif.g08.bks.cpg/sg2_149_cif.got.tgz:296676.got - 2010.06.03 11:33:40.
