data_PCOD9062813
_publ_section_title
;
Structure prediction by ZEFSAII (Michael W. Deem and Ramdas Pophale) SiO2 
 PCOD9062813
Probable space group: P -1
;
_chemical_formula_sum "Si O2"
_cell_formula_units_Z 16
_cell_length_a 12.086243
_cell_length_b 11.986081
_cell_length_c 5.339143
_cell_angle_alpha 68.562749
_cell_angle_beta 66.044266
_cell_angle_gamma 68.167311
_cell_volume 634.820788
_symmetry_space_group_name_H-M "P -1"
_symmetry_group_IT_number 2
_symmetry_cell_setting 'triclinic'
loop_
_space_group_symop_operation_xyz
x,y,z
-x,-y,-z
loop_
_atom_site_type_symbol
_atom_site_label
_atom_site_fract_x
_atom_site_fract_y
_atom_site_fract_z
Si Si1 0.088439 0.863888 0.979619
Si Si2 0.693888 0.181573 0.817758
Si Si3 0.355103 0.038196 0.192099
Si Si4 0.380307 0.531360 0.776730
Si Si5 0.032415 0.354533 0.519320
Si Si6 0.145012 0.674173 0.677066
Si Si7 0.710342 0.810577 0.360950
Si Si8 0.489052 0.308131 0.220185
O O1 0.212163 0.874320 0.999931
O O2 0.042849 0.746113 0.230980
O O3 0.104264 0.810854 0.727993
O O4 0.000000 0.000000 0.000000
O O5 0.738470 0.304818 0.614921
O O6 0.695420 0.083718 0.679808
O O7 0.553542 0.214742 0.023193
O O8 0.334298 0.093861 0.444418
O O9 0.277938 0.128079 0.968380
O O10 0.500000 0.000000 0.000000
O O11 0.500000 0.500000 0.500000
O O12 0.232616 0.555269 0.835950
O O13 0.397066 0.659194 0.769167
O O14 0.411081 0.429107 0.048888
O O15 0.169533 0.288414 0.552659
O O16 0.000000 0.500000 0.500000
O O17 0.980575 0.354857 0.282989
O O18 0.600171 0.742729 0.479497
#
# Coordination Sequence:
#
# PCOD9062813 Si02
#       8
#     2   2   2   2   2   2   2   2
#     4  11  26  48  75 104 147 200 263 319 383 457
#     4  11  24  43  72 108 144 187 254 320 386 453
#     4  12  28  48  76 115 156 200 254 320 392 469
#     4  11  24  42  72 105 145 184 253 316 391 459
#     4  11  30  50  71 110 155 208 265 319 384 468
#     4  11  26  45  78 106 144 203 257 325 383 463
#     4  12  30  49  76 109 158 205 254 314 394 465
#     4  11  25  42  70 108 144 193 245 319 392 465
#
# _framework density 25.203965
#
# number of rings (size 3 to 8) (size 9 to 14) (size 15 to 20)
#    0.000    0.750    3.750    1.125   14.000    1.500 
#    0.000    0.000    0.000    0.000    0.000    0.000 
#    0.000    0.000    0.000    0.000    0.000    0.000 
#
# Total GULP energy -89250.405663 kJ/mol
# GULP energy per Si atom -5578.150354 kJ/mol
# Density = 2.514660 g / cm^3
# Si number density = 25.203965 Si / 1000 Ang^3
#
#
#
# Elastic Constant Matrix: (Units=GPa)
#
#
# Indices 1 2 3 4 5 6 
#
# 1 106.5334 34.3671 -10.7377 -7.3022 18.4372 -9.7189
# 2 34.3671 123.8222 4.7951 -1.2756 5.2634 -4.1141
# 3 -10.7377 4.7951 43.0009 -9.4575 2.0010 2.9489
# 4 -7.3022 -1.2756 -9.4575 33.7263 5.6109 3.2220
# 5 18.4372 5.2634 2.0010 5.6109 34.1420 -6.4846
# 6 -9.7189 -4.1141 2.9489 3.2220 -6.4846 46.4649
#
#
#
# Elastic Compliance Matrix: (Units=1/GPa)
#
#
# Indices 1 2 3 4 5 6 
#
# 1 0.012636 -0.003313 0.004955 0.005156 -0.007326 0.000655
# 2 -0.003313 0.009048 -0.002157 -0.001153 0.000793 0.000436
# 3 0.004955 -0.002157 0.027356 0.009897 -0.006032 -0.002419
# 4 0.005156 -0.001153 0.009897 0.035437 -0.009667 -0.003458
# 5 -0.007326 0.000793 -0.006032 -0.009667 0.035941 0.004607
# 6 0.000655 0.000436 -0.002419 -0.003458 0.004607 0.022734
#
#
# Mechanical properties :
#
#
# Convention : Reuss Voigt Hill
#
# Bulk Modulus (GPa) = 20.82850 36.68949 28.75899
# Shear Modulus (GPa) = 31.21401 39.19544 35.20473
#
# Velocity S-wave (km/s) = 3.52299 3.94779 3.74142
# Velocity P-wave (km/s) = 4.98302 5.94716 5.48631
#
# Compressibility (1/GPa) = 0.04801115
#
# Stress axis : x y z
#
# Youngs Moduli (GPa) = 79.13973 110.52227 36.55452
#
# Poissons Ratio (x) = 0.36613 -0.18112
# Poissons Ratio (y) = 0.26216 0.07883
# Poissons Ratio (z) = -0.39211 0.23835
#
# Static dielectric constant tensor:
#      x y z
#    x 2.032920 -0.043990 0.128900 
#    y -0.043990 2.125060 0.057510 
#    z 0.128900 0.057510 2.292280 
# 
# From -- ./inp_files/69000.got.cif
#   From: 2010.05.17/outbox.cif.g08.bks.cpg/sg2_35_cif.got.tgz:69000.got - 2010.06.03 11:33:40.
