data_PCOD9062801
_publ_section_title
;
Structure prediction by ZEFSAII (Michael W. Deem and Ramdas Pophale) SiO2 
 PCOD9062801
Probable space group: P -1
;
_chemical_formula_sum "Si O2"
_cell_formula_units_Z 12
_cell_length_a 15.211793
_cell_length_b 5.730537
_cell_length_c 12.506089
_cell_angle_alpha 68.996968
_cell_angle_beta 30.240764
_cell_angle_gamma 66.329944
_cell_volume 502.702456
_symmetry_space_group_name_H-M "P -1"
_symmetry_group_IT_number 2
_symmetry_cell_setting 'triclinic'
loop_
_space_group_symop_operation_xyz
x,y,z
-x,-y,-z
loop_
_atom_site_type_symbol
_atom_site_label
_atom_site_fract_x
_atom_site_fract_y
_atom_site_fract_z
Si Si1 0.590623 0.196649 0.704458
Si Si2 0.696288 0.473277 0.352720
Si Si3 0.444203 0.673978 0.921797
Si Si4 0.976324 0.728579 0.107853
Si Si5 0.154300 0.126482 0.359349
Si Si6 0.919316 0.378587 0.743654
O O1 0.700208 0.252221 0.474683
O O2 0.499436 0.483235 0.793230
O O3 0.508849 0.944279 0.806544
O O4 0.695994 0.092546 0.718252
O O5 0.500000 0.500000 0.500000
O O6 0.776464 0.687898 0.298833
O O7 0.850609 0.438450 0.105925
O O8 0.500000 0.500000 0.000000
O O9 0.231366 0.759514 0.120771
O O10 0.014776 0.688068 0.197773
O O11 0.000000 0.000000 0.000000
O O12 0.178899 0.327343 0.211440
O O13 0.090090 0.305364 0.500169
O O14 0.000000 0.000000 0.500000
#
# Coordination Sequence:
#
# PCOD9062801 Si02
#       6
#     2   2   2   2   2   2
#     4  12  27  46  75 105 149 187 247 304 371 442
#     4  11  27  49  73 105 145 197 249 309 372 438
#     4  12  26  46  72 111 146 192 241 304 373 449
#     4  11  26  47  74 106 144 194 253 306 368 446
#     4  11  24  42  71  99 145 188 236 303 374 441
#     4  11  25  43  69 106 142 189 243 303 369 443
#
# _framework density 23.870978999999998
#
# number of rings (size 3 to 8) (size 9 to 14) (size 15 to 20)
#    0.000    0.667    1.667    4.500   11.667    2.000 
#    0.000    0.000    0.000    0.000    0.000    0.000 
#    0.000    0.000    0.000    0.000    0.000    0.000 
#
# Total GULP energy -66879.895379 kJ/mol
# GULP energy per Si atom -5573.324615 kJ/mol
# Density = 2.381665 g / cm^3
# Si number density = 23.870979 Si / 1000 Ang^3
#
#
#
# Elastic Constant Matrix: (Units=GPa)
#
#
# Indices 1 2 3 4 5 6 
#
# 1 143.3068 44.6299 41.5960 -25.6939 -13.6542 -2.2091
# 2 44.6299 111.5125 47.3284 -26.7919 -0.4959 11.9979
# 3 41.5960 47.3284 84.1774 -22.0080 -10.3015 11.5873
# 4 -25.6939 -26.7919 -22.0080 61.6641 10.3835 -5.6843
# 5 -13.6542 -0.4959 -10.3015 10.3835 60.3604 -9.9725
# 6 -2.2091 11.9979 11.5873 -5.6843 -9.9725 32.0102
#
#
#
# Elastic Compliance Matrix: (Units=1/GPa)
#
#
# Indices 1 2 3 4 5 6 
#
# 1 0.009106 -0.002320 -0.002997 0.001731 0.001802 0.003452
# 2 -0.002320 0.013232 -0.005343 0.002966 -0.002401 -0.003407
# 3 -0.002997 -0.005343 0.017606 0.002147 0.001286 -0.003795
# 4 0.001731 0.002966 0.002147 0.019486 -0.002415 0.000939
# 5 0.001802 -0.002401 0.001286 -0.002415 0.018567 0.005914
# 6 0.003452 -0.003407 -0.003795 0.000939 0.005914 0.036138
#
#
# Mechanical properties :
#
#
# Convention : Reuss Voigt Hill
#
# Bulk Modulus (GPa) = 53.69379 67.34505 60.51942
# Shear Modulus (GPa) = 35.29505 44.50312 39.89909
#
# Velocity S-wave (km/s) = 3.84940 4.32246 4.09277
# Velocity P-wave (km/s) = 6.50379 7.29280 6.90957
#
# Compressibility (1/GPa) = 0.01862413
#
# Stress axis : x y z
#
# Youngs Moduli (GPa) = 109.82133 75.57408 56.79883
#
# Poissons Ratio (x) = 0.17530 0.17025
# Poissons Ratio (y) = 0.25473 0.30347
# Poissons Ratio (z) = 0.32918 0.40379
#
# Static dielectric constant tensor:
#      x y z
#    x 1.943820 0.050810 -0.126150 
#    y 0.050810 1.966660 0.175200 
#    z -0.126150 0.175200 2.313270 
# 
# From -- ./inp_files/42374.got.cif
#   From: 2010.05.17/outbox.cif.g08.bks.cpg/sg2_22_cif.got.tgz:42374.got - 2010.06.03 11:33:40.
