data_PCOD9062617
_publ_section_title
;
Structure prediction by ZEFSAII (Michael W. Deem and Ramdas Pophale) SiO2 
 PCOD9062617
Probable space group: P -1
;
_chemical_formula_sum "Si O2"
_cell_formula_units_Z 16
_cell_length_a 17.360379
_cell_length_b 9.287531
_cell_length_c 12.291554
_cell_angle_alpha 37.611987
_cell_angle_beta 38.932847
_cell_angle_gamma 41.851737
_cell_volume 716.032605
_symmetry_space_group_name_H-M "P -1"
_symmetry_group_IT_number 2
_symmetry_cell_setting 'triclinic'
loop_
_space_group_symop_operation_xyz
x,y,z
-x,-y,-z
loop_
_atom_site_type_symbol
_atom_site_label
_atom_site_fract_x
_atom_site_fract_y
_atom_site_fract_z
Si Si1 0.644972 0.771569 0.734269
Si Si2 0.920006 0.661603 0.592143
Si Si3 0.015062 0.859285 0.770583
Si Si4 0.386305 0.264857 0.459483
Si Si5 0.192473 0.347322 0.808929
Si Si6 0.563782 0.710261 0.276865
Si Si7 0.400709 0.519134 0.845635
Si Si8 0.886266 0.232989 0.037897
O O1 0.777386 0.799546 0.616377
O O2 0.651498 0.690366 0.651171
O O3 0.529460 0.027766 0.731725
O O4 0.621449 0.561947 0.961243
O O5 0.904717 0.478308 0.814277
O O6 0.000000 0.500000 0.500000
O O7 0.979218 0.875112 0.432524
O O8 0.085690 0.624160 0.756568
O O9 0.087128 0.791423 0.848768
O O10 0.873125 0.849258 0.958861
O O11 0.262993 0.274370 0.660506
O O12 0.461694 0.436788 0.327193
O O13 0.500000 0.000000 0.500000
O O14 0.301360 0.352040 0.772140
O O15 0.500000 0.500000 0.500000
O O16 0.587218 0.691486 0.132881
O O17 0.265346 0.741272 0.831488
O O18 0.000000 0.000000 0.000000
#
# Coordination Sequence:
#
# PCOD9062617 Si02
#       8
#     2   2   2   2   2   2   2   2
#     4  11  26  43  67 104 145 175 235 296 356 423
#     4  11  25  44  71 105 134 188 243 296 358 428
#     4  11  25  47  70 100 149 189 244 296 363 430
#     4  12  25  42  71 105 140 183 236 290 359 423
#     4  11  25  43  71 105 142 193 240 294 361 431
#     4  12  21  44  72 100 135 185 238 285 348 435
#     4  11  25  44  69 102 141 188 228 292 366 420
#     4  11  24  41  74 101 138 183 240 296 357 431
#
# _framework density 22.345351999999998
#
# number of rings (size 3 to 8) (size 9 to 14) (size 15 to 20)
#    0.000    0.750    5.000    1.500    5.250    0.000 
#    2.250    2.500    0.000    0.000    0.000    0.000 
#    0.000    0.000    0.000    0.000    0.000    0.000 
#
# Total GULP energy -89527.838521 kJ/mol
# GULP energy per Si atom -5595.489908 kJ/mol
# Density = 2.229449 g / cm^3
# Si number density = 22.345352 Si / 1000 Ang^3
#
#
#
# Elastic Constant Matrix: (Units=GPa)
#
#
# Indices 1 2 3 4 5 6 
#
# 1 88.8913 10.9879 39.5943 0.0021 0.0281 2.4480
# 2 10.9879 87.9301 20.0219 24.9772 -0.3692 2.2813
# 3 39.5943 20.0219 100.3852 6.7319 -8.2675 -4.2110
# 4 0.0021 24.9772 6.7319 39.3884 3.6313 0.4622
# 5 0.0281 -0.3692 -8.2675 3.6313 46.2842 12.2194
# 6 2.4480 2.2813 -4.2110 0.4622 12.2194 28.0530
#
#
#
# Elastic Compliance Matrix: (Units=1/GPa)
#
#
# Indices 1 2 3 4 5 6 
#
# 1 0.013868 -0.000884 -0.005527 0.001587 -0.000679 -0.001698
# 2 -0.000884 0.014509 -0.001940 -0.008933 0.000904 -0.001640
# 3 -0.005527 -0.001940 0.012837 -0.001160 0.001909 0.001755
# 4 0.001587 -0.008933 -0.001160 0.031520 -0.003078 0.001235
# 5 -0.000679 0.000904 0.001909 -0.003078 0.024983 -0.010559
# 6 -0.001698 -0.001640 0.001755 0.001235 -0.010559 0.040771
#
#
# Mechanical properties :
#
#
# Convention : Reuss Voigt Hill
#
# Bulk Modulus (GPa) = 40.79843 46.49052 43.64447
# Shear Modulus (GPa) = 30.60695 36.51862 33.56279
#
# Velocity S-wave (km/s) = 3.70499 4.04701 3.87977
# Velocity P-wave (km/s) = 6.04983 6.53363 6.29638
#
# Compressibility (1/GPa) = 0.02451075
#
# Stress axis : x y z
#
# Youngs Moduli (GPa) = 72.10953 68.92392 77.89844
#
# Poissons Ratio (x) = 0.06093 0.43055
# Poissons Ratio (y) = 0.06375 0.15116
# Poissons Ratio (z) = 0.39855 0.13374
#
# Static dielectric constant tensor:
#      x y z
#    x 1.821920 0.010280 -0.034730 
#    y 0.010280 1.845640 0.014330 
#    z -0.034730 0.014330 1.892390 
# 
# From -- ./inp_files/461785.got.cif
#   From: 2010.05.17/outbox.cif.g08.bks.cpg/sg2_231_cif.got.tgz:461785.got - 2010.06.03 11:33:40.
