data_PCOD9062521
_publ_section_title
;
Structure prediction by ZEFSAII (Michael W. Deem and Ramdas Pophale) SiO2 
 PCOD9062521
Probable space group: P -1
;
_chemical_formula_sum "Si O2"
_cell_formula_units_Z 16
_cell_length_a 5.472414
_cell_length_b 19.029598
_cell_length_c 19.224768
_cell_angle_alpha 157.013956
_cell_angle_beta 67.613666
_cell_angle_gamma 100.834725
_cell_volume 645.407056
_symmetry_space_group_name_H-M "P -1"
_symmetry_group_IT_number 2
_symmetry_cell_setting 'triclinic'
loop_
_space_group_symop_operation_xyz
x,y,z
-x,-y,-z
loop_
_atom_site_type_symbol
_atom_site_label
_atom_site_fract_x
_atom_site_fract_y
_atom_site_fract_z
Si Si1 0.237737 0.424925 0.346331
Si Si2 0.353128 0.928929 0.389920
Si Si3 0.836101 0.286177 0.123378
Si Si4 0.233224 0.007085 0.925030
Si Si5 0.729315 0.541880 0.924016
Si Si6 0.904364 0.889348 0.549193
Si Si7 0.139670 0.309498 0.482983
Si Si8 0.211125 0.704334 0.018731
O O1 0.568485 0.364634 0.278696
O O2 0.000000 0.500000 0.500000
O O3 0.127756 0.607570 0.468557
O O4 0.260602 0.211026 0.124538
O O5 0.500000 0.000000 0.500000
O O6 0.363794 0.023813 0.398665
O O7 0.532416 0.688752 0.140059
O O8 0.000000 0.000000 0.500000
O O9 0.907739 0.473889 0.285689
O O10 0.725156 0.270643 0.045178
O O11 0.076618 0.069143 0.923259
O O12 0.553121 0.818189 0.708663
O O13 0.000000 0.000000 0.000000
O O14 0.513964 0.610931 0.943390
O O15 0.848125 0.304127 0.691760
O O16 0.018337 0.582494 0.929887
O O17 0.854101 0.816523 0.564119
O O18 0.971775 0.076282 0.727776
#
# Coordination Sequence:
#
# PCOD9062521 Si02
#       8
#     2   2   2   2   2   2   2   2
#     4  11  24  42  63  94 142 185 240 312 364 433
#     4  11  26  49  73 109 151 191 241 302 365 448
#     4  11  24  41  67  95 144 180 238 315 362 429
#     4  11  25  41  64  96 136 189 243 295 373 441
#     4  11  25  47  74 109 148 186 243 298 365 439
#     4  11  25  45  77 105 143 198 241 304 373 438
#     4  11  24  44  67 104 137 185 252 297 371 438
#     4  11  25  43  71 109 148 183 243 308 359 433
#
# _framework density 24.790555999999999
#
# number of rings (size 3 to 8) (size 9 to 14) (size 15 to 20)
#    0.000    1.000    1.250    4.500    5.250   12.000 
#    2.250    0.000    0.000    0.000    0.000    0.000 
#    0.000    0.000    0.000    0.000    0.000    0.000 
#
# Total GULP energy -89400.441194 kJ/mol
# GULP energy per Si atom -5587.527575 kJ/mol
# Density = 2.473413 g / cm^3
# Si number density = 24.790556 Si / 1000 Ang^3
#
#
#
# Elastic Constant Matrix: (Units=GPa)
#
#
# Indices 1 2 3 4 5 6 
#
# 1 89.5524 10.9454 20.3019 5.5031 -11.1081 -13.0467
# 2 10.9454 84.5777 12.0091 4.8187 -3.0344 -6.6583
# 3 20.3019 12.0091 162.3210 3.3261 -15.9052 -10.4195
# 4 5.5031 4.8187 3.3261 43.4857 1.1441 -8.9220
# 5 -11.1081 -3.0344 -15.9052 1.1441 35.0996 -9.1325
# 6 -13.0467 -6.6583 -10.4195 -8.9220 -9.1325 36.7745
#
#
#
# Elastic Compliance Matrix: (Units=1/GPa)
#
#
# Indices 1 2 3 4 5 6 
#
# 1 0.012879 -0.000936 -0.000689 -0.000511 0.005090 0.005344
# 2 -0.000936 0.012248 -0.000561 -0.000860 0.000996 0.001765
# 3 -0.000689 -0.000561 0.006781 0.000041 0.003440 0.002439
# 4 -0.000511 -0.000860 0.000041 0.024308 0.000470 0.005689
# 5 0.005090 0.000996 0.003440 0.000470 0.034778 0.011711
# 6 0.005344 0.001765 0.002439 0.005689 0.011711 0.034388
#
#
# Mechanical properties :
#
#
# Convention : Reuss Voigt Hill
#
# Bulk Modulus (GPa) = 36.31698 46.99599 41.65649
# Shear Modulus (GPa) = 35.98894 42.61828 39.30361
#
# Velocity S-wave (km/s) = 3.81428 4.15074 3.98606
# Velocity P-wave (km/s) = 5.83777 6.47842 6.16642
#
# Compressibility (1/GPa) = 0.02753533
#
# Stress axis : x y z
#
# Youngs Moduli (GPa) = 77.64799 81.64668 147.46898
#
# Poissons Ratio (x) = 0.07645 0.10165
# Poissons Ratio (y) = 0.07271 0.08266
# Poissons Ratio (z) = 0.05352 0.04576
#
# Static dielectric constant tensor:
#      x y z
#    x 2.018000 0.017010 0.008820 
#    y 0.017010 2.064710 -0.021580 
#    z 0.008820 -0.021580 1.938480 
# 
# From -- ./inp_files/553430.got.cif
#   From: 2010.05.17/outbox.cif.g08.bks.cpg/sg2_277_cif.got.tgz:553430.got - 2010.06.03 11:33:40.
