data_PCOD9062239
_publ_section_title
;
Structure prediction by ZEFSAII (Michael W. Deem and Ramdas Pophale) SiO2 
 PCOD9062239
Probable space group: P -1
;
_chemical_formula_sum "Si O2"
_cell_formula_units_Z 16
_cell_length_a 8.744541
_cell_length_b 8.673270
_cell_length_c 21.316061
_cell_angle_alpha 122.862767
_cell_angle_beta 140.431676
_cell_angle_gamma 46.697327
_cell_volume 749.109694
_symmetry_space_group_name_H-M "P -1"
_symmetry_group_IT_number 2
_symmetry_cell_setting 'triclinic'
loop_
_space_group_symop_operation_xyz
x,y,z
-x,-y,-z
loop_
_atom_site_type_symbol
_atom_site_label
_atom_site_fract_x
_atom_site_fract_y
_atom_site_fract_z
Si Si1 0.347696 0.759322 0.732072
Si Si2 0.288637 0.929840 0.890404
Si Si3 0.584907 0.504758 0.098383
Si Si4 0.809093 0.594043 0.364373
Si Si5 0.811228 0.684398 0.776191
Si Si6 0.081331 0.062875 0.472468
Si Si7 0.725902 0.133061 0.825736
Si Si8 0.390171 0.336733 0.425224
O O1 0.303998 0.886159 0.811040
O O2 0.295199 0.562049 0.678993
O O3 0.659113 0.664625 0.784136
O O4 0.131566 0.908580 0.643266
O O5 0.362319 0.704397 0.894339
O O6 0.978843 0.096312 0.852996
O O7 0.500000 0.000000 0.000000
O O8 0.352228 0.702401 0.106360
O O9 0.879055 0.497263 0.182823
O O10 0.500000 0.500000 0.000000
O O11 0.901473 0.723541 0.467733
O O12 0.557439 0.771434 0.282684
O O13 0.082572 0.442451 0.377833
O O14 0.626276 0.709774 0.662838
O O15 0.810419 0.904360 0.829578
O O16 0.391150 0.872788 0.515643
O O17 0.000000 0.000000 0.500000
O O18 0.500000 0.500000 0.500000
#
# Coordination Sequence:
#
# PCOD9062239 Si02
#       8
#     2   2   2   2   2   2   2   2
#     4  12  26  46  68 108 145 186 234 297 360 413
#     4  11  28  49  69 104 148 183 231 297 359 415
#     4  11  26  47  76 102 130 186 243 292 352 422
#     4  12  23  45  69 103 144 182 232 294 353 417
#     4  11  24  44  71 103 138 183 238 284 353 423
#     4  12  24  45  70 103 141 189 235 286 349 422
#     4  11  23  48  75  96 142 186 233 290 350 428
#     4  12  23  42  70 100 140 187 236 281 337 432
#
# _framework density 21.358688000000001
#
# number of rings (size 3 to 8) (size 9 to 14) (size 15 to 20)
#    0.000    0.500    6.250    1.125    3.500    3.000 
#    4.500    0.000    0.000    0.000    0.000    0.000 
#    0.000    0.000    0.000    0.000    0.000    0.000 
#
# Total GULP energy -89469.227356 kJ/mol
# GULP energy per Si atom -5591.826710 kJ/mol
# Density = 2.131007 g / cm^3
# Si number density = 21.358688 Si / 1000 Ang^3
#
#
#
# Elastic Constant Matrix: (Units=GPa)
#
#
# Indices 1 2 3 4 5 6 
#
# 1 148.4394 53.5644 42.9181 14.4572 15.1577 -12.7622
# 2 53.5644 77.4929 22.0786 15.2585 -3.9864 -23.6121
# 3 42.9181 22.0786 105.5640 15.2136 -15.1312 -2.0027
# 4 14.4572 15.2585 15.2136 33.8141 -1.7703 -0.9476
# 5 15.1577 -3.9864 -15.1312 -1.7703 41.3271 0.9728
# 6 -12.7622 -23.6121 -2.0027 -0.9476 0.9728 32.2288
#
#
#
# Elastic Compliance Matrix: (Units=1/GPa)
#
#
# Indices 1 2 3 4 5 6 
#
# 1 0.010942 -0.007020 -0.003852 -0.000120 -0.006085 -0.000870
# 2 -0.007020 0.023772 -0.000244 -0.006998 0.004142 0.014290
# 3 -0.003852 -0.000244 0.012412 -0.003557 0.005810 -0.001213
# 4 -0.000120 -0.006998 -0.003557 0.034242 -0.000363 -0.004378
# 5 -0.006085 0.004142 0.005810 -0.000363 0.028938 0.000102
# 6 -0.000870 0.014290 -0.001213 -0.004378 0.000102 0.040946
#
#
# Mechanical properties :
#
#
# Convention : Reuss Voigt Hill
#
# Bulk Modulus (GPa) = 40.17073 63.17985 51.67529
# Shear Modulus (GPa) = 27.50542 35.66968 31.58755
#
# Velocity S-wave (km/s) = 3.59247 4.09104 3.84983
# Velocity P-wave (km/s) = 6.00469 7.20833 6.63386
#
# Compressibility (1/GPa) = 0.02489375
#
# Stress axis : x y z
#
# Youngs Moduli (GPa) = 91.39095 42.06665 80.56452
#
# Poissons Ratio (x) = 0.29532 0.31031
# Poissons Ratio (y) = 0.64158 0.01968
# Poissons Ratio (z) = 0.35201 0.01028
#
# Static dielectric constant tensor:
#      x y z
#    x 1.784300 -0.006340 0.013720 
#    y -0.006340 1.772540 0.006910 
#    z 0.013720 0.006910 1.925020 
# 
# From -- ./inp_files/222976.got.cif
#   From: 2010.05.17/outbox.cif.g08.bks.cpg/sg2_112_cif.got.tgz:222976.got - 2010.06.03 11:33:40.
