data_PCOD9062568
_publ_section_title
;
Structure prediction by ZEFSAII (Michael W. Deem and Ramdas Pophale) SiO2 
 PCOD9062568
Probable space group: P -1
;
_chemical_formula_sum "Si O2"
_cell_formula_units_Z 16
_cell_length_a 11.978477
_cell_length_b 11.679267
_cell_length_c 6.055685
_cell_angle_alpha 84.231843
_cell_angle_beta 75.487132
_cell_angle_gamma 55.891145
_cell_volume 678.221071
_symmetry_space_group_name_H-M "P -1"
_symmetry_group_IT_number 2
_symmetry_cell_setting 'triclinic'
loop_
_space_group_symop_operation_xyz
x,y,z
-x,-y,-z
loop_
_atom_site_type_symbol
_atom_site_label
_atom_site_fract_x
_atom_site_fract_y
_atom_site_fract_z
Si Si1 0.367544 0.669475 0.281959
Si Si2 0.403255 0.404052 0.447652
Si Si3 0.221818 0.374494 0.856663
Si Si4 0.962412 0.431387 0.723884
Si Si5 0.572099 0.950186 0.221352
Si Si6 0.901095 0.085989 0.230821
Si Si7 0.622723 0.168796 0.150828
Si Si8 0.045609 0.808398 0.460089
O O1 0.385695 0.521811 0.269253
O O2 0.475890 0.631759 0.431272
O O3 0.201462 0.772423 0.364688
O O4 0.399839 0.749780 0.076734
O O5 0.266368 0.448579 0.644171
O O6 0.470910 0.259590 0.317676
O O7 0.347183 0.214570 0.811778
O O8 0.088500 0.376550 0.842815
O O9 0.177038 0.455929 0.095744
O O10 0.961374 0.306929 0.638468
O O11 0.000000 0.500000 0.500000
O O12 0.500000 0.000000 0.500000
O O13 0.666715 0.012467 0.155003
O O14 0.500000 0.000000 0.000000
O O15 0.742816 0.172445 0.216667
O O16 0.956906 0.177494 0.277033
O O17 0.930729 0.961384 0.401949
O O18 0.000000 0.000000 0.000000
#
# Coordination Sequence:
#
# PCOD9062568 Si02
#       8
#     2   2   2   2   2   2   2   2
#     4  11  24  41  70 108 138 195 240 310 386 459
#     4  11  24  44  71 102 151 189 249 311 385 469
#     4  11  26  51  73 112 149 206 266 321 402 467
#     4  11  27  48  78 108 148 204 261 328 392 474
#     4  12  28  48  81 115 158 213 265 328 398 479
#     4  11  24  44  71 105 144 194 242 314 389 461
#     4  12  24  45  73 106 152 195 255 315 397 462
#     4  11  24  45  72 104 147 189 252 312 382 466
#
# _framework density 23.591128000000001
#
# number of rings (size 3 to 8) (size 9 to 14) (size 15 to 20)
#    0.000    0.750    3.750    2.625    1.750    9.000 
#    0.000    0.000    0.000    0.000    0.000    0.000 
#    0.000    0.000    0.000    0.000    0.000    0.000 
#
# Total GULP energy -89180.770915 kJ/mol
# GULP energy per Si atom -5573.798182 kJ/mol
# Density = 2.353743 g / cm^3
# Si number density = 23.591128 Si / 1000 Ang^3
#
#
#
# Elastic Constant Matrix: (Units=GPa)
#
#
# Indices 1 2 3 4 5 6 
#
# 1 80.4699 21.3059 31.0263 9.7580 10.5466 6.8243
# 2 21.3059 121.4089 41.2796 7.4795 3.7368 14.3823
# 3 31.0263 41.2796 104.1616 17.4939 -4.2377 14.7896
# 4 9.7580 7.4795 17.4939 48.5317 1.3817 5.4960
# 5 10.5466 3.7368 -4.2377 1.3817 41.7768 0.5528
# 6 6.8243 14.3823 14.7896 5.4960 0.5528 46.5151
#
#
#
# Elastic Compliance Matrix: (Units=1/GPa)
#
#
# Indices 1 2 3 4 5 6 
#
# 1 0.014933 -0.001032 -0.003930 -0.001264 -0.004029 -0.000425
# 2 -0.001032 0.009802 -0.003383 0.000148 -0.000940 -0.001810
# 3 -0.003930 -0.003383 0.013078 -0.003233 0.002757 -0.002186
# 4 -0.001264 0.000148 -0.003233 0.022186 -0.000737 -0.001445
# 5 -0.004029 -0.000940 0.002757 -0.000737 0.025345 -0.000209
# 6 -0.000425 -0.001810 -0.002186 -0.001445 -0.000209 0.022989
#
#
# Mechanical properties :
#
#
# Convention : Reuss Voigt Hill
#
# Bulk Modulus (GPa) = 47.34555 54.80712 51.07633
# Shear Modulus (GPa) = 37.86014 41.52661 39.69338
#
# Velocity S-wave (km/s) = 4.01040 4.20010 4.10635
# Velocity P-wave (km/s) = 6.44649 6.84132 6.64684
#
# Compressibility (1/GPa) = 0.02112131
#
# Stress axis : x y z
#
# Youngs Moduli (GPa) = 66.96588 102.01625 76.46636
#
# Poissons Ratio (x) = 0.10529 0.30054
# Poissons Ratio (y) = 0.06911 0.25872
# Poissons Ratio (z) = 0.26320 0.34517
#
# Static dielectric constant tensor:
#      x y z
#    x 1.898950 -0.020870 0.040060 
#    y -0.020870 1.725860 0.419430 
#    z 0.040060 0.419430 1.663060 
# 
# From -- ./inp_files/70439.got.cif
#   From: 2010.05.17/outbox.cif.g08.bks.cpg/sg2_36_cif.got.tgz:70439.got - 2010.06.03 11:33:40.
