data_PCOD9062033
_publ_section_title
;
Structure prediction by ZEFSAII (Michael W. Deem and Ramdas Pophale) SiO2 
 PCOD9062033
Probable space group: P -1
;
_chemical_formula_sum "Si O2"
_cell_formula_units_Z 13
_cell_length_a 13.383111
_cell_length_b 22.478518
_cell_length_c 6.972550
_cell_angle_alpha 131.010769
_cell_angle_beta 135.993469
_cell_angle_gamma 25.650060
_cell_volume 630.598701
_symmetry_space_group_name_H-M "P -1"
_symmetry_group_IT_number 2
_symmetry_cell_setting 'triclinic'
loop_
_space_group_symop_operation_xyz
x,y,z
-x,-y,-z
loop_
_atom_site_type_symbol
_atom_site_label
_atom_site_fract_x
_atom_site_fract_y
_atom_site_fract_z
Si Si1 0.539175 0.702672 0.247437
Si Si2 0.274496 0.237894 0.117312
Si Si3 0.673426 0.497161 0.266230
Si Si4 0.179386 0.485287 0.123631
Si Si5 0.216486 0.178436 0.276515
Si Si6 0.353594 0.949916 0.118700
Si Si7 0.000000 0.000000 0.000000
O O1 0.682190 0.708096 0.567031
O O2 0.590982 0.600752 0.223214
O O3 0.251021 0.854673 0.149489
O O4 0.654591 0.633952 0.053976
O O5 0.277529 0.161153 0.098764
O O6 0.485031 0.145733 0.048505
O O7 0.005326 0.369366 0.925342
O O8 0.660265 0.542293 0.553196
O O9 0.960914 0.340665 0.304102
O O10 0.500000 0.500000 0.000000
O O11 0.000000 0.500000 0.000000
O O12 0.443515 0.113222 0.575437
O O13 0.196734 0.097433 0.148397
O O14 0.182722 0.961586 0.007066
#
# Coordination Sequence:
#
# PCOD9062033 Si02
#       7
#     2   2   2   2   2   2   1
#     4  12  26  44  70 105 143 186 242 295 364 431
#     4  12  22  44  77 108 136 193 248 299 357 440
#     4  12  26  46  71 108 150 190 238 302 368 431
#     4  12  23  43  75 105 138 184 242 299 357 432
#     4  11  23  47  69 105 148 193 244 291 366 443
#     4  11  25  44  73 102 149 192 241 301 361 439
#     4  12  26  48  64 106 144 186 244 306 360 424
#
# _framework density 20.615328999999999
#
# number of rings (size 3 to 8) (size 9 to 14) (size 15 to 20)
#    0.000    0.308    6.154    3.692    0.000    1.231 
#    2.769    0.000    0.000    0.000    0.000    0.000 
#    0.000    0.000    0.000    0.000    0.000    0.000 
#
# Total GULP energy -72474.058401 kJ/mol
# GULP energy per Si atom -5574.927569 kJ/mol
# Density = 2.056841 g / cm^3
# Si number density = 20.615329 Si / 1000 Ang^3
#
#
#
# Elastic Constant Matrix: (Units=GPa)
#
#
# Indices 1 2 3 4 5 6 
#
# 1 118.0587 30.3453 31.2030 -12.5780 -20.5900 11.3270
# 2 30.3453 60.2970 17.3671 -25.5464 -4.9608 12.5356
# 3 31.2030 17.3671 91.1498 -5.2241 -16.5456 -3.4811
# 4 -12.5780 -25.5464 -5.2241 31.1696 -1.2328 -7.0789
# 5 -20.5900 -4.9608 -16.5456 -1.2328 24.9496 1.8572
# 6 11.3270 12.5356 -3.4811 -7.0789 1.8572 42.5298
#
#
#
# Elastic Compliance Matrix: (Units=1/GPa)
#
#
# Indices 1 2 3 4 5 6 
#
# 1 0.011629 -0.003711 -0.001874 0.001122 0.007844 -0.002312
# 2 -0.003711 0.029359 -0.002874 0.021155 0.002247 -0.004477
# 3 -0.001874 -0.002874 0.013439 -0.000112 0.006629 0.002138
# 4 0.001122 0.021155 -0.000112 0.050498 0.007439 0.001537
# 5 0.007844 0.002247 0.006629 0.007439 0.052006 -0.003242
# 6 -0.002312 -0.004477 0.002138 0.001537 -0.003242 0.026021
#
#
# Mechanical properties :
#
#
# Convention : Reuss Voigt Hill
#
# Bulk Modulus (GPa) = 26.66105 47.48182 37.07144
# Shear Modulus (GPa) = 23.54352 32.43580 27.98966
#
# Velocity S-wave (km/s) = 3.38307 3.97089 3.68871
# Velocity P-wave (km/s) = 5.31234 6.64126 6.01362
#
# Compressibility (1/GPa) = 0.03750789
#
# Stress axis : x y z
#
# Youngs Moduli (GPa) = 85.99198 34.06155 74.41206
#
# Poissons Ratio (x) = 0.12641 0.13945
# Poissons Ratio (y) = 0.31914 0.21386
# Poissons Ratio (z) = 0.16115 0.09789
#
# Static dielectric constant tensor:
#      x y z
#    x 1.766920 0.037450 0.003420 
#    y 0.037450 1.745420 0.030600 
#    z 0.003420 0.030600 1.749840 
# 
# From -- ./inp_files/26559.got.cif
#   From: 2010.05.17/outbox.cif.g08.bks.cpg/sg2_14_cif.got.tgz:26559.got - 2010.06.03 11:33:40.
