data_PCOD9062168
_publ_section_title
;
Structure prediction by ZEFSAII (Michael W. Deem and Ramdas Pophale) SiO2 
 PCOD9062168
Probable space group: P -1
;
_chemical_formula_sum "Si O2"
_cell_formula_units_Z 11
_cell_length_a 9.567490
_cell_length_b 5.643844
_cell_length_c 12.536451
_cell_angle_alpha 125.820534
_cell_angle_beta 49.993640
_cell_angle_gamma 104.871329
_cell_volume 412.572277
_symmetry_space_group_name_H-M "P -1"
_symmetry_group_IT_number 2
_symmetry_cell_setting 'triclinic'
loop_
_space_group_symop_operation_xyz
x,y,z
-x,-y,-z
loop_
_atom_site_type_symbol
_atom_site_label
_atom_site_fract_x
_atom_site_fract_y
_atom_site_fract_z
Si Si1 0.728792 0.681918 0.538060
Si Si2 0.613391 0.682076 0.820761
Si Si3 0.382470 0.925454 0.638360
Si Si4 0.000000 0.000000 0.000000
Si Si5 0.902074 0.445349 0.788957
Si Si6 0.766272 0.457250 0.084668
O O1 0.745617 0.713352 0.664366
O O2 0.531608 0.868644 0.645027
O O3 0.702686 0.353199 0.428965
O O4 0.090289 0.262120 0.597812
O O5 0.728476 0.485267 0.804147
O O6 0.452152 0.527438 0.811568
O O7 0.500000 0.000000 0.000000
O O8 0.500000 0.000000 0.500000
O O9 0.215170 0.191692 0.826593
O O10 0.151436 0.706474 0.893816
O O11 0.924744 0.784255 0.889779
O O12 0.853054 0.328200 0.897188
#
# Coordination Sequence:
#
# PCOD9062168 Si02
#       6
#     2   2   2   1   2   2
#     4  11  26  46  75 114 153 190 246 316 364 443
#     4  12  25  51  74 106 155 199 244 307 378 441
#     4  11  23  47  78 110 150 198 250 298 377 444
#     4  12  26  48  76 110 152 188 260 308 360 440
#     4  12  26  46  76 111 148 193 250 309 372 438
#     4  12  26  49  79 108 148 203 248 306 373 445
#
# _framework density 26.661995999999998
#
# number of rings (size 3 to 8) (size 9 to 14) (size 15 to 20)
#    0.000    0.364    3.636    4.909    2.545    1.455 
#    0.000    1.818    0.000    0.000    0.000    0.000 
#    0.000    0.000    0.000    0.000    0.000    0.000 
#
# Total GULP energy -61554.577789 kJ/mol
# GULP energy per Si atom -5595.870708 kJ/mol
# Density = 2.660131 g / cm^3
# Si number density = 26.661996 Si / 1000 Ang^3
#
#
#
# Elastic Constant Matrix: (Units=GPa)
#
#
# Indices 1 2 3 4 5 6 
#
# 1 152.3267 31.3130 28.3730 0.4589 -3.1137 -29.8709
# 2 31.3130 75.9526 29.3242 0.4252 5.2587 -32.0395
# 3 28.3730 29.3242 139.6667 -23.7149 -9.3301 -11.2372
# 4 0.4589 0.4252 -23.7149 60.2676 5.4312 3.6678
# 5 -3.1137 5.2587 -9.3301 5.4312 40.4662 -9.0309
# 6 -29.8709 -32.0395 -11.2372 3.6678 -9.0309 49.1496
#
#
#
# Elastic Compliance Matrix: (Units=1/GPa)
#
#
# Indices 1 2 3 4 5 6 
#
# 1 0.007845 -0.001205 -0.001054 -0.000854 0.001544 0.004089
# 2 -0.001205 0.019880 -0.003404 -0.002115 -0.000612 0.011494
# 3 -0.001054 -0.003404 0.008710 0.003351 0.001742 -0.000798
# 4 -0.000854 -0.002115 0.003351 0.018299 -0.002118 -0.002886
# 5 0.001544 -0.000612 0.001742 -0.002118 0.026946 0.006047
# 6 0.004089 0.011494 -0.000798 -0.002886 0.006047 0.031468
#
#
# Mechanical properties :
#
#
# Convention : Reuss Voigt Hill
#
# Bulk Modulus (GPa) = 39.82598 60.66294 50.24446
# Shear Modulus (GPa) = 37.63852 48.57241 43.10547
#
# Velocity S-wave (km/s) = 3.76133 4.27287 4.02523
# Velocity P-wave (km/s) = 5.81663 6.86623 6.36311
#
# Compressibility (1/GPa) = 0.02510924
#
# Stress axis : x y z
#
# Youngs Moduli (GPa) = 127.47479 50.30162 114.81291
#
# Poissons Ratio (x) = 0.06060 0.12096
# Poissons Ratio (y) = 0.15356 0.39088
# Poissons Ratio (z) = 0.13430 0.17125
#
# Static dielectric constant tensor:
#      x y z
#    x 1.970130 -0.040960 0.061380 
#    y -0.040960 1.674850 0.401190 
#    z 0.061380 0.401190 1.738920 
# 
# From -- ./inp_files/373252.got.cif
#   From: 2010.05.17/outbox.cif.g08.bks.cpg/sg2_187_cif.got.tgz:373252.got - 2010.06.03 11:33:40.
