data_PCOD9062994
_publ_section_title
;
Structure prediction by ZEFSAII (Michael W. Deem and Ramdas Pophale) SiO2 
 PCOD9062994
Probable space group: P -1
;
_chemical_formula_sum "Si O2"
_cell_formula_units_Z 16
_cell_length_a 30.429557
_cell_length_b 16.096910
_cell_length_c 5.074961
_cell_angle_alpha 96.915739
_cell_angle_beta 76.876095
_cell_angle_gamma 156.568712
_cell_volume 937.528749
_symmetry_space_group_name_H-M "P -1"
_symmetry_group_IT_number 2
_symmetry_cell_setting 'triclinic'
loop_
_space_group_symop_operation_xyz
x,y,z
-x,-y,-z
loop_
_atom_site_type_symbol
_atom_site_label
_atom_site_fract_x
_atom_site_fract_y
_atom_site_fract_z
Si Si1 0.029870 0.655181 0.826152
Si Si2 0.604705 0.260048 0.188169
Si Si3 0.519760 0.922286 0.210940
Si Si4 0.881588 0.360370 0.417543
Si Si5 0.034736 0.278691 0.071363
Si Si6 0.203905 0.484557 0.321530
Si Si7 0.261312 0.738937 0.641354
Si Si8 0.032698 0.111446 0.748732
O O1 0.927250 0.454431 0.685139
O O2 0.048964 0.785733 0.796226
O O3 0.128888 0.756467 0.667491
O O4 0.983350 0.562083 0.150588
O O5 0.583222 0.260625 0.504851
O O6 0.557190 0.083795 0.208156
O O7 0.527367 0.178644 0.051210
O O8 0.727694 0.455720 0.954799
O O9 0.631661 0.068546 0.235330
O O10 0.775557 0.239849 0.448739
O O11 0.090981 0.331160 0.272355
O O12 0.147894 0.513212 0.868010
O O13 0.982067 0.116300 0.897747
O O14 0.280209 0.693410 0.397021
O O15 0.162045 0.360964 0.583949
O O16 0.000000 0.000000 0.500000
O O17 0.000000 0.000000 0.000000
#
# Coordination Sequence:
#
# PCOD9062994 Si02
#       8
#     2   2   2   2   2   2   2   2
#     4   9  17  29  41  63  84 116 147 186 211 251
#     4  10  20  29  40  62  85 120 150 190 210 245
#     4  10  19  28  41  60  92 115 156 184 209 241
#     4   9  17  27  42  60  90 113 152 181 211 245
#     4  10  19  30  48  64  86 118 155 182 218 265
#     4  11  19  31  47  63  86 118 157 182 218 264
#     4  10  18  27  43  67  87 125 154 181 209 249
#     4  11  23  35  47  65  85 111 149 193 235 269
#
# _framework density 17.066143
#
# number of rings (size 3 to 8) (size 9 to 14) (size 15 to 20)
#    0.000    2.000    3.750    2.250    1.750    0.000 
#    0.000    0.000    0.000    0.000    0.000    0.000 
#    0.000    0.000    0.000    6.750    0.000    1.875 
#
# Total GULP energy -89073.026264 kJ/mol
# GULP energy per Si atom -5567.064142 kJ/mol
# Density = 1.702730 g / cm^3
# Si number density = 17.066143 Si / 1000 Ang^3
#
#
#
# Elastic Constant Matrix: (Units=GPa)
#
#
# Indices 1 2 3 4 5 6 
#
# 1 108.8918 39.4849 22.1658 1.4100 -0.3903 1.3786
# 2 39.4849 24.8255 14.2103 5.7704 -2.1100 -1.5069
# 3 22.1658 14.2103 87.7635 1.3467 12.5261 -3.9308
# 4 1.4100 5.7704 1.3467 23.2144 0.8714 1.2903
# 5 -0.3903 -2.1100 12.5261 0.8714 24.0599 10.3021
# 6 1.3786 -1.5069 -3.9308 1.2903 10.3021 21.5639
#
#
#
# Elastic Compliance Matrix: (Units=1/GPa)
#
#
# Indices 1 2 3 4 5 6 
#
# 1 0.023640 -0.040405 0.000583 0.008862 -0.002196 -0.003710
# 2 -0.040405 0.118287 -0.010456 -0.027089 0.014608 0.003586
# 3 0.000583 -0.010456 0.014969 0.001724 -0.012017 0.007598
# 4 0.008862 -0.027089 0.001724 0.049494 -0.003439 -0.003464
# 5 -0.002196 0.014608 -0.012017 -0.003439 0.062283 -0.030579
# 6 -0.003710 0.003586 0.007598 -0.003464 -0.030579 0.063063
#
#
# Mechanical properties :
#
#
# Convention : Reuss Voigt Hill
#
# Bulk Modulus (GPa) = 17.74979 41.46699 29.60839
# Shear Modulus (GPa) = 11.08470 23.47563 17.28017
#
# Velocity S-wave (km/s) = 2.55132 3.71289 3.18550
# Velocity P-wave (km/s) = 4.37060 6.53692 5.56028
#
# Compressibility (1/GPa) = 0.05633869
#
# Stress axis : x y z
#
# Youngs Moduli (GPa) = 42.30051 8.45404 66.80452
#
# Poissons Ratio (x) = 0.34159 -0.03893
# Poissons Ratio (y) = 1.70917 0.69852
# Poissons Ratio (z) = -0.02465 0.08840
#
# Static dielectric constant tensor:
#      x y z
#    x 1.647240 0.017460 -0.010010 
#    y 0.017460 1.613030 0.017590 
#    z -0.010010 0.017590 1.663710 
# 
# From -- ./inp_files/126991.got.cif
#   From: 2010.05.17/outbox.cif.g08.bks.cpg/sg2_64_cif.got.tgz:126991.got - 2010.06.03 11:33:40.
