data_PCOD9062278
_publ_section_title
;
Structure prediction by ZEFSAII (Michael W. Deem and Ramdas Pophale) SiO2 
 PCOD9062278
Probable space group: P -1
;
_chemical_formula_sum "Si O2"
_cell_formula_units_Z 14
_cell_length_a 11.322006
_cell_length_b 5.802559
_cell_length_c 11.477722
_cell_angle_alpha 126.094244
_cell_angle_beta 74.580968
_cell_angle_gamma 111.496668
_cell_volume 565.668306
_symmetry_space_group_name_H-M "P -1"
_symmetry_group_IT_number 2
_symmetry_cell_setting 'triclinic'
loop_
_space_group_symop_operation_xyz
x,y,z
-x,-y,-z
loop_
_atom_site_type_symbol
_atom_site_label
_atom_site_fract_x
_atom_site_fract_y
_atom_site_fract_z
Si Si1 0.623096 0.609329 0.763525
Si Si2 0.816689 0.307631 0.712520
Si Si3 0.142701 0.883011 0.706710
Si Si4 0.000000 0.000000 0.000000
Si Si5 0.333373 0.434423 0.765728
Si Si6 0.000000 0.500000 0.500000
Si Si7 0.736513 0.610419 0.492844
Si Si8 0.175875 0.768838 0.058778
O O1 0.687637 0.411608 0.768355
O O2 0.475591 0.566779 0.811283
O O3 0.642647 0.511687 0.596721
O O4 0.707216 0.945429 0.857268
O O5 0.909990 0.471787 0.637679
O O6 0.869856 0.396104 0.855169
O O7 0.784049 0.960445 0.596114
O O8 0.145363 0.539416 0.570897
O O9 0.047971 0.882805 0.625822
O O10 0.281800 0.085413 0.701288
O O11 0.106053 0.928421 0.859363
O O12 0.069637 0.885402 0.058680
O O13 0.323023 0.482355 0.644979
O O14 0.232403 0.562786 0.899430
#
# Coordination Sequence:
#
# PCOD9062278 Si02
#       8
#     2   2   2   1   2   1   2   2
#     4  11  25  50  77 111 158 198 261 313 376 466
#     4  11  26  48  77 114 151 210 248 317 387 440
#     4  12  28  45  78 111 149 202 253 319 379 457
#     4  12  28  54  72 108 162 188 266 312 372 480
#     4  12  26  48  76 116 153 201 258 316 381 449
#     4  12  24  50  72 108 158 192 266 308 368 468
#     4  11  23  49  73 115 148 201 255 306 393 433
#     4  11  28  50  79 113 151 209 248 317 396 442
#
# _framework density 24.749483999999999
#
# number of rings (size 3 to 8) (size 9 to 14) (size 15 to 20)
#    0.000    0.571    4.286    1.714    6.000    7.429 
#    0.000    0.000    0.000    0.000    0.000    0.000 
#    0.000    0.000    0.000    0.000    0.000    0.000 
#
# Total GULP energy -78077.040897 kJ/mol
# GULP energy per Si atom -5576.931493 kJ/mol
# Density = 2.469315 g / cm^3
# Si number density = 24.749484 Si / 1000 Ang^3
#
#
#
# Elastic Constant Matrix: (Units=GPa)
#
#
# Indices 1 2 3 4 5 6 
#
# 1 105.7358 23.2935 -3.0201 -14.2695 10.5484 2.4928
# 2 23.2935 47.9980 9.0894 -18.8134 11.5983 1.0717
# 3 -3.0201 9.0894 93.3365 -16.6905 16.0491 -10.7868
# 4 -14.2695 -18.8134 -16.6905 49.8316 -8.0916 13.2441
# 5 10.5484 11.5983 16.0491 -8.0916 39.8928 -1.1700
# 6 2.4928 1.0717 -10.7868 13.2441 -1.1700 33.3095
#
#
#
# Elastic Compliance Matrix: (Units=1/GPa)
#
#
# Indices 1 2 3 4 5 6 
#
# 1 0.010913 -0.004332 0.001302 0.001922 -0.001792 -0.001083
# 2 -0.004332 0.028150 -0.000889 0.009587 -0.004879 -0.004853
# 3 0.001302 -0.000889 0.012411 0.002756 -0.004441 0.002699
# 4 0.001922 0.009587 0.002756 0.028173 0.000996 -0.010727
# 5 -0.001792 -0.004879 -0.004441 0.000996 0.028932 -0.000527
# 6 -0.001083 -0.004853 0.002699 -0.010727 -0.000527 0.035379
#
#
# Mechanical properties :
#
#
# Convention : Reuss Voigt Hill
#
# Bulk Modulus (GPa) = 22.91747 33.97732 28.44739
# Shear Modulus (GPa) = 30.05868 39.12062 34.58965
#
# Velocity S-wave (km/s) = 3.48877 3.98007 3.74249
# Velocity P-wave (km/s) = 5.05060 5.90589 5.49491
#
# Compressibility (1/GPa) = 0.04363483
#
# Stress axis : x y z
#
# Youngs Moduli (GPa) = 91.63633 35.52422 80.57495
#
# Poissons Ratio (x) = 0.15388 -0.10488
# Poissons Ratio (y) = 0.39695 0.07163
# Poissons Ratio (z) = -0.11927 0.03158
#
# Static dielectric constant tensor:
#      x y z
#    x 2.054090 0.017730 0.074260 
#    y 0.017730 2.100150 0.156680 
#    z 0.074260 0.156680 2.048740 
# 
# From -- ./inp_files/411369.got.cif
#   From: 2010.05.17/outbox.cif.g08.bks.cpg/sg2_206_cif.got.tgz:411369.got - 2010.06.03 11:33:40.
