data_PCOD9062619
_publ_section_title
;
Structure prediction by ZEFSAII (Michael W. Deem and Ramdas Pophale) SiO2 
 PCOD9062619
Probable space group: P -1
;
_chemical_formula_sum "Si O2"
_cell_formula_units_Z 16
_cell_length_a 23.875798
_cell_length_b 14.430687
_cell_length_c 5.560440
_cell_angle_alpha 88.478832
_cell_angle_beta 91.409200
_cell_angle_gamma 160.627183
_cell_volume 635.278062
_symmetry_space_group_name_H-M "P -1"
_symmetry_group_IT_number 2
_symmetry_cell_setting 'triclinic'
loop_
_space_group_symop_operation_xyz
x,y,z
-x,-y,-z
loop_
_atom_site_type_symbol
_atom_site_label
_atom_site_fract_x
_atom_site_fract_y
_atom_site_fract_z
Si Si1 0.957257 0.716722 0.110311
Si Si2 0.407276 0.452088 0.512253
Si Si3 0.649827 0.241386 0.813816
Si Si4 0.918072 0.278962 0.120876
Si Si5 0.864384 0.865391 0.569713
Si Si6 0.816869 0.359240 0.515315
Si Si7 0.533615 0.724470 0.007899
Si Si8 0.524538 0.224628 0.666660
O O1 0.858026 0.508748 0.331304
O O2 0.818384 0.544750 0.932132
O O3 0.064029 0.969816 0.201262
O O4 0.046723 0.766048 0.998785
O O5 0.500000 0.500000 0.500000
O O6 0.207841 0.155098 0.577052
O O7 0.426093 0.508327 0.224813
O O8 0.500041 0.644285 0.737683
O O9 0.718517 0.251248 0.734080
O O10 0.576072 0.200158 0.624189
O O11 0.500000 0.000000 0.000000
O O12 0.010044 0.413235 0.381402
O O13 0.721499 0.990234 0.086858
O O14 0.000000 0.500000 0.000000
O O15 0.686171 0.531867 0.563656
O O16 0.000000 0.000000 0.500000
O O17 0.669590 0.064013 0.415651
O O18 0.488564 0.761622 0.057950
#
# Coordination Sequence:
#
# PCOD9062619 Si02
#       8
#     2   2   2   2   2   2   2   2
#     4  11  25  47  71 109 145 192 251 323 384 458
#     4  11  26  51  76 107 153 207 258 316 392 469
#     4  11  24  41  74 102 143 192 255 313 381 463
#     4  11  27  44  76 109 145 197 261 321 385 460
#     4  11  27  46  75 109 154 204 255 324 390 470
#     4  11  25  46  73 105 147 194 254 316 392 456
#     4  11  27  46  76 108 147 200 253 321 384 466
#     4  11  25  46  71 109 148 202 248 315 389 472
#
# _framework density 25.18582
#
# number of rings (size 3 to 8) (size 9 to 14) (size 15 to 20)
#    0.000    1.000    1.250    3.000   12.250    2.500 
#    6.750    0.000    0.000    0.000    0.000    0.000 
#    0.000    0.000    0.000    0.000    0.000    0.000 
#
# Total GULP energy -89089.211537 kJ/mol
# GULP energy per Si atom -5568.075721 kJ/mol
# Density = 2.512850 g / cm^3
# Si number density = 25.185820 Si / 1000 Ang^3
#
#
#
# Elastic Constant Matrix: (Units=GPa)
#
#
# Indices 1 2 3 4 5 6 
#
# 1 120.1016 32.7631 29.8263 11.3428 -28.6265 25.9523
# 2 32.7631 129.0059 44.4326 33.9347 -14.2485 26.3713
# 3 29.8263 44.4326 75.4236 23.4258 -20.4857 -5.3423
# 4 11.3428 33.9347 23.4258 47.8371 -5.0811 6.0198
# 5 -28.6265 -14.2485 -20.4857 -5.0811 49.7791 0.5201
# 6 25.9523 26.3713 -5.3423 6.0198 0.5201 57.8624
#
#
#
# Elastic Compliance Matrix: (Units=1/GPa)
#
#
# Indices 1 2 3 4 5 6 
#
# 1 0.011701 -0.000062 -0.003653 0.000331 0.005300 -0.005639
# 2 -0.000062 0.012358 -0.005909 -0.005085 0.000609 -0.005626
# 3 -0.003653 -0.005909 0.021750 -0.005989 0.004475 0.006922
# 4 0.000331 -0.005085 -0.005989 0.027423 -0.000918 -0.001229
# 5 0.005300 0.000609 0.004475 -0.000918 0.025084 -0.002372
# 6 -0.005639 -0.005626 0.006922 -0.001229 -0.002372 0.023164
#
#
# Mechanical properties :
#
#
# Convention : Reuss Voigt Hill
#
# Bulk Modulus (GPa) = 37.65098 59.84170 48.74634
# Shear Modulus (GPa) = 33.42650 45.59630 39.51140
#
# Velocity S-wave (km/s) = 3.64702 4.25949 3.96510
# Velocity P-wave (km/s) = 5.71980 6.92840 6.35290
#
# Compressibility (1/GPa) = 0.02655973
#
# Stress axis : x y z
#
# Youngs Moduli (GPa) = 85.46148 80.92182 45.97718
#
# Poissons Ratio (x) = 0.00506 0.16796
# Poissons Ratio (y) = 0.00534 0.27167
# Poissons Ratio (z) = 0.31220 0.47816
#
# Static dielectric constant tensor:
#      x y z
#    x 2.843070 -0.338820 0.087750 
#    y -0.338820 2.209820 -0.068700 
#    z 0.087750 -0.068700 2.063010 
# 
# From -- ./inp_files/124311.got.cif
#   From: 2010.05.17/outbox.cif.g08.bks.cpg/sg2_63_cif.got.tgz:124311.got - 2010.06.03 11:33:40.
