data_PCOD9062020
_publ_section_title
;
Structure prediction by ZEFSAII (Michael W. Deem and Ramdas Pophale) SiO2 
 PCOD9062020
Probable space group: P -1
;
_chemical_formula_sum "Si O2"
_cell_formula_units_Z 10
_cell_length_a 17.304662
_cell_length_b 14.789199
_cell_length_c 6.696364
_cell_angle_alpha 132.060161
_cell_angle_beta 122.704454
_cell_angle_gamma 19.417962
_cell_volume 392.866479
_symmetry_space_group_name_H-M "P -1"
_symmetry_group_IT_number 2
_symmetry_cell_setting 'triclinic'
loop_
_space_group_symop_operation_xyz
x,y,z
-x,-y,-z
loop_
_atom_site_type_symbol
_atom_site_label
_atom_site_fract_x
_atom_site_fract_y
_atom_site_fract_z
Si Si1 0.462452 0.170156 0.827005
Si Si2 0.713163 0.324021 0.160633
Si Si3 0.666882 0.018681 0.248947
Si Si4 0.124605 0.245448 0.440101
Si Si5 0.079731 0.106309 0.889388
O O1 0.596961 0.102379 0.775777
O O2 0.198228 0.554580 0.080833
O O3 0.500000 0.000000 0.500000
O O4 0.599875 0.990938 0.966997
O O5 0.766134 0.196420 0.262523
O O6 0.500000 0.500000 0.000000
O O7 0.570235 0.625486 0.452618
O O8 0.000000 0.000000 0.000000
O O9 0.850587 0.759813 0.303318
O O10 0.782114 0.979236 0.204745
O O11 0.015648 0.253216 0.229882
O O12 0.000000 0.500000 0.500000
#
# Coordination Sequence:
#
# PCOD9062020 Si02
#       5
#     2   2   2   2   2
#     4  11  25  45  69 108 151 200 258 315 381 468
#     4  12  27  50  83 113 159 204 260 325 391 466
#     4  11  27  45  77 109 150 206 253 320 397 450
#     4  11  23  47  68 106 151 196 256 318 380 467
#     4  11  25  46  75 107 154 194 263 314 385 463
#
# _framework density 25.453941
#
# number of rings (size 3 to 8) (size 9 to 14) (size 15 to 20)
#    0.000    0.800    4.000    1.800    5.600    6.400 
#    0.000    0.000    0.000    0.000    0.000    0.000 
#    0.000    0.000    0.000    0.000    0.000    0.000 
#
# Total GULP energy -55724.246677 kJ/mol
# GULP energy per Si atom -5572.424668 kJ/mol
# Density = 2.539601 g / cm^3
# Si number density = 25.453941 Si / 1000 Ang^3
#
#
#
# Elastic Constant Matrix: (Units=GPa)
#
#
# Indices 1 2 3 4 5 6 
#
# 1 73.9048 45.0881 21.4947 -8.9705 -25.3133 11.5291
# 2 45.0881 173.2512 67.2290 -17.7624 -18.7672 24.8869
# 3 21.4947 67.2290 139.4258 -21.7552 -3.7826 5.8043
# 4 -8.9705 -17.7624 -21.7552 63.3068 -3.5195 -14.4371
# 5 -25.3133 -18.7672 -3.7826 -3.5195 45.8072 1.5210
# 6 11.5291 24.8869 5.8043 -14.4371 1.5210 47.8191
#
#
#
# Elastic Compliance Matrix: (Units=1/GPa)
#
#
# Indices 1 2 3 4 5 6 
#
# 1 0.019668 -0.003157 -0.000896 0.001483 0.009710 -0.002851
# 2 -0.003157 0.008598 -0.003460 0.000110 0.001610 -0.003311
# 3 -0.000896 -0.003460 0.009258 0.002403 -0.001019 0.001651
# 4 0.001483 0.000110 0.002403 0.018056 0.002295 0.004672
# 5 0.009710 0.001610 -0.001019 0.002295 0.028056 -0.003255
# 6 -0.002851 -0.003311 0.001651 0.004672 -0.003255 0.024636
#
#
# Mechanical properties :
#
#
# Convention : Reuss Voigt Hill
#
# Bulk Modulus (GPa) = 44.45262 72.68949 58.57106
# Shear Modulus (GPa) = 38.22654 48.23794 43.23224
#
# Velocity S-wave (km/s) = 3.87950 4.35801 4.12570
# Velocity P-wave (km/s) = 6.12937 7.34454 6.76430
#
# Compressibility (1/GPa) = 0.02249586
#
# Stress axis : x y z
#
# Youngs Moduli (GPa) = 50.84298 116.30867 108.01999
#
# Poissons Ratio (x) = 0.36724 0.09681
# Poissons Ratio (y) = 0.16054 0.37377
# Poissons Ratio (z) = 0.04557 0.40245
#
# Static dielectric constant tensor:
#      x y z
#    x 2.126290 -0.106570 0.124920 
#    y -0.106570 2.407970 -0.040850 
#    z 0.124920 -0.040850 2.096700 
# 
# From -- ./inp_files/88229.got.cif
#   From: 2010.05.17/outbox.cif.g08.bks.cpg/sg2_45_cif.got.tgz:88229.got - 2010.06.03 11:33:40.
