data_PCOD9062111
_publ_section_title
;
Structure prediction by ZEFSAII (Michael W. Deem and Ramdas Pophale) SiO2 
 PCOD9062111
Probable space group: P -1
;
_chemical_formula_sum "Si O2"
_cell_formula_units_Z 14
_cell_length_a 12.449026
_cell_length_b 18.303231
_cell_length_c 10.904035
_cell_angle_alpha 154.680071
_cell_angle_beta 46.119002
_cell_angle_gamma 147.697472
_cell_volume 539.835441
_symmetry_space_group_name_H-M "P -1"
_symmetry_group_IT_number 2
_symmetry_cell_setting 'triclinic'
loop_
_space_group_symop_operation_xyz
x,y,z
-x,-y,-z
loop_
_atom_site_type_symbol
_atom_site_label
_atom_site_fract_x
_atom_site_fract_y
_atom_site_fract_z
Si Si1 0.199940 0.263380 0.686410
Si Si2 0.482072 0.321483 0.344238
Si Si3 0.685087 0.171426 0.157838
Si Si4 0.181664 0.213956 0.093794
Si Si5 0.822890 0.390235 0.876623
Si Si6 0.353834 0.029307 0.774166
Si Si7 0.856533 0.613452 0.853112
O O1 0.343357 0.266956 0.490637
O O2 0.143910 0.386108 0.841856
O O3 0.287686 0.421583 0.980809
O O4 0.000000 0.000000 0.500000
O O5 0.500000 0.500000 0.500000
O O6 0.535467 0.115139 0.074556
O O7 0.719480 0.544489 0.548100
O O8 0.735578 0.357090 0.496810
O O9 0.910153 0.263653 0.099029
O O10 0.660956 0.915759 0.992526
O O11 0.117397 0.223755 0.025955
O O12 0.330576 0.167714 0.906954
O O13 0.000000 0.000000 0.000000
O O14 0.596429 0.171468 0.786074
O O15 0.807153 0.251506 0.561182
O O16 0.000000 0.500000 0.000000
#
# Coordination Sequence:
#
# PCOD9062111 Si02
#       7
#     2   2   2   2   2   2   2
#     4  12  27  49  77 113 159 206 260 324 392 470
#     4  12  25  50  77 111 154 205 265 323 397 466
#     4  11  23  47  73 109 151 200 252 323 392 463
#     4  12  27  46  82 112 150 209 265 332 388 475
#     4  11  28  52  80 118 158 207 261 328 395 473
#     4  11  27  51  80 112 158 202 266 325 398 466
#     4  11  26  47  77 115 157 200 268 318 400 470
#
# _framework density 25.933827999999998
#
# number of rings (size 3 to 8) (size 9 to 14) (size 15 to 20)
#    0.000    0.571    4.286    2.143    4.000    2.857 
#    0.000    0.000    0.000    0.000    0.000    0.000 
#    0.000    0.000    0.000    0.000    0.000    0.000 
#
# Total GULP energy -78099.105970 kJ/mol
# GULP energy per Si atom -5578.507569 kJ/mol
# Density = 2.587480 g / cm^3
# Si number density = 25.933828 Si / 1000 Ang^3
#
#
#
# Elastic Constant Matrix: (Units=GPa)
#
#
# Indices 1 2 3 4 5 6 
#
# 1 178.6090 58.5415 40.5018 -20.6724 17.5220 16.0846
# 2 58.5415 146.5002 47.8221 -13.5976 19.5121 -4.1624
# 3 40.5018 47.8221 154.3398 -1.1041 27.5905 19.9782
# 4 -20.6724 -13.5976 -1.1041 50.7650 -0.3873 12.9896
# 5 17.5220 19.5121 27.5905 -0.3873 28.2211 6.2859
# 6 16.0846 -4.1624 19.9782 12.9896 6.2859 30.1492
#
#
#
# Elastic Compliance Matrix: (Units=1/GPa)
#
#
# Indices 1 2 3 4 5 6 
#
# 1 0.007575 -0.002584 -0.000174 0.003818 -0.001441 -0.005627
# 2 -0.002584 0.009196 -0.002120 0.000112 -0.003745 0.004786
# 3 -0.000174 -0.002120 0.008936 0.000851 -0.005983 -0.005240
# 4 0.003818 0.000112 0.000851 0.024685 0.000004 -0.013221
# 5 -0.001441 -0.003745 -0.005983 0.000004 0.045964 -0.005369
# 6 -0.005627 0.004786 -0.005240 -0.013221 -0.005369 0.047119
#
#
# Mechanical properties :
#
#
# Convention : Reuss Voigt Hill
#
# Bulk Modulus (GPa) = 62.69494 85.90887 74.30190
# Shear Modulus (GPa) = 31.53615 43.99928 37.76771
#
# Velocity S-wave (km/s) = 3.49094 4.12345 3.82030
# Velocity P-wave (km/s) = 6.36210 7.47452 6.94063
#
# Compressibility (1/GPa) = 0.01595025
#
# Stress axis : x y z
#
# Youngs Moduli (GPa) = 132.01041 108.74570 111.90830
#
# Poissons Ratio (x) = 0.28098 0.01947
# Poissons Ratio (y) = 0.34110 0.23730
# Poissons Ratio (z) = 0.02296 0.23059
#
# Static dielectric constant tensor:
#      x y z
#    x 2.164290 -0.095240 -0.117350 
#    y -0.095240 2.196680 0.182610 
#    z -0.117350 0.182610 2.295710 
# 
# From -- ./inp_files/433445.got.cif
#   From: 2010.05.17/outbox.cif.g08.bks.cpg/sg2_217_cif.got.tgz:433445.got - 2010.06.03 11:33:40.
