data_PCOD9062802
_publ_section_title
;
Structure prediction by ZEFSAII (Michael W. Deem and Ramdas Pophale) SiO2 
 PCOD9062802
Probable space group: P -1
;
_chemical_formula_sum "Si O2"
_cell_formula_units_Z 16
_cell_length_a 9.507277
_cell_length_b 12.494348
_cell_length_c 8.485108
_cell_angle_alpha 132.656219
_cell_angle_beta 93.750945
_cell_angle_gamma 81.164664
_cell_volume 731.426096
_symmetry_space_group_name_H-M "P -1"
_symmetry_group_IT_number 2
_symmetry_cell_setting 'triclinic'
loop_
_space_group_symop_operation_xyz
x,y,z
-x,-y,-z
loop_
_atom_site_type_symbol
_atom_site_label
_atom_site_fract_x
_atom_site_fract_y
_atom_site_fract_z
Si Si1 0.122175 0.878675 0.958099
Si Si2 0.388940 0.309369 0.744765
Si Si3 0.313773 0.605240 0.209165
Si Si4 0.333386 0.046473 0.004817
Si Si5 0.779840 0.908102 0.312203
Si Si6 0.194780 0.338538 0.466855
Si Si7 0.122511 0.600625 0.489229
Si Si8 0.897409 0.177378 0.744188
O O1 0.102129 0.716485 0.746265
O O2 0.122723 0.891874 0.156828
O O3 0.265487 0.906009 0.913759
O O4 0.000000 0.000000 0.000000
O O5 0.554815 0.303531 0.709149
O O6 0.329238 0.161878 0.651303
O O7 0.304598 0.366737 0.638044
O O8 0.362228 0.433422 0.003135
O O9 0.235968 0.626287 0.391748
O O10 0.197435 0.667487 0.133010
O O11 0.256970 0.177888 0.242432
O O12 0.286629 0.086281 0.861745
O O13 0.500000 0.000000 0.000000
O O14 0.935849 0.809982 0.243437
O O15 0.830681 0.066005 0.510950
O O16 0.174192 0.445594 0.420977
O O17 0.036992 0.367838 0.561759
#
# Coordination Sequence:
#
# PCOD9062802 Si02
#       8
#     2   2   2   2   2   2   2   2
#     4  12  23  44  68 102 139 174 227 281 334 404
#     4  11  26  44  65  99 142 175 224 278 346 412
#     4  11  26  44  66  99 137 181 222 280 343 406
#     4  12  27  43  68 104 141 180 222 277 346 409
#     4  11  24  44  70 100 134 178 226 278 335 403
#     4  11  24  45  70 101 133 180 232 282 335 405
#     4  11  24  44  73  97 133 180 234 282 333 399
#     4  11  24  42  72 100 133 176 228 279 334 396
#
# _framework density 21.875074999999999
#
# number of rings (size 3 to 8) (size 9 to 14) (size 15 to 20)
#    0.000    0.750    2.500    3.750    7.000    5.000 
#    0.000    0.000    0.000    0.000    0.000    0.000 
#    0.000    0.000    0.000    0.000    0.000    0.000 
#
# Total GULP energy -89372.760586 kJ/mol
# GULP energy per Si atom -5585.797537 kJ/mol
# Density = 2.182529 g / cm^3
# Si number density = 21.875075 Si / 1000 Ang^3
#
#
#
# Elastic Constant Matrix: (Units=GPa)
#
#
# Indices 1 2 3 4 5 6 
#
# 1 150.0568 35.0134 22.8119 -14.4446 3.2384 3.5158
# 2 35.0134 52.2854 15.6697 -7.1268 -4.3251 10.5029
# 3 22.8119 15.6697 63.1829 -16.3821 1.9027 -9.0022
# 4 -14.4446 -7.1268 -16.3821 31.9608 1.2004 -0.7651
# 5 3.2384 -4.3251 1.9027 1.2004 27.9931 -2.7098
# 6 3.5158 10.5029 -9.0022 -0.7651 -2.7098 32.5449
#
#
#
# Elastic Compliance Matrix: (Units=1/GPa)
#
#
# Indices 1 2 3 4 5 6 
#
# 1 0.008257 -0.005147 -0.001048 0.002121 -0.001733 0.000385
# 2 -0.005147 0.026685 -0.006215 0.000054 0.004226 -0.009422
# 3 -0.001048 -0.006215 0.021387 0.009368 -0.001911 0.008096
# 4 0.002121 0.000054 0.009368 0.037216 -0.002176 0.003039
# 5 -0.001733 0.004226 -0.001911 -0.002176 0.036927 0.001318
# 6 0.000385 -0.009422 0.008096 0.003039 0.001318 0.036146
#
#
# Mechanical properties :
#
#
# Convention : Reuss Voigt Hill
#
# Bulk Modulus (GPa) = 31.73717 45.83503 38.78610
# Shear Modulus (GPa) = 24.75976 31.30175 28.03076
#
# Velocity S-wave (km/s) = 3.36798 3.78687 3.58355
# Velocity P-wave (km/s) = 5.44649 6.33396 5.90692
#
# Compressibility (1/GPa) = 0.03150879
#
# Stress axis : x y z
#
# Youngs Moduli (GPa) = 121.11035 37.47455 46.75770
#
# Poissons Ratio (x) = 0.19288 0.04899
# Poissons Ratio (y) = 0.62334 0.29062
# Poissons Ratio (z) = 0.12688 0.23292
#
# Static dielectric constant tensor:
#      x y z
#    x 1.783550 0.002370 -0.080970 
#    y 0.002370 1.776450 0.052900 
#    z -0.080970 0.052900 1.637440 
# 
# From -- ./inp_files/184136.got.cif
#   From: 2010.05.17/outbox.cif.g08.bks.cpg/sg2_93_cif.got.tgz:184136.got - 2010.06.03 11:33:40.
