data_PCOD9062243
_publ_section_title
;
Structure prediction by ZEFSAII (Michael W. Deem and Ramdas Pophale) SiO2 
 PCOD9062243
Probable space group: P -1
;
_chemical_formula_sum "Si O2"
_cell_formula_units_Z 12
_cell_length_a 5.400633
_cell_length_b 11.385132
_cell_length_c 11.640022
_cell_angle_alpha 130.201825
_cell_angle_beta 56.764104
_cell_angle_gamma 100.169590
_cell_volume 439.277267
_symmetry_space_group_name_H-M "P -1"
_symmetry_group_IT_number 2
_symmetry_cell_setting 'triclinic'
loop_
_space_group_symop_operation_xyz
x,y,z
-x,-y,-z
loop_
_atom_site_type_symbol
_atom_site_label
_atom_site_fract_x
_atom_site_fract_y
_atom_site_fract_z
Si Si1 0.748673 0.351736 0.683581
Si Si2 0.820301 0.456902 0.326446
Si Si3 0.731519 0.308916 0.017931
Si Si4 0.387234 0.131485 0.707489
Si Si5 0.083394 0.220531 0.292396
Si Si6 0.623049 0.967313 0.098835
O O1 0.487690 0.521402 0.860993
O O2 0.640509 0.229211 0.713401
O O3 0.062480 0.397771 0.658846
O O4 0.816476 0.271844 0.488024
O O5 0.500000 0.500000 0.500000
O O6 0.810626 0.342087 0.150779
O O7 0.054989 0.375254 0.317621
O O8 0.577342 0.163186 0.954340
O O9 0.061424 0.255473 0.838824
O O10 0.333764 0.049706 0.787664
O O11 0.500000 0.000000 0.500000
O O12 0.395006 0.138561 0.230681
O O13 0.104991 0.092382 0.102590
#
# Coordination Sequence:
#
# PCOD9062243 Si02
#       6
#     2   2   2   2   2   2
#     4  12  26  47  76 114 152 196 258 320 370 450
#     4  12  24  46  81 116 152 196 256 311 386 451
#     4  12  24  46  76 112 151 202 250 311 380 451
#     4  12  29  52  75 111 152 208 256 309 387 455
#     4  11  23  48  76 110 150 202 243 323 375 438
#     4  11  26  49  75 109 160 193 257 317 374 457
#
# _framework density 27.317599000000001
#
# number of rings (size 3 to 8) (size 9 to 14) (size 15 to 20)
#    0.000    0.333    5.000    3.000    0.000    8.667 
#    9.000    0.000    0.000    0.000    0.000    0.000 
#    0.000    0.000    0.000    0.000    0.000    0.000 
#
# Total GULP energy -67245.641954 kJ/mol
# GULP energy per Si atom -5603.803496 kJ/mol
# Density = 2.725542 g / cm^3
# Si number density = 27.317599 Si / 1000 Ang^3
#
#
#
# Elastic Constant Matrix: (Units=GPa)
#
#
# Indices 1 2 3 4 5 6 
#
# 1 66.4378 41.6981 55.5389 -2.0357 10.9041 7.7982
# 2 41.6981 154.0556 35.9793 -27.0982 -1.7597 19.0836
# 3 55.5389 35.9793 220.3206 -6.7354 1.5699 7.6224
# 4 -2.0357 -27.0982 -6.7354 45.1865 2.7101 -2.3951
# 5 10.9041 -1.7597 1.5699 2.7101 46.8816 -2.1259
# 6 7.7982 19.0836 7.6224 -2.3951 -2.1259 52.2930
#
#
#
# Elastic Compliance Matrix: (Units=1/GPa)
#
#
# Indices 1 2 3 4 5 6 
#
# 1 0.023804 -0.005680 -0.005083 -0.002821 -0.005466 -0.001087
# 2 -0.005680 0.009177 0.000157 0.005076 0.001265 -0.002241
# 3 -0.005083 0.000157 0.005811 0.000670 0.000951 -0.000077
# 4 -0.002821 0.005076 0.000670 0.025165 -0.000649 -0.000403
# 5 -0.005466 0.001265 0.000951 -0.000649 0.022705 0.001108
# 6 -0.001087 -0.002241 -0.000077 -0.000403 0.001108 0.020141
#
#
# Mechanical properties :
#
#
# Convention : Reuss Voigt Hill
#
# Bulk Modulus (GPa) = 56.88259 78.58294 67.73277
# Shear Modulus (GPa) = 37.34883 49.37875 43.36379
#
# Velocity S-wave (km/s) = 3.70159 4.25618 3.98853
# Velocity P-wave (km/s) = 6.25595 7.27889 6.78672
#
# Compressibility (1/GPa) = 0.01758007
#
# Stress axis : x y z
#
# Youngs Moduli (GPa) = 42.01057 108.97023 172.09277
#
# Poissons Ratio (x) = 0.61893 0.87468
# Poissons Ratio (y) = 0.23861 -0.02700
# Poissons Ratio (z) = 0.21352 -0.01709
#
# Static dielectric constant tensor:
#      x y z
#    x 2.223970 0.028020 -0.015750 
#    y 0.028020 2.077420 0.010280 
#    z -0.015750 0.010280 2.107050 
# 
# From -- ./inp_files/40220.got.cif
#   From: 2010.05.17/outbox.cif.g08.bks.cpg/sg2_21_cif.got.tgz:40220.got - 2010.06.03 11:33:40.
