data_PCOD9062369
_publ_section_title
;
Structure prediction by ZEFSAII (Michael W. Deem and Ramdas Pophale) SiO2 
 PCOD9062369
Probable space group: P -1
;
_chemical_formula_sum "Si O2"
_cell_formula_units_Z 16
_cell_length_a 11.057524
_cell_length_b 14.995750
_cell_length_c 9.407117
_cell_angle_alpha 125.092028
_cell_angle_beta 125.360056
_cell_angle_gamma 98.885813
_cell_volume 711.317172
_symmetry_space_group_name_H-M "P -1"
_symmetry_group_IT_number 2
_symmetry_cell_setting 'triclinic'
loop_
_space_group_symop_operation_xyz
x,y,z
-x,-y,-z
loop_
_atom_site_type_symbol
_atom_site_label
_atom_site_fract_x
_atom_site_fract_y
_atom_site_fract_z
Si Si1 0.006614 0.759930 0.466532
Si Si2 0.570985 0.881836 0.886725
Si Si3 0.946876 0.344278 0.321444
Si Si4 0.819961 0.136750 0.821473
Si Si5 0.609483 0.673699 0.211754
Si Si6 0.529264 0.839298 0.150541
Si Si7 0.750364 0.898070 0.753355
Si Si8 0.126648 0.682043 0.236371
O O1 0.970886 0.654347 0.470571
O O2 0.985466 0.696200 0.238888
O O3 0.846641 0.774211 0.400358
O O4 0.253481 0.928286 0.814532
O O5 0.680875 0.855997 0.830293
O O6 0.346477 0.789073 0.574083
O O7 0.541932 0.836384 0.988032
O O8 0.000000 0.500000 0.500000
O O9 0.012704 0.293087 0.196250
O O10 0.682192 0.202347 0.993033
O O11 0.807824 0.238558 0.802198
O O12 0.740390 0.008419 0.523154
O O13 0.722064 0.002825 0.758088
O O14 0.497600 0.700912 0.059571
O O15 0.620545 0.741641 0.430346
O O16 0.500000 0.500000 0.000000
O O17 0.000000 0.000000 0.000000
O O18 0.000000 0.500000 0.000000
#
# Coordination Sequence:
#
# PCOD9062369 Si02
#       8
#     2   2   2   2   2   2   2   2
#     4  12  23  45  70  94 142 183 219 284 341 405
#     4  12  24  45  68  95 138 173 235 272 345 409
#     4  12  23  40  66 100 135 178 230 285 341 399
#     4  11  24  39  68  96 131 177 234 273 337 412
#     4  11  26  45  68 102 138 178 231 282 342 408
#     4  11  25  43  67  99 137 184 226 278 347 411
#     4  11  24  45  69  97 132 184 228 282 338 415
#     4  12  27  43  67 105 138 174 227 296 350 398
#
# _framework density 22.493483999999999
#
# number of rings (size 3 to 8) (size 9 to 14) (size 15 to 20)
#    0.000    0.500    5.000    3.000    5.250    1.500 
#    0.000    0.625    0.000    0.000    0.000    0.000 
#    0.000    0.000    0.000    0.000    0.000    0.000 
#
# Total GULP energy -89068.477536 kJ/mol
# GULP energy per Si atom -5566.779846 kJ/mol
# Density = 2.244229 g / cm^3
# Si number density = 22.493484 Si / 1000 Ang^3
#
#
#
# Elastic Constant Matrix: (Units=GPa)
#
#
# Indices 1 2 3 4 5 6 
#
# 1 75.9621 4.8850 20.5213 1.4358 -4.1194 -2.0618
# 2 4.8850 102.4603 26.0240 4.0944 -3.1422 -8.5300
# 3 20.5213 26.0240 73.3286 19.2688 -18.9299 0.2267
# 4 1.4358 4.0944 19.2688 37.0235 -7.5946 -18.2172
# 5 -4.1194 -3.1422 -18.9299 -7.5946 38.7586 -2.2278
# 6 -2.0618 -8.5300 0.2267 -18.2172 -2.2278 34.9306
#
#
#
# Elastic Compliance Matrix: (Units=1/GPa)
#
#
# Indices 1 2 3 4 5 6 
#
# 1 0.014555 0.000751 -0.005305 0.003516 -0.000128 0.002902
# 2 0.000751 0.011318 -0.005384 0.003728 -0.000629 0.004747
# 3 -0.005305 -0.005384 0.022386 -0.013611 0.006781 -0.008439
# 4 0.003516 0.003728 -0.013611 0.047462 0.004838 0.026268
# 5 -0.000128 -0.000629 0.006781 0.004838 0.030240 0.004247
# 6 0.002902 0.004747 -0.008439 0.026268 0.004247 0.043984
#
#
# Mechanical properties :
#
#
# Convention : Reuss Voigt Hill
#
# Bulk Modulus (GPa) = 35.23269 39.40128 37.31698
# Shear Modulus (GPa) = 25.09002 35.49726 30.29364
#
# Velocity S-wave (km/s) = 3.34344 3.97686 3.67382
# Velocity P-wave (km/s) = 5.53193 6.21627 5.88406
#
# Compressibility (1/GPa) = 0.02838273
#
# Stress axis : x y z
#
# Youngs Moduli (GPa) = 68.70568 88.35142 44.67124
#
# Poissons Ratio (x) = -0.06634 0.23700
# Poissons Ratio (y) = -0.05159 0.24049
# Poissons Ratio (z) = 0.36451 0.47565
#
# Static dielectric constant tensor:
#      x y z
#    x 2.074220 0.015730 -0.002370 
#    y 0.015730 1.837780 0.030320 
#    z -0.002370 0.030320 1.874470 
# 
# From -- ./inp_files/274135.got.cif
#   From: 2010.05.17/outbox.cif.g08.bks.cpg/sg2_138_cif.got.tgz:274135.got - 2010.06.03 11:33:40.
