data_PCOD9062782
_publ_section_title
;
Structure prediction by ZEFSAII (Michael W. Deem and Ramdas Pophale) SiO2 
 PCOD9062782
Probable space group: P -1
;
_chemical_formula_sum "Si O2"
_cell_formula_units_Z 16
_cell_length_a 6.069630
_cell_length_b 21.302399
_cell_length_c 10.149898
_cell_angle_alpha 145.932088
_cell_angle_beta 64.136300
_cell_angle_gamma 125.994688
_cell_volume 591.068966
_symmetry_space_group_name_H-M "P -1"
_symmetry_group_IT_number 2
_symmetry_cell_setting 'triclinic'
loop_
_space_group_symop_operation_xyz
x,y,z
-x,-y,-z
loop_
_atom_site_type_symbol
_atom_site_label
_atom_site_fract_x
_atom_site_fract_y
_atom_site_fract_z
Si Si1 0.232486 0.273113 0.238674
Si Si2 0.895686 0.864629 0.526383
Si Si3 0.157668 0.911029 0.179828
Si Si4 0.720880 0.393640 0.947721
Si Si5 0.287015 0.043611 0.928831
Si Si6 0.675127 0.271654 0.478814
Si Si7 0.657620 0.481031 0.654526
Si Si8 0.903645 0.285063 0.946656
O O1 0.483781 0.406624 0.442702
O O2 0.954496 0.260278 0.361104
O O3 0.344965 0.179946 0.101352
O O4 0.107525 0.206543 0.016153
O O5 0.640340 0.831064 0.634376
O O6 0.893223 0.739919 0.249837
O O7 0.883148 0.964495 0.598846
O O8 0.182258 0.940036 0.658663
O O9 0.426056 0.946334 0.079783
O O10 0.223019 0.850430 0.185751
O O11 0.651744 0.291620 0.674981
O O12 0.739239 0.333119 0.976716
O O13 0.532117 0.462642 0.133955
O O14 0.000000 0.500000 0.000000
O O15 0.000000 0.000000 0.000000
O O16 0.697978 0.386427 0.580488
O O17 0.950516 0.604405 0.790903
#
# Coordination Sequence:
#
# PCOD9062782 Si02
#       8
#     2   2   2   2   2   2   2   2
#     4  11  24  42  71 100 135 183 230 290 344 404
#     4  11  25  42  72 101 136 186 230 285 347 410
#     4  11  27  49  65 101 145 185 235 280 341 421
#     4  12  23  40  69 107 139 181 229 284 350 409
#     4  11  24  44  71  99 136 183 238 289 340 401
#     4  12  23  42  72 108 139 169 236 296 344 404
#     4  12  23  42  70 105 139 177 228 291 350 405
#     4  12  27  44  69 104 144 185 227 284 349 418
#
# _framework density 27.069597999999999
#
# number of rings (size 3 to 8) (size 9 to 14) (size 15 to 20)
#    0.000    0.500    3.750    4.500    3.500    5.000 
#    0.000    4.375    0.000    0.000    0.000    0.000 
#    0.000    0.000    0.000    0.000    0.000    0.000 
#
# Total GULP energy -89383.171469 kJ/mol
# GULP energy per Si atom -5586.448217 kJ/mol
# Density = 2.700799 g / cm^3
# Si number density = 27.069598 Si / 1000 Ang^3
#
#
#
# Elastic Constant Matrix: (Units=GPa)
#
#
# Indices 1 2 3 4 5 6 
#
# 1 126.3071 22.7009 49.9213 10.5789 -15.8062 11.8965
# 2 22.7009 57.9578 3.7187 16.2144 -2.5035 -9.4927
# 3 49.9213 3.7187 115.1047 27.8412 4.1171 -0.4855
# 4 10.5789 16.2144 27.8412 27.8195 12.9164 -10.2138
# 5 -15.8062 -2.5035 4.1171 12.9164 60.3756 3.8452
# 6 11.8965 -9.4927 -0.4855 -10.2138 3.8452 47.2005
#
#
#
# Elastic Compliance Matrix: (Units=1/GPa)
#
#
# Indices 1 2 3 4 5 6 
#
# 1 0.011582 -0.004881 -0.005126 0.000514 0.003331 -0.004114
# 2 -0.004881 0.024616 0.005867 -0.019255 0.003347 0.001802
# 3 -0.005126 0.005867 0.014945 -0.017744 0.001765 -0.001358
# 4 0.000514 -0.019255 -0.017744 0.077767 -0.016984 0.014027
# 5 0.003331 0.003347 0.001765 -0.016984 0.021442 -0.005570
# 6 -0.004114 0.001802 -0.001358 0.014027 -0.005570 0.026061
#
#
# Mechanical properties :
#
#
# Convention : Reuss Voigt Hill
#
# Bulk Modulus (GPa) = 23.33089 50.22794 36.77942
# Shear Modulus (GPa) = 25.12823 41.94771 33.53797
#
# Velocity S-wave (km/s) = 3.05008 3.94080 3.52370
# Velocity P-wave (km/s) = 4.58710 6.26912 5.49288
#
# Compressibility (1/GPa) = 0.04286163
#
# Stress axis : x y z
#
# Youngs Moduli (GPa) = 86.34202 40.62403 66.91420
#
# Poissons Ratio (x) = 0.19829 0.34302
# Poissons Ratio (y) = 0.42144 -0.39258
# Poissons Ratio (z) = 0.44261 -0.23834
#
# Static dielectric constant tensor:
#      x y z
#    x 2.206450 0.090010 0.234890 
#    y 0.090010 2.901030 -0.012980 
#    z 0.234890 -0.012980 2.324450 
# 
# From -- ./inp_files/70659.got.cif
#   From: 2010.05.17/outbox.cif.g08.bks.cpg/sg2_36_cif.got.tgz:70659.got - 2010.06.03 11:33:40.
