data_PCOD9062109
_publ_section_title
;
Structure prediction by ZEFSAII (Michael W. Deem and Ramdas Pophale) SiO2 
 PCOD9062109
Probable space group: P -1
;
_chemical_formula_sum "Si O2"
_cell_formula_units_Z 16
_cell_length_a 9.459947
_cell_length_b 11.658787
_cell_length_c 15.376972
_cell_angle_alpha 26.768295
_cell_angle_beta 117.295848
_cell_angle_gamma 123.901122
_cell_volume 630.446145
_symmetry_space_group_name_H-M "P -1"
_symmetry_group_IT_number 2
_symmetry_cell_setting 'triclinic'
loop_
_space_group_symop_operation_xyz
x,y,z
-x,-y,-z
loop_
_atom_site_type_symbol
_atom_site_label
_atom_site_fract_x
_atom_site_fract_y
_atom_site_fract_z
Si Si1 0.663453 0.770798 0.841568
Si Si2 0.190634 0.580896 0.962752
Si Si3 0.010143 0.718174 0.660834
Si Si4 0.633965 0.511210 0.663647
Si Si5 0.443293 0.774154 0.560677
Si Si6 0.979308 0.978702 0.142482
Si Si7 0.916732 0.570085 0.267838
Si Si8 0.677925 0.895685 0.247893
O O1 0.622438 0.043660 0.645419
O O2 0.500000 0.500000 0.000000
O O3 0.739381 0.664426 0.851081
O O4 0.826629 0.854265 0.891878
O O5 0.153751 0.664563 0.797306
O O6 0.313656 0.833203 0.882191
O O7 0.000000 0.500000 0.000000
O O8 0.812373 0.507934 0.753091
O O9 0.058773 0.690584 0.592915
O O10 0.000000 0.000000 0.500000
O O11 0.563093 0.661768 0.615000
O O12 0.676337 0.692558 0.464297
O O13 0.483171 0.237903 0.771563
O O14 0.288254 0.517153 0.730175
O O15 0.500000 0.000000 0.500000
O O16 0.960436 0.684570 0.299057
O O17 0.847830 0.950987 0.201263
O O18 0.960498 0.174773 0.927478
#
# Coordination Sequence:
#
# PCOD9062109 Si02
#       8
#     2   2   2   2   2   2   2   2
#     4  12  27  46  73 108 147 196 243 304 366 443
#     4  12  25  46  74 106 145 198 247 296 375 440
#     4  12  25  45  76 108 148 192 245 312 368 445
#     4  11  26  45  76 111 148 194 250 310 369 445
#     4  12  27  46  75 111 148 188 251 314 366 439
#     4  11  24  49  75 103 152 193 241 310 375 443
#     4  11  25  46  75 107 143 193 243 303 378 438
#     4  11  23  47  73 108 152 194 248 305 372 448
#
# _framework density 25.378852999999999
#
# number of rings (size 3 to 8) (size 9 to 14) (size 15 to 20)
#    0.000    0.500    5.000    2.250    5.250    3.500 
#    0.000    2.500    0.000    0.000    0.000    0.000 
#    0.000    0.000    0.000    0.000    0.000    0.000 
#
# Total GULP energy -89396.542028 kJ/mol
# GULP energy per Si atom -5587.283877 kJ/mol
# Density = 2.532109 g / cm^3
# Si number density = 25.378853 Si / 1000 Ang^3
#
#
#
# Elastic Constant Matrix: (Units=GPa)
#
#
# Indices 1 2 3 4 5 6 
#
# 1 159.7625 48.8934 32.0677 -15.3207 -0.2898 -20.8040
# 2 48.8934 161.7682 38.8196 -48.3179 11.3531 -10.0115
# 3 32.0677 38.8196 76.9716 -8.5723 -2.3628 -12.9830
# 4 -15.3207 -48.3179 -8.5723 34.9998 -3.9603 -0.7703
# 5 -0.2898 11.3531 -2.3628 -3.9603 47.7418 -16.9866
# 6 -20.8040 -10.0115 -12.9830 -0.7703 -16.9866 39.2922
#
#
#
# Elastic Compliance Matrix: (Units=1/GPa)
#
#
# Indices 1 2 3 4 5 6 
#
# 1 0.007663 -0.001432 -0.001600 0.001281 0.001830 0.003980
# 2 -0.001432 0.012197 -0.003802 0.015115 -0.001594 0.000700
# 3 -0.001600 -0.003802 0.016365 -0.001450 0.003370 0.005020
# 4 0.001281 0.015115 -0.001450 0.050086 0.002703 0.006201
# 5 0.001830 -0.001594 0.003370 0.002703 0.026404 0.013144
# 6 0.003980 0.000700 0.005020 0.006201 0.013144 0.035199
#
#
# Mechanical properties :
#
#
# Convention : Reuss Voigt Hill
#
# Bulk Modulus (GPa) = 44.33408 70.89598 57.61503
# Shear Modulus (GPa) = 29.56825 42.98818 36.27821
#
# Velocity S-wave (km/s) = 3.41702 4.12012 3.78493
# Velocity P-wave (km/s) = 5.75108 7.11544 6.46933
#
# Compressibility (1/GPa) = 0.02255601
#
# Stress axis : x y z
#
# Youngs Moduli (GPa) = 130.49582 81.98979 61.10657
#
# Poissons Ratio (x) = 0.11738 0.09779
# Poissons Ratio (y) = 0.18683 0.23234
# Poissons Ratio (z) = 0.20884 0.31174
#
# Static dielectric constant tensor:
#      x y z
#    x 2.036790 0.078550 0.154680 
#    y 0.078550 2.227960 0.304860 
#    z 0.154680 0.304860 2.634440 
# 
# From -- ./inp_files/558888.got.cif
#   From: 2010.05.17/outbox.cif.g08.bks.cpg/sg2_280_cif.got.tgz:558888.got - 2010.06.03 11:33:40.
