data_PCOD9062841
_publ_section_title
;
Structure prediction by ZEFSAII (Michael W. Deem and Ramdas Pophale) SiO2 
 PCOD9062841
Probable space group: P -1
;
_chemical_formula_sum "Si O2"
_cell_formula_units_Z 13
_cell_length_a 9.507861
_cell_length_b 8.521271
_cell_length_c 12.390193
_cell_angle_alpha 129.397101
_cell_angle_beta 126.284088
_cell_angle_gamma 85.369502
_cell_volume 550.815149
_symmetry_space_group_name_H-M "P -1"
_symmetry_group_IT_number 2
_symmetry_cell_setting 'triclinic'
loop_
_space_group_symop_operation_xyz
x,y,z
-x,-y,-z
loop_
_atom_site_type_symbol
_atom_site_label
_atom_site_fract_x
_atom_site_fract_y
_atom_site_fract_z
Si Si1 0.494811 0.128657 0.163401
Si Si2 0.443587 0.381664 0.669266
Si Si3 0.046447 0.952615 0.322310
Si Si4 0.125062 0.409096 0.083846
Si Si5 0.162165 0.685006 0.894382
Si Si6 0.878234 0.230106 0.503355
Si Si7 0.500000 0.500000 0.000000
O O1 0.547048 0.387521 0.273642
O O2 0.655751 0.148391 0.332786
O O3 0.500000 0.000000 0.000000
O O4 0.282415 0.950907 0.034593
O O5 0.647848 0.399705 0.726575
O O6 0.250589 0.146433 0.450591
O O7 0.444911 0.408611 0.811626
O O8 0.093992 0.813527 0.377002
O O9 0.942748 0.073573 0.394393
O O10 0.896101 0.796777 0.094241
O O11 0.003802 0.330580 0.103609
O O12 0.000000 0.500000 0.000000
O O13 0.026306 0.496824 0.661809
O O14 0.324467 0.596652 0.960352
#
# Coordination Sequence:
#
# PCOD9062841 Si02
#       7
#     2   2   2   2   2   2   1
#     4  12  26  43  71 106 147 185 231 297 356 416
#     4  12  26  44  70 103 140 185 233 291 353 417
#     4  11  24  43  75 104 139 182 240 296 337 424
#     4  12  26  45  72 105 141 184 234 296 361 405
#     4  12  26  47  74 106 143 184 237 294 345 429
#     4  11  24  42  73 110 134 186 242 288 350 413
#     4  12  20  46  74 102 134 178 244 288 334 408
#
# _framework density 23.601385000000001
#
# number of rings (size 3 to 8) (size 9 to 14) (size 15 to 20)
#    0.000    0.308    6.154    1.846    4.308    6.154 
#    0.000    1.538    0.000    0.000    0.000    0.000 
#    0.000    0.000    0.000    0.000    0.000    0.000 
#
# Total GULP energy -72440.901050 kJ/mol
# GULP energy per Si atom -5572.377004 kJ/mol
# Density = 2.354767 g / cm^3
# Si number density = 23.601385 Si / 1000 Ang^3
#
#
#
# Elastic Constant Matrix: (Units=GPa)
#
#
# Indices 1 2 3 4 5 6 
#
# 1 37.4208 10.0570 -71.8798 30.5052 -49.1867 -27.2755
# 2 10.0570 29.0929 60.3594 -10.5205 54.5076 15.6911
# 3 -71.8798 60.3594 -96.3600 91.7146 -136.9211 -74.6649
# 4 30.5052 -10.5205 91.7146 -6.2038 81.5244 40.5086
# 5 -49.1867 54.5076 -136.9211 81.5244 -86.7990 -58.3683
# 6 -27.2755 15.6911 -74.6649 40.5086 -58.3683 -15.0805
#
#
#
# Elastic Compliance Matrix: (Units=1/GPa)
#
#
# Indices 1 2 3 4 5 6 
#
# 1 0.017201 0.005415 0.000580 0.001183 -0.006723 0.000852
# 2 0.005415 0.032752 -0.000340 -0.014029 -0.007948 0.019044
# 3 0.000580 -0.000340 0.010480 0.004771 -0.009125 -0.005158
# 4 0.001183 -0.014029 0.004771 0.024846 0.007120 -0.001174
# 5 -0.006723 -0.007948 -0.009125 0.007120 0.023385 -0.022313
# 6 0.000852 0.019044 -0.005158 -0.001174 -0.022313 0.060707
#
#
# Mechanical properties :
#
#
# Convention : Reuss Voigt Hill
#
# Bulk Modulus (GPa) = 13.93858 -3.64144 5.14857
# Shear Modulus (GPa) = 27.47597 -23.50886 1.98355
#
# Velocity S-wave (km/s) = 3.41569 -3.15950 0.91775
# Velocity P-wave (km/s) = 4.63407 3.85437 1.81913
#
# Compressibility (1/GPa) = 0.07174333
#
# Stress axis : x y z
#
# Youngs Moduli (GPa) = 58.13599 30.53235 95.41621
#
# Poissons Ratio (x) = -0.16534 -0.05531
# Poissons Ratio (y) = -0.31483 0.03246
# Poissons Ratio (z) = -0.03370 0.01039
#
# Static dielectric constant tensor:
#      x y z
#    x 1.946820 -0.035020 -0.025510 
#    y -0.035020 1.988660 0.056830 
#    z -0.025510 0.056830 1.877130 
# 
# From -- ./inp_files/182964.got.cif
#   From: 2010.05.17/outbox.cif.g08.bks.cpg/sg2_92_cif.got.tgz:182964.got - 2010.06.03 11:33:40.
