data_PCOD9062699
_publ_section_title
;
Structure prediction by ZEFSAII (Michael W. Deem and Ramdas Pophale) SiO2 
 PCOD9062699
Probable space group: P -1
;
_chemical_formula_sum "Si O2"
_cell_formula_units_Z 16
_cell_length_a 12.400686
_cell_length_b 11.852458
_cell_length_c 11.033795
_cell_angle_alpha 34.478658
_cell_angle_beta 93.858711
_cell_angle_gamma 70.453393
_cell_volume 662.491357
_symmetry_space_group_name_H-M "P -1"
_symmetry_group_IT_number 2
_symmetry_cell_setting 'triclinic'
loop_
_space_group_symop_operation_xyz
x,y,z
-x,-y,-z
loop_
_atom_site_type_symbol
_atom_site_label
_atom_site_fract_x
_atom_site_fract_y
_atom_site_fract_z
Si Si1 0.834814 0.123089 0.375292
Si Si2 0.859619 0.811939 0.878941
Si Si3 0.090725 0.855147 0.258411
Si Si4 0.467805 0.788373 0.485785
Si Si5 0.462665 0.315131 0.144075
Si Si6 0.629268 0.913798 0.280653
Si Si7 0.085073 0.229288 0.516020
Si Si8 0.560018 0.563345 0.341822
O O1 0.825575 0.954610 0.619912
O O2 0.817303 0.053961 0.301597
O O3 0.000000 0.000000 0.500000
O O4 0.714838 0.448155 0.104150
O O5 0.915325 0.929727 0.857515
O O6 0.700712 0.930484 0.808658
O O7 0.981795 0.485092 0.189160
O O8 0.268156 0.596711 0.485797
O O9 0.016119 0.768593 0.402610
O O10 0.000000 0.000000 0.000000
O O11 0.502841 0.803344 0.612868
O O12 0.456286 0.566906 0.659230
O O13 0.590305 0.732720 0.457650
O O14 0.554563 0.100325 0.232974
O O15 0.500000 0.500000 0.000000
O O16 0.800504 0.761654 0.423197
O O17 0.544202 0.120055 0.979389
O O18 0.500000 0.500000 0.500000
#
# Coordination Sequence:
#
# PCOD9062699 Si02
#       8
#     2   2   2   2   2   2   2   2
#     4  12  24  39  67  96 133 175 212 259 325 384
#     4  11  24  43  65  97 132 171 214 265 322 385
#     4  11  25  46  69  94 128 170 215 272 327 379
#     4  11  24  42  68  96 131 171 215 265 322 381
#     4  12  21  42  66  94 134 173 215 262 316 383
#     4  12  25  41  68  99 130 172 215 266 322 381
#     4  12  25  41  66 100 133 169 215 264 324 386
#     4  11  24  46  71  93 126 170 219 270 322 382
#
# _framework density 24.151257999999999
#
# number of rings (size 3 to 8) (size 9 to 14) (size 15 to 20)
#    0.000    0.500    5.000    3.000    3.500    3.000 
#    0.000    0.000    0.000    0.000    0.000    0.000 
#    0.000    0.000    0.000    0.000    0.000    0.000 
#
# Total GULP energy -89574.611886 kJ/mol
# GULP energy per Si atom -5598.413243 kJ/mol
# Density = 2.409629 g / cm^3
# Si number density = 24.151258 Si / 1000 Ang^3
#
#
#
# Elastic Constant Matrix: (Units=GPa)
#
#
# Indices 1 2 3 4 5 6 
#
# 1 169.9230 28.9838 44.2323 7.5367 15.8178 -30.5054
# 2 28.9838 66.3587 19.0938 12.4305 4.2303 -13.2857
# 3 44.2323 19.0938 99.2335 19.8685 12.5637 -12.0795
# 4 7.5367 12.4305 19.8685 40.7653 -5.5002 -4.5634
# 5 15.8178 4.2303 12.5637 -5.5002 30.5412 -1.4587
# 6 -30.5054 -13.2857 -12.0795 -4.5634 -1.4587 40.0641
#
#
#
# Elastic Compliance Matrix: (Units=1/GPa)
#
#
# Indices 1 2 3 4 5 6 
#
# 1 0.007848 -0.001732 -0.002355 0.000399 -0.002562 0.004643
# 2 -0.001732 0.017817 -0.001108 -0.004393 -0.001730 0.003692
# 3 -0.002355 -0.001108 0.013392 -0.006352 -0.005234 0.000963
# 4 0.000399 -0.004393 -0.006352 0.030110 0.008469 0.000670
# 5 -0.002562 -0.001730 -0.005234 0.008469 0.037903 -0.001758
# 6 0.004643 0.003692 0.000963 0.000670 -0.001758 0.030022
#
#
# Mechanical properties :
#
#
# Convention : Reuss Voigt Hill
#
# Bulk Modulus (GPa) = 34.88427 57.79277 46.33852
# Shear Modulus (GPa) = 31.83917 38.48781 35.16349
#
# Velocity S-wave (km/s) = 3.63481 3.99634 3.81986
# Velocity P-wave (km/s) = 5.66491 6.72873 6.21961
#
# Compressibility (1/GPa) = 0.02866622
#
# Stress axis : x y z
#
# Youngs Moduli (GPa) = 127.42290 56.12519 74.67177
#
# Poissons Ratio (x) = 0.09720 0.17587
# Poissons Ratio (y) = 0.22068 0.08276
# Poissons Ratio (z) = 0.30010 0.06221
#
# Static dielectric constant tensor:
#      x y z
#    x 1.977760 0.021270 0.025020 
#    y 0.021270 1.980130 -0.014600 
#    z 0.025020 -0.014600 1.941290 
# 
# From -- ./inp_files/433659.got.cif
#   From: 2010.05.17/outbox.cif.g08.bks.cpg/sg2_217_cif.got.tgz:433659.got - 2010.06.03 11:33:40.
