data_PCOD9062039
_publ_section_title
;
Structure prediction by ZEFSAII (Michael W. Deem and Ramdas Pophale) SiO2 
 PCOD9062039
Probable space group: P -1
;
_chemical_formula_sum "Si O2"
_cell_formula_units_Z 16
_cell_length_a 8.121943
_cell_length_b 18.081204
_cell_length_c 5.464698
_cell_angle_alpha 63.732490
_cell_angle_beta 116.511800
_cell_angle_gamma 106.746563
_cell_volume 639.853086
_symmetry_space_group_name_H-M "P -1"
_symmetry_group_IT_number 2
_symmetry_cell_setting 'triclinic'
loop_
_space_group_symop_operation_xyz
x,y,z
-x,-y,-z
loop_
_atom_site_type_symbol
_atom_site_label
_atom_site_fract_x
_atom_site_fract_y
_atom_site_fract_z
Si Si1 0.795309 0.512734 0.258403
Si Si2 0.730268 0.159035 0.733067
Si Si3 0.358398 0.327205 0.834548
Si Si4 0.274496 0.656004 0.701919
Si Si5 0.904037 0.790070 0.831506
Si Si6 0.203648 0.991051 0.258699
Si Si7 0.900320 0.636359 0.763943
Si Si8 0.325735 0.082303 0.718880
O O1 0.708107 0.586636 0.229837
O O2 0.680983 0.422500 0.314905
O O3 0.000000 0.500000 0.500000
O O4 0.827618 0.548143 0.954352
O O5 0.714545 0.255131 0.541714
O O6 0.536812 0.120490 0.770921
O O7 0.760027 0.105140 0.588939
O O8 0.919917 0.155959 0.013604
O O9 0.276758 0.325345 0.514902
O O10 0.575920 0.333931 0.997706
O O11 0.255265 0.247873 0.027489
O O12 0.065721 0.634703 0.687841
O O13 0.976347 0.705304 0.909169
O O14 0.810868 0.845688 0.491762
O O15 0.256120 0.028801 0.505799
O O16 0.318428 0.037175 0.042099
O O17 0.000000 0.000000 0.000000
#
# Coordination Sequence:
#
# PCOD9062039 Si02
#       8
#     2   2   2   2   2   2   2   2
#     4  11  23  47  69  97 148 188 238 299 369 441
#     4  12  26  48  76 108 149 191 248 306 373 444
#     4  11  24  46  68 104 145 185 242 298 366 443
#     4  12  24  43  73 104 140 189 243 303 366 439
#     4  11  25  45  71 106 144 193 237 308 365 436
#     4  12  28  51  82 110 153 200 244 312 382 446
#     4  11  25  43  71 100 146 192 240 301 367 435
#     4  12  28  51  78 112 153 195 253 305 379 455
#
# _framework density 25.005738000000001
#
# number of rings (size 3 to 8) (size 9 to 14) (size 15 to 20)
#    0.000    0.500    5.000    2.625    3.500    2.500 
#    4.500    0.000    0.000    0.000    0.000    0.000 
#    0.000    0.000    0.000    0.000    0.000    0.000 
#
# Total GULP energy -89521.261016 kJ/mol
# GULP energy per Si atom -5595.078813 kJ/mol
# Density = 2.494882 g / cm^3
# Si number density = 25.005738 Si / 1000 Ang^3
#
#
#
# Elastic Constant Matrix: (Units=GPa)
#
#
# Indices 1 2 3 4 5 6 
#
# 1 54.7494 29.8917 -5.1565 -3.3502 14.9202 13.8789
# 2 29.8917 125.9531 9.2502 -0.8287 -4.5811 7.3430
# 3 -5.1565 9.2502 74.8550 -5.1651 14.7083 10.2657
# 4 -3.3502 -0.8287 -5.1651 34.3563 5.1766 3.6748
# 5 14.9202 -4.5811 14.7083 5.1766 43.8835 9.5106
# 6 13.8789 7.3430 10.2657 3.6748 9.5106 20.3357
#
#
#
# Elastic Compliance Matrix: (Units=1/GPa)
#
#
# Indices 1 2 3 4 5 6 
#
# 1 0.031431 -0.007299 0.008428 0.007884 -0.011010 -0.019345
# 2 -0.007299 0.009972 -0.002871 -0.001687 0.004456 0.001051
# 3 0.008428 -0.002871 0.017670 0.005715 -0.007325 -0.011242
# 4 0.007884 -0.001687 0.005715 0.032785 -0.006339 -0.010617
# 5 -0.011010 0.004456 -0.007325 -0.006339 0.031013 -0.003755
# 6 -0.019345 0.001051 -0.011242 -0.010617 -0.003755 0.071348
#
#
# Mechanical properties :
#
#
# Convention : Reuss Voigt Hill
#
# Bulk Modulus (GPa) = 17.98954 35.94761 26.96858
# Shear Modulus (GPa) = 23.12314 34.48659 28.80486
#
# Velocity S-wave (km/s) = 3.04421 3.71772 3.39769
# Velocity P-wave (km/s) = 4.42335 5.73023 5.11867
#
# Compressibility (1/GPa) = 0.05558786
#
# Stress axis : x y z
#
# Youngs Moduli (GPa) = 31.81591 100.27790 56.59323
#
# Poissons Ratio (x) = 0.73193 -0.47695
# Poissons Ratio (y) = 0.23222 0.16249
# Poissons Ratio (z) = -0.26813 0.28792
#
# Static dielectric constant tensor:
#      x y z
#    x 1.977880 -0.022100 -0.033460 
#    y -0.022100 2.055670 0.026220 
#    z -0.033460 0.026220 1.986490 
# 
# From -- ./inp_files/46547.got.cif
#   From: 2010.05.17/outbox.cif.g08.bks.cpg/sg2_24_cif.got.tgz:46547.got - 2010.06.03 11:33:40.
