data_PCOD9062996
_publ_section_title
;
Structure prediction by ZEFSAII (Michael W. Deem and Ramdas Pophale) SiO2 
 PCOD9062996
Probable space group: P -1
;
_chemical_formula_sum "Si O2"
_cell_formula_units_Z 14
_cell_length_a 9.866601
_cell_length_b 5.612423
_cell_length_c 18.554173
_cell_angle_alpha 69.367631
_cell_angle_beta 126.890413
_cell_angle_gamma 76.490577
_cell_volume 618.258714
_symmetry_space_group_name_H-M "P -1"
_symmetry_group_IT_number 2
_symmetry_cell_setting 'triclinic'
loop_
_space_group_symop_operation_xyz
x,y,z
-x,-y,-z
loop_
_atom_site_type_symbol
_atom_site_label
_atom_site_fract_x
_atom_site_fract_y
_atom_site_fract_z
Si Si1 0.559733 0.935722 0.722525
Si Si2 0.386393 0.875613 0.432633
Si Si3 0.457316 0.204624 0.814811
Si Si4 0.085878 0.745134 0.714237
Si Si5 0.687409 0.521664 0.035514
Si Si6 0.805628 0.298917 0.946169
Si Si7 0.114281 0.122311 0.570549
O O1 0.747678 0.605519 0.852543
O O2 0.635699 0.009583 0.668607
O O3 0.482661 0.169686 0.740995
O O4 0.350335 0.959923 0.633832
O O5 0.500000 0.500000 0.500000
O O6 0.500000 0.000000 0.500000
O O7 0.162889 0.045952 0.382053
O O8 0.215321 0.446506 0.733952
O O9 0.592001 0.325491 0.870502
O O10 0.569782 0.872898 0.927905
O O11 0.177467 0.584470 0.837965
O O12 0.136593 0.978712 0.672931
O O13 0.500000 0.500000 0.000000
O O14 0.836546 0.302787 0.040631
O O15 0.000000 0.000000 0.000000
O O16 0.000000 0.500000 0.500000
O O17 0.000000 0.000000 0.500000
#
# Coordination Sequence:
#
# PCOD9062996 Si02
#       7
#     2   2   2   2   2   2   2
#     4  11  26  47  73 105 148 195 249 304 378 449
#     4  12  31  52  74 114 152 196 258 321 376 433
#     4  11  24  46  73 108 144 194 248 294 374 470
#     4  12  25  47  78 107 148 198 242 318 377 434
#     4  11  24  43  68 113 146 184 247 303 374 455
#     4  11  26  43  72 104 149 191 241 300 372 463
#     4  12  25  46  74 104 138 192 251 303 356 433
#
# _framework density 22.64424
#
# number of rings (size 3 to 8) (size 9 to 14) (size 15 to 20)
#    0.000    0.571    2.857    3.857    6.000    3.429 
#    0.000    0.000    0.000    0.000    0.000    0.000 
#    0.000    0.000    0.000    0.000    0.000    0.000 
#
# Total GULP energy -78287.882212 kJ/mol
# GULP energy per Si atom -5591.991587 kJ/mol
# Density = 2.259270 g / cm^3
# Si number density = 22.644240 Si / 1000 Ang^3
#
#
#
# Elastic Constant Matrix: (Units=GPa)
#
#
# Indices 1 2 3 4 5 6 
#
# 1 110.9345 37.7917 21.3452 -17.2403 -16.9360 -28.2889
# 2 37.7917 135.2466 46.8696 -10.2189 -9.0181 -29.6889
# 3 21.3452 46.8696 63.2042 -3.6865 -13.5054 -21.5188
# 4 -17.2403 -10.2189 -3.6865 36.3642 -11.3386 10.1480
# 5 -16.9360 -9.0181 -13.5054 -11.3386 59.5064 -1.4921
# 6 -28.2889 -29.6889 -21.5188 10.1480 -1.4921 45.5857
#
#
#
# Elastic Compliance Matrix: (Units=1/GPa)
#
#
# Indices 1 2 3 4 5 6 
#
# 1 0.012507 -0.001593 0.000203 0.005296 0.004518 0.005789
# 2 -0.001593 0.010741 -0.006446 0.000814 -0.000064 0.002780
# 3 0.000203 -0.006446 0.024086 0.000139 0.004760 0.007422
# 4 0.005296 0.000814 0.000139 0.033683 0.007996 -0.003354
# 5 0.004518 -0.000064 0.004760 0.007996 0.020783 0.003909
# 6 0.005789 0.002780 0.007422 -0.003354 0.003909 0.031718
#
#
# Mechanical properties :
#
#
# Convention : Reuss Voigt Hill
#
# Bulk Modulus (GPa) = 31.58577 57.93314 44.75946
# Shear Modulus (GPa) = 31.30022 41.84984 36.57503
#
# Velocity S-wave (km/s) = 3.72191 4.30367 4.02332
# Velocity P-wave (km/s) = 5.69641 7.09472 6.43367
#
# Compressibility (1/GPa) = 0.03165982
#
# Stress axis : x y z
#
# Youngs Moduli (GPa) = 79.95547 93.10530 41.51836
#
# Poissons Ratio (x) = 0.14831 -0.00841
# Poissons Ratio (y) = 0.12736 0.26764
# Poissons Ratio (z) = -0.01620 0.60019
#
# Static dielectric constant tensor:
#      x y z
#    x 1.803980 0.065640 0.001690 
#    y 0.065640 1.901880 0.103950 
#    z 0.001690 0.103950 1.844960 
# 
# From -- ./inp_files/72570.got.cif
#   From: 2010.05.17/outbox.cif.g08.bks.cpg/sg2_37_cif.got.tgz:72570.got - 2010.06.03 11:33:40.
