data_PCOD9062176
_publ_section_title
;
Structure prediction by ZEFSAII (Michael W. Deem and Ramdas Pophale) SiO2 
 PCOD9062176
Probable space group: P -1
;
_chemical_formula_sum "Si O2"
_cell_formula_units_Z 13
_cell_length_a 8.273792
_cell_length_b 9.626494
_cell_length_c 9.688206
_cell_angle_alpha 65.769324
_cell_angle_beta 65.085346
_cell_angle_gamma 46.162323
_cell_volume 496.421267
_symmetry_space_group_name_H-M "P -1"
_symmetry_group_IT_number 2
_symmetry_cell_setting 'triclinic'
loop_
_space_group_symop_operation_xyz
x,y,z
-x,-y,-z
loop_
_atom_site_type_symbol
_atom_site_label
_atom_site_fract_x
_atom_site_fract_y
_atom_site_fract_z
Si Si1 0.000000 0.500000 0.000000
Si Si2 0.712250 0.214156 0.616210
Si Si3 0.531635 0.221933 0.184943
Si Si4 0.969053 0.439381 0.736129
Si Si5 0.169839 0.831583 0.117463
Si Si6 0.587543 0.873925 0.382104
Si Si7 0.277492 0.636693 0.721121
O O1 0.919007 0.607871 0.134463
O O2 0.886178 0.390962 0.128040
O O3 0.855764 0.093452 0.749105
O O4 0.598429 0.129442 0.621672
O O5 0.506658 0.425977 0.670255
O O6 0.824974 0.245631 0.436050
O O7 0.261387 0.339345 0.255424
O O8 0.634239 0.272902 0.248126
O O9 0.642953 0.995937 0.226767
O O10 0.582051 0.273509 0.999117
O O11 0.870545 0.325285 0.792981
O O12 0.181106 0.349084 0.593971
O O13 0.000000 0.000000 0.000000
O O14 0.500000 0.000000 0.500000
#
# Coordination Sequence:
#
# PCOD9062176 Si02
#       7
#     1   2   2   2   2   2   2
#     4  12  24  44  80 120 146 210 276 320 406 490
#     4  11  25  48  77 111 166 211 266 335 405 481
#     4  12  25  47  80 113 161 213 262 338 410 484
#     4  12  26  46  77 114 160 209 273 329 409 484
#     4  12  25  47  78 112 159 216 268 331 406 480
#     4  12  27  50  74 118 163 210 274 337 402 490
#     4  11  23  47  79 115 157 209 265 333 405 488
#
# _framework density 26.187436000000002
#
# number of rings (size 3 to 8) (size 9 to 14) (size 15 to 20)
#    0.000    0.308    7.692    1.385    0.000    2.462 
#    2.769    1.538    0.000    0.000    0.000    0.000 
#    0.000    0.000    0.000    0.000    0.000    0.000 
#
# Total GULP energy -72547.957763 kJ/mol
# GULP energy per Si atom -5580.612136 kJ/mol
# Density = 2.612783 g / cm^3
# Si number density = 26.187436 Si / 1000 Ang^3
#
#
#
# Elastic Constant Matrix: (Units=GPa)
#
#
# Indices 1 2 3 4 5 6 
#
# 1 81.4934 44.1616 20.6265 -5.2131 11.6609 20.1814
# 2 44.1616 100.6765 17.0786 18.7140 16.4221 -0.7589
# 3 20.6265 17.0786 106.9988 14.2411 15.8137 -14.5579
# 4 -5.2131 18.7140 14.2411 47.3882 9.2068 -0.3494
# 5 11.6609 16.4221 15.8137 9.2068 43.7946 7.7768
# 6 20.1814 -0.7589 -14.5579 -0.3494 7.7768 53.4374
#
#
#
# Elastic Compliance Matrix: (Units=1/GPa)
#
#
# Indices 1 2 3 4 5 6 
#
# 1 0.022117 -0.010393 -0.004979 0.007988 -0.000135 -0.009785
# 2 -0.010393 0.016150 0.001553 -0.007330 -0.003195 0.004995
# 3 -0.004979 0.001553 0.011908 -0.003974 -0.003727 0.005663
# 4 0.007988 -0.007330 -0.003974 0.026606 -0.002896 -0.003608
# 5 -0.000135 -0.003195 -0.003727 -0.002896 0.026900 -0.004943
# 6 -0.009785 0.004995 0.005663 -0.003608 -0.004943 0.024718
#
#
# Mechanical properties :
#
#
# Convention : Reuss Voigt Hill
#
# Bulk Modulus (GPa) = 44.37285 50.32245 47.34765
# Shear Modulus (GPa) = 30.57165 42.74416 36.65791
#
# Velocity S-wave (km/s) = 3.42045 4.04448 3.74549
# Velocity P-wave (km/s) = 5.70793 6.40846 6.06831
#
# Compressibility (1/GPa) = 0.02253630
#
# Stress axis : x y z
#
# Youngs Moduli (GPa) = 45.21413 61.92023 83.97729
#
# Poissons Ratio (x) = 0.64356 0.41813
# Poissons Ratio (y) = 0.46993 -0.13044
# Poissons Ratio (z) = 0.22512 -0.09618
#
# Static dielectric constant tensor:
#      x y z
#    x 2.112060 -0.172150 0.031390 
#    y -0.172150 2.162790 -0.055170 
#    z 0.031390 -0.055170 2.157960 
# 
# From -- ./inp_files/157083.got.cif
#   From: 2010.05.17/outbox.cif.g08.bks.cpg/sg2_79_cif.got.tgz:157083.got - 2010.06.03 11:33:40.
