data_PCOD9062978
_publ_section_title
;
Structure prediction by ZEFSAII (Michael W. Deem and Ramdas Pophale) SiO2 
 PCOD9062978
Probable space group: P -1
;
_chemical_formula_sum "Si O2"
_cell_formula_units_Z 16
_cell_length_a 23.333767
_cell_length_b 8.360071
_cell_length_c 5.474197
_cell_angle_alpha 120.233287
_cell_angle_beta 103.731287
_cell_angle_gamma 48.147307
_cell_volume 679.108656
_symmetry_space_group_name_H-M "P -1"
_symmetry_group_IT_number 2
_symmetry_cell_setting 'triclinic'
loop_
_space_group_symop_operation_xyz
x,y,z
-x,-y,-z
loop_
_atom_site_type_symbol
_atom_site_label
_atom_site_fract_x
_atom_site_fract_y
_atom_site_fract_z
Si Si1 0.530513 0.260923 0.703077
Si Si2 0.888175 0.777975 0.934490
Si Si3 0.959914 0.012304 0.216969
Si Si4 0.299094 0.132317 0.529597
Si Si5 0.169498 0.493951 0.322699
Si Si6 0.802552 0.966897 0.486364
Si Si7 0.725266 0.490366 0.888154
Si Si8 0.563021 0.830350 0.726022
O O1 0.461991 0.319959 0.512132
O O2 0.615173 0.128982 0.574828
O O3 0.551676 0.032046 0.699203
O O4 0.500000 0.500000 0.000000
O O5 0.953293 0.802898 0.039370
O O6 0.831331 0.960066 0.240359
O O7 0.888880 0.557119 0.827231
O O8 0.865849 0.822779 0.657333
O O9 0.874324 0.283841 0.356643
O O10 0.000000 0.000000 0.500000
O O11 0.000000 0.000000 0.000000
O O12 0.248267 0.238038 0.312759
O O13 0.244456 0.127046 0.650155
O O14 0.301466 0.339446 0.775010
O O15 0.198664 0.566735 0.192858
O O16 0.745816 0.236816 0.748704
O O17 0.651423 0.650209 0.759970
O O18 0.500000 0.000000 0.000000
#
# Coordination Sequence:
#
# PCOD9062978 Si02
#       8
#     2   2   2   2   2   2   2   2
#     4  11  26  44  65  98 143 186 241 300 360 427
#     4  11  24  47  70 110 140 179 235 284 352 431
#     4  12  28  47  74 107 146 185 228 286 359 429
#     4  11  24  43  68 103 137 187 238 298 353 420
#     4  11  25  45  74 100 144 181 234 295 347 420
#     4  11  25  40  74 106 140 179 242 295 350 418
#     4  12  23  42  72  97 136 188 238 301 353 413
#     4  11  25  43  63  97 138 185 242 292 363 426
#
# _framework density 23.560295
#
# number of rings (size 3 to 8) (size 9 to 14) (size 15 to 20)
#    0.000    0.750    5.000    1.500    3.500    4.500 
#    0.000    0.000    0.000    0.000    0.000    0.000 
#    0.000    0.000    0.000    0.000    0.000    0.000 
#
# Total GULP energy -89299.958298 kJ/mol
# GULP energy per Si atom -5581.247394 kJ/mol
# Density = 2.350667 g / cm^3
# Si number density = 23.560295 Si / 1000 Ang^3
#
#
#
# Elastic Constant Matrix: (Units=GPa)
#
#
# Indices 1 2 3 4 5 6 
#
# 1 112.8865 17.9063 34.5156 -14.1944 16.9914 -7.6893
# 2 17.9063 45.4504 10.0703 3.1045 12.3817 -16.7831
# 3 34.5156 10.0703 118.5524 5.6938 19.8823 -6.9863
# 4 -14.1944 3.1045 5.6938 33.3877 7.6044 3.1442
# 5 16.9914 12.3817 19.8823 7.6044 52.8783 1.7280
# 6 -7.6893 -16.7831 -6.9863 3.1442 1.7280 22.2455
#
#
#
# Elastic Compliance Matrix: (Units=1/GPa)
#
#
# Indices 1 2 3 4 5 6 
#
# 1 0.011520 -0.003801 -0.002930 0.006394 -0.002613 -0.000507
# 2 -0.003801 0.035939 0.001265 -0.006022 -0.007707 0.027647
# 3 -0.002930 0.001265 0.010008 -0.002771 -0.002840 0.003697
# 4 0.006394 -0.006022 -0.002771 0.035455 -0.004444 -0.007870
# 5 -0.002613 -0.007707 -0.002840 -0.004444 0.023550 -0.008811
# 6 -0.000507 0.027647 0.003697 -0.007870 -0.008811 0.068594
#
#
# Mechanical properties :
#
#
# Convention : Reuss Voigt Hill
#
# Bulk Modulus (GPa) = 21.48940 44.65261 33.07101
# Shear Modulus (GPa) = 23.63945 35.99544 29.81745
#
# Velocity S-wave (km/s) = 3.17102 3.91295 3.56136
# Velocity P-wave (km/s) = 4.74847 6.27762 5.56581
#
# Compressibility (1/GPa) = 0.04653457
#
# Stress axis : x y z
#
# Youngs Moduli (GPa) = 86.80621 27.82462 99.92134
#
# Poissons Ratio (x) = 0.10578 0.29275
# Poissons Ratio (y) = 0.32999 -0.12640
# Poissons Ratio (z) = 0.25432 -0.03520
#
# Static dielectric constant tensor:
#      x y z
#    x 2.073980 -0.097560 0.012090 
#    y -0.097560 1.944140 -0.046080 
#    z 0.012090 -0.046080 1.901500 
# 
# From -- ./inp_files/49188.got.cif
#   From: 2010.05.17/outbox.cif.g08.bks.cpg/sg2_25_cif.got.tgz:49188.got - 2010.06.03 11:33:40.
