data_PCOD9062820
_publ_section_title
;
Structure prediction by ZEFSAII (Michael W. Deem and Ramdas Pophale) SiO2 
 PCOD9062820
Probable space group: P -1
;
_chemical_formula_sum "Si O2"
_cell_formula_units_Z 12
_cell_length_a 5.226417
_cell_length_b 12.209414
_cell_length_c 21.002915
_cell_angle_alpha 21.108720
_cell_angle_beta 73.775106
_cell_angle_gamma 73.373170
_cell_volume 462.184726
_symmetry_space_group_name_H-M "P -1"
_symmetry_group_IT_number 2
_symmetry_cell_setting 'triclinic'
loop_
_space_group_symop_operation_xyz
x,y,z
-x,-y,-z
loop_
_atom_site_type_symbol
_atom_site_label
_atom_site_fract_x
_atom_site_fract_y
_atom_site_fract_z
Si Si1 0.120496 0.677619 0.454015
Si Si2 0.204308 0.759748 0.835281
Si Si3 0.291174 0.635161 0.035142
Si Si4 0.943478 0.363254 0.305191
Si Si5 0.478717 0.803954 0.251303
Si Si6 0.370756 0.673420 0.196160
O O1 0.326762 0.857299 0.299493
O O2 0.293479 0.464582 0.605517
O O3 0.000000 0.500000 0.500000
O O4 0.917278 0.939589 0.354295
O O5 0.477848 0.622408 0.859735
O O6 0.236134 0.830503 0.869385
O O7 0.000000 0.500000 0.000000
O O8 0.038728 0.488969 0.161987
O O9 0.399045 0.877547 0.944948
O O10 0.125182 0.548897 0.241280
O O11 0.630566 0.440824 0.295269
O O12 0.000000 0.000000 0.500000
O O13 0.298967 0.702026 0.260912
O O14 0.500000 0.000000 0.000000
#
# Coordination Sequence:
#
# PCOD9062820 Si02
#       6
#     2   2   2   2   2   2
#     4  11  24  42  72 106 154 193 253 321 388 457
#     4  11  24  43  73 109 145 205 248 318 395 466
#     4  11  25  46  74 107 153 199 263 315 392 466
#     4  12  30  54  78 118 158 208 263 330 392 464
#     4  11  25  45  71 113 147 199 260 321 383 467
#     4  12  28  51  84 113 150 212 268 316 393 469
#
# _framework density 25.963642
#
# number of rings (size 3 to 8) (size 9 to 14) (size 15 to 20)
#    0.000    0.667    5.000    1.000    7.000    2.667 
#    0.000    0.000    0.000    0.000    0.000    0.000 
#    0.000    0.000    0.000    0.000    0.000    0.000 
#
# Total GULP energy -67186.747665 kJ/mol
# GULP energy per Si atom -5598.895639 kJ/mol
# Density = 2.590455 g / cm^3
# Si number density = 25.963642 Si / 1000 Ang^3
#
#
#
# Elastic Constant Matrix: (Units=GPa)
#
#
# Indices 1 2 3 4 5 6 
#
# 1 76.2261 8.0630 -11.3659 -1.8591 0.0981 6.7301
# 2 8.0630 84.7874 6.6254 6.8527 1.9968 1.9639
# 3 -11.3659 6.6254 84.4337 -18.7231 6.1625 -5.2213
# 4 -1.8591 6.8527 -18.7231 33.8477 -11.1298 -6.0245
# 5 0.0981 1.9968 6.1625 -11.1298 57.3762 -16.1154
# 6 6.7301 1.9639 -5.2213 -6.0245 -16.1154 56.7701
#
#
#
# Elastic Compliance Matrix: (Units=1/GPa)
#
#
# Indices 1 2 3 4 5 6 
#
# 1 0.013808 -0.001647 0.002407 0.002173 -0.000131 -0.001165
# 2 -0.001647 0.012557 -0.002196 -0.004566 -0.001461 -0.001340
# 3 0.002407 -0.002196 0.014488 0.009348 0.001004 0.002400
# 4 0.002173 -0.004566 0.009348 0.040087 0.009058 0.007585
# 5 -0.000131 -0.001461 0.001004 0.009058 0.021128 0.007117
# 6 -0.001165 -0.001340 0.002400 0.007585 0.007117 0.020845
#
#
# Mechanical properties :
#
#
# Convention : Reuss Voigt Hill
#
# Bulk Modulus (GPa) = 26.32789 28.01022 27.16906
# Shear Modulus (GPa) = 36.11534 45.74047 40.92790
#
# Velocity S-wave (km/s) = 3.73365 4.20183 3.97464
# Velocity P-wave (km/s) = 5.36183 5.86107 5.61700
#
# Compressibility (1/GPa) = 0.03798253
#
# Stress axis : x y z
#
# Youngs Moduli (GPa) = 72.42153 79.63766 69.02215
#
# Poissons Ratio (x) = 0.13115 -0.16616
# Poissons Ratio (y) = 0.11926 0.15156
# Poissons Ratio (z) = -0.17434 0.17487
#
# Static dielectric constant tensor:
#      x y z
#    x 2.180900 0.060390 -0.056570 
#    y 0.060390 2.055650 0.041980 
#    z -0.056570 0.041980 2.021750 
# 
# From -- ./inp_files/26463.got.cif
#   From: 2010.05.17/outbox.cif.g08.bks.cpg/sg2_14_cif.got.tgz:26463.got - 2010.06.03 11:33:40.
