data_PCOD9062316
_publ_section_title
;
Structure prediction by ZEFSAII (Michael W. Deem and Ramdas Pophale) SiO2 
 PCOD9062316
Probable space group: P -1
;
_chemical_formula_sum "Si O2"
_cell_formula_units_Z 15
_cell_length_a 14.405563
_cell_length_b 7.871261
_cell_length_c 11.796432
_cell_angle_alpha 92.107149
_cell_angle_beta 150.990523
_cell_angle_gamma 96.555439
_cell_volume 617.983008
_symmetry_space_group_name_H-M "P -1"
_symmetry_group_IT_number 2
_symmetry_cell_setting 'triclinic'
loop_
_space_group_symop_operation_xyz
x,y,z
-x,-y,-z
loop_
_atom_site_type_symbol
_atom_site_label
_atom_site_fract_x
_atom_site_fract_y
_atom_site_fract_z
Si Si1 0.677174 0.492846 0.482011
Si Si2 0.082224 0.651317 0.817926
Si Si3 0.132272 0.152853 0.564860
Si Si4 0.960217 0.829280 0.110672
Si Si5 0.000000 0.500000 0.000000
Si Si6 0.262738 0.363562 0.926061
Si Si7 0.640076 0.880538 0.406765
Si Si8 0.681310 0.071097 0.783028
O O1 0.765647 0.441595 0.689383
O O2 0.650302 0.691158 0.462356
O O3 0.862366 0.510699 0.594980
O O4 0.472596 0.369544 0.208310
O O5 0.225578 0.553711 0.911694
O O6 0.025501 0.797692 0.686242
O O7 0.151834 0.728036 0.022677
O O8 0.240693 0.311211 0.770775
O O9 0.300252 0.117030 0.661376
O O10 0.000000 0.000000 0.500000
O O11 0.904591 0.773413 0.179711
O O12 0.942785 0.654381 0.017346
O O13 0.181574 0.964035 0.343324
O O14 0.809283 0.935823 0.913092
O O15 0.433776 0.914679 0.222052
O O16 0.500000 0.000000 0.500000
#
# Coordination Sequence:
#
# PCOD9062316 Si02
#       8
#     2   2   2   2   1   2   2   2
#     4  11  25  46  72 106 150 188 248 296 373 439
#     4  11  24  47  71 109 148 189 251 303 365 441
#     4  11  23  50  76 106 153 192 242 315 369 429
#     4  12  27  46  72 107 149 188 255 305 364 447
#     4  12  28  46  72 108 152 192 236 322 368 420
#     4  12  25  47  74 109 145 196 244 307 370 438
#     4  11  25  48  75 108 145 198 250 295 371 451
#     4  12  26  45  76 107 147 199 243 302 371 443
#
# _framework density 24.272513
#
# number of rings (size 3 to 8) (size 9 to 14) (size 15 to 20)
#    0.000    0.533    6.667    1.200    3.733    3.733 
#    2.400    1.333    0.000    0.000    0.000    0.000 
#    0.000    0.000    0.000    0.000    0.000    0.000 
#
# Total GULP energy -83712.213049 kJ/mol
# GULP energy per Si atom -5580.814203 kJ/mol
# Density = 2.421727 g / cm^3
# Si number density = 24.272513 Si / 1000 Ang^3
#
#
#
# Elastic Constant Matrix: (Units=GPa)
#
#
# Indices 1 2 3 4 5 6 
#
# 1 103.6346 11.5335 22.2806 -5.1551 -10.3470 -28.0128
# 2 11.5335 75.1331 18.8592 6.4289 -7.0597 -28.4329
# 3 22.2806 18.8592 127.5818 0.7174 -3.9984 -20.4622
# 4 -5.1551 6.4289 0.7174 28.6928 -7.6715 -7.7910
# 5 -10.3470 -7.0597 -3.9984 -7.6715 47.8828 1.3100
# 6 -28.0128 -28.4329 -20.4622 -7.7910 1.3100 51.8971
#
#
#
# Elastic Compliance Matrix: (Units=1/GPa)
#
#
# Indices 1 2 3 4 5 6 
#
# 1 0.012361 0.001101 -0.001038 0.004934 0.003331 0.007523
# 2 0.001101 0.017276 -0.001149 -0.000439 0.002359 0.009481
# 3 -0.001038 -0.001149 0.008560 0.000564 0.000350 0.002261
# 4 0.004934 -0.000439 0.000564 0.040058 0.007234 0.008476
# 5 0.003331 0.002359 0.000350 0.007234 0.023038 0.003733
# 6 0.007523 0.009481 0.002261 0.008476 0.003733 0.030593
#
#
# Mechanical properties :
#
#
# Convention : Reuss Voigt Hill
#
# Bulk Modulus (GPa) = 27.75911 45.74401 36.75156
# Shear Modulus (GPa) = 34.23052 42.60629 38.41841
#
# Velocity S-wave (km/s) = 3.75941 4.19421 3.98275
# Velocity P-wave (km/s) = 5.50505 6.50708 6.02693
#
# Compressibility (1/GPa) = 0.03602420
#
# Stress axis : x y z
#
# Youngs Moduli (GPa) = 80.89683 57.88281 116.82691
#
# Poissons Ratio (x) = -0.06371 0.12130
# Poissons Ratio (y) = -0.08905 0.13424
# Poissons Ratio (z) = 0.08399 0.06651
#
# Static dielectric constant tensor:
#      x y z
#    x 1.909910 -0.002360 -0.007380 
#    y -0.002360 1.873180 0.069200 
#    z -0.007380 0.069200 1.960400 
# 
# From -- ./inp_files/443257.got.cif
#   From: 2010.05.17/outbox.cif.g08.bks.cpg/sg2_222_cif.got.tgz:443257.got - 2010.06.03 11:33:40.
