data_PCOD9062513
_publ_section_title
;
Structure prediction by ZEFSAII (Michael W. Deem and Ramdas Pophale) SiO2 
 PCOD9062513
Probable space group: P -1
;
_chemical_formula_sum "Si O2"
_cell_formula_units_Z 16
_cell_length_a 11.586924
_cell_length_b 6.083682
_cell_length_c 11.778977
_cell_angle_alpha 70.441886
_cell_angle_beta 109.017061
_cell_angle_gamma 99.273696
_cell_volume 738.439674
_symmetry_space_group_name_H-M "P -1"
_symmetry_group_IT_number 2
_symmetry_cell_setting 'triclinic'
loop_
_space_group_symop_operation_xyz
x,y,z
-x,-y,-z
loop_
_atom_site_type_symbol
_atom_site_label
_atom_site_fract_x
_atom_site_fract_y
_atom_site_fract_z
Si Si1 0.123419 0.379003 0.720130
Si Si2 0.957281 0.969742 0.841948
Si Si3 0.509018 0.712066 0.566592
Si Si4 0.603552 0.448096 0.208639
Si Si5 0.591974 0.220204 0.009500
Si Si6 0.839934 0.240274 0.946864
Si Si7 0.789460 0.674368 0.697019
Si Si8 0.954210 0.734418 0.542538
O O1 0.268584 0.395506 0.780186
O O2 0.080968 0.330671 0.586049
O O3 0.050848 0.187898 0.806716
O O4 0.062220 0.625311 0.670175
O O5 0.869931 0.030884 0.907209
O O6 0.867568 0.905366 0.721979
O O7 0.042078 0.759124 0.934877
O O8 0.500000 0.500000 0.500000
O O9 0.418990 0.640757 0.654954
O O10 0.647009 0.696581 0.655582
O O11 0.500000 0.000000 0.500000
O O12 0.616207 0.260578 0.144102
O O13 0.483258 0.575065 0.107032
O O14 0.718394 0.199286 0.988137
O O15 0.500000 0.000000 0.000000
O O16 0.824963 0.463676 0.824935
O O17 0.833097 0.648306 0.587427
O O18 0.000000 0.000000 0.500000
#
# Coordination Sequence:
#
# PCOD9062513 Si02
#       8
#     2   2   2   2   2   2   2   2
#     4  11  24  44  67 101 147 179 257 301 385 452
#     4  11  25  42  73 108 139 196 241 321 381 468
#     4  12  31  52  82 114 155 210 265 324 388 460
#     4  11  27  46  72 109 144 199 254 317 384 470
#     4  11  26  46  74 102 146 198 252 317 391 461
#     4  11  25  45  69 105 147 185 251 310 394 455
#     4  12  25  45  76 100 151 186 255 309 388 452
#     4  11  24  41  67 101 136 192 232 307 375 447
#
# _framework density 21.667307000000001
#
# number of rings (size 3 to 8) (size 9 to 14) (size 15 to 20)
#    0.000    0.750    3.750    1.875    8.750    3.000 
#    0.000    0.000    0.000    0.000    0.000    0.000 
#    0.000    0.000    0.000    0.000    0.000    0.000 
#
# Total GULP energy -89211.849719 kJ/mol
# GULP energy per Si atom -5575.740607 kJ/mol
# Density = 2.161799 g / cm^3
# Si number density = 21.667307 Si / 1000 Ang^3
#
#
#
# Elastic Constant Matrix: (Units=GPa)
#
#
# Indices 1 2 3 4 5 6 
#
# 1 151.4790 48.2550 41.4672 -1.1511 -8.5216 -6.3840
# 2 48.2550 88.1367 52.2228 -8.7210 -6.1859 8.5719
# 3 41.4672 52.2228 98.2700 1.4000 -14.5118 -3.2289
# 4 -1.1511 -8.7210 1.4000 36.8016 0.3278 -0.0080
# 5 -8.5216 -6.1859 -14.5118 0.3278 54.4466 2.9074
# 6 -6.3840 8.5719 -3.2289 -0.0080 2.9074 21.7679
#
#
#
# Elastic Compliance Matrix: (Units=1/GPa)
#
#
# Indices 1 2 3 4 5 6 
#
# 1 0.008496 -0.004512 -0.000992 -0.000768 0.000340 0.004076
# 2 -0.004512 0.021247 -0.009881 0.005271 -0.000365 -0.011105
# 3 -0.000992 -0.009881 0.016493 -0.003024 0.002834 0.005667
# 4 -0.000768 0.005271 -0.003024 0.028515 -0.000355 -0.002691
# 5 0.000340 -0.000365 0.002834 -0.000355 0.019238 -0.001906
# 6 0.004076 -0.011105 0.005667 -0.002691 -0.001906 0.052602
#
#
# Mechanical properties :
#
#
# Convention : Reuss Voigt Hill
#
# Bulk Modulus (GPa) = 64.65895 69.08620 66.87257
# Shear Modulus (GPa) = 27.39486 35.66592 31.53039
#
# Velocity S-wave (km/s) = 3.55961 4.06158 3.81885
# Velocity P-wave (km/s) = 6.84112 7.34503 7.09755
#
# Compressibility (1/GPa) = 0.01546576
#
# Stress axis : x y z
#
# Youngs Moduli (GPa) = 117.70898 47.06548 60.63033
#
# Poissons Ratio (x) = 0.21236 0.06015
# Poissons Ratio (y) = 0.53110 0.59909
# Poissons Ratio (z) = 0.11678 0.46505
#
# Static dielectric constant tensor:
#      x y z
#    x 1.829690 -0.083760 -0.040090 
#    y -0.083760 1.997740 -0.023580 
#    z -0.040090 -0.023580 1.861690 
# 
# From -- ./inp_files/410113.got.cif
#   From: 2010.05.17/outbox.cif.g08.bks.cpg/sg2_206_cif.got.tgz:410113.got - 2010.06.03 11:33:40.
