data_PCOD9062692
_publ_section_title
;
Structure prediction by ZEFSAII (Michael W. Deem and Ramdas Pophale) SiO2 
 PCOD9062692
Probable space group: P -1
;
_chemical_formula_sum "Si O2"
_cell_formula_units_Z 14
_cell_length_a 12.390997
_cell_length_b 8.702856
_cell_length_c 12.921717
_cell_angle_alpha 82.749048
_cell_angle_beta 34.862741
_cell_angle_gamma 60.891864
_cell_volume 582.794181
_symmetry_space_group_name_H-M "P -1"
_symmetry_group_IT_number 2
_symmetry_cell_setting 'triclinic'
loop_
_space_group_symop_operation_xyz
x,y,z
-x,-y,-z
loop_
_atom_site_type_symbol
_atom_site_label
_atom_site_fract_x
_atom_site_fract_y
_atom_site_fract_z
Si Si1 0.236887 0.225189 0.228296
Si Si2 0.044381 0.599285 0.073088
Si Si3 0.129011 0.037254 0.483627
Si Si4 0.757581 0.510517 0.445330
Si Si5 0.260921 0.570978 0.118485
Si Si6 0.530487 0.309934 0.594516
Si Si7 0.735863 0.062929 0.237961
O O1 0.209942 0.159317 0.365210
O O2 0.240857 0.406953 0.193519
O O3 0.965874 0.333939 0.377989
O O4 0.500000 0.000000 0.000000
O O5 0.224748 0.579217 0.022592
O O6 0.926773 0.521156 0.234722
O O7 0.228844 0.471813 0.841569
O O8 0.815231 0.840335 0.200029
O O9 0.941915 0.187465 0.709546
O O10 0.359726 0.825672 0.375443
O O11 0.000000 0.000000 0.500000
O O12 0.632705 0.428427 0.501008
O O13 0.511751 0.751124 0.651944
O O14 0.500000 0.500000 0.000000
O O15 0.640883 0.165432 0.418555
O O16 0.000000 0.000000 0.000000
#
# Coordination Sequence:
#
# PCOD9062692 Si02
#       7
#     2   2   2   2   2   2   2
#     4  11  24  44  70 108 143 191 250 299 370 450
#     4  11  25  49  70 108 146 191 252 300 370 442
#     4  12  22  42  69 101 146 190 235 300 363 437
#     4  11  25  46  74 104 149 195 244 307 364 438
#     4  11  24  42  68 104 144 191 240 303 366 435
#     4  12  25  48  74 108 148 193 247 301 372 438
#     4  12  26  49  76 107 148 194 249 307 370 437
#
# _framework density 24.022200000000002
#
# number of rings (size 3 to 8) (size 9 to 14) (size 15 to 20)
#    0.000    0.571    4.286    4.714    0.000    0.571 
#    2.571    1.429    0.000    0.000    0.000    0.000 
#    0.000    0.000    0.000    0.000    0.000    0.000 
#
# Total GULP energy -78223.163994 kJ/mol
# GULP energy per Si atom -5587.368857 kJ/mol
# Density = 2.396752 g / cm^3
# Si number density = 24.022200 Si / 1000 Ang^3
#
#
#
# Elastic Constant Matrix: (Units=GPa)
#
#
# Indices 1 2 3 4 5 6 
#
# 1 82.2490 24.9153 36.9062 12.6180 -9.9434 -19.0931
# 2 24.9153 123.6045 25.0588 18.4946 -6.4169 -3.9133
# 3 36.9062 25.0588 154.2181 26.0370 -3.1492 2.0444
# 4 12.6180 18.4946 26.0370 56.3294 1.4454 -9.9851
# 5 -9.9434 -6.4169 -3.1492 1.4454 42.4131 6.0749
# 6 -19.0931 -3.9133 2.0444 -9.9851 6.0749 37.0054
#
#
#
# Elastic Compliance Matrix: (Units=1/GPa)
#
#
# Indices 1 2 3 4 5 6 
#
# 1 0.016654 -0.002255 -0.003708 0.000132 0.002102 0.008250
# 2 -0.002255 0.009029 -0.000481 -0.002443 0.001030 -0.001010
# 3 -0.003708 -0.000481 0.008063 -0.003339 0.000251 -0.003351
# 4 0.000132 -0.002443 -0.003339 0.021201 -0.002179 0.006073
# 5 0.002102 0.001030 0.000251 -0.002179 0.024818 -0.003483
# 6 0.008250 -0.001010 -0.003351 0.006073 -0.003483 0.033568
#
#
# Mechanical properties :
#
#
# Convention : Reuss Voigt Hill
#
# Bulk Modulus (GPa) = 47.93957 59.31469 53.62713
# Shear Modulus (GPa) = 37.54521 45.36234 41.45377
#
# Velocity S-wave (km/s) = 3.95769 4.35023 4.15859
# Velocity P-wave (km/s) = 6.39407 7.06950 6.74025
#
# Compressibility (1/GPa) = 0.02085959
#
# Stress axis : x y z
#
# Youngs Moduli (GPa) = 60.04616 110.75114 124.02253
#
# Poissons Ratio (x) = 0.24971 0.45985
# Poissons Ratio (y) = 0.13539 0.05962
# Poissons Ratio (z) = 0.22264 0.05324
#
# Static dielectric constant tensor:
#      x y z
#    x 1.650660 0.206380 0.345640 
#    y 0.206380 1.846150 -0.135820 
#    z 0.345640 -0.135820 1.824500 
# 
# From -- ./inp_files/528452.got.cif
#   From: 2010.05.17/outbox.cif.g08.bks.cpg/sg2_265_cif.got.tgz:528452.got - 2010.06.03 11:33:40.
