data_PCOD9062501
_publ_section_title
;
Structure prediction by ZEFSAII (Michael W. Deem and Ramdas Pophale) SiO2 
 PCOD9062501
Probable space group: P -1
;
_chemical_formula_sum "Si O2"
_cell_formula_units_Z 16
_cell_length_a 14.021769
_cell_length_b 10.792399
_cell_length_c 6.397848
_cell_angle_alpha 75.551369
_cell_angle_beta 88.284186
_cell_angle_gamma 126.110886
_cell_volume 737.791492
_symmetry_space_group_name_H-M "P -1"
_symmetry_group_IT_number 2
_symmetry_cell_setting 'triclinic'
loop_
_space_group_symop_operation_xyz
x,y,z
-x,-y,-z
loop_
_atom_site_type_symbol
_atom_site_label
_atom_site_fract_x
_atom_site_fract_y
_atom_site_fract_z
Si Si1 0.952779 0.977237 0.280165
Si Si2 0.999376 0.406921 0.736466
Si Si3 0.467802 0.862595 0.893204
Si Si4 0.504337 0.405036 0.845921
Si Si5 0.801486 0.289125 0.159555
Si Si6 0.300741 0.010678 0.407438
Si Si7 0.687451 0.716850 0.441472
Si Si8 0.117931 0.930461 0.102857
O O1 0.826094 0.796448 0.360221
O O2 0.075091 0.035267 0.130135
O O3 0.000000 0.000000 0.500000
O O4 0.905138 0.071792 0.142820
O O5 0.118195 0.537272 0.804715
O O6 0.000000 0.500000 0.500000
O O7 0.984604 0.249995 0.730651
O O8 0.881305 0.323529 0.932178
O O9 0.331526 0.774995 0.866150
O O10 0.569591 0.944751 0.670736
O O11 0.475528 0.724966 0.039895
O O12 0.500000 0.000000 0.000000
O O13 0.612700 0.545241 0.634046
O O14 0.381480 0.312382 0.757859
O O15 0.500000 0.500000 0.000000
O O16 0.778061 0.153874 0.381772
O O17 0.236900 0.988231 0.196522
O O18 0.315813 0.156710 0.469093
#
# Coordination Sequence:
#
# PCOD9062501 Si02
#       8
#     2   2   2   2   2   2   2   2
#     4  11  24  41  66 104 134 177 238 293 348 429
#     4  11  24  46  68  97 142 187 233 292 363 434
#     4  12  26  45  73 106 143 188 247 303 357 435
#     4  11  25  47  69 101 142 187 234 292 370 430
#     4  11  26  43  70 102 137 186 240 297 362 424
#     4  12  22  47  72  98 148 190 243 306 365 436
#     4  11  24  43  72  98 139 189 236 294 364 433
#     4  11  24  41  69  98 140 186 234 292 363 426
#
# _framework density 21.686344999999999
#
# number of rings (size 3 to 8) (size 9 to 14) (size 15 to 20)
#    0.000    0.750    3.750    3.375    0.000    3.000 
#    0.000    0.000    0.000    0.000    0.000    0.000 
#    0.000    0.000    0.000    0.000    0.000    0.000 
#
# Total GULP energy -89258.046914 kJ/mol
# GULP energy per Si atom -5578.627932 kJ/mol
# Density = 2.163699 g / cm^3
# Si number density = 21.686345 Si / 1000 Ang^3
#
#
#
# Elastic Constant Matrix: (Units=GPa)
#
#
# Indices 1 2 3 4 5 6 
#
# 1 132.3376 55.7661 54.2253 3.9286 2.6485 33.0695
# 2 55.7661 120.4938 37.0023 6.8759 11.2159 19.3334
# 3 54.2253 37.0023 126.0910 -15.5432 19.3400 14.1817
# 4 3.9286 6.8759 -15.5432 37.5092 5.4244 0.6840
# 5 2.6485 11.2159 19.3400 5.4244 49.1682 0.9463
# 6 33.0695 19.3334 14.1817 0.6840 0.9463 47.7885
#
#
#
# Elastic Compliance Matrix: (Units=1/GPa)
#
#
# Indices 1 2 3 4 5 6 
#
# 1 0.012257 -0.003489 -0.004255 -0.002621 0.002211 -0.005813
# 2 -0.003489 0.010877 -0.001560 -0.002042 -0.001426 -0.001466
# 3 -0.004255 -0.001560 0.011700 0.006259 -0.004710 0.000107
# 4 -0.002621 -0.002042 0.006259 0.030653 -0.005245 0.000447
# 5 0.002211 -0.001426 -0.004710 -0.005245 0.022975 0.000065
# 6 -0.005813 -0.001466 0.000107 0.000447 0.000065 0.025502
#
#
# Mechanical properties :
#
#
# Convention : Reuss Voigt Hill
#
# Bulk Modulus (GPa) = 61.62864 74.76776 68.19820
# Shear Modulus (GPa) = 36.23682 42.35509 39.29595
#
# Velocity S-wave (km/s) = 4.09216 4.42416 4.26139
# Velocity P-wave (km/s) = 7.12794 7.78776 7.46515
#
# Compressibility (1/GPa) = 0.01622622
#
# Stress axis : x y z
#
# Youngs Moduli (GPa) = 81.58837 91.93344 85.46715
#
# Poissons Ratio (x) = 0.32077 0.36369
# Poissons Ratio (y) = 0.28468 0.13329
# Poissons Ratio (z) = 0.34719 0.14338
#
# Static dielectric constant tensor:
#      x y z
#    x 1.818240 -0.065060 -0.029760 
#    y -0.065060 1.830180 0.063360 
#    z -0.029760 0.063360 1.995600 
# 
# From -- ./inp_files/94642.got.cif
#   From: 2010.05.17/outbox.cif.g08.bks.cpg/sg2_48_cif.got.tgz:94642.got - 2010.06.03 11:33:40.
