data_PCOD9062783
_publ_section_title
;
Structure prediction by ZEFSAII (Michael W. Deem and Ramdas Pophale) SiO2 
 PCOD9062783
Probable space group: P -1
;
_chemical_formula_sum "Si O2"
_cell_formula_units_Z 16
_cell_length_a 9.991976
_cell_length_b 9.350840
_cell_length_c 11.987950
_cell_angle_alpha 52.269036
_cell_angle_beta 130.747560
_cell_angle_gamma 105.283504
_cell_volume 653.644611
_symmetry_space_group_name_H-M "P -1"
_symmetry_group_IT_number 2
_symmetry_cell_setting 'triclinic'
loop_
_space_group_symop_operation_xyz
x,y,z
-x,-y,-z
loop_
_atom_site_type_symbol
_atom_site_label
_atom_site_fract_x
_atom_site_fract_y
_atom_site_fract_z
Si Si1 0.786097 0.513573 0.864511
Si Si2 0.684290 0.905516 0.206925
Si Si3 0.696350 0.915718 0.597541
Si Si4 0.551792 0.311790 0.688990
Si Si5 0.329808 0.815001 0.747160
Si Si6 0.824453 0.071545 0.795404
Si Si7 0.726160 0.577498 0.058932
Si Si8 0.018016 0.326703 0.674787
O O1 0.715512 0.706764 0.668214
O O2 0.702639 0.354821 0.838083
O O3 0.713769 0.546176 0.935704
O O4 0.000000 0.500000 0.000000
O O5 0.620917 0.742560 0.320249
O O6 0.839135 0.831478 0.237330
O O7 0.738211 0.057227 0.244721
O O8 0.500000 0.000000 0.000000
O O9 0.500000 0.000000 0.500000
O O10 0.724561 0.052026 0.450903
O O11 0.818040 0.918279 0.772019
O O12 0.500000 0.500000 0.500000
O O13 0.651462 0.139402 0.748080
O O14 0.263938 0.625979 0.787733
O O15 0.546534 0.732081 0.918323
O O16 0.842919 0.251481 0.647090
O O17 0.000000 0.000000 0.000000
O O18 0.896458 0.636495 0.177482
O O19 0.000000 0.500000 0.500000
#
# Coordination Sequence:
#
# PCOD9062783 Si02
#       8
#     2   2   2   2   2   2   2   2
#     4  12  26  45  68 102 144 182 225 289 358 410
#     4  12  24  44  70 104 135 182 240 285 338 417
#     4  12  24  44  73 101 134 186 242 280 335 425
#     4  12  26  44  70 103 137 180 235 285 336 412
#     4  11  24  42  71 101 134 179 238 291 333 408
#     4  12  26  46  69 102 141 184 224 286 357 409
#     4  11  24  44  69  98 139 183 229 285 355 407
#     4  12  26  45  70 102 145 184 226 288 359 417
#
# _framework density 24.478135000000002
#
# number of rings (size 3 to 8) (size 9 to 14) (size 15 to 20)
#    0.000    0.250    2.500    7.500    1.750    2.000 
#    0.000    1.875    0.000    0.000    0.000    0.000 
#    0.000    0.000    0.000    0.000    0.000    0.000 
#
# Total GULP energy -89638.328254 kJ/mol
# GULP energy per Si atom -5602.395516 kJ/mol
# Density = 2.442242 g / cm^3
# Si number density = 24.478135 Si / 1000 Ang^3
#
#
#
# Elastic Constant Matrix: (Units=GPa)
#
#
# Indices 1 2 3 4 5 6 
#
# 1 58.8040 9.2018 -4.5052 -6.4619 -11.6444 -1.3692
# 2 9.2018 115.9573 17.9421 8.8777 -7.4342 -6.5801
# 3 -4.5052 17.9421 76.5261 -3.1029 -21.1148 -9.8405
# 4 -6.4619 8.8777 -3.1029 49.8214 4.9650 -5.9124
# 5 -11.6444 -7.4342 -21.1148 4.9650 39.9033 -3.1837
# 6 -1.3692 -6.5801 -9.8405 -5.9124 -3.1837 34.2587
#
#
#
# Elastic Compliance Matrix: (Units=1/GPa)
#
#
# Indices 1 2 3 4 5 6 
#
# 1 0.019404 -0.001742 0.004045 0.002671 0.007365 0.002748
# 2 -0.001742 0.009317 -0.002155 -0.001965 0.000395 0.000799
# 3 0.004045 -0.002155 0.017498 0.001686 0.010309 0.006023
# 4 0.002671 -0.001965 0.001686 0.021431 -0.001057 0.003814
# 5 0.007365 0.000395 0.010309 -0.001057 0.033368 0.006250
# 6 0.002748 0.000799 0.006023 0.003814 0.006250 0.032422
#
#
# Mechanical properties :
#
#
# Convention : Reuss Voigt Hill
#
# Bulk Modulus (GPa) = 21.49892 32.95166 27.22529
# Shear Modulus (GPa) = 33.63625 40.03994 36.83809
#
# Velocity S-wave (km/s) = 3.71095 4.04882 3.88356
# Velocity P-wave (km/s) = 5.21187 5.94543 5.59069
#
# Compressibility (1/GPa) = 0.04651397
#
# Stress axis : x y z
#
# Youngs Moduli (GPa) = 51.53569 107.33518 57.14981
#
# Poissons Ratio (x) = 0.18698 -0.23115
# Poissons Ratio (y) = 0.08978 0.12315
# Poissons Ratio (z) = -0.20844 0.23129
#
# Static dielectric constant tensor:
#      x y z
#    x 1.926070 0.045820 -0.021720 
#    y 0.045820 2.076270 0.018270 
#    z -0.021720 0.018270 1.967940 
# 
# From -- ./inp_files/419221.got.cif
#   From: 2010.05.17/outbox.cif.g08.bks.cpg/sg2_210_cif.got.tgz:419221.got - 2010.06.03 11:33:40.
