data_PCOD9062603
_publ_section_title
;
Structure prediction by ZEFSAII (Michael W. Deem and Ramdas Pophale) SiO2 
 PCOD9062603
Probable space group: P -1
;
_chemical_formula_sum "Si O2"
_cell_formula_units_Z 16
_cell_length_a 11.718017
_cell_length_b 9.789888
_cell_length_c 12.415943
_cell_angle_alpha 104.736806
_cell_angle_beta 38.988903
_cell_angle_gamma 78.212408
_cell_volume 650.581203
_symmetry_space_group_name_H-M "P -1"
_symmetry_group_IT_number 2
_symmetry_cell_setting 'triclinic'
loop_
_space_group_symop_operation_xyz
x,y,z
-x,-y,-z
loop_
_atom_site_type_symbol
_atom_site_label
_atom_site_fract_x
_atom_site_fract_y
_atom_site_fract_z
Si Si1 0.242948 0.376672 0.229172
Si Si2 0.821903 0.959061 0.154421
Si Si3 0.504341 0.535059 0.629358
Si Si4 0.917546 0.327915 0.753448
Si Si5 0.776507 0.588967 0.100552
Si Si6 0.298876 0.832931 0.007202
Si Si7 0.361470 0.041100 0.483774
Si Si8 0.053901 0.234573 0.195529
O O1 0.222192 0.540535 0.220423
O O2 0.466926 0.237591 0.114480
O O3 0.222787 0.261710 0.133898
O O4 0.000000 0.500000 0.500000
O O5 0.820418 0.905309 0.270697
O O6 0.561808 0.814620 0.290594
O O7 0.887560 0.945449 0.828849
O O8 0.000000 0.000000 0.000000
O O9 0.500000 0.500000 0.500000
O O10 0.373238 0.468740 0.761966
O O11 0.368615 0.739154 0.819105
O O12 0.774697 0.411947 0.448934
O O13 0.202055 0.142506 0.514114
O O14 0.897988 0.470192 0.878386
O O15 0.795390 0.250116 0.871693
O O16 0.910184 0.803961 0.966951
O O17 0.000000 0.500000 0.000000
O O18 0.474517 0.901136 0.610614
#
# Coordination Sequence:
#
# PCOD9062603 Si02
#       8
#     2   2   2   2   2   2   2   2
#     4  12  27  52  75 105 145 194 260 320 373 441
#     4  11  24  41  72 108 151 194 243 298 372 454
#     4  11  27  42  73 115 153 190 245 305 371 461
#     4  11  26  47  75 103 147 196 249 313 379 443
#     4  11  24  42  68 106 155 194 241 300 373 448
#     4  11  26  51  78 107 146 202 253 310 378 452
#     4  11  25  45  68 112 154 199 248 302 376 463
#     4  12  27  47  78 111 150 198 248 309 383 444
#
# _framework density 24.593394
#
# number of rings (size 3 to 8) (size 9 to 14) (size 15 to 20)
#    0.000    0.750    1.250    5.250   12.250    0.000 
#    2.250    0.625    0.000    0.000    0.000    0.000 
#    0.000    0.000    0.000    0.000    0.000    0.000 
#
# Total GULP energy -89385.954885 kJ/mol
# GULP energy per Si atom -5586.622180 kJ/mol
# Density = 2.453742 g / cm^3
# Si number density = 24.593394 Si / 1000 Ang^3
#
#
#
# Elastic Constant Matrix: (Units=GPa)
#
#
# Indices 1 2 3 4 5 6 
#
# 1 92.3346 21.6527 15.9082 4.6569 -21.1088 1.7222
# 2 21.6527 117.6354 31.7653 -1.9743 7.0839 -3.3664
# 3 15.9082 31.7653 85.7629 -5.4481 -19.1393 2.7275
# 4 4.6569 -1.9743 -5.4481 46.2841 0.4356 -8.4362
# 5 -21.1088 7.0839 -19.1393 0.4356 32.7397 1.8946
# 6 1.7222 -3.3664 2.7275 -8.4362 1.8946 41.8361
#
#
#
# Elastic Compliance Matrix: (Units=1/GPa)
#
#
# Indices 1 2 3 4 5 6 
#
# 1 0.014031 -0.003572 0.001010 -0.001870 0.010538 -0.001785
# 2 -0.003572 0.011109 -0.005230 0.000632 -0.007881 0.001866
# 3 0.001010 -0.005230 0.016050 0.001132 0.011254 -0.001790
# 4 -0.001870 0.000632 0.001132 0.022825 -0.001257 0.004714
# 5 0.010538 -0.007881 0.011254 -0.001257 0.045878 -0.004133
# 6 -0.001785 0.001866 -0.001790 0.004714 -0.004133 0.025381
#
#
# Mechanical properties :
#
#
# Convention : Reuss Voigt Hill
#
# Bulk Modulus (GPa) = 39.05356 48.26502 43.65929
# Shear Modulus (GPa) = 31.36886 39.26576 35.31731
#
# Velocity S-wave (km/s) = 3.57529 4.00008 3.79363
# Velocity P-wave (km/s) = 5.74088 6.40328 6.08111
#
# Compressibility (1/GPa) = 0.02560586
#
# Stress axis : x y z
#
# Youngs Moduli (GPa) = 71.27305 90.01498 62.30460
#
# Poissons Ratio (x) = 0.32157 -0.06295
# Poissons Ratio (y) = 0.25462 0.32585
# Poissons Ratio (z) = -0.07201 0.47078
#
# Static dielectric constant tensor:
#      x y z
#    x 1.983820 -0.011960 0.041030 
#    y -0.011960 2.046890 0.003590 
#    z 0.041030 0.003590 2.016430 
# 
# From -- ./inp_files/426151.got.cif
#   From: 2010.05.17/outbox.cif.g08.bks.cpg/sg2_214_cif.got.tgz:426151.got - 2010.06.03 11:33:40.
