data_PCOD9062089
_publ_section_title
;
Structure prediction by ZEFSAII (Michael W. Deem and Ramdas Pophale) SiO2 
 PCOD9062089
Probable space group: P -1
;
_chemical_formula_sum "Si O2"
_cell_formula_units_Z 14
_cell_length_a 12.025365
_cell_length_b 9.149395
_cell_length_c 9.128983
_cell_angle_alpha 83.497104
_cell_angle_beta 38.467420
_cell_angle_gamma 89.280597
_cell_volume 616.069995
_symmetry_space_group_name_H-M "P -1"
_symmetry_group_IT_number 2
_symmetry_cell_setting 'triclinic'
loop_
_space_group_symop_operation_xyz
x,y,z
-x,-y,-z
loop_
_atom_site_type_symbol
_atom_site_label
_atom_site_fract_x
_atom_site_fract_y
_atom_site_fract_z
Si Si1 0.082433 0.989491 0.577330
Si Si2 0.752635 0.030214 0.096299
Si Si3 0.545203 0.106768 0.802047
Si Si4 0.265790 0.175252 0.600534
Si Si5 0.337479 0.664432 0.810026
Si Si6 0.515710 0.443102 0.826624
Si Si7 0.189353 0.481099 0.726074
O O1 0.185109 0.139768 0.527319
O O2 0.238159 0.882858 0.437325
O O3 0.000000 0.000000 0.500000
O O4 0.910651 0.958121 0.861289
O O5 0.570575 0.965069 0.206894
O O6 0.752355 0.974236 0.268725
O O7 0.789211 0.210419 0.033176
O O8 0.487450 0.266777 0.871527
O O9 0.500000 0.000000 0.000000
O O10 0.472356 0.239361 0.372686
O O11 0.187486 0.304275 0.756499
O O12 0.357063 0.517486 0.899119
O O13 0.318353 0.600887 0.674071
O O14 0.711929 0.490344 0.539299
O O15 0.500000 0.500000 0.000000
O O16 0.000000 0.500000 0.000000
#
# Coordination Sequence:
#
# PCOD9062089 Si02
#       7
#     2   2   2   2   2   2   2
#     4  12  27  43  71 107 145 189 247 302 368 430
#     4  12  24  43  76 106 144 187 248 305 364 431
#     4  12  25  47  73 103 150 193 242 307 367 439
#     4  11  24  44  71 107 142 191 248 299 360 442
#     4  11  23  47  72 104 145 192 239 301 373 437
#     4  11  26  45  73 103 141 196 246 290 370 442
#     4  11  25  45  71 106 152 187 239 305 369 435
#
# _framework density 22.724691
#
# number of rings (size 3 to 8) (size 9 to 14) (size 15 to 20)
#    0.000    0.571    2.857    6.000    6.000    0.000 
#    0.000    0.714    0.000    0.000    0.000    0.000 
#    0.000    0.000    0.000    0.000    0.000    0.000 
#
# Total GULP energy -78056.558893 kJ/mol
# GULP energy per Si atom -5575.468492 kJ/mol
# Density = 2.267297 g / cm^3
# Si number density = 22.724691 Si / 1000 Ang^3
#
#
#
# Elastic Constant Matrix: (Units=GPa)
#
#
# Indices 1 2 3 4 5 6 
#
# 1 123.7910 48.4396 41.7894 7.7697 7.9975 27.9986
# 2 48.4396 181.2705 34.3966 32.5860 11.8299 -10.9785
# 3 41.7894 34.3966 102.0057 16.3909 10.9838 -0.6510
# 4 7.7697 32.5860 16.3909 37.6691 2.3465 4.2194
# 5 7.9975 11.8299 10.9838 2.3465 37.0681 0.6755
# 6 27.9986 -10.9785 -0.6510 4.2194 0.6755 41.7409
#
#
#
# Elastic Compliance Matrix: (Units=1/GPa)
#
#
# Indices 1 2 3 4 5 6 
#
# 1 0.013427 -0.004012 -0.004831 0.003999 -0.000246 -0.010538
# 2 -0.004012 0.008231 0.000172 -0.006901 -0.001477 0.005580
# 3 -0.004831 0.000172 0.012835 -0.005029 -0.002571 0.004036
# 4 0.003999 -0.006901 -0.005029 0.034739 0.000778 -0.008100
# 5 -0.000246 -0.001477 -0.002571 0.000778 0.028229 -0.000799
# 6 -0.010538 0.005580 0.004036 -0.008100 -0.000799 0.033388
#
#
# Mechanical properties :
#
#
# Convention : Reuss Voigt Hill
#
# Bulk Modulus (GPa) = 58.30933 72.92427 65.61680
# Shear Modulus (GPa) = 32.48644 42.12506 37.30575
#
# Velocity S-wave (km/s) = 3.78506 4.31015 4.05611
# Velocity P-wave (km/s) = 6.69455 7.54519 7.13256
#
# Compressibility (1/GPa) = 0.01714991
#
# Stress axis : x y z
#
# Youngs Moduli (GPa) = 74.47440 121.49051 77.90926
#
# Poissons Ratio (x) = 0.48748 0.37640
# Poissons Ratio (y) = 0.29883 -0.01338
# Poissons Ratio (z) = 0.35981 -0.02087
#
# Static dielectric constant tensor:
#      x y z
#    x 1.866620 -0.060960 -0.032810 
#    y -0.060960 1.890710 0.037770 
#    z -0.032810 0.037770 1.937570 
# 
# From -- ./inp_files/187574.got.cif
#   From: 2010.05.17/outbox.cif.g08.bks.cpg/sg2_94_cif.got.tgz:187574.got - 2010.06.03 11:33:40.
