data_PCOD9062615
_publ_section_title
;
Structure prediction by ZEFSAII (Michael W. Deem and Ramdas Pophale) SiO2 
 PCOD9062615
Probable space group: P -1
;
_chemical_formula_sum "Si O2"
_cell_formula_units_Z 16
_cell_length_a 9.224547
_cell_length_b 20.284337
_cell_length_c 14.268609
_cell_angle_alpha 19.589434
_cell_angle_beta 128.321984
_cell_angle_gamma 129.140568
_cell_volume 690.955051
_symmetry_space_group_name_H-M "P -1"
_symmetry_group_IT_number 2
_symmetry_cell_setting 'triclinic'
loop_
_space_group_symop_operation_xyz
x,y,z
-x,-y,-z
loop_
_atom_site_type_symbol
_atom_site_label
_atom_site_fract_x
_atom_site_fract_y
_atom_site_fract_z
Si Si1 0.877203 0.179196 0.703399
Si Si2 0.674003 0.761702 0.913125
Si Si3 0.677328 0.943268 0.196911
Si Si4 0.531542 0.250357 0.957212
Si Si5 0.062618 0.727912 0.193590
Si Si6 0.751650 0.682455 0.409554
Si Si7 0.511537 0.321117 0.356499
Si Si8 0.221568 0.066388 0.472677
O O1 0.830803 0.202637 0.761291
O O2 0.682298 0.210591 0.535696
O O3 0.047110 0.348024 0.508658
O O4 0.000000 0.000000 0.000000
O O5 0.536752 0.771235 0.933191
O O6 0.605237 0.541992 0.133448
O O7 0.867744 0.790672 0.009238
O O8 0.725737 0.916040 0.640645
O O9 0.782656 0.824733 0.322504
O O10 0.595373 0.792929 0.445400
O O11 0.500000 0.000000 0.000000
O O12 0.801892 0.159006 0.982593
O O13 0.634237 0.475042 0.675955
O O14 0.365805 0.227095 0.841978
O O15 0.672091 0.094243 0.219390
O O16 0.000000 0.500000 0.500000
O O17 0.335768 0.282374 0.266024
O O18 0.000000 0.000000 0.500000
#
# Coordination Sequence:
#
# PCOD9062615 Si02
#       8
#     2   2   2   2   2   2   2   2
#     4  12  22  40  66 108 146 178 227 291 366 417
#     4  12  25  48  72 103 144 191 241 290 356 429
#     4  12  21  39  65 102 144 185 227 290 356 423
#     4  11  25  46  73 106 143 187 240 293 361 420
#     4  12  24  38  69 107 145 181 232 291 358 422
#     4  11  24  41  73 110 147 180 231 302 360 428
#     4  12  26  46  72 102 143 189 243 292 359 424
#     4  12  29  51  73 102 143 194 246 292 349 429
#
# _framework density 23.156355000000001
#
# number of rings (size 3 to 8) (size 9 to 14) (size 15 to 20)
#    0.000    0.250    6.250    3.000    1.750    1.000 
#    0.000    0.625    0.000    0.000    0.000    0.000 
#    0.000    0.000    0.000    0.000    0.000    0.000 
#
# Total GULP energy -89088.307815 kJ/mol
# GULP energy per Si atom -5568.019238 kJ/mol
# Density = 2.310365 g / cm^3
# Si number density = 23.156355 Si / 1000 Ang^3
#
#
#
# Elastic Constant Matrix: (Units=GPa)
#
#
# Indices 1 2 3 4 5 6 
#
# 1 161.9874 48.0856 52.7937 12.5015 -31.2103 16.1710
# 2 48.0856 76.9898 14.9152 4.7665 0.1880 18.4195
# 3 52.7937 14.9152 84.9664 2.3846 -19.8249 3.8838
# 4 12.5015 4.7665 2.3846 32.7148 -0.6160 -11.7523
# 5 -31.2103 0.1880 -19.8249 -0.6160 37.0284 7.0603
# 6 16.1710 18.4195 3.8838 -11.7523 7.0603 52.3316
#
#
#
# Elastic Compliance Matrix: (Units=1/GPa)
#
#
# Indices 1 2 3 4 5 6 
#
# 1 0.011180 -0.005169 -0.003915 -0.004299 0.007926 -0.003380
# 2 -0.005169 0.017545 -0.000507 -0.002240 -0.003893 -0.004518
# 3 -0.003915 -0.000507 0.015477 0.000411 0.005063 -0.000351
# 4 -0.004299 -0.002240 0.000411 0.036331 -0.004866 0.010902
# 5 0.007926 -0.003893 0.005063 -0.004866 0.037795 -0.007647
# 6 -0.003380 -0.004518 -0.000351 0.010902 -0.007647 0.025250
#
#
# Mechanical properties :
#
#
# Convention : Reuss Voigt Hill
#
# Bulk Modulus (GPa) = 39.96847 61.72584 50.84716
# Shear Modulus (GPa) = 29.22312 38.29157 33.75734
#
# Velocity S-wave (km/s) = 3.55631 4.07087 3.82226
# Velocity P-wave (km/s) = 5.84473 6.98641 6.44092
#
# Compressibility (1/GPa) = 0.02501972
#
# Stress axis : x y z
#
# Youngs Moduli (GPa) = 89.44663 56.99781 64.61386
#
# Poissons Ratio (x) = 0.29462 0.25294
# Poissons Ratio (y) = 0.46234 0.03276
# Poissons Ratio (z) = 0.35015 0.02890
#
# Static dielectric constant tensor:
#      x y z
#    x 2.016860 0.004670 -0.063800 
#    y 0.004670 1.989130 -0.099820 
#    z -0.063800 -0.099820 2.044990 
# 
# From -- ./inp_files/508097.got.cif
#   From: 2010.05.17/outbox.cif.g08.bks.cpg/sg2_255_cif.got.tgz:508097.got - 2010.06.03 11:33:40.
