data_PCOD9062891
_publ_section_title
;
Structure prediction by ZEFSAII (Michael W. Deem and Ramdas Pophale) SiO2 
 PCOD9062891
Probable space group: P -1
;
_chemical_formula_sum "Si O2"
_cell_formula_units_Z 14
_cell_length_a 16.483534
_cell_length_b 9.958886
_cell_length_c 10.867803
_cell_angle_alpha 110.972488
_cell_angle_beta 21.795568
_cell_angle_gamma 112.569765
_cell_volume 611.666412
_symmetry_space_group_name_H-M "P -1"
_symmetry_group_IT_number 2
_symmetry_cell_setting 'triclinic'
loop_
_space_group_symop_operation_xyz
x,y,z
-x,-y,-z
loop_
_atom_site_type_symbol
_atom_site_label
_atom_site_fract_x
_atom_site_fract_y
_atom_site_fract_z
Si Si1 0.883221 0.947835 0.775497
Si Si2 0.300979 0.891142 0.301299
Si Si3 0.945174 0.650341 0.178798
Si Si4 0.338868 0.783299 0.799134
Si Si5 0.433943 0.647857 0.874059
Si Si6 0.056983 0.840018 0.846448
Si Si7 0.712404 0.688189 0.078813
O O1 0.086560 0.963724 0.590397
O O2 0.780207 0.781086 0.890638
O O3 0.000000 0.000000 0.500000
O O4 0.702393 0.051127 0.092448
O O5 0.289159 0.863898 0.454323
O O6 0.303764 0.736993 0.180549
O O7 0.500000 0.000000 0.000000
O O8 0.685517 0.646957 0.562236
O O9 0.035285 0.763821 0.982649
O O10 0.000000 0.500000 0.000000
O O11 0.092890 0.693760 0.104273
O O12 0.443233 0.739212 0.764374
O O13 0.488016 0.734422 0.464671
O O14 0.322500 0.483385 0.951302
O O15 0.890821 0.741948 0.953033
O O16 0.000000 0.000000 0.000000
#
# Coordination Sequence:
#
# PCOD9062891 Si02
#       7
#     2   2   2   2   2   2   2
#     4  11  24  43  65 102 132 182 234 287 338 420
#     4  11  25  46  72  99 145 188 232 291 358 411
#     4  12  24  44  69 105 139 175 235 285 346 420
#     4  12  23  44  75 100 141 181 236 288 348 419
#     4  12  24  48  72 105 144 186 229 294 358 418
#     4  11  24  44  71 103 136 187 240 283 346 425
#     4  11  24  43  70 104 138 186 236 288 357 406
#
# _framework density 22.888293000000001
#
# number of rings (size 3 to 8) (size 9 to 14) (size 15 to 20)
#    0.000    0.571    4.286    5.143    0.000    3.429 
#    2.571    0.714    0.000    0.000    0.000    0.000 
#    0.000    0.000    0.000    0.000    0.000    0.000 
#
# Total GULP energy -78319.507485 kJ/mol
# GULP energy per Si atom -5594.250535 kJ/mol
# Density = 2.283620 g / cm^3
# Si number density = 22.888293 Si / 1000 Ang^3
#
#
#
# Elastic Constant Matrix: (Units=GPa)
#
#
# Indices 1 2 3 4 5 6 
#
# 1 36.6333 -5.2794 25.3795 6.4494 1.7854 8.6977
# 2 -5.2794 121.2555 45.0308 20.9961 18.7267 -0.4584
# 3 25.3795 45.0308 87.0174 8.3918 9.0316 3.4415
# 4 6.4494 20.9961 8.3918 35.9770 4.0977 -0.5898
# 5 1.7854 18.7267 9.0316 4.0977 54.7087 -2.7365
# 6 8.6977 -0.4584 3.4415 -0.5898 -2.7365 32.7296
#
#
#
# Elastic Compliance Matrix: (Units=1/GPa)
#
#
# Indices 1 2 3 4 5 6 
#
# 1 0.044603 0.010120 -0.016677 -0.009960 -0.001936 -0.010299
# 2 0.010120 0.013778 -0.008964 -0.007442 -0.003107 -0.001948
# 3 -0.016677 -0.008964 0.020567 0.003452 0.000069 0.002212
# 4 -0.009960 -0.007442 0.003452 0.033169 -0.000043 0.002774
# 5 -0.001936 -0.003107 0.000069 -0.000043 0.019502 0.002093
# 6 -0.010299 -0.001948 0.002212 0.002774 0.002093 0.033255
#
#
# Mechanical properties :
#
#
# Convention : Reuss Voigt Hill
#
# Bulk Modulus (GPa) = 20.87459 41.68535 31.27997
# Shear Modulus (GPa) = 23.59762 36.66808 30.13285
#
# Velocity S-wave (km/s) = 3.21439 4.00690 3.63232
# Velocity P-wave (km/s) = 4.78711 6.29754 5.59354
#
# Compressibility (1/GPa) = 0.04790513
#
# Stress axis : x y z
#
# Youngs Moduli (GPa) = 22.42007 72.58058 48.62062
#
# Poissons Ratio (x) = -0.73452 0.81085
# Poissons Ratio (y) = -0.22689 0.43585
# Poissons Ratio (z) = 0.37390 0.65064
#
# Static dielectric constant tensor:
#      x y z
#    x 1.893130 0.002300 -0.017250 
#    y 0.002300 1.852130 -0.042900 
#    z -0.017250 -0.042900 1.880080 
# 
# From -- ./inp_files/262866.got.cif
#   From: 2010.05.17/outbox.cif.g08.bks.cpg/sg2_132_cif.got.tgz:262866.got - 2010.06.03 11:33:40.
