data_PCOD9062867
_publ_section_title
;
Structure prediction by ZEFSAII (Michael W. Deem and Ramdas Pophale) SiO2 
 PCOD9062867
Probable space group: P -1
;
_chemical_formula_sum "Si O2"
_cell_formula_units_Z 15
_cell_length_a 12.561096
_cell_length_b 9.225504
_cell_length_c 14.909854
_cell_angle_alpha 37.512684
_cell_angle_beta 143.602833
_cell_angle_gamma 145.567297
_cell_volume 534.912193
_symmetry_space_group_name_H-M "P -1"
_symmetry_group_IT_number 2
_symmetry_cell_setting 'triclinic'
loop_
_space_group_symop_operation_xyz
x,y,z
-x,-y,-z
loop_
_atom_site_type_symbol
_atom_site_label
_atom_site_fract_x
_atom_site_fract_y
_atom_site_fract_z
Si Si1 0.898005 0.319914 0.126428
Si Si2 0.764451 0.919492 0.882501
Si Si3 0.274846 0.833428 0.105055
Si Si4 0.388331 0.683666 0.498839
Si Si5 0.143309 0.074783 0.358597
Si Si6 0.802203 0.535647 0.331315
Si Si7 0.709122 0.892589 0.369071
Si Si8 0.500000 0.500000 0.000000
O O1 0.034812 0.649338 0.071888
O O2 0.109081 0.328556 0.228840
O O3 0.799886 0.120293 0.241066
O O4 0.738361 0.193779 0.997848
O O5 0.667355 0.880503 0.940475
O O6 0.708420 0.131424 0.693216
O O7 0.620532 0.590090 0.933096
O O8 0.000000 0.000000 0.000000
O O9 0.475299 0.810990 0.277431
O O10 0.640176 0.847183 0.577950
O O11 0.335483 0.609149 0.603223
O O12 0.303016 0.391674 0.531390
O O13 0.150136 0.980081 0.510264
O O14 0.930943 0.867816 0.265931
O O15 0.000000 0.500000 0.500000
O O16 0.693799 0.453840 0.202947
#
# Coordination Sequence:
#
# PCOD9062867 Si02
#       8
#     2   2   2   2   2   2   2   1
#     4  11  24  42  75 117 156 206 252 325 402 477
#     4  12  28  50  78 111 155 214 265 329 398 469
#     4  11  25  46  72 114 161 199 264 323 396 479
#     4  12  26  48  84 118 158 209 265 332 401 480
#     4  12  24  45  77 114 157 196 263 321 392 479
#     4  12  29  51  79 115 155 215 270 324 392 475
#     4  12  24  45  80 118 156 203 255 327 405 470
#     4  12  30  56  76 110 158 206 276 330 384 464
#
# _framework density 28.041986000000001
#
# number of rings (size 3 to 8) (size 9 to 14) (size 15 to 20)
#    0.000    0.267    4.000    4.400    1.867    5.333 
#    0.000    0.000    0.000    0.000    0.000    0.000 
#    0.000    0.000    0.000    0.000    0.000    0.000 
#
# Total GULP energy -83792.884815 kJ/mol
# GULP energy per Si atom -5586.192321 kJ/mol
# Density = 2.797816 g / cm^3
# Si number density = 28.041986 Si / 1000 Ang^3
#
#
#
# Elastic Constant Matrix: (Units=GPa)
#
#
# Indices 1 2 3 4 5 6 
#
# 1 120.6291 53.1684 64.9800 -2.3891 -18.1441 10.9426
# 2 53.1684 173.5322 50.1706 1.5875 -32.5903 6.8487
# 3 64.9800 50.1706 178.3010 8.6720 -30.4449 -0.9469
# 4 -2.3891 1.5875 8.6720 57.9560 -6.5186 -14.6837
# 5 -18.1441 -32.5903 -30.4449 -6.5186 50.5613 -2.6589
# 6 10.9426 6.8487 -0.9469 -14.6837 -2.6589 51.4149
#
#
#
# Elastic Compliance Matrix: (Units=1/GPa)
#
#
# Indices 1 2 3 4 5 6 
#
# 1 0.011460 -0.002343 -0.003475 0.000606 0.000483 -0.001993
# 2 -0.002343 0.007328 -0.000616 0.000121 0.003513 -0.000273
# 3 -0.003475 -0.000616 0.007578 -0.000707 0.002876 0.000908
# 4 0.000606 0.000121 -0.000707 0.019048 0.002610 0.005417
# 5 0.000483 0.003513 0.002876 0.002610 0.024363 0.001488
# 6 -0.001993 -0.000273 0.000908 0.005417 0.001488 0.021551
#
#
# Mechanical properties :
#
#
# Convention : Reuss Voigt Hill
#
# Bulk Modulus (GPa) = 74.07457 89.90003 81.98730
# Shear Modulus (GPa) = 46.00123 52.26266 49.13194
#
# Velocity S-wave (km/s) = 4.05463 4.32178 4.19033
# Velocity P-wave (km/s) = 6.95651 7.55198 7.26035
#
# Compressibility (1/GPa) = 0.01349991
#
# Stress axis : x y z
#
# Youngs Moduli (GPa) = 87.26285 136.46650 131.95530
#
# Poissons Ratio (x) = 0.31969 0.45850
# Poissons Ratio (y) = 0.20442 0.08123
# Poissons Ratio (z) = 0.30321 0.08401
#
# Static dielectric constant tensor:
#      x y z
#    x 2.322170 -0.363560 0.206790 
#    y -0.363560 3.631200 -0.484750 
#    z 0.206790 -0.484750 2.402420 
# 
# From -- ./inp_files/573367.got.cif
#   From: 2010.05.17/outbox.cif.g08.bks.cpg/sg2_287_cif.got.tgz:573367.got - 2010.06.03 11:33:40.
