data_PCOD9062720
_publ_section_title
;
Structure prediction by ZEFSAII (Michael W. Deem and Ramdas Pophale) SiO2 
 PCOD9062720
Probable space group: P -1
;
_chemical_formula_sum "Si O2"
_cell_formula_units_Z 16
_cell_length_a 6.831704
_cell_length_b 22.915322
_cell_length_c 8.355713
_cell_angle_alpha 61.433577
_cell_angle_beta 56.628344
_cell_angle_gamma 42.288211
_cell_volume 729.108879
_symmetry_space_group_name_H-M "P -1"
_symmetry_group_IT_number 2
_symmetry_cell_setting 'triclinic'
loop_
_space_group_symop_operation_xyz
x,y,z
-x,-y,-z
loop_
_atom_site_type_symbol
_atom_site_label
_atom_site_fract_x
_atom_site_fract_y
_atom_site_fract_z
Si Si1 0.503821 0.150582 0.138199
Si Si2 0.949830 0.186350 0.847187
Si Si3 0.708078 0.928367 0.867202
Si Si4 0.447322 0.948743 0.468903
Si Si5 0.851138 0.463850 0.198249
Si Si6 0.175860 0.667117 0.809735
Si Si7 0.828226 0.595817 0.526608
Si Si8 0.791898 0.357872 0.796716
O O1 0.500551 0.088069 0.105029
O O2 0.620370 0.101748 0.321518
O O3 0.145796 0.236645 0.199824
O O4 0.696606 0.176009 0.946327
O O5 0.835135 0.283036 0.773870
O O6 0.243088 0.123397 0.680207
O O7 0.038015 0.156511 0.033260
O O8 0.791047 0.972187 0.649991
O O9 0.500000 0.000000 0.000000
O O10 0.500000 0.000000 0.500000
O O11 0.861873 0.398755 0.162794
O O12 0.493757 0.548628 0.269641
O O13 0.037867 0.418767 0.335988
O O14 0.000000 0.500000 0.000000
O O15 0.466066 0.648929 0.621044
O O16 0.259540 0.647499 0.985835
O O17 0.000000 0.500000 0.500000
O O18 0.915336 0.647399 0.330626
#
# Coordination Sequence:
#
# PCOD9062720 Si02
#       8
#     2   2   2   2   2   2   2   2
#     4  11  24  42  69 101 140 179 224 284 343 404
#     4  11  24  43  69 100 143 178 223 285 344 408
#     4   9  20  44  67  98 135 172 227 274 338 416
#     4   9  22  42  69 101 133 174 227 271 339 418
#     4  12  24  44  71  97 139 183 229 282 343 408
#     4  12  26  45  67 102 139 183 235 283 343 406
#     4  12  27  46  71  99 137 185 234 290 338 409
#     4  12  25  45  68 101 138 185 235 279 349 404
#
# _framework density 21.944597000000002
#
# number of rings (size 3 to 8) (size 9 to 14) (size 15 to 20)
#    0.000    1.000    3.750    2.250    1.750    6.000 
#    0.000    2.500    0.000    0.000    0.000    0.000 
#    0.000    0.000    0.000    0.000    0.000    0.000 
#
# Total GULP energy -89406.776373 kJ/mol
# GULP energy per Si atom -5587.923523 kJ/mol
# Density = 2.189465 g / cm^3
# Si number density = 21.944597 Si / 1000 Ang^3
#
#
#
# Elastic Constant Matrix: (Units=GPa)
#
#
# Indices 1 2 3 4 5 6 
#
# 1 94.5438 35.0313 18.1038 7.9572 -10.4123 19.9044
# 2 35.0313 87.2035 13.8340 -1.9403 7.6560 37.1351
# 3 18.1038 13.8340 65.6261 1.5848 -20.5941 17.8390
# 4 7.9572 -1.9403 1.5848 24.7395 -1.9721 2.2843
# 5 -10.4123 7.6560 -20.5941 -1.9721 45.3811 -10.9474
# 6 19.9044 37.1351 17.8390 2.2843 -10.9474 37.2616
#
#
#
# Elastic Compliance Matrix: (Units=1/GPa)
#
#
# Indices 1 2 3 4 5 6 
#
# 1 0.013690 -0.005898 -0.001514 -0.004551 0.003388 0.000564
# 2 -0.005898 0.026740 -0.000672 0.005552 -0.012486 -0.027186
# 3 -0.001514 -0.000672 0.019659 0.000293 0.007300 -0.005807
# 4 -0.004551 0.005552 0.000293 0.042764 -0.001511 -0.006308
# 5 0.003388 -0.012486 0.007300 -0.001511 0.032193 0.016691
# 6 0.000564 -0.027186 -0.005807 -0.006308 0.016691 0.061699
#
#
# Mechanical properties :
#
#
# Convention : Reuss Voigt Hill
#
# Bulk Modulus (GPa) = 22.76843 42.36797 32.56820
# Shear Modulus (GPa) = 21.97291 33.50339 27.73815
#
# Velocity S-wave (km/s) = 3.16775 3.91157 3.55915
# Velocity P-wave (km/s) = 4.87621 6.30470 5.63590
#
# Compressibility (1/GPa) = 0.04392046
#
# Stress axis : x y z
#
# Youngs Moduli (GPa) = 73.04746 37.39698 50.86709
#
# Poissons Ratio (x) = 0.22058 0.07699
# Poissons Ratio (y) = 0.43086 0.03420
# Poissons Ratio (z) = 0.11056 0.02514
#
# Static dielectric constant tensor:
#      x y z
#    x 1.811720 -0.068070 0.062930 
#    y -0.068070 1.726510 0.153040 
#    z 0.062930 0.153040 1.517380 
# 
# From -- ./inp_files/55512.got.cif
#   From: 2010.05.17/outbox.cif.g08.bks.cpg/sg2_28_cif.got.tgz:55512.got - 2010.06.03 11:33:40.
