data_PCOD9062190
_publ_section_title
;
Structure prediction by ZEFSAII (Michael W. Deem and Ramdas Pophale) SiO2 
 PCOD9062190
Probable space group: P -1
;
_chemical_formula_sum "Si O2"
_cell_formula_units_Z 16
_cell_length_a 11.437150
_cell_length_b 14.730570
_cell_length_c 8.999149
_cell_angle_alpha 47.922911
_cell_angle_beta 124.468885
_cell_angle_gamma 139.317059
_cell_volume 728.331768
_symmetry_space_group_name_H-M "P -1"
_symmetry_group_IT_number 2
_symmetry_cell_setting 'triclinic'
loop_
_space_group_symop_operation_xyz
x,y,z
-x,-y,-z
loop_
_atom_site_type_symbol
_atom_site_label
_atom_site_fract_x
_atom_site_fract_y
_atom_site_fract_z
Si Si1 0.952883 0.357151 0.224462
Si Si2 0.341315 0.139534 0.373526
Si Si3 0.155546 0.559188 0.431240
Si Si4 0.572684 0.086830 0.800338
Si Si5 0.404177 0.341640 0.698235
Si Si6 0.028194 0.118271 0.516289
Si Si7 0.532964 0.192936 0.138097
Si Si8 0.548249 0.460047 0.227521
O O1 0.740327 0.257032 0.224755
O O2 0.077333 0.440603 0.368140
O O3 0.998726 0.246921 0.311735
O O4 0.000000 0.500000 0.000000
O O5 0.423300 0.088828 0.606969
O O6 0.454107 0.192235 0.242223
O O7 0.366047 0.284127 0.314475
O O8 0.133700 0.995717 0.358818
O O9 0.252082 0.734552 0.252124
O O10 0.304114 0.565791 0.624764
O O11 0.000000 0.500000 0.500000
O O12 0.594433 0.983562 0.820216
O O13 0.500000 0.000000 0.000000
O O14 0.500000 0.500000 0.500000
O O15 0.222765 0.206643 0.634366
O O16 0.372994 0.395032 0.769824
O O17 0.524167 0.291783 0.893977
O O18 0.000000 0.000000 0.500000
O O19 0.500000 0.500000 0.000000
#
# Coordination Sequence:
#
# PCOD9062190 Si02
#       8
#     2   2   2   2   2   2   2   2
#     4  12  25  47  76 113 148 195 261 312 376 457
#     4  11  25  47  74 103 152 193 249 310 380 449
#     4  11  26  45  73 109 146 191 249 315 374 450
#     4  11  25  43  71 107 146 190 245 304 377 443
#     4  12  27  47  74 106 148 196 249 304 387 456
#     4  12  28  49  74 109 155 198 249 319 381 453
#     4  12  26  45  78 107 145 201 248 316 380 454
#     4  11  23  48  69 103 147 192 242 302 376 451
#
# _framework density 21.968011000000001
#
# number of rings (size 3 to 8) (size 9 to 14) (size 15 to 20)
#    0.000    0.500    3.750    4.125    7.000    0.500 
#    2.250    0.000    0.000    0.000    0.000    0.000 
#    0.000    0.000    0.000    0.000    0.000    0.000 
#
# Total GULP energy -89342.187719 kJ/mol
# GULP energy per Si atom -5583.886732 kJ/mol
# Density = 2.191801 g / cm^3
# Si number density = 21.968011 Si / 1000 Ang^3
#
#
#
# Elastic Constant Matrix: (Units=GPa)
#
#
# Indices 1 2 3 4 5 6 
#
# 1 76.0380 55.6440 39.5554 2.8229 -8.7134 -9.7920
# 2 55.6440 168.7654 55.9181 7.7333 2.3695 -13.3237
# 3 39.5554 55.9181 148.5222 5.3512 0.2091 -1.1152
# 4 2.8229 7.7333 5.3512 40.3083 -5.9324 2.2672
# 5 -8.7134 2.3695 0.2091 -5.9324 28.9444 -3.0480
# 6 -9.7920 -13.3237 -1.1152 2.2672 -3.0480 46.0587
#
#
#
# Elastic Compliance Matrix: (Units=1/GPa)
#
#
# Indices 1 2 3 4 5 6 
#
# 1 0.019974 -0.005391 -0.003311 0.000933 0.006988 0.003023
# 2 -0.005391 0.008454 -0.001682 -0.001451 -0.002477 0.001166
# 3 -0.003311 -0.001682 0.008266 -0.000655 -0.001162 -0.001035
# 4 0.000933 -0.001451 -0.000655 0.025999 0.005613 -0.001146
# 5 0.006988 -0.002477 -0.001162 0.005613 0.038330 0.003001
# 6 0.003023 0.001166 -0.001035 -0.001146 0.003001 0.022921
#
#
# Mechanical properties :
#
#
# Convention : Reuss Voigt Hill
#
# Bulk Modulus (GPa) = 62.79396 77.28451 70.03924
# Shear Modulus (GPa) = 33.32868 39.20950 36.26909
#
# Velocity S-wave (km/s) = 3.89928 4.22933 4.06765
# Velocity P-wave (km/s) = 6.99420 7.68807 7.34933
#
# Compressibility (1/GPa) = 0.01592510
#
# Stress axis : x y z
#
# Youngs Moduli (GPa) = 50.06492 118.29208 120.98233
#
# Poissons Ratio (x) = 0.63770 0.40054
# Poissons Ratio (y) = 0.26990 0.20355
# Poissons Ratio (z) = 0.16575 0.19903
#
# Static dielectric constant tensor:
#      x y z
#    x 1.956910 -0.009630 0.226750 
#    y -0.009630 1.844040 -0.035950 
#    z 0.226750 -0.035950 2.171030 
# 
# From -- ./inp_files/271944.got.cif
#   From: 2010.05.17/outbox.cif.g08.bks.cpg/sg2_136_cif.got.tgz:271944.got - 2010.06.03 11:33:40.
