data_PCOD9062828
_publ_section_title
;
Structure prediction by ZEFSAII (Michael W. Deem and Ramdas Pophale) SiO2 
 PCOD9062828
Probable space group: P -1
;
_chemical_formula_sum "Si O2"
_cell_formula_units_Z 12
_cell_length_a 10.447984
_cell_length_b 8.954787
_cell_length_c 9.629704
_cell_angle_alpha 104.532825
_cell_angle_beta 138.519840
_cell_angle_gamma 85.953755
_cell_volume 567.888167
_symmetry_space_group_name_H-M "P -1"
_symmetry_group_IT_number 2
_symmetry_cell_setting 'triclinic'
loop_
_space_group_symop_operation_xyz
x,y,z
-x,-y,-z
loop_
_atom_site_type_symbol
_atom_site_label
_atom_site_fract_x
_atom_site_fract_y
_atom_site_fract_z
Si Si1 0.346679 0.910388 0.963271
Si Si2 0.470682 0.367432 0.827301
Si Si3 0.069530 0.303537 0.135401
Si Si4 0.016846 0.331558 0.411374
Si Si5 0.387863 0.101039 0.323148
Si Si6 0.694140 0.376442 0.720302
O O1 0.141874 0.820681 0.709063
O O2 0.440254 0.771121 0.068346
O O3 0.500000 0.000000 0.000000
O O4 0.332679 0.017118 0.111945
O O5 0.239344 0.312010 0.607464
O O6 0.576252 0.404044 0.772172
O O7 0.500000 0.500000 0.000000
O O8 0.989739 0.344586 0.228232
O O9 0.187809 0.161327 0.218909
O O10 0.215165 0.456708 0.232481
O O11 0.875728 0.285935 0.878616
O O12 0.000000 0.500000 0.500000
O O13 0.546155 0.261937 0.475252
O O14 0.500000 0.000000 0.500000
#
# Coordination Sequence:
#
# PCOD9062828 Si02
#       6
#     2   2   2   2   2   2
#     4  12  29  46  67 108 140 184 234 290 362 412
#     4  12  24  46  72  99 142 183 236 287 349 421
#     4  11  24  42  73 102 137 181 245 279 352 417
#     4  12  24  45  73  98 137 185 233 288 348 419
#     4  12  24  45  70  98 148 181 228 292 356 413
#     4  11  24  43  69 108 132 188 235 290 344 420
#
# _framework density 21.13092
#
# number of rings (size 3 to 8) (size 9 to 14) (size 15 to 20)
#    0.000    0.333    6.667    0.500    4.667    4.667 
#    0.000    0.000    0.000    0.000    0.000    0.000 
#    0.000    0.000    0.000    0.000    0.000    0.000 
#
# Total GULP energy -67015.678023 kJ/mol
# GULP energy per Si atom -5584.639835 kJ/mol
# Density = 2.108283 g / cm^3
# Si number density = 21.130920 Si / 1000 Ang^3
#
#
#
# Elastic Constant Matrix: (Units=GPa)
#
#
# Indices 1 2 3 4 5 6 
#
# 1 119.6413 63.3960 26.8088 22.7958 13.9109 8.8679
# 2 63.3960 74.5118 38.3232 7.3826 0.0909 -16.4206
# 3 26.8088 38.3232 105.0276 23.9505 31.3544 -6.2092
# 4 22.7958 7.3826 23.9505 47.5019 -8.3949 5.4994
# 5 13.9109 0.0909 31.3544 -8.3949 47.6936 5.6400
# 6 8.8679 -16.4206 -6.2092 5.4994 5.6400 44.8611
#
#
#
# Elastic Compliance Matrix: (Units=1/GPa)
#
#
# Indices 1 2 3 4 5 6 
#
# 1 0.028521 -0.031722 0.013228 -0.017474 -0.018739 -0.010920
# 2 -0.031722 0.053956 -0.023241 0.021221 0.026164 0.016913
# 3 0.013228 -0.023241 0.026432 -0.020175 -0.024516 -0.001908
# 4 -0.017474 0.021221 -0.020175 0.040787 0.025472 0.000227
# 5 -0.018739 0.026164 -0.024516 0.025472 0.046881 0.000871
# 6 -0.010920 0.016913 -0.001908 0.000227 0.000871 0.030239
#
#
# Mechanical properties :
#
#
# Convention : Reuss Voigt Hill
#
# Bulk Modulus (GPa) = 39.30895 61.80408 50.55652
# Shear Modulus (GPa) = 15.68561 39.38817 27.53689
#
# Velocity S-wave (km/s) = 2.72748 4.32210 3.61384
# Velocity P-wave (km/s) = 5.34433 7.36336 6.43354
#
# Compressibility (1/GPa) = 0.02543950
#
# Stress axis : x y z
#
# Youngs Moduli (GPa) = 35.06229 18.53356 37.83317
#
# Poissons Ratio (x) = 0.58792 -0.50047
# Poissons Ratio (y) = 1.11224 0.87928
# Poissons Ratio (z) = -0.46381 0.43074
#
# Static dielectric constant tensor:
#      x y z
#    x 1.574260 0.000610 -0.128770 
#    y 0.000610 1.769480 0.001730 
#    z -0.128770 0.001730 1.573980 
# 
# From -- ./inp_files/160042.got.cif
#   From: 2010.05.17/outbox.cif.g08.bks.cpg/sg2_81_cif.got.tgz:160042.got - 2010.06.03 11:33:40.
