data_PCOD9062057
_publ_section_title
;
Structure prediction by ZEFSAII (Michael W. Deem and Ramdas Pophale) SiO2 
 PCOD9062057
Probable space group: P -1
;
_chemical_formula_sum "Si O2"
_cell_formula_units_Z 14
_cell_length_a 9.203193
_cell_length_b 11.304755
_cell_length_c 6.147984
_cell_angle_alpha 82.554243
_cell_angle_beta 90.428096
_cell_angle_gamma 99.795070
_cell_volume 624.926709
_symmetry_space_group_name_H-M "P -1"
_symmetry_group_IT_number 2
_symmetry_cell_setting 'triclinic'
loop_
_space_group_symop_operation_xyz
x,y,z
-x,-y,-z
loop_
_atom_site_type_symbol
_atom_site_label
_atom_site_fract_x
_atom_site_fract_y
_atom_site_fract_z
Si Si1 0.616356 0.611517 0.281910
Si Si2 0.381995 0.969808 0.192397
Si Si3 0.904619 0.872987 0.473433
Si Si4 0.882002 0.236142 0.811880
Si Si5 0.598921 0.843266 0.486741
Si Si6 0.714771 0.454910 0.677747
Si Si7 0.855695 0.682363 0.896904
O O1 0.594446 0.703496 0.458771
O O2 0.685808 0.505976 0.425759
O O3 0.448823 0.570507 0.210041
O O4 0.728558 0.670993 0.083843
O O5 0.230178 0.890488 0.127514
O O6 0.454230 0.884162 0.379197
O O7 0.380843 0.094006 0.292663
O O8 0.500000 0.000000 0.000000
O O9 0.753434 0.898661 0.357134
O O10 0.857219 0.792560 0.704302
O O11 0.998894 0.795875 0.350178
O O12 0.000000 0.000000 0.500000
O O13 0.788838 0.336225 0.706301
O O14 0.982292 0.292045 0.000763
O O15 0.818378 0.559252 0.787955
#
# Coordination Sequence:
#
# PCOD9062057 Si02
#       7
#     2   2   2   2   2   2   2
#     4  11  24  47  75 101 136 187 232 289 341 413
#     4  11  27  44  73 103 137 179 232 287 344 415
#     4  12  27  46  71 101 142 184 228 287 352 409
#     4  12  26  44  68 105 141 181 230 289 347 412
#     4  11  23  47  70  99 138 178 226 281 350 402
#     4  11  25  47  69 102 142 183 233 288 347 402
#     4  12  26  44  71 103 138 188 233 280 346 418
#
# _framework density 22.402629000000001
#
# number of rings (size 3 to 8) (size 9 to 14) (size 15 to 20)
#    0.000    0.571    5.714    0.857    4.000    4.000 
#    5.143    0.000    0.000    0.000    0.000    0.000 
#    0.000    0.000    0.000    0.000    0.000    0.000 
#
# Total GULP energy -78191.150457 kJ/mol
# GULP energy per Si atom -5585.082176 kJ/mol
# Density = 2.235164 g / cm^3
# Si number density = 22.402629 Si / 1000 Ang^3
#
#
#
# Elastic Constant Matrix: (Units=GPa)
#
#
# Indices 1 2 3 4 5 6 
#
# 1 113.2320 20.6552 37.1579 11.2038 3.0134 21.2987
# 2 20.6552 101.9250 36.7307 17.2309 -1.0667 16.6652
# 3 37.1579 36.7307 56.8440 -1.2517 -18.6127 6.2010
# 4 11.2038 17.2309 -1.2517 25.7435 7.7767 -0.2492
# 5 3.0134 -1.0667 -18.6127 7.7767 38.5045 3.9745
# 6 21.2987 16.6652 6.2010 -0.2492 3.9745 56.0316
#
#
#
# Elastic Compliance Matrix: (Units=1/GPa)
#
#
# Indices 1 2 3 4 5 6 
#
# 1 0.014316 0.003982 -0.013334 -0.007975 -0.005349 -0.004807
# 2 0.003982 0.017249 -0.014782 -0.012870 -0.003886 -0.004790
# 3 -0.013334 -0.014782 0.041582 0.012359 0.017862 0.003651
# 4 -0.007975 -0.012870 0.012359 0.053136 -0.005119 0.006091
# 5 -0.005349 -0.003886 0.017862 -0.005119 0.036091 -0.001371
# 6 -0.004807 -0.004790 0.003651 0.006091 -0.001371 0.020819
#
#
# Mechanical properties :
#
#
# Convention : Reuss Voigt Hill
#
# Bulk Modulus (GPa) = 40.19333 51.23206 45.71269
# Shear Modulus (GPa) = 20.85451 35.88640 28.37046
#
# Velocity S-wave (km/s) = 3.05437 4.00670 3.56250
# Velocity P-wave (km/s) = 5.51536 6.65757 6.11320
#
# Compressibility (1/GPa) = 0.02487975
#
# Stress axis : x y z
#
# Youngs Moduli (GPa) = 69.85069 57.97287 24.04862
#
# Poissons Ratio (x) = -0.23086 0.32067
# Poissons Ratio (y) = -0.27816 0.35549
# Poissons Ratio (z) = 0.93139 0.85697
#
# Static dielectric constant tensor:
#      x y z
#    x 1.883740 0.012870 0.056770 
#    y 0.012870 1.845510 0.024520 
#    z 0.056770 0.024520 1.865110 
# 
# From -- ./inp_files/27090.got.cif
#   From: 2010.05.17/outbox.cif.g08.bks.cpg/sg2_14_cif.got.tgz:27090.got - 2010.06.03 11:33:40.
