data_PCOD9062247
_publ_section_title
;
Structure prediction by ZEFSAII (Michael W. Deem and Ramdas Pophale) SiO2 
 PCOD9062247
Probable space group: P -1
;
_chemical_formula_sum "Si O2"
_cell_formula_units_Z 16
_cell_length_a 22.117369
_cell_length_b 8.931720
_cell_length_c 12.544074
_cell_angle_alpha 34.891206
_cell_angle_beta 151.013111
_cell_angle_gamma 135.042392
_cell_volume 686.491910
_symmetry_space_group_name_H-M "P -1"
_symmetry_group_IT_number 2
_symmetry_cell_setting 'triclinic'
loop_
_space_group_symop_operation_xyz
x,y,z
-x,-y,-z
loop_
_atom_site_type_symbol
_atom_site_label
_atom_site_fract_x
_atom_site_fract_y
_atom_site_fract_z
Si Si1 0.962513 0.254563 0.516804
Si Si2 0.769970 0.475411 0.781090
Si Si3 0.329699 0.202022 0.362922
Si Si4 0.911531 0.068011 0.925875
Si Si5 0.236351 0.054297 0.674511
Si Si6 0.952970 0.653325 0.643174
Si Si7 0.474053 0.730203 0.557452
Si Si8 0.497460 0.846990 0.972149
O O1 0.000000 0.500000 0.500000
O O2 0.024878 0.288183 0.479695
O O3 0.814746 0.210031 0.301003
O O4 0.016150 0.009919 0.809723
O O5 0.716636 0.581240 0.749905
O O6 0.766953 0.722486 0.551807
O O7 0.670935 0.278860 0.695743
O O8 0.911844 0.378303 0.073794
O O9 0.435388 0.290793 0.393200
O O10 0.210967 0.097377 0.178526
O O11 0.386502 0.960898 0.662263
O O12 0.886677 0.376749 0.709642
O O13 0.000000 0.000000 0.000000
O O14 0.134143 0.134512 0.557359
O O15 0.372245 0.062283 0.929465
O O16 0.500513 0.463872 0.822546
O O17 0.500000 0.000000 0.500000
O O18 0.500000 0.000000 0.000000
#
# Coordination Sequence:
#
# PCOD9062247 Si02
#       8
#     2   2   2   2   2   2   2   2
#     4  12  25  44  71 107 144 191 246 302 361 442
#     4  11  23  48  77 103 147 199 246 300 371 453
#     4  12  25  48  79 103 149 199 250 300 370 448
#     4  12  25  47  72 109 147 189 244 308 365 434
#     4  11  25  47  73 106 147 190 245 305 374 432
#     4  12  26  45  74 108 149 190 243 308 376 428
#     4  11  28  48  73 116 148 192 251 314 369 431
#     4  11  26  49  78 105 145 199 251 298 366 457
#
# _framework density 23.306901
#
# number of rings (size 3 to 8) (size 9 to 14) (size 15 to 20)
#    0.000    0.500    6.250    1.125    5.250    2.500 
#    2.250    0.000    0.000    0.000    0.000    0.000 
#    0.000    0.000    0.000    0.000    0.000    0.000 
#
# Total GULP energy -89667.750871 kJ/mol
# GULP energy per Si atom -5604.234429 kJ/mol
# Density = 2.325385 g / cm^3
# Si number density = 23.306901 Si / 1000 Ang^3
#
#
#
# Elastic Constant Matrix: (Units=GPa)
#
#
# Indices 1 2 3 4 5 6 
#
# 1 69.8661 10.2836 4.5182 7.8184 1.9809 10.5247
# 2 10.2836 161.8926 4.7259 5.7086 7.0660 3.3974
# 3 4.5182 4.7259 72.4285 12.9412 -2.5814 1.9258
# 4 7.8184 5.7086 12.9412 38.7430 7.5493 2.8318
# 5 1.9809 7.0660 -2.5814 7.5493 43.3854 -6.2859
# 6 10.5247 3.3974 1.9258 2.8318 -6.2859 30.6319
#
#
#
# Elastic Compliance Matrix: (Units=1/GPa)
#
#
# Indices 1 2 3 4 5 6 
#
# 1 0.015520 -0.000741 -0.000401 -0.002321 -0.000963 -0.005208
# 2 -0.000741 0.006305 -0.000308 -0.000434 -0.001022 -0.000595
# 3 -0.000401 -0.000308 0.014846 -0.005205 0.001873 0.000104
# 4 -0.002321 -0.000434 -0.005205 0.029378 -0.005636 -0.002700
# 5 -0.000963 -0.001022 0.001873 -0.005636 0.025225 0.006024
# 6 -0.005208 -0.000595 0.000104 -0.002700 0.006024 0.035980
#
#
# Mechanical properties :
#
#
# Convention : Reuss Voigt Hill
#
# Bulk Modulus (GPa) = 29.61184 38.13808 33.87496
# Shear Modulus (GPa) = 35.35808 41.52936 38.44372
#
# Velocity S-wave (km/s) = 3.89918 4.22577 4.06576
# Velocity P-wave (km/s) = 5.74493 6.34102 6.05032
#
# Compressibility (1/GPa) = 0.03377027
#
# Stress axis : x y z
#
# Youngs Moduli (GPa) = 64.43472 158.59418 67.35895
#
# Poissons Ratio (x) = 0.11752 0.02701
# Poissons Ratio (y) = 0.04775 0.02077
# Poissons Ratio (z) = 0.02584 0.04889
#
# Static dielectric constant tensor:
#      x y z
#    x 1.868290 0.013050 0.005740 
#    y 0.013050 1.922110 -0.007280 
#    z 0.005740 -0.007280 1.905300 
# 
# From -- ./inp_files/469801.got.cif
#   From: 2010.05.17/outbox.cif.g08.bks.cpg/sg2_235_cif.got.tgz:469801.got - 2010.06.03 11:33:40.
