data_PCOD9062355
_publ_section_title
;
Structure prediction by ZEFSAII (Michael W. Deem and Ramdas Pophale) SiO2 
 PCOD9062355
Probable space group: P -1
;
_chemical_formula_sum "Si O2"
_cell_formula_units_Z 15
_cell_length_a 5.031230
_cell_length_b 5.334933
_cell_length_c 20.460505
_cell_angle_alpha 106.359499
_cell_angle_beta 84.525372
_cell_angle_gamma 91.705666
_cell_volume 524.545247
_symmetry_space_group_name_H-M "P -1"
_symmetry_group_IT_number 2
_symmetry_cell_setting 'triclinic'
loop_
_space_group_symop_operation_xyz
x,y,z
-x,-y,-z
loop_
_atom_site_type_symbol
_atom_site_label
_atom_site_fract_x
_atom_site_fract_y
_atom_site_fract_z
Si Si1 0.913105 0.590563 0.642597
Si Si2 0.000000 0.000000 0.000000
Si Si3 0.437058 0.611865 0.198516
Si Si4 0.070894 0.092645 0.757466
Si Si5 0.178435 0.843149 0.874560
Si Si6 0.223878 0.176839 0.469375
Si Si7 0.444054 0.755491 0.058896
Si Si8 0.417605 0.281894 0.609783
O O1 0.991434 0.855435 0.695767
O O2 0.918302 0.649602 0.569221
O O3 0.613294 0.492290 0.653336
O O4 0.117247 0.360251 0.640260
O O5 0.003258 0.707423 0.924423
O O6 0.821062 0.127955 0.954696
O O7 0.574480 0.330394 0.170080
O O8 0.458711 0.719459 0.132543
O O9 0.131622 0.663788 0.226495
O O10 0.630902 0.797877 0.250077
O O11 0.059696 0.970449 0.821963
O O12 0.301746 0.046153 0.943174
O O13 0.395129 0.305667 0.532826
O O14 0.432761 0.994837 0.410313
O O15 0.000000 0.000000 0.500000
O O16 0.500000 0.500000 0.000000
#
# Coordination Sequence:
#
# PCOD9062355 Si02
#       8
#     2   1   2   2   2   2   2   2
#     4  12  26  44  72  98 142 184 229 284 343 399
#     4  12  22  40  68  96 130 172 218 276 348 398
#     4  11  25  45  68  93 136 175 225 283 332 400
#     4  11  27  47  66  98 132 182 232 273 334 403
#     4  11  26  41  68  96 134 174 225 278 344 403
#     4  11  25  43  71 108 142 179 229 280 346 406
#     4  11  24  39  64 101 129 170 218 282 342 409
#     4  11  25  43  71 106 139 181 227 285 338 412
#
# _framework density 28.596198999999999
#
# number of rings (size 3 to 8) (size 9 to 14) (size 15 to 20)
#    0.000    0.800    4.000    2.000    5.600    2.667 
#    0.000    0.000    0.000    0.000    0.000    0.000 
#    0.000    0.000    0.000    0.000    0.000    0.000 
#
# Total GULP energy -83989.888479 kJ/mol
# GULP energy per Si atom -5599.325899 kJ/mol
# Density = 2.853111 g / cm^3
# Si number density = 28.596199 Si / 1000 Ang^3
#
#
#
# Elastic Constant Matrix: (Units=GPa)
#
#
# Indices 1 2 3 4 5 6 
#
# 1 159.0197 49.3624 44.0959 1.2784 12.2538 -32.6263
# 2 49.3624 85.7054 38.1533 -4.5159 6.1522 -23.0708
# 3 44.0959 38.1533 164.1628 4.5551 13.5487 -2.9788
# 4 1.2784 -4.5159 4.5551 56.2567 5.2906 -3.3178
# 5 12.2538 6.1522 13.5487 5.2906 61.4918 -4.6528
# 6 -32.6263 -23.0708 -2.9788 -3.3178 -4.6528 58.7990
#
#
#
# Elastic Compliance Matrix: (Units=1/GPa)
#
#
# Indices 1 2 3 4 5 6 
#
# 1 0.008423 -0.003321 -0.001364 -0.000082 -0.000794 0.003234
# 2 -0.003321 0.016140 -0.002818 0.001876 -0.000158 0.004441
# 3 -0.001364 -0.002818 0.007195 -0.000771 -0.001088 -0.001628
# 4 -0.000082 0.001876 -0.000771 0.018219 -0.001451 0.001565
# 5 -0.000794 -0.000158 -0.001088 -0.001451 0.016853 0.000694
# 6 0.003234 0.004441 -0.001628 0.001565 0.000694 0.020605
#
#
# Mechanical properties :
#
#
# Convention : Reuss Voigt Hill
#
# Bulk Modulus (GPa) = 59.69189 74.67900 67.18545
# Shear Modulus (GPa) = 46.28549 53.79459 50.04004
#
# Velocity S-wave (km/s) = 4.02753 4.34196 4.18770
# Velocity P-wave (km/s) = 6.52284 7.16300 6.85040
#
# Compressibility (1/GPa) = 0.01675270
#
# Stress axis : x y z
#
# Youngs Moduli (GPa) = 118.72184 61.95627 138.99471
#
# Poissons Ratio (x) = 0.20574 0.18963
# Poissons Ratio (y) = 0.39424 0.39165
# Poissons Ratio (z) = 0.16197 0.17457
#
# Static dielectric constant tensor:
#      x y z
#    x 2.473210 -0.018980 -0.185760 
#    y -0.018980 2.349780 0.236930 
#    z -0.185760 0.236930 2.491710 
# 
# From -- ./inp_files/121175.got.cif
#   From: 2010.05.17/outbox.cif.g08.bks.cpg/sg2_61_cif.got.tgz:121175.got - 2010.06.03 11:33:40.
