data_PCOD9062812
_publ_section_title
;
Structure prediction by ZEFSAII (Michael W. Deem and Ramdas Pophale) SiO2 
 PCOD9062812
Probable space group: P -1
;
_chemical_formula_sum "Si O2"
_cell_formula_units_Z 15
_cell_length_a 11.570366
_cell_length_b 17.467812
_cell_length_c 8.619899
_cell_angle_alpha 145.991069
_cell_angle_beta 140.770054
_cell_angle_gamma 38.336309
_cell_volume 564.223466
_symmetry_space_group_name_H-M "P -1"
_symmetry_group_IT_number 2
_symmetry_cell_setting 'triclinic'
loop_
_space_group_symop_operation_xyz
x,y,z
-x,-y,-z
loop_
_atom_site_type_symbol
_atom_site_label
_atom_site_fract_x
_atom_site_fract_y
_atom_site_fract_z
Si Si1 0.074042 0.397629 0.553869
Si Si2 0.721189 0.329675 0.603743
Si Si3 0.509150 0.231456 0.807078
Si Si4 0.290569 0.549911 0.533362
Si Si5 0.500000 0.000000 0.000000
Si Si6 0.960447 0.841815 0.092158
Si Si7 0.374053 0.096398 0.731364
Si Si8 0.994129 0.063740 0.273902
O O1 0.301119 0.365349 0.772162
O O2 0.000000 0.500000 0.500000
O O3 0.906603 0.454980 0.606955
O O4 0.082066 0.239906 0.238174
O O5 0.493516 0.410454 0.555956
O O6 0.728951 0.440164 0.657297
O O7 0.785086 0.179449 0.315292
O O8 0.882336 0.273601 0.817220
O O9 0.461163 0.156783 0.784639
O O10 0.562743 0.086908 0.506129
O O11 0.666580 0.307548 0.116910
O O12 0.743594 0.932689 0.091946
O O13 0.556383 0.874535 0.983055
O O14 0.054476 0.944749 0.276970
O O15 0.137860 0.152063 0.562275
O O16 0.000000 0.000000 0.000000
#
# Coordination Sequence:
#
# PCOD9062812 Si02
#       8
#     2   2   2   2   1   2   2   2
#     4  12  27  48  73 105 145 195 243 292 354 438
#     4  11  25  47  73 108 140 192 240 297 360 426
#     4  11  24  47  73 106 142 192 243 293 360 432
#     4  11  27  50  75 102 148 195 244 293 358 434
#     4  12  26  42  66 114 148 180 234 312 360 422
#     4  12  26  46  74 106 147 189 239 300 371 421
#     4  11  24  42  72 105 144 182 236 303 362 419
#     4  12  25  45  76 104 144 188 240 297 360 435
#
# _framework density 26.585208999999999
#
# number of rings (size 3 to 8) (size 9 to 14) (size 15 to 20)
#    0.000    0.533    2.667    5.200    3.733    4.267 
#    2.400    4.667    0.000    0.000    0.000    0.000 
#    0.000    0.000    0.000    0.000    0.000    0.000 
#
# Total GULP energy -83650.181789 kJ/mol
# GULP energy per Si atom -5576.678786 kJ/mol
# Density = 2.652470 g / cm^3
# Si number density = 26.585209 Si / 1000 Ang^3
#
#
#
# Elastic Constant Matrix: (Units=GPa)
#
#
# Indices 1 2 3 4 5 6 
#
# 1 125.2003 37.8019 10.6672 -7.2223 15.8875 -15.5781
# 2 37.8019 122.9059 26.1173 -25.5304 -0.8625 -12.3978
# 3 10.6672 26.1173 60.5742 -4.4174 4.9773 2.4507
# 4 -7.2223 -25.5304 -4.4174 48.2502 -0.3615 -1.7721
# 5 15.8875 -0.8625 4.9773 -0.3615 31.3719 -0.9538
# 6 -15.5781 -12.3978 2.4507 -1.7721 -0.9538 40.3047
#
#
#
# Elastic Compliance Matrix: (Units=1/GPa)
#
#
# Indices 1 2 3 4 5 6 
#
# 1 0.009806 -0.002683 -0.000276 0.000091 -0.004908 0.002869
# 2 -0.002683 0.011308 -0.004343 0.005313 0.002511 0.002998
# 3 -0.000276 -0.004343 0.018734 -0.000746 -0.003042 -0.002687
# 4 0.000091 0.005313 -0.000746 0.023588 0.000574 0.002766
# 5 -0.004908 0.002511 -0.003042 0.000574 0.034917 -0.000088
# 6 0.002869 0.002998 -0.002687 0.002766 -0.000088 0.027125
#
#
# Mechanical properties :
#
#
# Convention : Reuss Voigt Hill
#
# Bulk Modulus (GPa) = 39.61501 50.87258 45.24379
# Shear Modulus (GPa) = 33.67042 39.59163 36.63102
#
# Velocity S-wave (km/s) = 3.56267 3.86325 3.71600
# Velocity P-wave (km/s) = 5.64420 6.25114 5.95541
#
# Compressibility (1/GPa) = 0.02524296
#
# Stress axis : x y z
#
# Youngs Moduli (GPa) = 101.97869 88.43024 53.37813
#
# Poissons Ratio (x) = 0.23729 0.01473
# Poissons Ratio (y) = 0.27365 0.23184
# Poissons Ratio (z) = 0.02815 0.38409
#
# Static dielectric constant tensor:
#      x y z
#    x 2.019750 -0.017780 -0.111030 
#    y -0.017780 2.153450 0.082780 
#    z -0.111030 0.082780 2.293280 
# 
# From -- ./inp_files/280196.got.cif
#   From: 2010.05.17/outbox.cif.g08.bks.cpg/sg2_141_cif.got.tgz:280196.got - 2010.06.03 11:33:40.
