data_PCOD9062669
_publ_section_title
;
Structure prediction by ZEFSAII (Michael W. Deem and Ramdas Pophale) SiO2 
 PCOD9062669
Probable space group: P -1
;
_chemical_formula_sum "Si O2"
_cell_formula_units_Z 14
_cell_length_a 9.546616
_cell_length_b 19.771368
_cell_length_c 13.219242
_cell_angle_alpha 32.555391
_cell_angle_beta 152.603640
_cell_angle_gamma 136.700402
_cell_volume 615.684506
_symmetry_space_group_name_H-M "P -1"
_symmetry_group_IT_number 2
_symmetry_cell_setting 'triclinic'
loop_
_space_group_symop_operation_xyz
x,y,z
-x,-y,-z
loop_
_atom_site_type_symbol
_atom_site_label
_atom_site_fract_x
_atom_site_fract_y
_atom_site_fract_z
Si Si1 0.846787 0.774051 0.786431
Si Si2 0.070242 0.586047 0.324125
Si Si3 0.643195 0.200262 0.065657
Si Si4 0.279580 0.561330 0.049973
Si Si5 0.972435 0.759574 0.458248
Si Si6 0.822027 0.321461 0.524322
Si Si7 0.294184 0.979525 0.491137
O O1 0.511564 0.727355 0.612269
O O2 0.020817 0.818085 0.743944
O O3 0.836587 0.886415 0.719363
O O4 0.037730 0.655421 0.109899
O O5 0.416582 0.532864 0.638941
O O6 0.989924 0.682962 0.243700
O O7 0.856952 0.469534 0.334076
O O8 0.566460 0.087898 0.232620
O O9 0.628212 0.325737 0.963475
O O10 0.391738 0.228098 0.783138
O O11 0.000000 0.500000 0.000000
O O12 0.148772 0.632386 0.776060
O O13 0.046612 0.756598 0.389885
O O14 0.075190 0.878205 0.435981
O O15 0.500000 0.000000 0.500000
#
# Coordination Sequence:
#
# PCOD9062669 Si02
#       7
#     2   2   2   2   2   2   2
#     4  12  26  46  71 103 141 181 230 288 345 401
#     4  11  26  39  70 105 142 179 234 277 341 418
#     4  11  26  45  71 102 139 183 226 288 347 400
#     4  11  24  42  67 104 142 180 231 276 344 418
#     4  11  25  44  73  97 139 184 230 284 341 406
#     4  11  25  41  68 103 139 180 231 281 343 405
#     4  11  26  47  74 101 135 180 240 281 338 419
#
# _framework density 22.73892
#
# number of rings (size 3 to 8) (size 9 to 14) (size 15 to 20)
#    0.000    0.857    2.857    2.571   10.000    4.571 
#    0.000    0.000    0.000    0.000    0.000    0.000 
#    0.000    0.000    0.000    0.000    0.000    0.000 
#
# Total GULP energy -78205.611926 kJ/mol
# GULP energy per Si atom -5586.115138 kJ/mol
# Density = 2.268717 g / cm^3
# Si number density = 22.738920 Si / 1000 Ang^3
#
#
#
# Elastic Constant Matrix: (Units=GPa)
#
#
# Indices 1 2 3 4 5 6 
#
# 1 93.8371 18.3523 16.0837 -1.7564 1.5611 5.0060
# 2 18.3523 84.3612 37.0882 2.8918 -2.3033 -8.1010
# 3 16.0837 37.0882 64.4331 0.1013 -0.3048 20.2487
# 4 -1.7564 2.8918 0.1013 30.1200 3.7005 3.3886
# 5 1.5611 -2.3033 -0.3048 3.7005 29.0427 -3.5159
# 6 5.0060 -8.1010 20.2487 3.3886 -3.5159 42.0698
#
#
#
# Elastic Compliance Matrix: (Units=1/GPa)
#
#
# Indices 1 2 3 4 5 6 
#
# 1 0.011396 -0.002176 -0.001158 0.001173 -0.001117 -0.001406
# 2 -0.002176 0.020188 -0.014781 -0.003777 0.003479 0.011855
# 3 -0.001158 -0.014781 0.029842 0.003654 -0.003399 -0.017650
# 4 0.001173 -0.003777 0.003654 0.034958 -0.005493 -0.005901
# 5 -0.001117 0.003479 -0.003399 -0.005493 0.036147 0.005902
# 6 -0.001406 0.011855 -0.017650 -0.005901 0.005902 0.035684
#
#
# Mechanical properties :
#
#
# Convention : Reuss Voigt Hill
#
# Bulk Modulus (GPa) = 39.68608 42.85332 41.26970
# Shear Modulus (GPa) = 23.49160 31.65363 27.57262
#
# Velocity S-wave (km/s) = 3.21768 3.73506 3.48598
# Velocity P-wave (km/s) = 5.59423 6.12271 5.86443
#
# Compressibility (1/GPa) = 0.02519775
#
# Stress axis : x y z
#
# Youngs Moduli (GPa) = 87.74800 49.53405 33.51029
#
# Poissons Ratio (x) = 0.10778 0.03879
# Poissons Ratio (y) = 0.19094 0.49530
# Poissons Ratio (z) = 0.10158 0.73214
#
# Static dielectric constant tensor:
#      x y z
#    x 1.935880 0.067140 0.088700 
#    y 0.067140 1.956700 0.154320 
#    z 0.088700 0.154320 2.122580 
# 
# From -- ./inp_files/402927.got.cif
#   From: 2010.05.17/outbox.cif.g08.bks.cpg/sg2_202_cif.got.tgz:402927.got - 2010.06.03 11:33:40.
