data_PCOD9062427
_publ_section_title
;
Structure prediction by ZEFSAII (Michael W. Deem and Ramdas Pophale) SiO2 
 PCOD9062427
Probable space group: P -1
;
_chemical_formula_sum "Si O2"
_cell_formula_units_Z 12
_cell_length_a 8.541059
_cell_length_b 7.174251
_cell_length_c 10.460923
_cell_angle_alpha 120.292077
_cell_angle_beta 64.145786
_cell_angle_gamma 122.846702
_cell_volume 453.177507
_symmetry_space_group_name_H-M "P -1"
_symmetry_group_IT_number 2
_symmetry_cell_setting 'triclinic'
loop_
_space_group_symop_operation_xyz
x,y,z
-x,-y,-z
loop_
_atom_site_type_symbol
_atom_site_label
_atom_site_fract_x
_atom_site_fract_y
_atom_site_fract_z
Si Si1 0.972087 0.350087 0.216704
Si Si2 0.829021 0.174346 0.944215
Si Si3 0.500862 0.250812 0.955385
Si Si4 0.014800 0.937138 0.651468
Si Si5 0.314996 0.810887 0.369143
Si Si6 0.326356 0.524892 0.503369
O O1 0.790063 0.404164 0.325945
O O2 0.943264 0.132281 0.245699
O O3 0.154954 0.566506 0.282775
O O4 0.971791 0.301925 0.051546
O O5 0.677148 0.278109 0.994017
O O6 0.947629 0.145372 0.771401
O O7 0.691200 0.913902 0.959303
O O8 0.530578 0.111698 0.771989
O O9 0.500000 0.500000 0.000000
O O10 0.830656 0.715351 0.586030
O O11 0.194455 0.958847 0.507990
O O12 0.387809 0.724398 0.439509
O O13 0.500000 0.500000 0.500000
#
# Coordination Sequence:
#
# PCOD9062427 Si02
#       6
#     2   2   2   2   2   2
#     4   9  19  37  65  97 124 170 216 259 320 383
#     4  11  24  40  70  94 130 174 210 263 330 378
#     4  11  25  41  62  98 139 164 211 269 326 377
#     4   9  19  39  63  92 127 169 213 264 316 381
#     4   9  20  41  63  93 130 169 214 267 312 380
#     4   9  18  32  65  92 127 172 211 256 324 382
#
# _framework density 26.479690999999999
#
# number of rings (size 3 to 8) (size 9 to 14) (size 15 to 20)
#    0.000    2.333    0.000    4.500    7.000    1.333 
#    0.000    3.333    0.000    2.000    0.000    0.000 
#    0.000    0.000    0.000    0.000    0.000    0.000 
#
# Total GULP energy -67300.304566 kJ/mol
# GULP energy per Si atom -5608.358714 kJ/mol
# Density = 2.641942 g / cm^3
# Si number density = 26.479691 Si / 1000 Ang^3
#
#
#
# Elastic Constant Matrix: (Units=GPa)
#
#
# Indices 1 2 3 4 5 6 
#
# 1 166.0467 54.8906 55.3508 2.8531 -12.0108 -11.8221
# 2 54.8906 111.1904 24.8726 -8.9824 5.6348 -12.1369
# 3 55.3508 24.8726 154.2153 -14.8317 -12.2129 -0.7158
# 4 2.8531 -8.9824 -14.8317 40.1814 -3.8911 6.2055
# 5 -12.0108 5.6348 -12.2129 -3.8911 44.0637 -0.7750
# 6 -11.8221 -12.1369 -0.7158 6.2055 -0.7750 42.8516
#
#
#
# Elastic Compliance Matrix: (Units=1/GPa)
#
#
# Indices 1 2 3 4 5 6 
#
# 1 0.008359 -0.003686 -0.002480 -0.002398 0.001879 0.001602
# 2 -0.003686 0.011418 -0.000496 0.002113 -0.002383 0.001860
# 3 -0.002480 -0.000496 0.007918 0.003344 0.001857 -0.001143
# 4 -0.002398 0.002113 0.003344 0.027606 0.002371 -0.003962
# 5 0.001879 -0.002383 0.001857 0.002371 0.024235 -0.000031
# 6 0.001602 0.001860 -0.001143 -0.003962 -0.000031 0.024859
#
#
# Mechanical properties :
#
#
# Convention : Reuss Voigt Hill
#
# Bulk Modulus (GPa) = 69.57814 77.96449 73.77132
# Shear Modulus (GPa) = 40.81355 45.17522 42.99438
#
# Velocity S-wave (km/s) = 3.93022 4.13490 4.03386
# Velocity P-wave (km/s) = 6.85044 7.23212 7.04387
#
# Compressibility (1/GPa) = 0.01437233
#
# Stress axis : x y z
#
# Youngs Moduli (GPa) = 119.63613 87.57782 126.29562
#
# Poissons Ratio (x) = 0.32278 0.31322
# Poissons Ratio (y) = 0.44094 0.06259
# Poissons Ratio (z) = 0.29671 0.04340
#
# Static dielectric constant tensor:
#      x y z
#    x 2.010030 0.006380 0.003530 
#    y 0.006380 2.148440 0.036890 
#    z 0.003530 0.036890 2.052590 
# 
# From -- ./inp_files/159196.got.cif
#   From: 2010.05.17/outbox.cif.g08.bks.cpg/sg2_80_cif.got.tgz:159196.got - 2010.06.03 11:33:40.
