data_PCOD9062045
_publ_section_title
;
Structure prediction by ZEFSAII (Michael W. Deem and Ramdas Pophale) SiO2 
 PCOD9062045
Probable space group: P -1
;
_chemical_formula_sum "Si O2"
_cell_formula_units_Z 14
_cell_length_a 9.088517
_cell_length_b 11.754526
_cell_length_c 9.044526
_cell_angle_alpha 57.331916
_cell_angle_beta 95.517309
_cell_angle_gamma 56.402783
_cell_volume 559.893262
_symmetry_space_group_name_H-M "P -1"
_symmetry_group_IT_number 2
_symmetry_cell_setting 'triclinic'
loop_
_space_group_symop_operation_xyz
x,y,z
-x,-y,-z
loop_
_atom_site_type_symbol
_atom_site_label
_atom_site_fract_x
_atom_site_fract_y
_atom_site_fract_z
Si Si1 0.319450 0.325947 0.277490
Si Si2 0.598322 0.419694 0.904435
Si Si3 0.955779 0.984350 0.341038
Si Si4 0.669907 0.107697 0.688228
Si Si5 0.373398 0.150195 0.086321
Si Si6 0.138807 0.252646 0.548630
Si Si7 0.678051 0.571522 0.338941
O O1 0.292435 0.505957 0.159424
O O2 0.556767 0.147185 0.493673
O O3 0.324786 0.255310 0.165461
O O4 0.160877 0.350789 0.354294
O O5 0.419506 0.490208 0.719947
O O6 0.500000 0.500000 0.000000
O O7 0.757592 0.189265 0.100404
O O8 0.148662 0.904067 0.312560
O O9 0.918844 0.852459 0.451485
O O10 0.000000 0.000000 0.500000
O O11 0.483584 0.294477 0.638162
O O12 0.750924 0.910124 0.895595
O O13 0.619672 0.934778 0.241822
O O14 0.333858 0.290614 0.864936
O O15 0.928477 0.405394 0.524234
#
# Coordination Sequence:
#
# PCOD9062045 Si02
#       7
#     2   2   2   2   2   2   2
#     4  11  24  44  73 104 138 182 238 288 343 417
#     4  12  24  44  70 106 141 180 236 288 342 422
#     4  12  24  44  72 101 139 187 232 285 353 410
#     4  11  26  45  70 102 140 186 231 290 351 411
#     4  11  23  47  70 103 143 180 237 287 345 416
#     4  11  24  43  71 101 140 185 228 285 353 404
#     4  12  26  45  70 103 146 181 233 291 349 414
#
# _framework density 25.004764999999999
#
# number of rings (size 3 to 8) (size 9 to 14) (size 15 to 20)
#    0.000    0.571    2.857    6.429    2.000    5.714 
#    2.571    0.000    0.000    0.000    0.000    0.000 
#    0.000    0.000    0.000    0.000    0.000    0.000 
#
# Total GULP energy -78335.588436 kJ/mol
# GULP energy per Si atom -5595.399174 kJ/mol
# Density = 2.494785 g / cm^3
# Si number density = 25.004765 Si / 1000 Ang^3
#
#
#
# Elastic Constant Matrix: (Units=GPa)
#
#
# Indices 1 2 3 4 5 6 
#
# 1 170.3523 46.7651 9.3776 -0.3167 -19.5370 14.2743
# 2 46.7651 100.4781 1.8586 6.7609 6.5000 -1.3889
# 3 9.3776 1.8586 47.4070 -4.5250 -5.9211 0.3888
# 4 -0.3167 6.7609 -4.5250 18.5942 -7.2541 2.3552
# 5 -19.5370 6.5000 -5.9211 -7.2541 37.9360 -9.1390
# 6 14.2743 -1.3889 0.3888 2.3552 -9.1390 51.6756
#
#
#
# Elastic Compliance Matrix: (Units=1/GPa)
#
#
# Indices 1 2 3 4 5 6 
#
# 1 0.007750 -0.004193 -0.000379 0.003705 0.004989 -0.001537
# 2 -0.004193 0.012799 -0.001094 -0.007330 -0.005725 0.000832
# 3 -0.000379 -0.001094 0.022596 0.007832 0.005126 0.000455
# 4 0.003705 -0.007330 0.007832 0.065020 0.016501 -0.001325
# 5 0.004989 -0.005725 0.005126 0.016501 0.034788 0.003830
# 6 -0.001537 0.000832 0.000455 -0.001325 0.003830 0.020533
#
#
# Mechanical properties :
#
#
# Convention : Reuss Voigt Hill
#
# Bulk Modulus (GPa) = 31.43408 48.24888 39.84148
# Shear Modulus (GPa) = 26.96532 38.99024 32.97778
#
# Velocity S-wave (km/s) = 3.28747 3.95310 3.63555
# Velocity P-wave (km/s) = 5.19697 6.33828 5.79578
#
# Compressibility (1/GPa) = 0.03181261
#
# Stress axis : x y z
#
# Youngs Moduli (GPa) = 129.03097 78.12852 44.25565
#
# Poissons Ratio (x) = 0.32762 0.01678
# Poissons Ratio (y) = 0.54108 0.04841
# Poissons Ratio (z) = 0.04894 0.08546
#
# Static dielectric constant tensor:
#      x y z
#    x 1.990460 0.011920 0.004470 
#    y 0.011920 2.011260 -0.038480 
#    z 0.004470 -0.038480 2.015620 
# 
# From -- ./inp_files/175094.got.cif
#   From: 2010.05.17/outbox.cif.g08.bks.cpg/sg2_88_cif.got.tgz:175094.got - 2010.06.03 11:33:40.
