data_PCOD9062688
_publ_section_title
;
Structure prediction by ZEFSAII (Michael W. Deem and Ramdas Pophale) SiO2 
 PCOD9062688
Probable space group: P -1
;
_chemical_formula_sum "Si O2"
_cell_formula_units_Z 16
_cell_length_a 9.450340
_cell_length_b 5.198096
_cell_length_c 15.942340
_cell_angle_alpha 86.491655
_cell_angle_beta 66.366962
_cell_angle_gamma 98.997778
_cell_volume 701.964314
_symmetry_space_group_name_H-M "P -1"
_symmetry_group_IT_number 2
_symmetry_cell_setting 'triclinic'
loop_
_space_group_symop_operation_xyz
x,y,z
-x,-y,-z
loop_
_atom_site_type_symbol
_atom_site_label
_atom_site_fract_x
_atom_site_fract_y
_atom_site_fract_z
Si Si1 0.873026 0.069251 0.591648
Si Si2 0.372592 0.793737 0.482140
Si Si3 0.092927 0.431697 0.652251
Si Si4 0.180518 0.634268 0.156831
Si Si5 0.300194 0.171260 0.210273
Si Si6 0.644568 0.722784 0.323221
Si Si7 0.365332 0.759772 0.786697
Si Si8 0.894047 0.219635 0.013196
O O1 0.721064 0.100785 0.573810
O O2 0.965831 0.326699 0.612986
O O3 0.818180 0.854798 0.681565
O O4 0.000000 0.000000 0.500000
O O5 0.231330 0.655593 0.578805
O O6 0.483755 0.614538 0.415136
O O7 0.500000 0.000000 0.500000
O O8 0.199025 0.219905 0.657821
O O9 0.990900 0.466739 0.757674
O O10 0.264131 0.386113 0.149342
O O11 0.169492 0.753687 0.065656
O O12 0.270189 0.878545 0.185632
O O13 0.473988 0.247911 0.203112
O O14 0.673045 0.507333 0.252938
O O15 0.618338 0.990228 0.282798
O O16 0.239747 0.809032 0.884344
O O17 0.000000 0.500000 0.000000
O O18 0.000000 0.000000 0.000000
#
# Coordination Sequence:
#
# PCOD9062688 Si02
#       8
#     2   2   2   2   2   2   2   2
#     4  11  24  42  68 102 147 194 249 297 361 438
#     4  12  25  44  70 108 146 198 250 304 369 442
#     4  11  25  42  69 103 142 195 240 303 369 427
#     4  11  25  46  71 105 146 185 245 302 358 445
#     4  11  25  44  70 104 143 192 239 294 376 428
#     4  12  26  45  72 105 150 189 249 303 368 443
#     4  12  26  46  75 104 147 190 241 309 371 438
#     4  12  26  47  76 108 141 190 244 302 377 441
#
# _framework density 22.793178999999999
#
# number of rings (size 3 to 8) (size 9 to 14) (size 15 to 20)
#    0.000    0.500    1.250    6.750    3.500    5.000 
#    0.000    0.000    0.000    0.000    0.000    0.000 
#    0.000    0.000    0.000    0.000    0.000    0.000 
#
# Total GULP energy -89551.195492 kJ/mol
# GULP energy per Si atom -5596.949718 kJ/mol
# Density = 2.274130 g / cm^3
# Si number density = 22.793179 Si / 1000 Ang^3
#
#
#
# Elastic Constant Matrix: (Units=GPa)
#
#
# Indices 1 2 3 4 5 6 
#
# 1 137.0750 40.4853 27.7514 -4.5714 8.1315 11.2962
# 2 40.4853 88.7722 18.7031 -0.9304 -3.8252 -1.6202
# 3 27.7514 18.7031 110.1494 3.8508 -4.0486 4.5726
# 4 -4.5714 -0.9304 3.8508 36.2325 -6.8016 7.3999
# 5 8.1315 -3.8252 -4.0486 -6.8016 35.8233 -0.6524
# 6 11.2962 -1.6202 4.5726 7.3999 -0.6524 38.5184
#
#
#
# Elastic Compliance Matrix: (Units=1/GPa)
#
#
# Indices 1 2 3 4 5 6 
#
# 1 0.009263 -0.004021 -0.001667 0.001383 -0.002512 -0.002996
# 2 -0.004021 0.013500 -0.001277 0.000001 0.002245 0.001937
# 3 -0.001667 -0.001277 0.009813 -0.000961 0.001159 -0.000525
# 4 0.001383 0.000001 -0.000961 0.030070 0.005178 -0.005980
# 5 -0.002512 0.002245 0.001159 0.005178 0.029843 0.000204
# 6 -0.002996 0.001937 -0.000525 -0.005980 0.000204 0.028136
#
#
# Mechanical properties :
#
#
# Convention : Reuss Voigt Hill
#
# Bulk Modulus (GPa) = 53.63413 56.65290 55.14352
# Shear Modulus (GPa) = 35.51871 38.71861 37.11866
#
# Velocity S-wave (km/s) = 3.95182 4.12599 4.03984
# Velocity P-wave (km/s) = 6.66366 6.89982 6.78277
#
# Compressibility (1/GPa) = 0.01864484
#
# Stress axis : x y z
#
# Youngs Moduli (GPa) = 107.96120 74.07420 101.90105
#
# Poissons Ratio (x) = 0.29789 0.16988
# Poissons Ratio (y) = 0.43416 0.13012
# Poissons Ratio (z) = 0.17998 0.09459
#
# Static dielectric constant tensor:
#      x y z
#    x 1.833750 0.005180 0.003010 
#    y 0.005180 1.879710 -0.011250 
#    z 0.003010 -0.011250 1.691230 
# 
# From -- ./inp_files/40011.got.cif
#   From: 2010.05.17/outbox.cif.g08.bks.cpg/sg2_21_cif.got.tgz:40011.got - 2010.06.03 11:33:40.
