data_PCOD9062679
_publ_section_title
;
Structure prediction by ZEFSAII (Michael W. Deem and Ramdas Pophale) SiO2 
 PCOD9062679
Probable space group: P -1
;
_chemical_formula_sum "Si O2"
_cell_formula_units_Z 16
_cell_length_a 8.859196
_cell_length_b 8.671403
_cell_length_c 23.218569
_cell_angle_alpha 41.550583
_cell_angle_beta 40.798173
_cell_angle_gamma 44.851590
_cell_volume 730.099902
_symmetry_space_group_name_H-M "P -1"
_symmetry_group_IT_number 2
_symmetry_cell_setting 'triclinic'
loop_
_space_group_symop_operation_xyz
x,y,z
-x,-y,-z
loop_
_atom_site_type_symbol
_atom_site_label
_atom_site_fract_x
_atom_site_fract_y
_atom_site_fract_z
Si Si1 0.868148 0.381814 0.261006
Si Si2 0.494599 0.524744 0.239979
Si Si3 0.291451 0.878160 0.101780
Si Si4 0.786269 0.900993 0.433155
Si Si5 0.721769 0.094226 0.202524
Si Si6 0.036699 0.409820 0.433172
Si Si7 0.711244 0.551760 0.385989
Si Si8 0.398089 0.425661 0.109095
O O1 0.700048 0.560931 0.211846
O O2 0.741944 0.446869 0.341913
O O3 0.140631 0.385528 0.183607
O O4 0.863698 0.111967 0.321545
O O5 0.334583 0.762715 0.185216
O O6 0.614264 0.310889 0.219068
O O7 0.301435 0.437937 0.355658
O O8 0.342358 0.655899 0.104144
O O9 0.011658 0.044179 0.127938
O O10 0.500000 0.000000 0.000000
O O11 0.943259 0.824608 0.468200
O O12 0.849561 0.654633 0.446315
O O13 0.500000 0.000000 0.500000
O O14 0.584502 0.194237 0.154069
O O15 0.683093 0.840597 0.306010
O O16 0.959343 0.412908 0.388763
O O17 0.500000 0.500000 0.500000
O O18 0.500000 0.500000 0.000000
#
# Coordination Sequence:
#
# PCOD9062679 Si02
#       8
#     2   2   2   2   2   2   2   2
#     4  12  26  45  68 108 146 181 242 294 359 414
#     4  11  25  44  73 100 138 187 242 290 346 429
#     4  11  26  48  75 101 136 188 238 290 361 428
#     4  11  24  42  68 100 135 188 235 289 340 422
#     4  11  25  50  69 102 148 186 235 291 352 435
#     4  11  24  44  66  97 140 183 247 276 344 429
#     4  12  26  43  69 104 146 191 227 290 363 414
#     4  11  28  48  72 109 144 182 235 299 366 421
#
# _framework density 21.914809999999999
#
# number of rings (size 3 to 8) (size 9 to 14) (size 15 to 20)
#    0.000    0.750    3.750    2.250    8.750    3.000 
#    0.000    0.000    0.000    0.000    0.000    0.000 
#    0.000    0.000    0.000    0.000    0.000    0.000 
#
# Total GULP energy -89515.253481 kJ/mol
# GULP energy per Si atom -5594.703343 kJ/mol
# Density = 2.186493 g / cm^3
# Si number density = 21.914810 Si / 1000 Ang^3
#
#
#
# Elastic Constant Matrix: (Units=GPa)
#
#
# Indices 1 2 3 4 5 6 
#
# 1 145.1492 29.7769 40.8520 5.6640 7.5447 -33.9257
# 2 29.7769 79.2746 18.5997 20.0852 -6.2397 -19.3513
# 3 40.8520 18.5997 109.8065 18.6959 -14.5925 -18.4509
# 4 5.6640 20.0852 18.6959 26.6128 -1.9995 -1.6250
# 5 7.5447 -6.2397 -14.5925 -1.9995 53.1087 4.4117
# 6 -33.9257 -19.3513 -18.4509 -1.6250 4.4117 32.4359
#
#
#
# Elastic Compliance Matrix: (Units=1/GPa)
#
#
# Indices 1 2 3 4 5 6 
#
# 1 0.010070 -0.001633 -0.002650 0.001245 -0.003012 0.008523
# 2 -0.001633 0.018966 0.001681 -0.014441 0.001579 0.009625
# 3 -0.002650 0.001681 0.012526 -0.008984 0.003307 0.004456
# 4 0.001245 -0.014441 -0.008984 0.053825 -0.001525 -0.009520
# 5 -0.003012 0.001579 0.003307 -0.001525 0.020560 -0.003200
# 6 0.008523 0.009625 0.004456 -0.009520 -0.003200 0.047981
#
#
# Mechanical properties :
#
#
# Convention : Reuss Voigt Hill
#
# Bulk Modulus (GPa) = 27.50379 56.96529 42.23454
# Shear Modulus (GPa) = 27.58597 38.76491 33.17544
#
# Velocity S-wave (km/s) = 3.55178 4.21038 3.89503
# Velocity P-wave (km/s) = 5.42197 7.04889 6.28827
#
# Compressibility (1/GPa) = 0.03635862
#
# Stress axis : x y z
#
# Youngs Moduli (GPa) = 99.30104 52.72599 79.83384
#
# Poissons Ratio (x) = 0.08608 0.21156
# Poissons Ratio (y) = 0.16213 -0.13418
# Poissons Ratio (z) = 0.26314 -0.08862
#
# Static dielectric constant tensor:
#      x y z
#    x 1.820850 0.006080 0.048470 
#    y 0.006080 1.776750 -0.038950 
#    z 0.048470 -0.038950 1.852520 
# 
# From -- ./inp_files/90181.got.cif
#   From: 2010.05.17/outbox.cif.g08.bks.cpg/sg2_46_cif.got.tgz:90181.got - 2010.06.03 11:33:40.
