data_PCOD9062678
_publ_section_title
;
Structure prediction by ZEFSAII (Michael W. Deem and Ramdas Pophale) SiO2 
 PCOD9062678
Probable space group: P -1
;
_chemical_formula_sum "Si O2"
_cell_formula_units_Z 16
_cell_length_a 15.306989
_cell_length_b 12.128143
_cell_length_c 6.784304
_cell_angle_alpha 44.888023
_cell_angle_beta 88.144761
_cell_angle_gamma 64.919907
_cell_volume 730.890744
_symmetry_space_group_name_H-M "P -1"
_symmetry_group_IT_number 2
_symmetry_cell_setting 'triclinic'
loop_
_space_group_symop_operation_xyz
x,y,z
-x,-y,-z
loop_
_atom_site_type_symbol
_atom_site_label
_atom_site_fract_x
_atom_site_fract_y
_atom_site_fract_z
Si Si1 0.019664 0.899263 0.831929
Si Si2 0.164572 0.278104 0.232260
Si Si3 0.039935 0.540910 0.247444
Si Si4 0.716463 0.544908 0.168309
Si Si5 0.831445 0.114637 0.845344
Si Si6 0.675575 0.128778 0.118965
Si Si7 0.471020 0.197366 0.844596
Si Si8 0.590218 0.507420 0.872521
O O1 0.905513 0.979977 0.835532
O O2 0.000000 0.000000 0.500000
O O3 0.081889 0.672976 0.108495
O O4 0.086438 0.947815 0.901457
O O5 0.125942 0.352841 0.362657
O O6 0.255216 0.056930 0.517709
O O7 0.208692 0.391264 0.989076
O O8 0.060526 0.335885 0.046366
O O9 0.000000 0.500000 0.500000
O O10 0.783652 0.330467 0.515836
O O11 0.635528 0.688570 0.159679
O O12 0.652678 0.543809 0.984917
O O13 0.737675 0.101701 0.945685
O O14 0.564508 0.164006 0.022799
O O15 0.660819 0.307292 0.006776
O O16 0.457207 0.331507 0.494830
O O17 0.500000 0.000000 0.000000
O O18 0.500000 0.500000 0.000000
#
# Coordination Sequence:
#
# PCOD9062678 Si02
#       8
#     2   2   2   2   2   2   2   2
#     4  11  24  42  68 100 135 179 225 286 343 401
#     4  11  27  43  69 103 136 179 233 276 339 416
#     4  11  24  46  67  96 142 179 224 282 341 401
#     4  12  26  46  69 102 139 182 230 282 346 411
#     4  11  25  42  68 102 136 173 234 282 337 414
#     4  12  25  47  70 104 138 182 235 280 347 408
#     4  12  28  48  70 103 144 179 228 288 345 412
#     4  12  26  46  73  99 142 183 230 290 338 407
#
# _framework density 21.891098
#
# number of rings (size 3 to 8) (size 9 to 14) (size 15 to 20)
#    0.000    0.500    2.500    4.875    7.000    9.000 
#    0.000    0.000    0.000    0.000    0.000    0.000 
#    0.000    0.000    0.000    0.000    0.000    0.000 
#
# Total GULP energy -89621.902473 kJ/mol
# GULP energy per Si atom -5601.368905 kJ/mol
# Density = 2.184127 g / cm^3
# Si number density = 21.891098 Si / 1000 Ang^3
#
#
#
# Elastic Constant Matrix: (Units=GPa)
#
#
# Indices 1 2 3 4 5 6 
#
# 1 44.0765 -3.3573 -17.8574 4.6178 -4.8167 -4.5198
# 2 -3.3573 109.0188 14.8790 -2.5970 3.0210 0.6692
# 3 -17.8574 14.8790 101.8267 -9.0987 -5.2169 -0.8823
# 4 4.6178 -2.5970 -9.0987 40.2986 -2.9150 -6.5563
# 5 -4.8167 3.0210 -5.2169 -2.9150 31.2885 -0.4264
# 6 -4.5198 0.6692 -0.8823 -6.5563 -0.4264 34.2085
#
#
#
# Elastic Compliance Matrix: (Units=1/GPa)
#
#
# Indices 1 2 3 4 5 6 
#
# 1 0.025532 -0.000023 0.004661 -0.000991 0.004663 0.003362
# 2 -0.000023 0.009403 -0.001423 0.000172 -0.001135 -0.000205
# 3 0.004661 -0.001423 0.011220 0.002353 0.002964 0.001421
# 4 -0.000991 0.000172 0.002353 0.026490 0.002760 0.005038
# 5 0.004663 -0.001135 0.002964 0.002760 0.033562 0.001662
# 6 0.003362 -0.000205 0.001421 0.005038 0.001662 0.030704
#
#
# Mechanical properties :
#
#
# Convention : Reuss Voigt Hill
#
# Bulk Modulus (GPa) = 19.01677 26.91672 22.96675
# Shear Modulus (GPa) = 33.78139 38.57630 36.17885
#
# Velocity S-wave (km/s) = 3.93256 4.20240 4.06972
# Velocity P-wave (km/s) = 5.41534 5.98910 5.70943
#
# Compressibility (1/GPa) = 0.05258516
#
# Stress axis : x y z
#
# Youngs Moduli (GPa) = 39.16577 106.34908 89.12446
#
# Poissons Ratio (x) = 0.00247 -0.41537
# Poissons Ratio (y) = 0.00091 0.12679
# Poissons Ratio (z) = -0.18254 0.15130
#
# Static dielectric constant tensor:
#      x y z
#    x 1.777000 -0.007600 0.008370 
#    y -0.007600 1.823930 0.005310 
#    z 0.008370 0.005310 1.742540 
# 
# From -- ./inp_files/109485.got.cif
#   From: 2010.05.17/outbox.cif.g08.bks.cpg/sg2_55_cif.got.tgz:109485.got - 2010.06.03 11:33:40.
