data_PCOD9062157
_publ_section_title
;
Structure prediction by ZEFSAII (Michael W. Deem and Ramdas Pophale) SiO2 
 PCOD9062157
Probable space group: P -1
;
_chemical_formula_sum "Si O2"
_cell_formula_units_Z 16
_cell_length_a 9.745395
_cell_length_b 12.023782
_cell_length_c 11.916770
_cell_angle_alpha 117.361300
_cell_angle_beta 141.088366
_cell_angle_gamma 86.213333
_cell_volume 664.086406
_symmetry_space_group_name_H-M "P -1"
_symmetry_group_IT_number 2
_symmetry_cell_setting 'triclinic'
loop_
_space_group_symop_operation_xyz
x,y,z
-x,-y,-z
loop_
_atom_site_type_symbol
_atom_site_label
_atom_site_fract_x
_atom_site_fract_y
_atom_site_fract_z
Si Si1 0.803636 0.568788 0.628623
Si Si2 0.621084 0.052731 0.479178
Si Si3 0.306158 0.651182 0.845081
Si Si4 0.508903 0.462282 0.797040
Si Si5 0.084896 0.603028 0.211231
Si Si6 0.750201 0.835486 0.379054
Si Si7 0.781775 0.138297 0.231376
Si Si8 0.915168 0.105112 0.048764
O O1 0.572818 0.530044 0.378848
O O2 0.763208 0.447529 0.635868
O O3 0.055589 0.597711 0.734870
O O4 0.907513 0.732912 0.816553
O O5 0.754234 0.226116 0.634523
O O6 0.500000 0.000000 0.500000
O O7 0.795637 0.986852 0.527415
O O8 0.379625 0.968707 0.204896
O O9 0.355593 0.521665 0.794752
O O10 0.252057 0.722480 0.736301
O O11 0.563650 0.779606 0.127626
O O12 0.412273 0.297273 0.696862
O O13 0.806976 0.561582 0.060722
O O14 0.000000 0.500000 0.000000
O O15 0.020889 0.847353 0.542014
O O16 0.910174 0.125979 0.190157
O O17 0.500000 0.000000 0.000000
O O18 0.000000 0.000000 0.000000
#
# Coordination Sequence:
#
# PCOD9062157 Si02
#       8
#     2   2   2   2   2   2   2   2
#     4  11  24  48  74 106 147 186 247 297 361 441
#     4  12  26  48  74 104 147 193 243 302 370 439
#     4  11  24  45  71 109 143 194 239 292 370 440
#     4  12  25  45  77 106 144 193 240 297 370 434
#     4  12  29  48  71 109 146 186 246 305 355 441
#     4  12  23  46  75 101 147 195 242 298 368 433
#     4  11  26  43  68 109 154 187 248 308 362 440
#     4  11  23  47  77 105 143 198 246 300 373 439
#
# _framework density 24.093250000000001
#
# number of rings (size 3 to 8) (size 9 to 14) (size 15 to 20)
#    0.000    0.500    6.250    3.000    3.500    3.000 
#    2.250    0.000    0.000    0.000    0.000    0.000 
#    0.000    0.000    0.000    0.000    0.000    0.000 
#
# Total GULP energy -89588.910843 kJ/mol
# GULP energy per Si atom -5599.306928 kJ/mol
# Density = 2.403841 g / cm^3
# Si number density = 24.093250 Si / 1000 Ang^3
#
#
#
# Elastic Constant Matrix: (Units=GPa)
#
#
# Indices 1 2 3 4 5 6 
#
# 1 43.3173 30.9885 2.5608 6.1268 3.4174 -12.4327
# 2 30.9885 178.2530 43.1488 21.3849 -7.7719 -6.2133
# 3 2.5608 43.1488 117.1122 -1.7483 0.7418 8.9711
# 4 6.1268 21.3849 -1.7483 52.8040 -6.0067 6.1334
# 5 3.4174 -7.7719 0.7418 -6.0067 33.4230 7.2359
# 6 -12.4327 -6.2133 8.9711 6.1334 7.2359 30.2979
#
#
#
# Elastic Compliance Matrix: (Units=1/GPa)
#
#
# Indices 1 2 3 4 5 6 
#
# 1 0.032266 -0.004891 -0.000082 -0.004504 -0.008537 0.015212
# 2 -0.004891 0.007503 -0.002735 -0.002405 0.001786 0.000402
# 3 -0.000082 -0.002735 0.009882 0.001952 0.000371 -0.004004
# 4 -0.004504 -0.002405 0.001952 0.022172 0.005743 -0.008779
# 5 -0.008537 0.001786 0.000371 0.005743 0.034996 -0.012767
# 6 0.015212 0.000402 -0.004004 -0.008779 -0.012767 0.045342
#
#
# Mechanical properties :
#
#
# Convention : Reuss Voigt Hill
#
# Bulk Modulus (GPa) = 29.21074 54.67542 41.94308
# Shear Modulus (GPa) = 27.93457 40.77061 34.35259
#
# Velocity S-wave (km/s) = 3.40874 4.11810 3.78010
# Velocity P-wave (km/s) = 5.25767 6.73455 6.04141
#
# Compressibility (1/GPa) = 0.03423398
#
# Stress axis : x y z
#
# Youngs Moduli (GPa) = 30.99234 133.28221 101.19443
#
# Poissons Ratio (x) = 0.65190 0.00829
# Poissons Ratio (y) = 0.15159 0.27681
# Poissons Ratio (z) = 0.00254 0.36458
#
# Static dielectric constant tensor:
#      x y z
#    x 2.044400 0.073950 -0.058390 
#    y 0.073950 2.047260 -0.105130 
#    z -0.058390 -0.105130 1.975720 
# 
# From -- ./inp_files/447100.got.cif
#   From: 2010.05.17/outbox.cif.g08.bks.cpg/sg2_224_cif.got.tgz:447100.got - 2010.06.03 11:33:40.
