data_PCOD9062645
_publ_section_title
;
Structure prediction by ZEFSAII (Michael W. Deem and Ramdas Pophale) SiO2 
 PCOD9062645
Probable space group: P -1
;
_chemical_formula_sum "Si O2"
_cell_formula_units_Z 10
_cell_length_a 15.272366
_cell_length_b 7.896640
_cell_length_c 13.169271
_cell_angle_alpha 59.433351
_cell_angle_beta 152.988851
_cell_angle_gamma 137.393790
_cell_volume 428.695452
_symmetry_space_group_name_H-M "P -1"
_symmetry_group_IT_number 2
_symmetry_cell_setting 'triclinic'
loop_
_space_group_symop_operation_xyz
x,y,z
-x,-y,-z
loop_
_atom_site_type_symbol
_atom_site_label
_atom_site_fract_x
_atom_site_fract_y
_atom_site_fract_z
Si Si1 0.389584 0.470362 0.781820
Si Si2 0.385348 0.741582 0.390393
Si Si3 0.731495 0.707404 0.868992
Si Si4 0.765862 0.296193 0.963714
Si Si5 0.224738 0.918062 0.770634
O O1 0.630832 0.707202 0.877088
O O2 0.093975 0.374029 0.503557
O O3 0.282627 0.181581 0.715384
O O4 0.500000 0.500000 0.000000
O O5 0.494161 0.611298 0.577833
O O6 0.448400 0.837577 0.309337
O O7 0.500000 0.000000 0.500000
O O8 0.063073 0.501701 0.156395
O O9 0.762638 0.495809 0.963623
O O10 0.000000 0.000000 0.000000
O O11 0.752132 0.095908 0.080370
O O12 0.500000 0.000000 0.000000
#
# Coordination Sequence:
#
# PCOD9062645 Si02
#       5
#     2   2   2   2   2
#     4  11  27  45  69 103 141 179 231 289 335 413
#     4  11  24  42  65  99 136 171 224 278 340 405
#     4  12  24  44  69 102 138 178 228 277 347 406
#     4  11  24  42  68  95 134 179 219 282 336 404
#     4  11  24  46  70  97 135 184 231 275 351 405
#
# _framework density 23.326581999999998
#
# number of rings (size 3 to 8) (size 9 to 14) (size 15 to 20)
#    0.000    0.800    6.000    0.600    2.800    2.400 
#    0.000    0.000    0.000    0.000    0.000    0.000 
#    0.000    0.000    0.000    0.000    0.000    0.000 
#
# Total GULP energy -55717.343802 kJ/mol
# GULP energy per Si atom -5571.734380 kJ/mol
# Density = 2.327349 g / cm^3
# Si number density = 23.326582 Si / 1000 Ang^3
#
#
#
# Elastic Constant Matrix: (Units=GPa)
#
#
# Indices 1 2 3 4 5 6 
#
# 1 91.4037 16.0900 59.7697 11.5842 11.5081 44.0762
# 2 16.0900 79.6745 4.1153 -4.3519 4.7160 21.2654
# 3 59.7697 4.1153 113.0530 -20.1371 18.2747 21.9125
# 4 11.5842 -4.3519 -20.1371 32.1074 7.2284 4.7754
# 5 11.5081 4.7160 18.2747 7.2284 46.2569 -14.7117
# 6 44.0762 21.2654 21.9125 4.7754 -14.7117 43.8878
#
#
#
# Elastic Compliance Matrix: (Units=1/GPa)
#
#
# Indices 1 2 3 4 5 6 
#
# 1 0.046348 0.003344 -0.016226 -0.016088 -0.016939 -0.043994
# 2 0.003344 0.018537 0.005712 0.010991 -0.013329 -0.020857
# 3 -0.016226 0.005712 0.024980 0.025955 -0.012350 -0.005909
# 4 -0.016088 0.010991 0.025955 0.062170 -0.022292 -0.016364
# 5 -0.016939 -0.013329 -0.012350 -0.022292 0.051211 0.049229
# 6 -0.043994 -0.020857 -0.005909 -0.016364 0.049229 0.098307
#
#
# Mechanical properties :
#
#
# Convention : Reuss Voigt Hill
#
# Bulk Modulus (GPa) = 13.24034 49.34234 31.29134
# Shear Modulus (GPa) = 14.65982 38.06084 26.36033
#
# Velocity S-wave (km/s) = 2.50963 4.04375 3.36528
# Velocity P-wave (km/s) = 3.75314 6.55754 5.34263
#
# Compressibility (1/GPa) = 0.07552675
#
# Stress axis : x y z
#
# Youngs Moduli (GPa) = 21.57575 53.94696 40.03135
#
# Poissons Ratio (x) = -0.18041 0.64954
# Poissons Ratio (y) = -0.07216 -0.22867
# Poissons Ratio (z) = 0.35008 -0.30815
#
# Static dielectric constant tensor:
#      x y z
#    x 1.965240 0.000690 -0.100150 
#    y 0.000690 1.864510 -0.107200 
#    z -0.100150 -0.107200 2.115540 
# 
# From -- ./inp_files/18097.got.cif
#   From: 2010.05.17/outbox.cif.g08.bks.cpg/sg2_10_cif.got.tgz:18097.got - 2010.06.03 11:33:40.
