data_PCOD9062106
_publ_section_title
;
Structure prediction by ZEFSAII (Michael W. Deem and Ramdas Pophale) SiO2 
 PCOD9062106
Probable space group: P -1
;
_chemical_formula_sum "Si O2"
_cell_formula_units_Z 16
_cell_length_a 15.180010
_cell_length_b 9.217342
_cell_length_c 10.570390
_cell_angle_alpha 50.810548
_cell_angle_beta 104.981769
_cell_angle_gamma 65.261082
_cell_volume 696.927453
_symmetry_space_group_name_H-M "P -1"
_symmetry_group_IT_number 2
_symmetry_cell_setting 'triclinic'
loop_
_space_group_symop_operation_xyz
x,y,z
-x,-y,-z
loop_
_atom_site_type_symbol
_atom_site_label
_atom_site_fract_x
_atom_site_fract_y
_atom_site_fract_z
Si Si1 0.885538 0.568308 0.162445
Si Si2 0.239346 0.660078 0.557368
Si Si3 0.795821 0.669914 0.346424
Si Si4 0.849033 0.591736 0.696952
Si Si5 0.692752 0.252171 0.977011
Si Si6 0.898345 0.235390 0.146134
Si Si7 0.327548 0.769489 0.295191
Si Si8 0.599130 0.284963 0.271472
O O1 0.903176 0.531206 0.342310
O O2 0.879210 0.386204 0.183711
O O3 0.015046 0.484687 0.199247
O O4 0.738877 0.917656 0.889736
O O5 0.296224 0.358842 0.724516
O O6 0.272564 0.726722 0.408802
O O7 0.311555 0.672799 0.682820
O O8 0.067546 0.919845 0.369483
O O9 0.850978 0.524777 0.586751
O O10 0.714676 0.996702 0.153258
O O11 0.706210 0.943755 0.473807
O O12 0.859005 0.421803 0.904305
O O13 0.735361 0.208559 0.871378
O O14 0.523334 0.570496 0.750899
O O15 0.796050 0.217175 0.117579
O O16 0.500000 0.500000 0.500000
O O17 0.500000 0.500000 0.000000
#
# Coordination Sequence:
#
# PCOD9062106 Si02
#       8
#     2   2   2   2   2   2   2   2
#     4  11  25  46  72 107 147 191 244 299 365 433
#     4  12  26  47  78 105 143 196 245 295 366 438
#     4  11  28  44  70 105 147 191 241 298 363 429
#     4  12  24  48  75 108 146 193 242 300 364 439
#     4  11  27  48  68 107 150 189 242 308 363 426
#     4  12  27  46  78 109 142 192 251 301 359 434
#     4  11  23  47  73 105 148 188 237 302 366 430
#     4  12  26  48  73 104 151 189 239 302 367 429
#
# _framework density 22.957912
#
# number of rings (size 3 to 8) (size 9 to 14) (size 15 to 20)
#    0.000    0.500    5.000    2.250    7.000    2.500 
#    2.250    0.000    0.000    0.000    0.000    0.000 
#    0.000    0.000    0.000    0.000    0.000    0.000 
#
# Total GULP energy -89535.111241 kJ/mol
# GULP energy per Si atom -5595.944453 kJ/mol
# Density = 2.290566 g / cm^3
# Si number density = 22.957912 Si / 1000 Ang^3
#
#
#
# Elastic Constant Matrix: (Units=GPa)
#
#
# Indices 1 2 3 4 5 6 
#
# 1 96.8450 59.3982 49.9767 -13.3679 2.3004 15.6712
# 2 59.3982 126.3202 42.6721 -7.6427 -6.0127 -1.0466
# 3 49.9767 42.6721 112.4630 -16.5004 4.0444 -4.8373
# 4 -13.3679 -7.6427 -16.5004 38.6663 -12.2846 -3.8267
# 5 2.3004 -6.0127 4.0444 -12.2846 39.2090 6.6140
# 6 15.6712 -1.0466 -4.8373 -3.8267 6.6140 37.2919
#
#
#
# Elastic Compliance Matrix: (Units=1/GPa)
#
#
# Indices 1 2 3 4 5 6 
#
# 1 0.019551 -0.007048 -0.006128 0.002034 0.000577 -0.009102
# 2 -0.007048 0.011785 -0.001251 0.000259 0.001957 0.002810
# 3 -0.006128 -0.001251 0.012805 0.003271 -0.000921 0.004700
# 4 0.002034 0.000259 0.003271 0.031020 0.009109 0.001145
# 5 0.000577 0.001957 -0.000921 0.009109 0.029496 -0.004604
# 6 -0.009102 0.002810 0.004700 0.001145 -0.004604 0.032263
#
#
# Mechanical properties :
#
#
# Convention : Reuss Voigt Hill
#
# Bulk Modulus (GPa) = 65.41562 71.08023 68.24792
# Shear Modulus (GPa) = 29.26232 35.27218 32.26725
#
# Velocity S-wave (km/s) = 3.57404 3.92393 3.75306
# Velocity P-wave (km/s) = 6.75183 7.18038 6.96940
#
# Compressibility (1/GPa) = 0.01528687
#
# Stress axis : x y z
#
# Youngs Moduli (GPa) = 51.14951 84.85172 78.09592
#
# Poissons Ratio (x) = 0.59804 0.47854
# Poissons Ratio (y) = 0.36050 0.09772
# Poissons Ratio (z) = 0.31342 0.10617
#
# Static dielectric constant tensor:
#      x y z
#    x 1.864880 -0.046640 -0.027920 
#    y -0.046640 1.956070 0.020650 
#    z -0.027920 0.020650 1.836870 
# 
# From -- ./inp_files/446804.got.cif
#   From: 2010.05.17/outbox.cif.g08.bks.cpg/sg2_224_cif.got.tgz:446804.got - 2010.06.03 11:33:40.
