data_PCOD9062709
_publ_section_title
;
Structure prediction by ZEFSAII (Michael W. Deem and Ramdas Pophale) SiO2 
 PCOD9062709
Probable space group: P -1
;
_chemical_formula_sum "Si O2"
_cell_formula_units_Z 16
_cell_length_a 9.354479
_cell_length_b 11.465283
_cell_length_c 13.041997
_cell_angle_alpha 32.491101
_cell_angle_beta 66.718290
_cell_angle_gamma 76.258048
_cell_volume 677.052895
_symmetry_space_group_name_H-M "P -1"
_symmetry_group_IT_number 2
_symmetry_cell_setting 'triclinic'
loop_
_space_group_symop_operation_xyz
x,y,z
-x,-y,-z
loop_
_atom_site_type_symbol
_atom_site_label
_atom_site_fract_x
_atom_site_fract_y
_atom_site_fract_z
Si Si1 0.510728 0.453370 0.832044
Si Si2 0.408319 0.991306 0.806371
Si Si3 0.038977 0.610947 0.697030
Si Si4 0.116221 0.704928 0.366960
Si Si5 0.518781 0.308181 0.717171
Si Si6 0.940814 0.085808 0.124792
Si Si7 0.223852 0.177399 0.447707
Si Si8 0.648559 0.191027 0.417528
O O1 0.448170 0.360369 0.807250
O O2 0.681775 0.619770 0.661958
O O3 0.392504 0.609478 0.786855
O O4 0.536396 0.242483 0.043986
O O5 0.222551 0.966389 0.854766
O O6 0.446683 0.089652 0.835975
O O7 0.515903 0.145980 0.578136
O O8 0.088802 0.677075 0.517154
O O9 0.180278 0.723100 0.645929
O O10 0.882067 0.714112 0.681404
O O11 0.006454 0.346199 0.910225
O O12 0.298198 0.692467 0.309056
O O13 0.000000 0.500000 0.500000
O O14 0.064965 0.930182 0.175837
O O15 0.500000 0.500000 0.500000
O O16 0.885157 0.000996 0.316995
O O17 0.344104 0.039211 0.467274
#
# Coordination Sequence:
#
# PCOD9062709 Si02
#       8
#     2   2   2   2   2   2   2   2
#     4  12  25  43  69 101 136 176 227 273 334 400
#     4  12  25  44  69 100 134 180 223 275 335 396
#     4  11  24  46  66 100 135 175 222 280 338 396
#     4  11  24  42  68  99 137 179 225 270 336 406
#     4  12  22  46  70  99 140 177 218 281 332 395
#     4  11  25  44  69  95 139 178 222 274 338 399
#     4  11  24  46  70  98 135 178 223 279 337 397
#     4  12  26  44  71  99 137 173 228 283 330 397
#
# _framework density 23.631834000000001
#
# number of rings (size 3 to 8) (size 9 to 14) (size 15 to 20)
#    0.000    0.500    5.000    3.375    1.750    2.500 
#    2.250    0.000    0.000    0.000    0.000    0.000 
#    0.000    0.000    0.000    0.000    0.000    0.000 
#
# Total GULP energy -89573.009375 kJ/mol
# GULP energy per Si atom -5598.313086 kJ/mol
# Density = 2.357805 g / cm^3
# Si number density = 23.631834 Si / 1000 Ang^3
#
#
#
# Elastic Constant Matrix: (Units=GPa)
#
#
# Indices 1 2 3 4 5 6 
#
# 1 153.7117 25.3827 45.6676 -31.1706 22.3908 -2.8915
# 2 25.3827 65.4454 19.3186 -27.7542 -2.4342 -6.1563
# 3 45.6676 19.3186 112.8854 -34.4111 23.5531 -2.8481
# 4 -31.1706 -27.7542 -34.4111 37.3182 -8.5383 1.9934
# 5 22.3908 -2.4342 23.5531 -8.5383 39.3855 -16.9202
# 6 -2.8915 -6.1563 -2.8481 1.9934 -16.9202 30.2534
#
#
#
# Elastic Compliance Matrix: (Units=1/GPa)
#
#
# Indices 1 2 3 4 5 6 
#
# 1 0.008515 -0.001695 -0.001072 0.003967 -0.004473 -0.002395
# 2 -0.001695 0.025617 0.000352 0.019925 0.010894 0.009864
# 3 -0.001072 0.000352 0.013821 0.010755 -0.006661 -0.003164
# 4 0.003967 0.019925 0.010755 0.056186 0.007206 0.005774
# 5 -0.004473 0.010894 -0.006661 0.007206 0.045342 0.026046
# 6 -0.002395 0.009864 -0.003164 0.005774 0.026046 0.048721
#
#
# Mechanical properties :
#
#
# Convention : Reuss Voigt Hill
#
# Bulk Modulus (GPa) = 23.19084 56.97558 40.08321
# Shear Modulus (GPa) = 22.99836 37.50301 30.25068
#
# Velocity S-wave (km/s) = 3.12299 3.98800 3.58170
# Velocity P-wave (km/s) = 4.77899 6.73554 5.83979
#
# Compressibility (1/GPa) = 0.04312048
#
# Stress axis : x y z
#
# Youngs Moduli (GPa) = 117.43506 39.03720 72.35576
#
# Poissons Ratio (x) = 0.06618 0.07760
# Poissons Ratio (y) = 0.19909 -0.02546
# Poissons Ratio (z) = 0.12595 -0.01373
#
# Static dielectric constant tensor:
#      x y z
#    x 1.917550 -0.042730 0.014310 
#    y -0.042730 1.931100 0.012310 
#    z 0.014310 0.012310 1.900050 
# 
# From -- ./inp_files/188872.got.cif
#   From: 2010.05.17/outbox.cif.g08.bks.cpg/sg2_95_cif.got.tgz:188872.got - 2010.06.03 11:33:40.
