data_PCOD9062123
_publ_section_title
;
Structure prediction by ZEFSAII (Michael W. Deem and Ramdas Pophale) SiO2 
 PCOD9062123
Probable space group: P -1
;
_chemical_formula_sum "Si O2"
_cell_formula_units_Z 14
_cell_length_a 8.785421
_cell_length_b 22.250397
_cell_length_c 16.561573
_cell_angle_alpha 21.484351
_cell_angle_beta 31.384321
_cell_angle_gamma 30.412561
_cell_volume 576.877453
_symmetry_space_group_name_H-M "P -1"
_symmetry_group_IT_number 2
_symmetry_cell_setting 'triclinic'
loop_
_space_group_symop_operation_xyz
x,y,z
-x,-y,-z
loop_
_atom_site_type_symbol
_atom_site_label
_atom_site_fract_x
_atom_site_fract_y
_atom_site_fract_z
Si Si1 0.513448 0.050442 0.592118
Si Si2 0.514435 0.847575 0.243571
Si Si3 0.462585 0.259740 0.194196
Si Si4 0.409669 0.416135 0.258790
Si Si5 0.933409 0.239889 0.354430
Si Si6 0.326164 0.506783 0.485009
Si Si7 0.168031 0.815817 0.048016
O O1 0.491698 0.109837 0.434068
O O2 0.533647 0.218014 0.417790
O O3 0.809665 0.869206 0.690634
O O4 0.219528 0.997523 0.817999
O O5 0.197311 0.899706 0.372131
O O6 0.538683 0.675697 0.396458
O O7 0.816669 0.818640 0.197989
O O8 0.500000 0.000000 0.000000
O O9 0.120729 0.309810 0.246731
O O10 0.515020 0.420466 0.015611
O O11 0.696221 0.216987 0.064689
O O12 0.618975 0.387582 0.281171
O O13 0.038894 0.466674 0.369348
O O14 0.500000 0.500000 0.500000
O O15 0.338042 0.663731 0.225275
#
# Coordination Sequence:
#
# PCOD9062123 Si02
#       7
#     2   2   2   2   2   2   2
#     4  11  26  46  72 110 148 187 235 296 364 425
#     4  12  24  45  77 104 142 189 247 299 355 430
#     4  11  23  47  74 105 142 190 242 290 355 435
#     4  12  25  47  70 106 150 187 238 300 360 424
#     4  11  24  44  72 105 140 192 243 283 360 429
#     4  12  29  48  72 108 146 193 243 302 368 416
#     4  11  23  50  75  99 147 192 245 294 348 440
#
# _framework density 24.268585999999999
#
# number of rings (size 3 to 8) (size 9 to 14) (size 15 to 20)
#    0.000    0.571    2.857    6.000    4.000    2.857 
#    5.143    0.000    0.000    0.000    0.000    0.000 
#    0.000    0.000    0.000    0.000    0.000    0.000 
#
# Total GULP energy -78291.767148 kJ/mol
# GULP energy per Si atom -5592.269082 kJ/mol
# Density = 2.421335 g / cm^3
# Si number density = 24.268586 Si / 1000 Ang^3
#
#
#
# Elastic Constant Matrix: (Units=GPa)
#
#
# Indices 1 2 3 4 5 6 
#
# 1 115.0550 37.1268 41.8700 4.3324 -6.3478 -17.4328
# 2 37.1268 62.8693 16.1661 10.8287 -20.0689 -17.4794
# 3 41.8700 16.1661 171.8344 -0.8375 -12.8850 -3.8654
# 4 4.3324 10.8287 -0.8375 44.1690 -7.7158 -13.5006
# 5 -6.3478 -20.0689 -12.8850 -7.7158 44.4150 -2.5090
# 6 -17.4328 -17.4794 -3.8654 -13.5006 -2.5090 31.9977
#
#
#
# Elastic Compliance Matrix: (Units=1/GPa)
#
#
# Indices 1 2 3 4 5 6 
#
# 1 0.011899 -0.006177 -0.002349 0.001015 -0.001418 0.003142
# 2 -0.006177 0.026699 0.000156 -0.000162 0.011882 0.012102
# 3 -0.002349 0.000156 0.006510 0.000613 0.001729 -0.000014
# 4 0.001015 -0.000162 0.000613 0.027432 0.005725 0.012562
# 5 -0.001418 0.011882 0.001729 0.005725 0.029780 0.010677
# 6 0.003142 0.012102 -0.000014 0.012562 0.010677 0.045710
#
#
# Mechanical properties :
#
#
# Convention : Reuss Voigt Hill
#
# Bulk Modulus (GPa) = 35.25179 60.00940 47.63060
# Shear Modulus (GPa) = 28.69835 41.08939 34.89387
#
# Velocity S-wave (km/s) = 3.44253 4.11921 3.79597
# Velocity P-wave (km/s) = 5.50986 6.88511 6.23551
#
# Compressibility (1/GPa) = 0.02836735
#
# Stress axis : x y z
#
# Youngs Moduli (GPa) = 84.03993 37.45456 153.61943
#
# Poissons Ratio (x) = 0.23135 0.36085
# Poissons Ratio (y) = 0.51910 -0.02391
# Poissons Ratio (z) = 0.19741 -0.00583
#
# Static dielectric constant tensor:
#      x y z
#    x 2.003560 0.017020 0.015460 
#    y 0.017020 1.951250 -0.015210 
#    z 0.015460 -0.015210 1.976600 
# 
# From -- ./inp_files/190043.got.cif
#   From: 2010.05.17/outbox.cif.g08.bks.cpg/sg2_96_cif.got.tgz:190043.got - 2010.06.03 11:33:40.
