data_PCOD9062497
_publ_section_title
;
Structure prediction by ZEFSAII (Michael W. Deem and Ramdas Pophale) SiO2 
 PCOD9062497
Probable space group: P -1
;
_chemical_formula_sum "Si O2"
_cell_formula_units_Z 16
_cell_length_a 16.774444
_cell_length_b 6.701510
_cell_length_c 9.954718
_cell_angle_alpha 138.033211
_cell_angle_beta 79.841814
_cell_angle_gamma 91.963132
_cell_volume 728.557093
_symmetry_space_group_name_H-M "P -1"
_symmetry_group_IT_number 2
_symmetry_cell_setting 'triclinic'
loop_
_space_group_symop_operation_xyz
x,y,z
-x,-y,-z
loop_
_atom_site_type_symbol
_atom_site_label
_atom_site_fract_x
_atom_site_fract_y
_atom_site_fract_z
Si Si1 0.172431 0.565195 0.689588
Si Si2 0.087060 0.613776 0.013051
Si Si3 0.911520 0.684486 0.649124
Si Si4 0.577376 0.513793 0.584036
Si Si5 0.802532 0.756966 0.980754
Si Si6 0.376015 0.443488 0.115826
Si Si7 0.672832 0.841068 0.515195
Si Si8 0.577935 0.868064 0.317983
O O1 0.145733 0.482728 0.510704
O O2 0.232788 0.271597 0.571221
O O3 0.104028 0.601052 0.842091
O O4 0.208280 0.878889 0.827190
O O5 0.157269 0.412454 0.981846
O O6 0.087345 0.968222 0.221839
O O7 0.000000 0.500000 0.000000
O O8 0.872440 0.677978 0.805518
O O9 0.000000 0.500000 0.500000
O O10 0.500000 0.500000 0.500000
O O11 0.572333 0.628119 0.797264
O O12 0.635565 0.708395 0.589752
O O13 0.614790 0.163968 0.409629
O O14 0.713502 0.667887 0.923069
O O15 0.354817 0.804356 0.297596
O O16 0.428666 0.313487 0.905987
O O17 0.637304 0.691196 0.319919
O O18 0.500000 0.000000 0.500000
#
# Coordination Sequence:
#
# PCOD9062497 Si02
#       8
#     2   2   2   2   2   2   2   2
#     4  11  24  42  67  95 135 178 222 280 330 401
#     4  11  24  41  66 100 138 181 228 275 331 390
#     4  11  24  41  66 100 139 180 227 276 330 393
#     4  11  24  45  66  98 130 170 219 275 341 407
#     4  11  24  44  65  99 135 175 230 273 336 401
#     4  11  26  42  70  96 132 176 222 282 340 406
#     4  11  24  43  67  96 131 170 226 273 344 405
#     4  11  24  46  65  97 132 168 220 277 338 407
#
# _framework density 21.961217000000001
#
# number of rings (size 3 to 8) (size 9 to 14) (size 15 to 20)
#    0.000    1.000    1.250    4.500    0.000   15.500 
#    0.000    0.000    0.000    0.000    0.000    0.000 
#    0.000    0.000    0.000    0.000    0.000    0.000 
#
# Total GULP energy -89295.961919 kJ/mol
# GULP energy per Si atom -5580.997620 kJ/mol
# Density = 2.191123 g / cm^3
# Si number density = 21.961217 Si / 1000 Ang^3
#
#
#
# Elastic Constant Matrix: (Units=GPa)
#
#
# Indices 1 2 3 4 5 6 
#
# 1 63.5891 0.1316 18.1743 -0.7607 3.3334 10.0968
# 2 0.1316 98.5106 41.6234 -2.1398 3.7004 13.5819
# 3 18.1743 41.6234 131.8327 -11.6250 9.8223 4.9323
# 4 -0.7607 -2.1398 -11.6250 30.4298 -3.0766 10.5248
# 5 3.3334 3.7004 9.8223 -3.0766 32.7030 -0.1393
# 6 10.0968 13.5819 4.9323 10.5248 -0.1393 42.9934
#
#
#
# Elastic Compliance Matrix: (Units=1/GPa)
#
#
# Indices 1 2 3 4 5 6 
#
# 1 0.017259 0.001766 -0.002593 0.001035 -0.001103 -0.004571
# 2 0.001766 0.012392 -0.003907 0.000798 -0.000351 -0.004078
# 3 -0.002593 -0.003907 0.009595 0.003148 -0.001880 -0.000034
# 4 0.001035 0.000798 0.003148 0.037889 0.002380 -0.010124
# 5 -0.001103 -0.000351 -0.001880 0.002380 0.031519 0.000105
# 6 -0.004571 -0.004078 -0.000034 -0.010124 0.000105 0.028104
#
#
# Mechanical properties :
#
#
# Convention : Reuss Voigt Hill
#
# Bulk Modulus (GPa) = 33.57917 45.97677 39.77797
# Shear Modulus (GPa) = 32.01999 36.82543 34.42271
#
# Velocity S-wave (km/s) = 3.82255 4.09937 3.96338
# Velocity P-wave (km/s) = 5.89966 6.58690 6.25273
#
# Compressibility (1/GPa) = 0.02978037
#
# Stress axis : x y z
#
# Youngs Moduli (GPa) = 57.94000 80.69443 104.21787
#
# Poissons Ratio (x) = -0.14254 0.27020
# Poissons Ratio (y) = -0.10235 0.40719
# Poissons Ratio (z) = 0.15022 0.31528
#
# Static dielectric constant tensor:
#      x y z
#    x 1.801950 0.032540 -0.042880 
#    y 0.032540 1.734700 0.024840 
#    z -0.042880 0.024840 1.771310 
# 
# From -- ./inp_files/324226.got.cif
#   From: 2010.05.17/outbox.cif.g08.bks.cpg/sg2_163_cif.got.tgz:324226.got - 2010.06.03 11:33:40.
