data_PCOD9062792
_publ_section_title
;
Structure prediction by ZEFSAII (Michael W. Deem and Ramdas Pophale) SiO2 
 PCOD9062792
Probable space group: P -1
;
_chemical_formula_sum "Si O2"
_cell_formula_units_Z 14
_cell_length_a 8.109552
_cell_length_b 8.739723
_cell_length_c 14.075962
_cell_angle_alpha 51.013913
_cell_angle_beta 63.089409
_cell_angle_gamma 53.796935
_cell_volume 620.502415
_symmetry_space_group_name_H-M "P -1"
_symmetry_group_IT_number 2
_symmetry_cell_setting 'triclinic'
loop_
_space_group_symop_operation_xyz
x,y,z
-x,-y,-z
loop_
_atom_site_type_symbol
_atom_site_label
_atom_site_fract_x
_atom_site_fract_y
_atom_site_fract_z
Si Si1 0.715205 0.845118 0.461276
Si Si2 0.947100 0.989075 0.127483
Si Si3 0.721182 0.489729 0.458189
Si Si4 0.980390 0.007028 0.618279
Si Si5 0.131378 0.251736 0.102907
Si Si6 0.907133 0.519094 0.711313
Si Si7 0.466702 0.287539 0.114976
O O1 0.696183 0.708944 0.431813
O O2 0.836599 0.657943 0.579547
O O3 0.824785 0.004578 0.369661
O O4 0.500000 0.000000 0.500000
O O5 0.695642 0.106918 0.155306
O O6 0.069009 0.104677 0.105604
O O7 0.042637 0.731053 0.223908
O O8 0.000000 0.000000 0.000000
O O9 0.500000 0.500000 0.500000
O O10 0.824528 0.260446 0.578025
O O11 0.868185 0.479191 0.334477
O O12 0.921949 0.830398 0.750496
O O13 0.000000 0.000000 0.500000
O O14 0.362587 0.222474 0.077437
O O15 0.000000 0.500000 0.000000
O O16 0.714651 0.628940 0.790341
O O17 0.500000 0.500000 0.000000
#
# Coordination Sequence:
#
# PCOD9062792 Si02
#       7
#     2   2   2   2   2   2   2
#     4  11  24  42  71 103 141 193 245 310 381 452
#     4  12  26  49  75 108 154 200 255 322 377 458
#     4  11  24  44  68 107 145 190 251 307 380 458
#     4  11  24  45  70 105 149 192 248 313 380 459
#     4  12  25  44  77 109 149 199 256 311 385 458
#     4  11  25  47  72 101 149 192 248 315 381 450
#     4  12  26  49  72 108 150 198 257 313 384 454
#
# _framework density 22.562360000000002
#
# number of rings (size 3 to 8) (size 9 to 14) (size 15 to 20)
#    0.000    0.571    2.857    6.000    6.000    0.571 
#    0.000    0.000    0.000    0.000    0.000    0.000 
#    0.000    0.000    0.000    0.000    0.000    0.000 
#
# Total GULP energy -78022.137876 kJ/mol
# GULP energy per Si atom -5573.009848 kJ/mol
# Density = 2.251101 g / cm^3
# Si number density = 22.562360 Si / 1000 Ang^3
#
#
#
# Elastic Constant Matrix: (Units=GPa)
#
#
# Indices 1 2 3 4 5 6 
#
# 1 188.6073 60.7272 40.8958 10.7965 -25.6316 9.5106
# 2 60.7272 130.5506 37.1453 0.5108 -9.3693 1.1033
# 3 40.8958 37.1453 129.6885 -10.1282 -21.1063 12.2785
# 4 10.7965 0.5108 -10.1282 50.1526 -0.5529 -1.0608
# 5 -25.6316 -9.3693 -21.1063 -0.5529 40.8064 -0.9231
# 6 9.5106 1.1033 12.2785 -1.0608 -0.9231 47.3607
#
#
#
# Elastic Compliance Matrix: (Units=1/GPa)
#
#
# Indices 1 2 3 4 5 6 
#
# 1 0.006968 -0.002733 -0.000916 -0.001644 0.003229 -0.001072
# 2 -0.002733 0.009455 -0.002010 0.000098 -0.000565 0.000841
# 3 -0.000916 -0.002010 0.009579 0.002150 0.003899 -0.002129
# 4 -0.001644 0.000098 0.002150 0.020736 0.000388 0.000242
# 5 0.003229 -0.000565 0.003899 0.000388 0.028402 -0.001084
# 6 -0.001072 0.000841 -0.002129 0.000242 -0.001084 0.021846
#
#
# Mechanical properties :
#
#
# Convention : Reuss Voigt Hill
#
# Bulk Modulus (GPa) = 68.10317 80.70924 74.40620
# Shear Modulus (GPa) = 44.17007 48.33582 46.25295
#
# Velocity S-wave (km/s) = 4.42938 4.63354 4.53261
# Velocity P-wave (km/s) = 7.51060 8.02967 7.77447
#
# Compressibility (1/GPa) = 0.01468360
#
# Stress axis : x y z
#
# Youngs Moduli (GPa) = 143.52154 105.76199 104.39187
#
# Poissons Ratio (x) = 0.28908 0.09559
# Poissons Ratio (y) = 0.39229 0.20985
# Poissons Ratio (z) = 0.13142 0.21261
#
# Static dielectric constant tensor:
#      x y z
#    x 1.814120 0.048160 0.060830 
#    y 0.048160 1.842590 0.043970 
#    z 0.060830 0.043970 1.830380 
# 
# From -- ./inp_files/491963.got.cif
#   From: 2010.05.17/outbox.cif.g08.bks.cpg/sg2_246_cif.got.tgz:491963.got - 2010.06.03 11:33:40.
