data_PCOD9062992
_publ_section_title
;
Structure prediction by ZEFSAII (Michael W. Deem and Ramdas Pophale) SiO2 
 PCOD9062992
Probable space group: P -1
;
_chemical_formula_sum "Si O2"
_cell_formula_units_Z 15
_cell_length_a 9.085694
_cell_length_b 10.271837
_cell_length_c 12.190777
_cell_angle_alpha 54.711027
_cell_angle_beta 123.920164
_cell_angle_gamma 136.726773
_cell_volume 617.083793
_symmetry_space_group_name_H-M "P -1"
_symmetry_group_IT_number 2
_symmetry_cell_setting 'triclinic'
loop_
_space_group_symop_operation_xyz
x,y,z
-x,-y,-z
loop_
_atom_site_type_symbol
_atom_site_label
_atom_site_fract_x
_atom_site_fract_y
_atom_site_fract_z
Si Si1 0.223340 0.043124 0.529515
Si Si2 0.500000 0.000000 0.000000
Si Si3 0.438095 0.139316 0.359631
Si Si4 0.207783 0.422484 0.617924
Si Si5 0.347994 0.123754 0.074205
Si Si6 0.089773 0.289065 0.862475
Si Si7 0.530114 0.326753 0.700319
Si Si8 0.989838 0.394458 0.315330
O O1 0.189711 0.841532 0.649079
O O2 0.240123 0.079780 0.388890
O O3 0.433718 0.232591 0.585333
O O4 0.000000 0.000000 0.500000
O O5 0.482461 0.842620 0.155398
O O6 0.501107 0.131947 0.040950
O O7 0.634332 0.365791 0.360413
O O8 0.398848 0.121699 0.223470
O O9 0.500000 0.000000 0.500000
O O10 0.051095 0.274847 0.722031
O O11 0.363944 0.366368 0.663166
O O12 0.075195 0.428789 0.459868
O O13 0.299882 0.286583 0.963052
O O14 0.112000 0.904941 0.064532
O O15 0.096828 0.476211 0.812222
O O16 0.785656 0.517665 0.703228
#
# Coordination Sequence:
#
# PCOD9062992 Si02
#       8
#     2   1   2   2   2   2   2   2
#     4  12  25  45  76 109 149 188 243 308 358 430
#     4  12  24  50  76  94 150 198 234 310 370 434
#     4  12  25  45  71 111 143 190 247 301 364 435
#     4  12  23  43  74 100 152 186 241 307 358 435
#     4  11  25  46  73 100 149 190 245 305 366 441
#     4  11  24  43  68 107 138 195 237 299 370 431
#     4  12  25  48  71 110 144 197 244 296 369 430
#     4  12  23  45  74 106 146 192 246 299 362 434
#
# _framework density 24.307881999999999
#
# number of rings (size 3 to 8) (size 9 to 14) (size 15 to 20)
#    0.000    0.267    5.333    4.800    0.000    0.533 
#    2.400    0.667    0.000    0.000    0.000    0.000 
#    0.000    0.000    0.000    0.000    0.000    0.000 
#
# Total GULP energy -83769.418587 kJ/mol
# GULP energy per Si atom -5584.627906 kJ/mol
# Density = 2.425256 g / cm^3
# Si number density = 24.307882 Si / 1000 Ang^3
#
#
#
# Elastic Constant Matrix: (Units=GPa)
#
#
# Indices 1 2 3 4 5 6 
#
# 1 115.9355 11.8696 21.3290 3.7801 4.0445 -15.3353
# 2 11.8696 66.8634 -25.0064 -8.0612 8.7010 -6.3212
# 3 21.3290 -25.0064 98.2412 3.4259 8.5425 -10.7927
# 4 3.7801 -8.0612 3.4259 40.2398 -20.0491 -5.6391
# 5 4.0445 8.7010 8.5425 -20.0491 40.0907 -9.1698
# 6 -15.3353 -6.3212 -10.7927 -5.6391 -9.1698 30.3978
#
#
#
# Elastic Compliance Matrix: (Units=1/GPa)
#
#
# Indices 1 2 3 4 5 6 
#
# 1 0.009791 -0.002406 -0.002380 -0.000294 0.000756 0.003768
# 2 -0.002406 0.018697 0.005909 0.002769 -0.002664 0.004482
# 3 -0.002380 0.005909 0.012909 -0.000964 -0.003503 0.003376
# 4 -0.000294 0.002769 -0.000964 0.038430 0.022022 0.013857
# 5 0.000756 -0.002664 -0.003503 0.022022 0.040618 0.014922
# 6 0.003768 0.004482 0.003376 0.013857 0.014922 0.044001
#
#
# Mechanical properties :
#
#
# Convention : Reuss Voigt Hill
#
# Bulk Modulus (GPa) = 22.91239 33.04717 27.97978
# Shear Modulus (GPa) = 28.28913 40.33553 34.31233
#
# Velocity S-wave (km/s) = 3.41513 4.07794 3.76117
# Velocity P-wave (km/s) = 4.99972 5.98311 5.51338
#
# Compressibility (1/GPa) = 0.04364451
#
# Stress axis : x y z
#
# Youngs Moduli (GPa) = 102.13256 53.48389 77.46612
#
# Poissons Ratio (x) = 0.12867 0.18434
# Poissons Ratio (y) = 0.24571 -0.45775
# Poissons Ratio (z) = 0.24304 -0.31604
#
# Static dielectric constant tensor:
#      x y z
#    x 2.004100 -0.009730 0.011510 
#    y -0.009730 1.972010 -0.011170 
#    z 0.011510 -0.011170 1.898110 
# 
# From -- ./inp_files/381441.got.cif
#   From: 2010.05.17/outbox.cif.g08.bks.cpg/sg2_191_cif.got.tgz:381441.got - 2010.06.03 11:33:40.
