data_PCOD9062110
_publ_section_title
;
Structure prediction by ZEFSAII (Michael W. Deem and Ramdas Pophale) SiO2 
 PCOD9062110
Probable space group: P -1
;
_chemical_formula_sum "Si O2"
_cell_formula_units_Z 16
_cell_length_a 14.911142
_cell_length_b 15.513980
_cell_length_c 8.363137
_cell_angle_alpha 99.562571
_cell_angle_beta 49.931169
_cell_angle_gamma 140.964458
_cell_volume 672.469919
_symmetry_space_group_name_H-M "P -1"
_symmetry_group_IT_number 2
_symmetry_cell_setting 'triclinic'
loop_
_space_group_symop_operation_xyz
x,y,z
-x,-y,-z
loop_
_atom_site_type_symbol
_atom_site_label
_atom_site_fract_x
_atom_site_fract_y
_atom_site_fract_z
Si Si1 0.156526 0.518171 0.266947
Si Si2 0.939644 0.921678 0.371026
Si Si3 0.510334 0.302982 0.757450
Si Si4 0.331477 0.425409 0.528052
Si Si5 0.582245 0.185762 0.457789
Si Si6 0.383363 0.131211 0.356918
Si Si7 0.148133 0.790895 0.986063
Si Si8 0.777996 0.141719 0.713775
O O1 0.368787 0.627030 0.185051
O O2 0.000000 0.500000 0.500000
O O3 0.949375 0.304027 0.435606
O O4 0.327929 0.654463 0.960135
O O5 0.772378 0.723916 0.502942
O O6 0.783665 0.892665 0.446513
O O7 0.000000 0.000000 0.500000
O O8 0.213059 0.082199 0.031133
O O9 0.532777 0.412989 0.688306
O O10 0.654675 0.325511 0.494573
O O11 0.500000 0.500000 0.500000
O O12 0.087594 0.313395 0.847050
O O13 0.405433 0.091235 0.480573
O O14 0.804646 0.271326 0.165753
O O15 0.411517 0.017640 0.725891
O O16 0.261002 0.985326 0.320950
O O17 0.102073 0.760050 0.220078
O O18 0.500000 0.000000 0.000000
#
# Coordination Sequence:
#
# PCOD9062110 Si02
#       8
#     2   2   2   2   2   2   2   2
#     4  12  25  44  74 111 143 188 243 307 375 444
#     4  12  27  51  77 103 150 199 258 308 371 447
#     4  12  27  49  77 103 152 198 248 316 377 442
#     4  12  28  49  74 109 153 201 251 309 375 452
#     4  11  25  45  74 109 145 194 238 308 385 443
#     4  12  26  46  74 111 144 191 248 306 372 451
#     4  11  23  47  73 109 149 193 250 306 379 450
#     4  12  23  47  76 107 151 190 241 316 378 440
#
# _framework density 23.792888000000001
#
# number of rings (size 3 to 8) (size 9 to 14) (size 15 to 20)
#    0.000    0.250    6.250    2.250    1.750    3.000 
#    4.500    0.000    0.000    0.000    0.000    0.000 
#    0.000    0.000    0.000    0.000    0.000    0.000 
#
# Total GULP energy -89673.526534 kJ/mol
# GULP energy per Si atom -5604.595408 kJ/mol
# Density = 2.373873 g / cm^3
# Si number density = 23.792888 Si / 1000 Ang^3
#
#
#
# Elastic Constant Matrix: (Units=GPa)
#
#
# Indices 1 2 3 4 5 6 
#
# 1 104.1601 25.2066 6.1704 3.4081 -15.4697 -8.6039
# 2 25.2066 119.0232 16.5909 -2.1656 5.8664 -25.4026
# 3 6.1704 16.5909 58.0898 -9.3238 -0.3936 -5.5211
# 4 3.4081 -2.1656 -9.3238 37.4776 -9.6373 -2.0192
# 5 -15.4697 5.8664 -0.3936 -9.6373 48.7326 -1.8754
# 6 -8.6039 -25.4026 -5.5211 -2.0192 -1.8754 40.4196
#
#
#
# Elastic Compliance Matrix: (Units=1/GPa)
#
#
# Indices 1 2 3 4 5 6 
#
# 1 0.010796 -0.002194 -0.000433 -0.000214 0.003685 0.001021
# 2 -0.002194 0.010489 -0.002209 0.000121 -0.001732 0.005749
# 3 -0.000433 -0.002209 0.018839 0.005015 0.001327 0.001405
# 4 -0.000214 0.000121 0.005015 0.029609 0.005909 0.002469
# 5 0.003685 -0.001732 0.001327 0.005909 0.023125 0.001245
# 6 0.001021 0.005749 0.001405 0.002469 0.001245 0.028944
#
#
# Mechanical properties :
#
#
# Convention : Reuss Voigt Hill
#
# Bulk Modulus (GPa) = 32.83680 41.91211 37.37445
# Shear Modulus (GPa) = 35.30514 40.87963 38.09239
#
# Velocity S-wave (km/s) = 3.85626 4.14955 4.00559
# Velocity P-wave (km/s) = 5.80161 6.37275 6.09388
#
# Compressibility (1/GPa) = 0.03045364
#
# Stress axis : x y z
#
# Youngs Moduli (GPa) = 92.63027 95.34101 53.08135
#
# Poissons Ratio (x) = 0.20915 0.02296
# Poissons Ratio (y) = 0.20320 0.11724
# Poissons Ratio (z) = 0.04007 0.21057
#
# Static dielectric constant tensor:
#      x y z
#    x 1.886590 0.012270 0.016860 
#    y 0.012270 1.921520 -0.006730 
#    z 0.016860 -0.006730 1.898650 
# 
# From -- ./inp_files/306170.got.cif
#   From: 2010.05.17/outbox.cif.g08.bks.cpg/sg2_154_cif.got.tgz:306170.got - 2010.06.03 11:33:40.
