data_PCOD9062150
_publ_section_title
;
Structure prediction by ZEFSAII (Michael W. Deem and Ramdas Pophale) SiO2 
 PCOD9062150
Probable space group: P -1
;
_chemical_formula_sum "Si O2"
_cell_formula_units_Z 14
_cell_length_a 9.463973
_cell_length_b 11.603417
_cell_length_c 9.077858
_cell_angle_alpha 130.603290
_cell_angle_beta 70.056690
_cell_angle_gamma 122.569998
_cell_volume 637.769261
_symmetry_space_group_name_H-M "P -1"
_symmetry_group_IT_number 2
_symmetry_cell_setting 'triclinic'
loop_
_space_group_symop_operation_xyz
x,y,z
-x,-y,-z
loop_
_atom_site_type_symbol
_atom_site_label
_atom_site_fract_x
_atom_site_fract_y
_atom_site_fract_z
Si Si1 0.314955 0.297594 0.918246
Si Si2 0.454369 0.606544 0.806148
Si Si3 0.497286 0.155051 0.535143
Si Si4 0.865470 0.341741 0.507478
Si Si5 0.329782 0.227083 0.407329
Si Si6 0.017383 0.945529 0.784219
Si Si7 0.174875 0.554817 0.065412
O O1 0.463538 0.281824 0.761671
O O2 0.392625 0.356041 0.102031
O O3 0.233915 0.413095 0.978032
O O4 0.167364 0.110616 0.803520
O O5 0.363561 0.408755 0.621530
O O6 0.535733 0.718043 0.726872
O O7 0.321933 0.654629 0.978033
O O8 0.668819 0.262157 0.473191
O O9 0.355970 0.109996 0.423684
O O10 0.500000 0.000000 0.500000
O O11 0.852772 0.369954 0.709554
O O12 0.000000 0.500000 0.500000
O O13 0.924159 0.199037 0.345048
O O14 0.149524 0.128338 0.314822
O O15 0.000000 0.000000 0.000000
O O16 0.000000 0.500000 0.000000
#
# Coordination Sequence:
#
# PCOD9062150 Si02
#       7
#     2   2   2   2   2   2   2
#     4  12  24  49  76 104 157 204 248 313 390 452
#     4  11  23  47  76 111 145 205 250 308 383 457
#     4  12  26  49  75 110 154 205 254 317 387 461
#     4  12  28  45  76 111 154 198 258 318 380 456
#     4  11  26  44  79 108 150 197 258 307 380 462
#     4  12  26  49  73 110 153 200 250 322 387 443
#     4  12  26  44  73 114 151 198 256 312 375 460
#
# _framework density 21.951512999999998
#
# number of rings (size 3 to 8) (size 9 to 14) (size 15 to 20)
#    0.000    0.286    5.714    3.000    6.000    1.714 
#    0.000    1.429    0.000    0.000    0.000    0.000 
#    0.000    0.000    0.000    0.000    0.000    0.000 
#
# Total GULP energy -78218.828662 kJ/mol
# GULP energy per Si atom -5587.059190 kJ/mol
# Density = 2.190155 g / cm^3
# Si number density = 21.951513 Si / 1000 Ang^3
#
#
#
# Elastic Constant Matrix: (Units=GPa)
#
#
# Indices 1 2 3 4 5 6 
#
# 1 140.0169 30.5155 70.8259 3.6003 14.2802 11.0580
# 2 30.5155 106.7596 50.8894 3.4402 -6.8983 20.7372
# 3 70.8259 50.8894 150.7476 -11.7033 -7.5778 -5.2736
# 4 3.6003 3.4402 -11.7033 40.8165 4.0854 -0.9504
# 5 14.2802 -6.8983 -7.5778 4.0854 49.4114 4.0607
# 6 11.0580 20.7372 -5.2736 -0.9504 4.0607 41.3039
#
#
#
# Elastic Compliance Matrix: (Units=1/GPa)
#
#
# Indices 1 2 3 4 5 6 
#
# 1 0.010539 0.000060 -0.005431 -0.002226 -0.003418 -0.003260
# 2 0.000060 0.013418 -0.004954 -0.002932 0.001967 -0.007646
# 3 -0.005431 -0.004954 0.011457 0.004119 0.001857 0.005316
# 4 -0.002226 -0.002932 0.004119 0.026362 -0.001590 0.003357
# 5 -0.003418 0.001967 0.001857 -0.001590 0.022085 -0.002043
# 6 -0.003260 -0.007646 0.005316 0.003357 -0.002043 0.029879
#
#
# Mechanical properties :
#
#
# Convention : Reuss Voigt Hill
#
# Bulk Modulus (GPa) = 67.72892 77.99840 72.86366
# Shear Modulus (GPa) = 35.89103 42.65927 39.27515
#
# Velocity S-wave (km/s) = 4.04792 4.41312 4.23446
# Velocity P-wave (km/s) = 7.26418 7.84708 7.56125
#
# Compressibility (1/GPa) = 0.01476474
#
# Stress axis : x y z
#
# Youngs Moduli (GPa) = 94.88328 74.52752 87.28498
#
# Poissons Ratio (x) = -0.00450 0.47402
# Poissons Ratio (y) = -0.00573 0.43243
# Poissons Ratio (z) = 0.51529 0.36922
#
# Static dielectric constant tensor:
#      x y z
#    x 1.146490 -0.146140 -0.098190 
#    y -0.146140 1.849300 -0.070270 
#    z -0.098190 -0.070270 1.810230 
# 
# From -- ./inp_files/159993.got.cif
#   From: 2010.05.17/outbox.cif.g08.bks.cpg/sg2_80_cif.got.tgz:159993.got - 2010.06.03 11:33:40.
