data_PCOD9062724
_publ_section_title
;
Structure prediction by ZEFSAII (Michael W. Deem and Ramdas Pophale) SiO2 
 PCOD9062724
Probable space group: P -1
;
_chemical_formula_sum "Si O2"
_cell_formula_units_Z 14
_cell_length_a 24.886954
_cell_length_b 25.779751
_cell_length_c 5.262993
_cell_angle_alpha 124.408544
_cell_angle_beta 124.977126
_cell_angle_gamma 10.978477
_cell_volume 526.840730
_symmetry_space_group_name_H-M "P -1"
_symmetry_group_IT_number 2
_symmetry_cell_setting 'triclinic'
loop_
_space_group_symop_operation_xyz
x,y,z
-x,-y,-z
loop_
_atom_site_type_symbol
_atom_site_label
_atom_site_fract_x
_atom_site_fract_y
_atom_site_fract_z
Si Si1 0.526358 0.091406 0.040077
Si Si2 0.781557 0.085457 0.001532
Si Si3 0.838119 0.676754 0.300837
Si Si4 0.207655 0.439595 0.634878
Si Si5 0.918181 0.832874 0.406216
Si Si6 0.536119 0.680799 0.818259
Si Si7 0.421973 0.533279 0.129924
O O1 0.353228 0.279992 0.332220
O O2 0.828577 0.843478 0.214210
O O3 0.374282 0.257790 0.831594
O O4 0.471617 0.067377 0.835335
O O5 0.813269 0.981586 0.737207
O O6 0.598499 0.253316 0.228499
O O7 0.600835 0.302519 0.949581
O O8 0.096171 0.818577 0.086891
O O9 0.895639 0.698089 0.515577
O O10 0.000000 0.500000 0.500000
O O11 0.000000 0.500000 0.000000
O O12 0.258849 0.466299 0.859787
O O13 0.248057 0.532717 0.417364
O O14 0.733400 0.029297 0.210014
O O15 0.500000 0.500000 0.500000
O O16 0.500000 0.500000 0.000000
#
# Coordination Sequence:
#
# PCOD9062724 Si02
#       7
#     2   2   2   2   2   2   2
#     4   9  17  34  55  91 130 177 230 287 341 405
#     4  12  26  48  78 105 146 186 230 286 344 417
#     4   8  14  26  53  80 124 175 225 281 344 396
#     4   9  17  34  55  91 130 177 230 287 341 405
#     4  11  24  42  69 103 142 186 236 289 347 412
#     4  11  24  42  69 103 142 186 236 289 347 412
#     4  12  30  52  80 110 146 185 230 281 344 418
#
# _framework density 26.573497
#
# number of rings (size 3 to 8) (size 9 to 14) (size 15 to 20)
#    0.000    1.714    1.429    2.571    6.000    0.000 
#    0.000    0.714    0.000    0.000    0.000   18.000 
#    0.000    0.000    0.000    0.000    0.000    0.000 
#
# Total GULP energy -78328.381246 kJ/mol
# GULP energy per Si atom -5594.884375 kJ/mol
# Density = 2.651301 g / cm^3
# Si number density = 26.573497 Si / 1000 Ang^3
#
#
#
# Elastic Constant Matrix: (Units=GPa)
#
#
# Indices 1 2 3 4 5 6 
#
# 1 131.1953 78.5322 39.5462 -6.4723 -12.1788 -28.8383
# 2 78.5322 181.6072 43.2096 -12.4529 16.1829 -34.8206
# 3 39.5462 43.2096 143.9113 -2.1156 -6.6401 -8.6893
# 4 -6.4723 -12.4529 -2.1156 39.6109 -14.2774 16.3672
# 5 -12.1788 16.1829 -6.6401 -14.2774 41.3402 -2.3515
# 6 -28.8383 -34.8206 -8.6893 16.3672 -2.3515 46.2708
#
#
#
# Elastic Compliance Matrix: (Units=1/GPa)
#
#
# Indices 1 2 3 4 5 6 
#
# 1 0.012286 -0.004682 -0.001460 0.000961 0.005766 0.003813
# 2 -0.004682 0.008996 -0.001456 -0.001577 -0.005460 0.003858
# 3 -0.001460 -0.001456 0.007827 0.000550 0.001550 -0.000652
# 4 0.000961 -0.001577 0.000550 0.034266 0.012141 -0.011989
# 5 0.005766 -0.005460 0.001550 0.012141 0.032304 -0.002877
# 6 0.003813 0.003858 -0.000652 -0.011989 -0.002877 0.030864
#
#
# Mechanical properties :
#
#
# Convention : Reuss Voigt Hill
#
# Bulk Modulus (GPa) = 71.88128 86.58776 79.23452
# Shear Modulus (GPa) = 34.15829 45.13944 39.64886
#
# Velocity S-wave (km/s) = 3.58917 4.12596 3.86689
# Velocity P-wave (km/s) = 6.65469 7.43996 7.05826
#
# Compressibility (1/GPa) = 0.01391183
#
# Stress axis : x y z
#
# Youngs Moduli (GPa) = 81.39461 111.16168 127.75564
#
# Poissons Ratio (x) = 0.52050 0.18650
# Poissons Ratio (y) = 0.38112 0.18607
# Poissons Ratio (z) = 0.11882 0.16190
#
# Static dielectric constant tensor:
#      x y z
#    x 2.122310 -0.080870 0.094190 
#    y -0.080870 2.043130 -0.076160 
#    z 0.094190 -0.076160 2.274330 
# 
# From -- ./inp_files/114225.got.cif
#   From: 2010.05.17/outbox.cif.g08.bks.cpg/sg2_58_cif.got.tgz:114225.got - 2010.06.03 11:33:40.
