data_PCOD9062675
_publ_section_title
;
Structure prediction by ZEFSAII (Michael W. Deem and Ramdas Pophale) SiO2 
 PCOD9062675
Probable space group: P -1
;
_chemical_formula_sum "Si O2"
_cell_formula_units_Z 14
_cell_length_a 15.320330
_cell_length_b 27.761741
_cell_length_c 5.077822
_cell_angle_alpha 121.748514
_cell_angle_beta 77.394701
_cell_angle_gamma 147.559091
_cell_volume 855.952712
_symmetry_space_group_name_H-M "P -1"
_symmetry_group_IT_number 2
_symmetry_cell_setting 'triclinic'
loop_
_space_group_symop_operation_xyz
x,y,z
-x,-y,-z
loop_
_atom_site_type_symbol
_atom_site_label
_atom_site_fract_x
_atom_site_fract_y
_atom_site_fract_z
Si Si1 0.869455 0.052325 0.151116
Si Si2 0.410646 0.512838 0.094945
Si Si3 0.432147 0.030072 0.942884
Si Si4 0.620305 0.657669 0.877237
Si Si5 0.734490 0.122538 0.887843
Si Si6 0.893254 0.714993 0.064655
Si Si7 0.013136 0.070785 0.592772
O O1 0.659356 0.960063 0.019717
O O2 0.935053 0.068074 0.868105
O O3 0.001429 0.177810 0.525119
O O4 0.900050 0.020762 0.256635
O O5 0.530759 0.612489 0.520855
O O6 0.500000 0.500000 0.000000
O O7 0.455256 0.564031 0.931323
O O8 0.204469 0.385414 0.971915
O O9 0.330036 0.931175 0.516969
O O10 0.649839 0.136831 0.057487
O O11 0.368071 0.975772 0.119029
O O12 0.737298 0.663600 0.855452
O O13 0.773583 0.791399 0.205025
O O14 0.953613 0.230708 0.060669
O O15 0.000000 0.000000 0.500000
#
# Coordination Sequence:
#
# PCOD9062675 Si02
#       7
#     2   2   2   2   2   2   2
#     4  10  19  30  46  64  89 116 143 175 215 258
#     4  10  18  27  41  60  86 115 143 166 199 252
#     4   9  16  28  40  61  87 116 142 171 207 245
#     4  10  19  29  41  59  85 114 142 174 208 247
#     4   9  17  25  41  61  88 117 145 168 196 249
#     4   9  17  28  43  64  89 119 143 163 203 253
#     4  11  21  33  47  63  83 111 149 187 219 251
#
# _framework density 16.356041999999999
#
# number of rings (size 3 to 8) (size 9 to 14) (size 15 to 20)
#    0.000    2.286    0.000    7.286    0.000    5.714 
#    0.000    0.000    0.000    0.000    0.000    0.000 
#    0.000    6.857    0.000    0.000    0.000    0.429 
#
# Total GULP energy -78000.517608 kJ/mol
# GULP energy per Si atom -5571.465543 kJ/mol
# Density = 1.631881 g / cm^3
# Si number density = 16.356042 Si / 1000 Ang^3
#
#
#
# Elastic Constant Matrix: (Units=GPa)
#
#
# Indices 1 2 3 4 5 6 
#
# 1 47.4129 26.6610 -2.2607 7.6730 1.2391 4.6801
# 2 26.6610 78.0150 1.8129 -1.3711 -5.8098 7.7985
# 3 -2.2607 1.8129 23.3642 -9.6174 5.2964 -2.0517
# 4 7.6730 -1.3711 -9.6174 22.3474 -5.2392 -1.2780
# 5 1.2391 -5.8098 5.2964 -5.2392 15.1464 -5.1642
# 6 4.6801 7.7985 -2.0517 -1.2780 -5.1642 28.8251
#
#
#
# Elastic Compliance Matrix: (Units=1/GPa)
#
#
# Indices 1 2 3 4 5 6 
#
# 1 0.030647 -0.011264 0.000554 -0.014480 -0.013732 -0.004991
# 2 -0.011264 0.017703 -0.002290 0.006343 0.010371 -0.000984
# 3 0.000554 -0.002290 0.054426 0.020517 -0.011766 0.003205
# 4 -0.014480 0.006343 0.020517 0.064555 0.021795 0.008862
# 5 -0.013732 0.010371 -0.011766 0.021795 0.088000 0.015318
# 6 -0.004991 -0.000984 0.003205 0.008862 0.015318 0.039134
#
#
# Mechanical properties :
#
#
# Convention : Reuss Voigt Hill
#
# Bulk Modulus (GPa) = 13.02525 22.35762 17.69143
# Shear Modulus (GPa) = 14.44848 21.43570 17.94209
#
# Velocity S-wave (km/s) = 2.97538 3.62410 3.31565
# Velocity P-wave (km/s) = 4.44800 5.58670 5.04955
#
# Compressibility (1/GPa) = 0.07677397
#
# Stress axis : x y z
#
# Youngs Moduli (GPa) = 32.62989 56.48760 18.37367
#
# Poissons Ratio (x) = 0.63630 -0.01017
# Poissons Ratio (y) = 0.36755 0.04207
# Poissons Ratio (z) = -0.01806 0.12935
#
# Static dielectric constant tensor:
#      x y z
#    x 1.595740 0.025390 0.030610 
#    y 0.025390 1.588930 -0.003860 
#    z 0.030610 -0.003860 1.574850 
# 
# From -- ./inp_files/100793.got.cif
#   From: 2010.05.17/outbox.cif.g08.bks.cpg/sg2_51_cif.got.tgz:100793.got - 2010.06.03 11:33:40.
