data_PCOD9062052
_publ_section_title
;
Structure prediction by ZEFSAII (Michael W. Deem and Ramdas Pophale) SiO2 
 PCOD9062052
Probable space group: P -1
;
_chemical_formula_sum "Si O2"
_cell_formula_units_Z 14
_cell_length_a 9.721710
_cell_length_b 12.429569
_cell_length_c 11.831677
_cell_angle_alpha 131.723137
_cell_angle_beta 140.157495
_cell_angle_gamma 53.466469
_cell_volume 672.953758
_symmetry_space_group_name_H-M "P -1"
_symmetry_group_IT_number 2
_symmetry_cell_setting 'triclinic'
loop_
_space_group_symop_operation_xyz
x,y,z
-x,-y,-z
loop_
_atom_site_type_symbol
_atom_site_label
_atom_site_fract_x
_atom_site_fract_y
_atom_site_fract_z
Si Si1 0.535814 0.832651 0.865237
Si Si2 0.792109 0.820108 0.784690
Si Si3 0.120378 0.754952 0.632858
Si Si4 0.346748 0.437995 0.624440
Si Si5 0.222398 0.441030 0.034605
Si Si6 0.758806 0.154985 0.981253
Si Si7 0.287743 0.335237 0.760368
O O1 0.668405 0.812946 0.819157
O O2 0.293595 0.793664 0.679187
O O3 0.667993 0.718209 0.957883
O O4 0.500000 0.000000 0.000000
O O5 0.717227 0.704981 0.571940
O O6 0.741859 0.987774 0.827416
O O7 0.054935 0.791844 0.939170
O O8 0.188751 0.582285 0.581538
O O9 0.872957 0.777052 0.452274
O O10 0.161025 0.835389 0.831535
O O11 0.317677 0.428599 0.733813
O O12 0.591611 0.459122 0.764218
O O13 0.185340 0.425198 0.866890
O O14 0.000000 0.500000 0.000000
O O15 0.525571 0.253632 0.888900
#
# Coordination Sequence:
#
# PCOD9062052 Si02
#       7
#     2   2   2   2   2   2   2
#     4  11  23  47  70  92 145 190 215 284 360 403
#     4  11  25  44  72 101 137 176 236 280 343 407
#     4  11  24  44  69 101 136 181 230 271 352 410
#     4  11  25  42  70 101 134 184 226 284 346 399
#     4  11  27  42  65 108 140 177 236 286 335 415
#     4  11  24  48  67 104 136 181 228 286 331 418
#     4  12  24  45  72  97 141 180 227 282 346 401
#
# _framework density 20.803806000000002
#
# number of rings (size 3 to 8) (size 9 to 14) (size 15 to 20)
#    0.000    0.857    5.714    0.857    6.000    1.714 
#    2.571    1.429    0.000    0.000    0.000    0.000 
#    0.000    0.000    0.000    0.000    0.000    0.000 
#
# Total GULP energy -78320.818028 kJ/mol
# GULP energy per Si atom -5594.344145 kJ/mol
# Density = 2.075646 g / cm^3
# Si number density = 20.803806 Si / 1000 Ang^3
#
#
#
# Elastic Constant Matrix: (Units=GPa)
#
#
# Indices 1 2 3 4 5 6 
#
# 1 181.7676 49.1383 54.2783 -1.1855 16.3586 -1.2586
# 2 49.1383 61.1207 57.2633 22.1752 3.9419 -2.6939
# 3 54.2783 57.2633 118.3092 16.0367 4.4327 -0.1013
# 4 -1.1855 22.1752 16.0367 35.5519 -8.8988 2.6724
# 5 16.3586 3.9419 4.4327 -8.8988 38.8691 1.9413
# 6 -1.2586 -2.6939 -0.1013 2.6724 1.9413 29.8399
#
#
#
# Elastic Compliance Matrix: (Units=1/GPa)
#
#
# Indices 1 2 3 4 5 6 
#
# 1 0.007848 -0.007481 -0.000598 0.004921 -0.001314 -0.000702
# 2 -0.007481 0.046192 -0.015464 -0.023955 -0.005572 0.006310
# 3 -0.000598 -0.015464 0.015802 0.002810 0.000745 -0.001668
# 4 0.004921 -0.023955 0.002810 0.045149 0.010708 -0.006686
# 5 -0.001314 -0.005572 0.000745 0.010708 0.029383 -0.003427
# 6 -0.000702 0.006310 -0.001668 -0.006686 -0.003427 0.034868
#
#
# Mechanical properties :
#
#
# Convention : Reuss Voigt Hill
#
# Bulk Modulus (GPa) = 43.94589 75.83971 59.89280
# Shear Modulus (GPa) = 21.37538 34.22000 27.79769
#
# Velocity S-wave (km/s) = 3.20890 4.06013 3.65935
# Velocity P-wave (km/s) = 5.90756 7.64940 6.83420
#
# Compressibility (1/GPa) = 0.02275526
#
# Stress axis : x y z
#
# Youngs Moduli (GPa) = 127.42159 21.64876 63.28434
#
# Poissons Ratio (x) = 0.16194 0.03786
# Poissons Ratio (y) = 0.95318 0.97866
# Poissons Ratio (z) = 0.07623 0.33479
#
# Static dielectric constant tensor:
#      x y z
#    x 1.757290 0.001480 0.013110 
#    y 0.001480 1.733890 -0.000040 
#    z 0.013110 -0.000040 1.754400 
# 
# From -- ./inp_files/270162.got.cif
#   From: 2010.05.17/outbox.cif.g08.bks.cpg/sg2_136_cif.got.tgz:270162.got - 2010.06.03 11:33:40.
