data_PCOD9062125
_publ_section_title
;
Structure prediction by ZEFSAII (Michael W. Deem and Ramdas Pophale) SiO2 
 PCOD9062125
Probable space group: P -1
;
_chemical_formula_sum "Si O2"
_cell_formula_units_Z 15
_cell_length_a 8.921535
_cell_length_b 18.894110
_cell_length_c 6.965056
_cell_angle_alpha 44.325917
_cell_angle_beta 109.122930
_cell_angle_gamma 120.297417
_cell_volume 707.235619
_symmetry_space_group_name_H-M "P -1"
_symmetry_group_IT_number 2
_symmetry_cell_setting 'triclinic'
loop_
_space_group_symop_operation_xyz
x,y,z
-x,-y,-z
loop_
_atom_site_type_symbol
_atom_site_label
_atom_site_fract_x
_atom_site_fract_y
_atom_site_fract_z
Si Si1 0.315229 0.244950 0.988255
Si Si2 0.062524 0.852157 0.802751
Si Si3 0.686613 0.090010 0.848138
Si Si4 0.641015 0.302845 0.280256
Si Si5 0.730944 0.468335 0.330162
Si Si6 0.500000 0.500000 0.500000
Si Si7 0.154909 0.013260 0.183282
Si Si8 0.111359 0.644897 0.072365
O O1 0.462396 0.249516 0.191879
O O2 0.272419 0.141762 0.026128
O O3 0.133898 0.216764 0.075630
O O4 0.392948 0.364178 0.687063
O O5 0.081211 0.949018 0.474830
O O6 0.178019 0.900122 0.946359
O O7 0.129763 0.767618 0.891570
O O8 0.681382 0.208558 0.584934
O O9 0.739855 0.047983 0.757427
O O10 0.500000 0.000000 0.000000
O O11 0.637807 0.391980 0.259315
O O12 0.791837 0.359341 0.075345
O O13 0.612626 0.509619 0.329611
O O14 0.799748 0.398731 0.639190
O O15 0.906948 0.566722 0.136066
O O16 0.000000 0.000000 0.000000
#
# Coordination Sequence:
#
# PCOD9062125 Si02
#       8
#     2   2   2   2   2   1   2   2
#     4  12  28  48  73 110 155 195 251 307 367 454
#     4  12  25  51  74 108 150 195 248 305 376 449
#     4  12  28  45  76 112 142 190 244 309 377 444
#     4  12  26  47  74 112 145 196 248 304 377 436
#     4  11  25  46  73 106 152 194 248 310 364 433
#     4  12  26  48  70 110 150 200 248 302 368 442
#     4  12  28  49  76 107 147 198 244 308 377 438
#     4  11  23  47  74 106 146 197 253 305 358 447
#
# _framework density 21.209337999999999
#
# number of rings (size 3 to 8) (size 9 to 14) (size 15 to 20)
#    0.000    0.267    6.667    1.600    5.600    1.600 
#    4.800    0.000    0.000    0.000    0.000    0.000 
#    0.000    0.000    0.000    0.000    0.000    0.000 
#
# Total GULP energy -83707.221134 kJ/mol
# GULP energy per Si atom -5580.481409 kJ/mol
# Density = 2.116106 g / cm^3
# Si number density = 21.209338 Si / 1000 Ang^3
#
#
#
# Elastic Constant Matrix: (Units=GPa)
#
#
# Indices 1 2 3 4 5 6 
#
# 1 89.6686 37.2582 21.2910 18.0015 -23.4051 5.5387
# 2 37.2582 160.6774 44.5554 3.8440 -1.2383 -1.4947
# 3 21.2910 44.5554 106.8614 -5.8265 -11.3918 29.8701
# 4 18.0015 3.8440 -5.8265 34.8105 -2.7933 -1.8369
# 5 -23.4051 -1.2383 -11.3918 -2.7933 29.6685 -3.2659
# 6 5.5387 -1.4947 29.8701 -1.8369 -3.2659 43.1301
#
#
#
# Elastic Compliance Matrix: (Units=1/GPa)
#
#
# Indices 1 2 3 4 5 6 
#
# 1 0.017866 -0.003655 -0.000757 -0.008006 0.012758 -0.001272
# 2 -0.003655 0.008166 -0.003960 0.000200 -0.003689 0.003224
# 3 -0.000757 -0.003960 0.014440 0.003061 0.004013 -0.009606
# 4 -0.008006 0.000200 0.003061 0.033207 -0.001986 0.000179
# 5 0.012758 -0.003689 0.004013 -0.001986 0.044834 -0.001235
# 6 -0.001272 0.003224 -0.009606 0.000179 -0.001235 0.030028
#
#
# Mechanical properties :
#
#
# Convention : Reuss Voigt Hill
#
# Bulk Modulus (GPa) = 42.14407 62.60182 52.37294
# Shear Modulus (GPa) = 28.86929 38.46200 33.66564
#
# Velocity S-wave (km/s) = 3.69339 4.26308 3.98842
# Velocity P-wave (km/s) = 6.17267 7.33567 6.77915
#
# Compressibility (1/GPa) = 0.02372813
#
# Stress axis : x y z
#
# Youngs Moduli (GPa) = 55.97152 122.45678 69.25342
#
# Poissons Ratio (x) = 0.44758 0.05240
# Poissons Ratio (y) = 0.20458 0.27426
# Poissons Ratio (z) = 0.04235 0.48496
#
# Static dielectric constant tensor:
#      x y z
#    x 1.756440 -0.020120 0.022650 
#    y -0.020120 1.737860 0.010700 
#    z 0.022650 0.010700 1.760210 
# 
# From -- ./inp_files/40349.got.cif
#   From: 2010.05.17/outbox.cif.g08.bks.cpg/sg2_21_cif.got.tgz:40349.got - 2010.06.03 11:33:40.
