data_PCOD9062796
_publ_section_title
;
Structure prediction by ZEFSAII (Michael W. Deem and Ramdas Pophale) SiO2 
 PCOD9062796
Probable space group: P -1
;
_chemical_formula_sum "Si O2"
_cell_formula_units_Z 14
_cell_length_a 16.968170
_cell_length_b 8.471546
_cell_length_c 11.624700
_cell_angle_alpha 70.602209
_cell_angle_beta 160.834308
_cell_angle_gamma 109.365658
_cell_volume 516.590936
_symmetry_space_group_name_H-M "P -1"
_symmetry_group_IT_number 2
_symmetry_cell_setting 'triclinic'
loop_
_space_group_symop_operation_xyz
x,y,z
-x,-y,-z
loop_
_atom_site_type_symbol
_atom_site_label
_atom_site_fract_x
_atom_site_fract_y
_atom_site_fract_z
Si Si1 0.177344 0.868052 0.719985
Si Si2 0.189993 0.365005 0.634392
Si Si3 0.103684 0.049403 0.904207
Si Si4 0.694129 0.789811 0.413898
Si Si5 0.062095 0.678568 0.260743
Si Si6 0.323429 0.509695 0.361556
Si Si7 0.508802 0.207991 0.306311
O O1 0.087094 0.870463 0.464546
O O2 0.084306 0.700425 0.698891
O O3 0.462688 0.896139 0.098504
O O4 0.000000 0.000000 0.500000
O O5 0.286078 0.267505 0.678673
O O6 0.186739 0.560228 0.553499
O O7 0.337241 0.316084 0.962478
O O8 0.140248 0.198792 0.009169
O O9 0.952148 0.884450 0.773878
O O10 0.349726 0.047217 0.171561
O O11 0.644782 0.629643 0.464218
O O12 0.260425 0.808427 0.449341
O O13 0.941301 0.539059 0.042387
O O14 0.500000 0.500000 0.500000
O O15 0.386340 0.683609 0.469335
#
# Coordination Sequence:
#
# PCOD9062796 Si02
#       7
#     2   2   2   2   2   2   2
#     4  11  24  42  71 108 148 181 235 296 367 421
#     4  11  25  43  77 113 136 190 242 299 356 423
#     4  11  26  42  72 108 145 185 235 306 351 427
#     4  12  26  46  74 105 150 188 238 294 367 424
#     4  12  25  45  75 103 148 191 242 291 361 419
#     4  12  26  50  71 104 147 197 237 294 354 434
#     4  11  25  44  72 106 144 183 245 293 351 419
#
# _framework density 27.100747999999999
#
# number of rings (size 3 to 8) (size 9 to 14) (size 15 to 20)
#    0.000    0.571    4.286    3.000    6.000    1.714 
#    0.000    0.714    0.000    0.000    0.000    0.000 
#    0.000    0.000    0.000    0.000    0.000    0.000 
#
# Total GULP energy -78373.086200 kJ/mol
# GULP energy per Si atom -5598.077586 kJ/mol
# Density = 2.703907 g / cm^3
# Si number density = 27.100748 Si / 1000 Ang^3
#
#
#
# Elastic Constant Matrix: (Units=GPa)
#
#
# Indices 1 2 3 4 5 6 
#
# 1 123.6384 44.6834 48.2304 2.1438 30.4254 21.4538
# 2 44.6834 89.4076 41.9470 22.2534 22.1168 9.4189
# 3 48.2304 41.9470 126.9172 12.4587 16.5329 15.9307
# 4 2.1438 22.2534 12.4587 44.7832 8.3446 9.4277
# 5 30.4254 22.1168 16.5329 8.3446 53.6218 20.3075
# 6 21.4538 9.4189 15.9307 9.4277 20.3075 47.3951
#
#
#
# Elastic Compliance Matrix: (Units=1/GPa)
#
#
# Indices 1 2 3 4 5 6 
#
# 1 0.012076 -0.004510 -0.002623 0.003677 -0.003678 -0.002844
# 2 -0.004510 0.017356 -0.003171 -0.007433 -0.003456 0.002618
# 3 -0.002623 -0.003171 0.010157 -0.000863 0.000404 -0.001598
# 4 0.003677 -0.007433 -0.000863 0.027324 -0.001178 -0.004827
# 5 -0.003678 -0.003456 0.000404 -0.001178 0.025417 -0.008440
# 6 -0.002844 0.002618 -0.001598 -0.004827 -0.008440 0.026980
#
#
# Mechanical properties :
#
#
# Convention : Reuss Voigt Hill
#
# Bulk Modulus (GPa) = 52.68761 67.74272 60.21517
# Shear Modulus (GPa) = 34.18916 42.83351 38.51134
#
# Velocity S-wave (km/s) = 3.55569 3.97990 3.77376
# Velocity P-wave (km/s) = 6.02834 6.79488 6.42305
#
# Compressibility (1/GPa) = 0.01897979
#
# Stress axis : x y z
#
# Youngs Moduli (GPa) = 82.80633 57.61707 98.45707
#
# Poissons Ratio (x) = 0.25987 0.25829
# Poissons Ratio (y) = 0.37349 0.31220
# Poissons Ratio (z) = 0.21723 0.18270
#
# Static dielectric constant tensor:
#      x y z
#    x 2.137710 -0.027780 -0.042020 
#    y -0.027780 2.095000 0.016040 
#    z -0.042020 0.016040 2.128270 
# 
# From -- ./inp_files/462075.got.cif
#   From: 2010.05.17/outbox.cif.g08.bks.cpg/sg2_232_cif.got.tgz:462075.got - 2010.06.03 11:33:40.
