data_PCOD9062347
_publ_section_title
;
Structure prediction by ZEFSAII (Michael W. Deem and Ramdas Pophale) SiO2 
 PCOD9062347
Probable space group: P -1
;
_chemical_formula_sum "Si O2"
_cell_formula_units_Z 16
_cell_length_a 7.979889
_cell_length_b 16.725213
_cell_length_c 6.951169
_cell_angle_alpha 74.262407
_cell_angle_beta 56.590492
_cell_angle_gamma 90.498460
_cell_volume 730.843410
_symmetry_space_group_name_H-M "P -1"
_symmetry_group_IT_number 2
_symmetry_cell_setting 'triclinic'
loop_
_space_group_symop_operation_xyz
x,y,z
-x,-y,-z
loop_
_atom_site_type_symbol
_atom_site_label
_atom_site_fract_x
_atom_site_fract_y
_atom_site_fract_z
Si Si1 0.600464 0.597480 0.380373
Si Si2 0.030216 0.019028 0.696235
Si Si3 0.571681 0.867899 0.695000
Si Si4 0.937419 0.695070 0.856219
Si Si5 0.758810 0.709592 0.551638
Si Si6 0.637649 0.262669 0.597623
Si Si7 0.843527 0.172803 0.863776
Si Si8 0.750385 0.853976 0.004218
O O1 0.500000 0.500000 0.500000
O O2 0.635709 0.635339 0.548241
O O3 0.453774 0.655583 0.340943
O O4 0.816214 0.622229 0.116800
O O5 0.270370 0.056387 0.556797
O O6 0.909735 0.093363 0.771537
O O7 0.000000 0.000000 0.500000
O O8 0.915627 0.932722 0.925550
O O9 0.630661 0.778275 0.662218
O O10 0.328115 0.858508 0.847336
O O11 0.637119 0.882958 0.869326
O O12 0.856449 0.676576 0.701173
O O13 0.182478 0.710873 0.686757
O O14 0.868793 0.782804 0.898053
O O15 0.944493 0.762568 0.270198
O O16 0.737773 0.224097 0.739608
O O17 0.437993 0.191685 0.714726
#
# Coordination Sequence:
#
# PCOD9062347 Si02
#       8
#     2   2   2   2   2   2   2   2
#     4  11  24  39  58  85 109 135 179 231 283 339
#     4   9  15  23  44  84 119 143 185 233 265 306
#     4   8  15  27  46  74 107 144 182 217 261 313
#     4   9  19  38  57  79 111 146 183 221 270 330
#     4   9  19  37  57  78 110 146 178 223 279 330
#     4   9  18  34  53  75 108 144 181 222 268 324
#     4   9  17  31  53  80 111 151 191 222 264 326
#     4   8  15  27  48  80 113 143 182 227 264 309
#
# _framework density 21.892513000000001
#
# number of rings (size 3 to 8) (size 9 to 14) (size 15 to 20)
#    0.000    3.000    0.000    3.000    0.000    7.500 
#    0.000    2.500    0.000   12.000    0.000   49.000 
#    0.000    0.000    0.000    0.000    0.000    0.000 
#
# Total GULP energy -89335.725482 kJ/mol
# GULP energy per Si atom -5583.482843 kJ/mol
# Density = 2.184268 g / cm^3
# Si number density = 21.892513 Si / 1000 Ang^3
#
#
#
# Elastic Constant Matrix: (Units=GPa)
#
#
# Indices 1 2 3 4 5 6 
#
# 1 64.5995 37.2568 25.1392 4.9519 -9.0485 7.4904
# 2 37.2568 124.0816 53.4731 -34.6769 -17.6658 18.6713
# 3 25.1392 53.4731 146.5680 -12.8598 -36.3699 -0.5855
# 4 4.9519 -34.6769 -12.8598 34.1695 1.9801 -0.9051
# 5 -9.0485 -17.6658 -36.3699 1.9801 46.5520 5.2978
# 6 7.4904 18.6713 -0.5855 -0.9051 5.2978 25.8415
#
#
#
# Elastic Compliance Matrix: (Units=1/GPa)
#
#
# Indices 1 2 3 4 5 6 
#
# 1 0.023107 -0.010391 -0.001434 -0.014428 0.000010 0.000270
# 2 -0.010391 0.020665 -0.002995 0.020801 0.003972 -0.012073
# 3 -0.001434 -0.002995 0.009690 0.000513 0.005951 0.001597
# 4 -0.014428 0.020801 0.000513 0.052142 0.004400 -0.009912
# 5 0.000010 0.003972 0.005951 0.004400 0.028410 -0.008408
# 6 0.000270 -0.012073 0.001597 -0.009912 -0.008408 0.048755
#
#
# Mechanical properties :
#
#
# Convention : Reuss Voigt Hill
#
# Bulk Modulus (GPa) = 41.97929 62.99859 52.48894
# Shear Modulus (GPa) = 22.69109 35.93793 29.31451
#
# Velocity S-wave (km/s) = 3.22293 4.05602 3.66323
# Velocity P-wave (km/s) = 5.75035 7.12557 6.47458
#
# Compressibility (1/GPa) = 0.02382127
#
# Stress axis : x y z
#
# Youngs Moduli (GPa) = 43.27621 48.39032 103.20395
#
# Poissons Ratio (x) = 0.50284 0.14804
# Poissons Ratio (y) = 0.44970 0.30906
# Poissons Ratio (z) = 0.06208 0.14491
#
# Static dielectric constant tensor:
#      x y z
#    x 1.853700 0.026170 0.010990 
#    y 0.026170 1.750700 0.004100 
#    z 0.010990 0.004100 1.908050 
# 
# From -- ./inp_files/201279.got.cif
#   From: 2010.05.17/outbox.cif.g08.bks.cpg/sg2_101_cif.got.tgz:201279.got - 2010.06.03 11:33:40.
