data_PCOD9062309
_publ_section_title
;
Structure prediction by ZEFSAII (Michael W. Deem and Ramdas Pophale) SiO2 
 PCOD9062309
Probable space group: P -1
;
_chemical_formula_sum "Si O2"
_cell_formula_units_Z 16
_cell_length_a 11.955720
_cell_length_b 8.497348
_cell_length_c 17.884182
_cell_angle_alpha 126.735935
_cell_angle_beta 148.451316
_cell_angle_gamma 63.898292
_cell_volume 751.225437
_symmetry_space_group_name_H-M "P -1"
_symmetry_group_IT_number 2
_symmetry_cell_setting 'triclinic'
loop_
_space_group_symop_operation_xyz
x,y,z
-x,-y,-z
loop_
_atom_site_type_symbol
_atom_site_label
_atom_site_fract_x
_atom_site_fract_y
_atom_site_fract_z
Si Si1 0.222406 0.321277 0.354297
Si Si2 0.959933 0.720115 0.515339
Si Si3 0.985543 0.982898 0.230035
Si Si4 0.022799 0.769273 0.958558
Si Si5 0.530463 0.285626 0.743412
Si Si6 0.303570 0.292670 0.114659
Si Si7 0.637732 0.137450 0.514265
Si Si8 0.278174 0.750206 0.573821
O O1 0.106314 0.345124 0.216278
O O2 0.465904 0.282597 0.468993
O O3 0.226348 0.514158 0.461285
O O4 0.089944 0.130595 0.266188
O O5 0.703007 0.704270 0.350952
O O6 0.000000 0.500000 0.500000
O O7 0.100592 0.793512 0.543763
O O8 0.028270 0.875825 0.666158
O O9 0.153851 0.837770 0.307852
O O10 0.771309 0.849910 0.038513
O O11 0.902961 0.703380 0.948949
O O12 0.272181 0.743594 0.098567
O O13 0.000000 0.000000 0.000000
O O14 0.600336 0.487375 0.795181
O O15 0.485573 0.089452 0.609831
O O16 0.485210 0.208201 0.242179
O O17 0.711992 0.151406 0.473970
#
# Coordination Sequence:
#
# PCOD9062309 Si02
#       8
#     2   2   2   2   2   2   2   2
#     4  12  23  42  70 101 142 179 221 285 352 412
#     4  11  23  50  71  95 138 187 236 276 330 417
#     4  11  25  41  71 102 137 177 230 284 343 408
#     4  12  23  42  67 108 145 171 224 290 351 407
#     4  11  24  43  70  97 140 184 225 279 343 406
#     4  12  24  42  69 106 139 181 220 289 351 406
#     4  11  24  44  67 105 137 178 230 283 347 411
#     4  12  25  45  74  97 136 191 228 278 346 405
#
# _framework density 21.298534
#
# number of rings (size 3 to 8) (size 9 to 14) (size 15 to 20)
#    0.000    0.500    6.250    1.875    1.750    4.500 
#    0.000    0.625    2.750    0.000    0.000    0.000 
#    0.000    0.000    0.000    0.000    0.000    0.000 
#
# Total GULP energy -89593.546086 kJ/mol
# GULP energy per Si atom -5599.596630 kJ/mol
# Density = 2.125006 g / cm^3
# Si number density = 21.298534 Si / 1000 Ang^3
#
#
#
# Elastic Constant Matrix: (Units=GPa)
#
#
# Indices 1 2 3 4 5 6 
#
# 1 115.6097 23.7880 23.7619 6.0269 1.9637 -6.8363
# 2 23.7880 70.9738 23.6986 -11.0179 8.6524 5.5838
# 3 23.7619 23.6986 119.4834 -13.4899 -6.8635 -6.9200
# 4 6.0269 -11.0179 -13.4899 31.5701 0.0718 8.9422
# 5 1.9637 8.6524 -6.8635 0.0718 29.0427 -0.0760
# 6 -6.8363 5.5838 -6.9200 8.9422 -0.0760 38.5663
#
#
#
# Elastic Compliance Matrix: (Units=1/GPa)
#
#
# Indices 1 2 3 4 5 6 
#
# 1 0.010237 -0.003924 -0.001620 -0.004933 0.000115 0.003236
# 2 -0.003924 0.018694 -0.002728 0.007735 -0.005983 -0.005697
# 3 -0.001620 -0.002728 0.009850 0.003239 0.003245 0.001131
# 4 -0.004933 0.007735 0.003239 0.039713 -0.001331 -0.010624
# 5 0.000115 -0.005983 0.003245 -0.001331 0.036982 0.001850
# 6 0.003236 -0.005697 0.001131 -0.010624 0.001850 0.029998
#
#
# Mechanical properties :
#
#
# Convention : Reuss Voigt Hill
#
# Bulk Modulus (GPa) = 44.97158 49.84043 47.40601
# Shear Modulus (GPa) = 29.51059 35.49039 32.50049
#
# Velocity S-wave (km/s) = 3.72636 4.08650 3.91058
# Velocity P-wave (km/s) = 6.29882 6.76148 6.53424
#
# Compressibility (1/GPa) = 0.02223627
#
# Stress axis : x y z
#
# Youngs Moduli (GPa) = 97.68561 53.49254 101.52103
#
# Poissons Ratio (x) = 0.20993 0.16451
# Poissons Ratio (y) = 0.38336 0.27692
# Poissons Ratio (z) = 0.15829 0.14591
#
# Static dielectric constant tensor:
#      x y z
#    x 1.761390 0.020210 -0.003330 
#    y 0.020210 1.787290 0.000850 
#    z -0.003330 0.000850 1.768210 
# 
# From -- ./inp_files/262594.got.cif
#   From: 2010.05.17/outbox.cif.g08.bks.cpg/sg2_132_cif.got.tgz:262594.got - 2010.06.03 11:33:40.
