data_PCOD9062526
_publ_section_title
;
Structure prediction by ZEFSAII (Michael W. Deem and Ramdas Pophale) SiO2 
 PCOD9062526
Probable space group: P -1
;
_chemical_formula_sum "Si O2"
_cell_formula_units_Z 14
_cell_length_a 11.873102
_cell_length_b 14.841670
_cell_length_c 12.505706
_cell_angle_alpha 18.844913
_cell_angle_beta 120.428234
_cell_angle_gamma 125.347438
_cell_volume 573.504162
_symmetry_space_group_name_H-M "P -1"
_symmetry_group_IT_number 2
_symmetry_cell_setting 'triclinic'
loop_
_space_group_symop_operation_xyz
x,y,z
-x,-y,-z
loop_
_atom_site_type_symbol
_atom_site_label
_atom_site_fract_x
_atom_site_fract_y
_atom_site_fract_z
Si Si1 0.008072 0.829617 0.304417
Si Si2 0.168662 0.728775 0.927507
Si Si3 0.143030 0.838742 0.023911
Si Si4 0.582863 0.221588 0.698510
Si Si5 0.459082 0.699469 0.079964
Si Si6 0.145258 0.743135 0.660113
Si Si7 0.577252 0.348890 0.128540
O O1 0.985325 0.481047 0.669220
O O2 0.132525 0.937554 0.332584
O O3 0.884317 0.887750 0.243463
O O4 0.000000 0.000000 0.000000
O O5 0.187679 0.874299 0.654029
O O6 0.178296 0.916471 0.829053
O O7 0.297652 0.614479 0.130071
O O8 0.012384 0.486399 0.135701
O O9 0.259962 0.753324 0.237390
O O10 0.550770 0.518148 0.373149
O O11 0.500000 0.000000 0.000000
O O12 0.528752 0.044968 0.759934
O O13 0.452780 0.610210 0.054333
O O14 0.257079 0.591322 0.851776
O O15 0.500000 0.000000 0.500000
O O16 0.500000 0.500000 0.000000
#
# Coordination Sequence:
#
# PCOD9062526 Si02
#       7
#     2   2   2   2   2   2   2
#     4  11  25  44  66  96 132 178 225 268 324 399
#     4   9  20  42  67 101 129 167 224 275 342 388
#     4  11  24  41  67  97 134 172 221 276 328 397
#     4  12  24  39  64  99 137 174 212 269 347 393
#     4  11  24  41  67  99 137 177 222 281 329 405
#     4   9  22  42  71  95 131 172 216 282 334 392
#     4  11  25  46  68  97 133 177 228 272 330 404
#
# _framework density 24.411332000000002
#
# number of rings (size 3 to 8) (size 9 to 14) (size 15 to 20)
#    0.000    1.429    1.429    2.571    4.000    6.286 
#    0.000    4.286    0.000    0.000    0.000    0.000 
#    0.000    0.000    0.000    0.000    0.000    0.000 
#
# Total GULP energy -78121.744046 kJ/mol
# GULP energy per Si atom -5580.124575 kJ/mol
# Density = 2.435577 g / cm^3
# Si number density = 24.411332 Si / 1000 Ang^3
#
#
#
# Elastic Constant Matrix: (Units=GPa)
#
#
# Indices 1 2 3 4 5 6 
#
# 1 113.5132 54.9328 10.1636 5.4819 23.1030 -19.2937
# 2 54.9328 119.7405 28.8377 23.2210 9.0660 -18.1845
# 3 10.1636 28.8377 77.8525 9.2609 15.8714 -6.1969
# 4 5.4819 23.2210 9.2609 49.4444 -7.8064 -1.0162
# 5 23.1030 9.0660 15.8714 -7.8064 27.7406 11.6991
# 6 -19.2937 -18.1845 -6.1969 -1.0162 11.6991 48.9998
#
#
#
# Elastic Compliance Matrix: (Units=1/GPa)
#
#
# Indices 1 2 3 4 5 6 
#
# 1 0.017025 -0.005257 0.005181 -0.003451 -0.020734 0.010287
# 2 -0.005257 0.012848 -0.003266 -0.004834 -0.000261 0.002247
# 3 0.005181 -0.003266 0.018324 -0.005214 -0.018324 0.007412
# 4 -0.003451 -0.004834 -0.005214 0.026558 0.018110 -0.007585
# 5 -0.020734 -0.000261 -0.018324 0.018110 0.081490 -0.029659
# 6 0.010287 0.002247 0.007412 -0.007585 -0.029659 0.033154
#
#
# Mechanical properties :
#
#
# Convention : Reuss Voigt Hill
#
# Bulk Modulus (GPa) = 24.08846 55.44161 39.76503
# Shear Modulus (GPa) = 23.81871 39.71509 31.76690
#
# Velocity S-wave (km/s) = 3.12705 4.03788 3.61129
# Velocity P-wave (km/s) = 4.78822 6.67083 5.80633
#
# Compressibility (1/GPa) = 0.04151365
#
# Stress axis : x y z
#
# Youngs Moduli (GPa) = 58.73854 77.83285 54.57317
#
# Poissons Ratio (x) = 0.40914 -0.28274
# Poissons Ratio (y) = 0.30877 0.17822
# Poissons Ratio (z) = -0.30432 0.25418
#
# Static dielectric constant tensor:
#      x y z
#    x 2.029000 -0.011640 -0.183870 
#    y -0.011640 2.054710 -0.024300 
#    z -0.183870 -0.024300 2.046540 
# 
# From -- ./inp_files/433642.got.cif
#   From: 2010.05.17/outbox.cif.g08.bks.cpg/sg2_217_cif.got.tgz:433642.got - 2010.06.03 11:33:40.
