data_PCOD9062065
_publ_section_title
;
Structure prediction by ZEFSAII (Michael W. Deem and Ramdas Pophale) SiO2 
 PCOD9062065
Probable space group: P -1
;
_chemical_formula_sum "Si O2"
_cell_formula_units_Z 14
_cell_length_a 9.713714
_cell_length_b 9.612599
_cell_length_c 25.928370
_cell_angle_alpha 138.838984
_cell_angle_beta 30.361572
_cell_angle_gamma 148.681404
_cell_volume 634.946154
_symmetry_space_group_name_H-M "P -1"
_symmetry_group_IT_number 2
_symmetry_cell_setting 'triclinic'
loop_
_space_group_symop_operation_xyz
x,y,z
-x,-y,-z
loop_
_atom_site_type_symbol
_atom_site_label
_atom_site_fract_x
_atom_site_fract_y
_atom_site_fract_z
Si Si1 0.899772 0.969444 0.761811
Si Si2 0.405787 0.170401 0.737961
Si Si3 0.131281 0.267229 0.001683
Si Si4 0.870884 0.544228 0.228970
Si Si5 0.199618 0.477992 0.384390
Si Si6 0.281084 0.785574 0.967633
Si Si7 0.138572 0.427085 0.203280
O O1 0.022989 0.809557 0.653021
O O2 0.529346 0.757501 0.846134
O O3 0.118379 0.154764 0.791826
O O4 0.868750 0.138140 0.777262
O O5 0.675644 0.294418 0.636259
O O6 0.640906 0.371897 0.764250
O O7 0.151935 0.869301 0.761047
O O8 0.992840 0.409708 0.115451
O O9 0.918307 0.145330 0.983630
O O10 0.537602 0.485450 0.915518
O O11 0.000000 0.000000 0.000000
O O12 0.510653 0.486700 0.312998
O O13 0.919545 0.484060 0.254332
O O14 0.000000 0.500000 0.500000
O O15 0.000000 0.500000 0.000000
O O16 0.500000 0.000000 0.000000
#
# Coordination Sequence:
#
# PCOD9062065 Si02
#       7
#     2   2   2   2   2   2   2
#     4  11  23  47  71 104 146 187 255 296 362 444
#     4  11  25  46  74 109 145 189 246 303 373 438
#     4  12  25  45  68 109 156 207 239 281 361 452
#     4  11  26  45  72 109 148 197 249 294 359 449
#     4  11  26  53  81 103 139 194 254 320 372 428
#     4  12  25  40  67 105 145 191 238 292 353 428
#     4  12  25  45  71 110 157 193 233 298 364 441
#
# _framework density 22.049113999999999
#
# number of rings (size 3 to 8) (size 9 to 14) (size 15 to 20)
#    0.000    0.571    2.857    4.714    4.000    4.571 
#    0.000    2.143    0.000    0.000    0.000    0.000 
#    0.000    0.000    0.000    0.000    0.000    0.000 
#
# Total GULP energy -78020.552644 kJ/mol
# GULP energy per Si atom -5572.896617 kJ/mol
# Density = 2.199893 g / cm^3
# Si number density = 22.049114 Si / 1000 Ang^3
#
#
#
# Elastic Constant Matrix: (Units=GPa)
#
#
# Indices 1 2 3 4 5 6 
#
# 1 182.6806 77.8581 45.2745 -5.1374 7.2968 -14.0161
# 2 77.8581 195.7779 67.8486 -6.9681 25.0404 -15.7271
# 3 45.2745 67.8486 138.0603 -1.8440 22.7235 -5.8626
# 4 -5.1374 -6.9681 -1.8440 22.4522 -4.2698 6.9135
# 5 7.2968 25.0404 22.7235 -4.2698 26.9024 -5.3805
# 6 -14.0161 -15.7271 -5.8626 6.9135 -5.3805 52.3098
#
#
#
# Elastic Compliance Matrix: (Units=1/GPa)
#
#
# Indices 1 2 3 4 5 6 
#
# 1 0.006847 -0.002387 -0.001314 0.000735 0.001803 0.001058
# 2 -0.002387 0.007420 -0.002128 0.000519 -0.004209 0.000851
# 3 -0.001314 -0.002128 0.009695 -0.001213 -0.006119 -0.000374
# 4 0.000735 0.000519 -0.001213 0.047728 0.006840 -0.005387
# 5 0.001803 -0.004209 -0.006119 0.006840 0.047354 0.002499
# 6 0.001058 0.000851 -0.000374 -0.005387 0.002499 0.020583
#
#
# Mechanical properties :
#
#
# Convention : Reuss Voigt Hill
#
# Bulk Modulus (GPa) = 81.27718 99.83127 90.55423
# Shear Modulus (GPa) = 32.17785 42.03538 37.10662
#
# Velocity S-wave (km/s) = 3.82432 4.37102 4.10678
# Velocity P-wave (km/s) = 7.51282 8.41721 7.97784
#
# Compressibility (1/GPa) = 0.01230358
#
# Stress axis : x y z
#
# Youngs Moduli (GPa) = 146.05204 134.77775 103.14594
#
# Poissons Ratio (x) = 0.32170 0.13557
# Poissons Ratio (y) = 0.34861 0.21947
# Poissons Ratio (z) = 0.19196 0.28678
#
# Static dielectric constant tensor:
#      x y z
#    x 1.849920 0.031630 0.005490 
#    y 0.031630 1.874040 -0.050960 
#    z 0.005490 -0.050960 1.847310 
# 
# From -- ./inp_files/547514.got.cif
#   From: 2010.05.17/outbox.cif.g08.bks.cpg/sg2_274_cif.got.tgz:547514.got - 2010.06.03 11:33:40.
