data_PCOD9062835
_publ_section_title
;
Structure prediction by ZEFSAII (Michael W. Deem and Ramdas Pophale) SiO2 
 PCOD9062835
Probable space group: P -1
;
_chemical_formula_sum "Si O2"
_cell_formula_units_Z 14
_cell_length_a 8.812939
_cell_length_b 7.736562
_cell_length_c 11.489020
_cell_angle_alpha 80.545315
_cell_angle_beta 83.620393
_cell_angle_gamma 51.562608
_cell_volume 605.206770
_symmetry_space_group_name_H-M "P -1"
_symmetry_group_IT_number 2
_symmetry_cell_setting 'triclinic'
loop_
_space_group_symop_operation_xyz
x,y,z
-x,-y,-z
loop_
_atom_site_type_symbol
_atom_site_label
_atom_site_fract_x
_atom_site_fract_y
_atom_site_fract_z
Si Si1 0.276708 0.701454 0.489168
Si Si2 0.609340 0.556705 0.902185
Si Si3 0.663972 0.987594 0.219116
Si Si4 0.634118 0.965986 0.601565
Si Si5 0.081095 0.820863 0.253667
Si Si6 0.200274 0.356909 0.932460
Si Si7 0.982551 0.273075 0.286432
O O1 0.500000 0.500000 0.500000
O O2 0.279578 0.909269 0.459114
O O3 0.192546 0.693679 0.375806
O O4 0.150786 0.712721 0.602248
O O5 0.463639 0.746377 0.801318
O O6 0.793397 0.339879 0.846983
O O7 0.500000 0.500000 0.000000
O O8 0.662313 0.669561 0.976466
O O9 0.526980 0.937423 0.294208
O O10 0.726306 0.876675 0.099286
O O11 0.868604 0.886255 0.271298
O O12 0.500000 0.000000 0.500000
O O13 0.833761 0.751008 0.669335
O O14 0.060675 0.048022 0.232364
O O15 0.152751 0.514328 0.808267
O O16 0.000000 0.500000 0.000000
#
# Coordination Sequence:
#
# PCOD9062835 Si02
#       7
#     2   2   2   2   2   2   2
#     4  11  25  45  74 106 143 187 238 293 357 433
#     4  12  29  45  75 103 141 198 243 288 354 429
#     4  12  26  47  72 105 147 183 240 299 355 421
#     4  11  24  42  73 105 141 183 235 298 357 418
#     4  11  26  47  73 105 145 187 241 294 357 426
#     4  12  26  47  70 105 145 188 238 294 358 412
#     4  11  25  46  75 104 146 190 238 293 356 432
#
# _framework density 23.132587999999998
#
# number of rings (size 3 to 8) (size 9 to 14) (size 15 to 20)
#    0.000    0.571    1.429    6.429   12.000    1.143 
#    0.000    2.857    0.000    0.000    0.000    0.000 
#    0.000    0.000    0.000    0.000    0.000    0.000 
#
# Total GULP energy -78226.520610 kJ/mol
# GULP energy per Si atom -5587.608615 kJ/mol
# Density = 2.307994 g / cm^3
# Si number density = 23.132588 Si / 1000 Ang^3
#
#
#
# Elastic Constant Matrix: (Units=GPa)
#
#
# Indices 1 2 3 4 5 6 
#
# 1 132.0632 21.6475 40.9653 10.9403 5.3563 -40.2143
# 2 21.6475 106.7377 23.9564 1.9264 1.4857 -30.9982
# 3 40.9653 23.9564 85.8739 3.3656 -8.0283 -16.4221
# 4 10.9403 1.9264 3.3656 32.2036 -4.8322 4.3976
# 5 5.3563 1.4857 -8.0283 -4.8322 52.5635 -0.2472
# 6 -40.2143 -30.9982 -16.4221 4.3976 -0.2472 40.1312
#
#
#
# Elastic Compliance Matrix: (Units=1/GPa)
#
#
# Indices 1 2 3 4 5 6 
#
# 1 0.013623 0.002626 -0.004430 -0.006717 -0.002688 0.014586
# 2 0.002626 0.012954 -0.002578 -0.003217 -0.001267 0.011927
# 3 -0.004430 -0.002578 0.014621 0.000621 0.002812 -0.000498
# 4 -0.006717 -0.003217 0.000621 0.035834 0.004104 -0.012863
# 5 -0.002688 -0.001267 0.002812 0.004104 0.020128 -0.002847
# 6 0.014586 0.011927 -0.000498 -0.012863 -0.002847 0.049936
#
#
# Mechanical properties :
#
#
# Convention : Reuss Voigt Hill
#
# Bulk Modulus (GPa) = 30.83156 55.31257 43.07206
# Shear Modulus (GPa) = 29.99914 40.85338 35.42626
#
# Velocity S-wave (km/s) = 3.60507 4.20700 3.91761
# Velocity P-wave (km/s) = 5.53948 6.89648 6.25489
#
# Compressibility (1/GPa) = 0.03243430
#
# Stress axis : x y z
#
# Youngs Moduli (GPa) = 73.40543 77.19382 68.39601
#
# Poissons Ratio (x) = -0.20272 0.30299
# Poissons Ratio (y) = -0.19277 0.17633
# Poissons Ratio (z) = 0.32518 0.19902
#
# Static dielectric constant tensor:
#      x y z
#    x 1.845140 -0.010280 0.043070 
#    y -0.010280 1.960830 -0.099220 
#    z 0.043070 -0.099220 1.908450 
# 
# From -- ./inp_files/378672.got.cif
#   From: 2010.05.17/outbox.cif.g08.bks.cpg/sg2_190_cif.got.tgz:378672.got - 2010.06.03 11:33:40.
