data_PCOD9062115
_publ_section_title
;
Structure prediction by ZEFSAII (Michael W. Deem and Ramdas Pophale) SiO2 
 PCOD9062115
Probable space group: P -1
;
_chemical_formula_sum "Si O2"
_cell_formula_units_Z 12
_cell_length_a 11.102912
_cell_length_b 17.995492
_cell_length_c 14.133777
_cell_angle_alpha 158.789017
_cell_angle_beta 29.733787
_cell_angle_gamma 149.748386
_cell_volume 482.977747
_symmetry_space_group_name_H-M "P -1"
_symmetry_group_IT_number 2
_symmetry_cell_setting 'triclinic'
loop_
_space_group_symop_operation_xyz
x,y,z
-x,-y,-z
loop_
_atom_site_type_symbol
_atom_site_label
_atom_site_fract_x
_atom_site_fract_y
_atom_site_fract_z
Si Si1 0.545053 0.020806 0.234833
Si Si2 0.469411 0.794614 0.713044
Si Si3 0.194069 0.327813 0.296667
Si Si4 0.018023 0.746486 0.297870
Si Si5 0.753736 0.198060 0.587405
Si Si6 0.470744 0.524236 0.159654
O O1 0.688738 0.139371 0.185827
O O2 0.492449 0.224167 0.560461
O O3 0.266039 0.873260 0.220178
O O4 0.676926 0.862023 0.004465
O O5 0.325875 0.540787 0.523446
O O6 0.757015 0.785356 0.491013
O O7 0.500000 0.000000 0.000000
O O8 0.236762 0.404397 0.248566
O O9 0.921021 0.238643 0.426111
O O10 0.090182 0.825344 0.451962
O O11 0.000000 0.500000 0.000000
O O12 0.500000 0.000000 0.500000
O O13 0.678362 0.412615 0.920506
O O14 0.500000 0.500000 0.000000
#
# Coordination Sequence:
#
# PCOD9062115 Si02
#       6
#     2   2   2   2   2   2
#     4  11  23  47  73 112 152 195 256 321 390 457
#     4  11  25  41  74 116 148 200 254 317 388 463
#     4  11  26  50  76 112 158 200 261 323 392 464
#     4  12  23  45  77 109 156 202 257 322 387 457
#     4  12  28  51  77 110 158 211 258 323 393 460
#     4  11  26  50  74 108 148 205 262 313 386 464
#
# _framework density 24.845866000000001
#
# number of rings (size 3 to 8) (size 9 to 14) (size 15 to 20)
#    0.000    0.667    3.333    3.500    4.667    2.667 
#    6.000    0.000    0.000    0.000    0.000    0.000 
#    0.000    0.000    0.000    0.000    0.000    0.000 
#
# Total GULP energy -66896.558246 kJ/mol
# GULP energy per Si atom -5574.713187 kJ/mol
# Density = 2.478932 g / cm^3
# Si number density = 24.845866 Si / 1000 Ang^3
#
#
#
# Elastic Constant Matrix: (Units=GPa)
#
#
# Indices 1 2 3 4 5 6 
#
# 1 80.4089 49.9455 40.5796 23.4603 0.1783 -4.3862
# 2 49.9455 155.0771 71.0109 -0.8564 -8.7441 1.6100
# 3 40.5796 71.0109 222.4948 38.9735 6.1087 4.3667
# 4 23.4603 -0.8564 38.9735 42.8176 2.1076 1.8005
# 5 0.1783 -8.7441 6.1087 2.1076 53.6710 -0.4819
# 6 -4.3862 1.6100 4.3667 1.8005 -0.4819 40.4314
#
#
#
# Elastic Compliance Matrix: (Units=1/GPa)
#
#
# Indices 1 2 3 4 5 6 
#
# 1 0.019949 -0.006808 0.000537 -0.011640 -0.000754 0.002887
# 2 -0.006808 0.010291 -0.003275 0.006874 0.001792 -0.001079
# 3 0.000537 -0.003275 0.006576 -0.006284 -0.001039 -0.000254
# 4 -0.011640 0.006874 -0.006284 0.035670 0.000451 -0.002441
# 5 -0.000754 0.001792 -0.001039 0.000451 0.019029 0.000166
# 6 0.002887 -0.001079 -0.000254 -0.002441 0.000166 0.025228
#
#
# Mechanical properties :
#
#
# Convention : Reuss Voigt Hill
#
# Bulk Modulus (GPa) = 56.41720 86.78365 71.60043
# Shear Modulus (GPa) = 35.27570 47.14697 41.21134
#
# Velocity S-wave (km/s) = 3.77209 4.36085 4.07711
# Velocity P-wave (km/s) = 6.45970 7.76921 7.14452
#
# Compressibility (1/GPa) = 0.01772509
#
# Stress axis : x y z
#
# Youngs Moduli (GPa) = 50.12768 97.17446 152.07111
#
# Poissons Ratio (x) = 0.66154 -0.08170
# Poissons Ratio (y) = 0.34126 0.49801
# Poissons Ratio (z) = -0.02693 0.31823
#
# Static dielectric constant tensor:
#      x y z
#    x 2.191600 -0.071130 0.101870 
#    y -0.071130 2.068980 0.061420 
#    z 0.101870 0.061420 2.130160 
# 
# From -- ./inp_files/523503.got.cif
#   From: 2010.05.17/outbox.cif.g08.bks.cpg/sg2_262_cif.got.tgz:523503.got - 2010.06.03 11:33:40.
