data_PCOD9062966
_publ_section_title
;
Structure prediction by ZEFSAII (Michael W. Deem and Ramdas Pophale) SiO2 
 PCOD9062966
Probable space group: P -1
;
_chemical_formula_sum "Si O2"
_cell_formula_units_Z 14
_cell_length_a 15.623469
_cell_length_b 9.234873
_cell_length_c 15.966929
_cell_angle_alpha 54.918615
_cell_angle_beta 154.823371
_cell_angle_gamma 108.116444
_cell_volume 641.051285
_symmetry_space_group_name_H-M "P -1"
_symmetry_group_IT_number 2
_symmetry_cell_setting 'triclinic'
loop_
_space_group_symop_operation_xyz
x,y,z
-x,-y,-z
loop_
_atom_site_type_symbol
_atom_site_label
_atom_site_fract_x
_atom_site_fract_y
_atom_site_fract_z
Si Si1 0.484455 0.405296 0.104119
Si Si2 0.553053 0.451685 0.661559
Si Si3 0.906151 0.168004 0.283594
Si Si4 0.963550 0.988250 0.222068
Si Si5 0.190532 0.329126 0.379348
Si Si6 0.346403 0.127066 0.113032
Si Si7 0.332354 0.258219 0.243711
O O1 0.353663 0.289195 0.003737
O O2 0.745158 0.203984 0.442931
O O3 0.500000 0.500000 0.000000
O O4 0.336315 0.602359 0.973603
O O5 0.500000 0.500000 0.500000
O O6 0.366362 0.395473 0.548321
O O7 0.525838 0.644841 0.626378
O O8 0.842545 0.232868 0.998606
O O9 0.085331 0.231990 0.382620
O O10 0.862876 0.055415 0.206165
O O11 0.000000 0.000000 0.500000
O O12 0.854365 0.901576 0.091374
O O13 0.390041 0.117961 0.568836
O O14 0.958897 0.548147 0.054837
O O15 0.297017 0.245880 0.117539
O O16 0.500000 0.000000 0.500000
#
# Coordination Sequence:
#
# PCOD9062966 Si02
#       7
#     2   2   2   2   2   2   2
#     4  12  23  44  72  99 140 184 236 298 352 420
#     4  11  25  48  75 107 144 193 240 294 362 422
#     4  12  23  48  72 103 144 188 234 292 365 418
#     4  11  24  44  71 101 141 188 237 291 355 422
#     4  11  24  47  69 103 148 183 240 299 353 422
#     4  11  24  43  68 101 138 185 237 288 352 421
#     4  12  25  44  70 106 140 190 239 293 362 421
#
# _framework density 21.839126
#
# number of rings (size 3 to 8) (size 9 to 14) (size 15 to 20)
#    0.000    0.571    5.714    1.714    0.000    8.000 
#    0.000    3.571    0.000    0.000    0.000    0.000 
#    0.000    0.000    0.000    0.000    0.000    0.000 
#
# Total GULP energy -78055.890459 kJ/mol
# GULP energy per Si atom -5575.420747 kJ/mol
# Density = 2.178942 g / cm^3
# Si number density = 21.839126 Si / 1000 Ang^3
#
#
#
# Elastic Constant Matrix: (Units=GPa)
#
#
# Indices 1 2 3 4 5 6 
#
# 1 69.1016 43.0732 20.2799 8.7129 -12.1756 -11.0596
# 2 43.0732 184.8287 38.4999 -4.9482 -4.5699 -10.1899
# 3 20.2799 38.4999 120.8113 -17.0811 -8.8664 -4.8793
# 4 8.7129 -4.9482 -17.0811 39.3369 -2.1127 -0.8520
# 5 -12.1756 -4.5699 -8.8664 -2.1127 38.2242 -6.8967
# 6 -11.0596 -10.1899 -4.8793 -0.8520 -6.8967 43.4315
#
#
#
# Elastic Compliance Matrix: (Units=1/GPa)
#
#
# Indices 1 2 3 4 5 6 
#
# 1 0.020110 -0.003951 -0.002265 -0.005511 0.005965 0.004779
# 2 -0.003951 0.006640 -0.001332 0.001104 -0.000655 0.000320
# 3 -0.002265 -0.001332 0.009908 0.004746 0.001788 0.000601
# 4 -0.005511 0.001104 0.004746 0.028903 0.001098 0.000130
# 5 0.005965 -0.000655 0.001788 0.001098 0.029593 0.006287
# 6 0.004779 0.000320 0.000601 0.000130 0.006287 0.025385
#
#
# Mechanical properties :
#
#
# Convention : Reuss Voigt Hill
#
# Bulk Modulus (GPa) = 46.37752 64.27195 55.32474
# Shear Modulus (GPa) = 35.00840 42.39110 38.69975
#
# Velocity S-wave (km/s) = 4.00811 4.41053 4.21412
# Velocity P-wave (km/s) = 6.53468 7.44517 7.00473
#
# Compressibility (1/GPa) = 0.02156217
#
# Stress axis : x y z
#
# Youngs Moduli (GPa) = 49.72681 150.61115 100.92386
#
# Poissons Ratio (x) = 0.59511 0.22858
# Poissons Ratio (y) = 0.19649 0.13440
# Poissons Ratio (z) = 0.11263 0.20057
#
# Static dielectric constant tensor:
#      x y z
#    x 1.876420 0.038340 0.020460 
#    y 0.038340 1.806630 0.009170 
#    z 0.020460 0.009170 1.836260 
# 
# From -- ./inp_files/528322.got.cif
#   From: 2010.05.17/outbox.cif.g08.bks.cpg/sg2_265_cif.got.tgz:528322.got - 2010.06.03 11:33:40.
