data_PCOD9062922
_publ_section_title
;
Structure prediction by ZEFSAII (Michael W. Deem and Ramdas Pophale) SiO2 
 PCOD9062922
Probable space group: P -1
;
_chemical_formula_sum "Si O2"
_cell_formula_units_Z 16
_cell_length_a 24.831895
_cell_length_b 24.890393
_cell_length_c 5.414508
_cell_angle_alpha 82.695454
_cell_angle_beta 97.845936
_cell_angle_gamma 168.590800
_cell_volume 655.424877
_symmetry_space_group_name_H-M "P -1"
_symmetry_group_IT_number 2
_symmetry_cell_setting 'triclinic'
loop_
_space_group_symop_operation_xyz
x,y,z
-x,-y,-z
loop_
_atom_site_type_symbol
_atom_site_label
_atom_site_fract_x
_atom_site_fract_y
_atom_site_fract_z
Si Si1 0.246140 0.732123 0.335432
Si Si2 0.695584 0.419009 0.451136
Si Si3 0.210394 0.949152 0.723284
Si Si4 0.725551 0.766348 0.465576
Si Si5 0.671961 0.784021 0.921953
Si Si6 0.058353 0.474911 0.978493
Si Si7 0.880602 0.692367 0.044063
Si Si8 0.419320 0.066842 0.158660
O O1 0.173559 0.704669 0.091811
O O2 0.000000 0.500000 0.500000
O O3 0.500000 0.000000 0.500000
O O4 0.193124 0.621810 0.242901
O O5 0.816729 0.574917 0.220776
O O6 0.524162 0.199009 0.391601
O O7 0.974150 0.679454 0.620787
O O8 0.447771 0.207883 0.556700
O O9 0.018679 0.807150 0.809847
O O10 0.393985 0.092580 0.939053
O O11 0.500000 0.500000 0.500000
O O12 0.732288 0.806062 0.188325
O O13 0.674739 0.753382 0.685617
O O14 0.000000 0.000000 0.500000
O O15 0.393757 0.541668 0.971798
O O16 0.892168 0.045992 0.861634
O O17 0.342464 0.743666 0.855368
O O18 0.875320 0.247642 0.882432
#
# Coordination Sequence:
#
# PCOD9062922 Si02
#       8
#     2   2   2   2   2   2   2   2
#     4  11  24  43  66  98 128 179 224 298 364 419
#     4  12  26  45  71  99 146 189 237 305 364 432
#     4  12  26  45  71  99 146 189 237 305 364 432
#     4  12  26  50  74 112 154 196 252 316 380 451
#     4  12  27  45  80 110 148 204 251 311 386 453
#     4  11  25  42  67  94 141 168 237 297 348 451
#     4  12  27  47  69 110 145 185 254 300 361 447
#     4  12  25  45  64 104 132 188 234 285 371 435
#
# _framework density 24.411645
#
# number of rings (size 3 to 8) (size 9 to 14) (size 15 to 20)
#    0.000    0.250    0.000    9.750    5.250    8.000 
#    0.000    0.000    0.000    0.000    0.000    0.000 
#    0.000    0.000    0.000    0.000    0.000    0.000 
#
# Total GULP energy -89229.985736 kJ/mol
# GULP energy per Si atom -5576.874108 kJ/mol
# Density = 2.435608 g / cm^3
# Si number density = 24.411645 Si / 1000 Ang^3
#
#
#
# Elastic Constant Matrix: (Units=GPa)
#
#
# Indices 1 2 3 4 5 6 
#
# 1 76.4845 39.7571 27.0046 19.6934 -10.2636 -4.9213
# 2 39.7571 234.1300 47.4768 14.1869 -17.9042 -6.9402
# 3 27.0046 47.4768 104.1226 11.9062 -23.2495 1.8322
# 4 19.6934 14.1869 11.9062 52.3501 7.9007 -11.3324
# 5 -10.2636 -17.9042 -23.2495 7.9007 43.2660 13.1232
# 6 -4.9213 -6.9402 1.8322 -11.3324 13.1232 62.9614
#
#
#
# Elastic Compliance Matrix: (Units=1/GPa)
#
#
# Indices 1 2 3 4 5 6 
#
# 1 0.016693 -0.001817 -0.002054 -0.005963 0.003380 -0.000613
# 2 -0.001817 0.004991 -0.001591 -0.000377 0.000780 0.000224
# 3 -0.002054 -0.001591 0.012940 -0.003460 0.007306 -0.002858
# 4 -0.005963 -0.000377 -0.003460 0.025059 -0.009875 0.006162
# 5 0.003380 0.000780 0.007306 -0.009875 0.032520 -0.008418
# 6 -0.000613 0.000224 -0.002858 0.006162 -0.008418 0.018806
#
#
# Mechanical properties :
#
#
# Convention : Reuss Voigt Hill
#
# Bulk Modulus (GPa) = 42.19254 71.46824 56.83039
# Shear Modulus (GPa) = 38.51064 51.74874 45.12969
#
# Velocity S-wave (km/s) = 3.97615 4.60917 4.30431
# Velocity P-wave (km/s) = 6.19685 7.59379 6.93061
#
# Compressibility (1/GPa) = 0.02370087
#
# Stress axis : x y z
#
# Youngs Moduli (GPa) = 59.90359 200.34266 77.28050
#
# Poissons Ratio (x) = 0.36394 0.15873
# Poissons Ratio (y) = 0.10882 0.12299
# Poissons Ratio (z) = 0.12304 0.31884
#
# Static dielectric constant tensor:
#      x y z
#    x 1.939770 -0.041480 -0.064670 
#    y -0.041480 1.837890 0.001080 
#    z -0.064670 0.001080 1.971500 
# 
# From -- ./inp_files/127768.got.cif
#   From: 2010.05.17/outbox.cif.g08.bks.cpg/sg2_64_cif.got.tgz:127768.got - 2010.06.03 11:33:40.
