data_PCOD9062008
_publ_section_title
;
Structure prediction by ZEFSAII (Michael W. Deem and Ramdas Pophale) SiO2 
 PCOD9062008
Probable space group: P -1
;
_chemical_formula_sum "Si O2"
_cell_formula_units_Z 12
_cell_length_a 9.311584
_cell_length_b 10.889458
_cell_length_c 10.900014
_cell_angle_alpha 152.368342
_cell_angle_beta 66.260156
_cell_angle_gamma 119.874662
_cell_volume 442.415818
_symmetry_space_group_name_H-M "P -1"
_symmetry_group_IT_number 2
_symmetry_cell_setting 'triclinic'
loop_
_space_group_symop_operation_xyz
x,y,z
-x,-y,-z
loop_
_atom_site_type_symbol
_atom_site_label
_atom_site_fract_x
_atom_site_fract_y
_atom_site_fract_z
Si Si1 0.888194 0.519723 0.707643
Si Si2 0.333273 0.220657 0.106487
Si Si3 0.447507 0.990163 0.652200
Si Si4 0.737015 0.796396 0.482096
Si Si5 0.956980 0.727533 0.134418
Si Si6 0.270832 0.602335 0.665037
O O1 0.841222 0.762592 0.869244
O O2 0.740112 0.232411 0.473143
O O3 0.073381 0.513175 0.622031
O O4 0.877166 0.584394 0.911511
O O5 0.358923 0.439428 0.402420
O O6 0.439316 0.253828 0.971521
O O7 0.334419 0.932473 0.910839
O O8 0.578969 0.883258 0.584741
O O9 0.500000 0.000000 0.500000
O O10 0.831164 0.825454 0.345684
O O11 0.710051 0.499339 0.293977
O O12 0.872952 0.015959 0.717121
O O13 0.000000 0.500000 0.000000
#
# Coordination Sequence:
#
# PCOD9062008 Si02
#       6
#     2   2   2   2   2   2
#     4  12  26  49  84 114 155 204 266 327 384 461
#     4  12  28  51  81 113 160 208 264 321 392 466
#     4  12  29  51  77 118 160 204 257 330 397 461
#     4  11  27  47  76 115 159 204 261 322 391 468
#     4  11  23  46  78 112 150 206 264 318 381 459
#     4  12  27  50  82 114 155 211 268 315 386 476
#
# _framework density 27.123802000000001
#
# number of rings (size 3 to 8) (size 9 to 14) (size 15 to 20)
#    0.000    0.333    3.333    4.000    7.000    5.333 
#    0.000    0.000    0.000    0.000    0.000    0.000 
#    0.000    0.000    0.000    0.000    0.000    0.000 
#
# Total GULP energy -67292.533677 kJ/mol
# GULP energy per Si atom -5607.711140 kJ/mol
# Density = 2.706207 g / cm^3
# Si number density = 27.123802 Si / 1000 Ang^3
#
#
#
# Elastic Constant Matrix: (Units=GPa)
#
#
# Indices 1 2 3 4 5 6 
#
# 1 176.5869 39.7861 45.9393 -10.9520 -10.5564 0.1566
# 2 39.7861 113.6786 37.7198 -12.4495 -14.0212 -5.2685
# 3 45.9393 37.7198 137.3999 -22.5685 -21.2648 -2.4180
# 4 -10.9520 -12.4495 -22.5685 53.7889 -0.6504 -5.6980
# 5 -10.5564 -14.0212 -21.2648 -0.6504 47.8248 -6.8412
# 6 0.1566 -5.2685 -2.4180 -5.6980 -6.8412 62.3334
#
#
#
# Elastic Compliance Matrix: (Units=1/GPa)
#
#
# Indices 1 2 3 4 5 6 
#
# 1 0.006497 -0.001689 -0.001647 0.000224 0.000184 -0.000182
# 2 -0.001689 0.010435 -0.001703 0.001508 0.002120 0.001191
# 3 -0.001647 -0.001703 0.009404 0.003356 0.003495 0.000915
# 4 0.000224 0.001508 0.003356 0.020683 0.002613 0.002435
# 5 0.000184 0.002120 0.003495 0.002613 0.023611 0.003145
# 6 -0.000182 0.001191 0.000915 0.002435 0.003145 0.016747
#
#
# Mechanical properties :
#
#
# Convention : Reuss Voigt Hill
#
# Bulk Modulus (GPa) = 61.50413 74.95063 68.22738
# Shear Modulus (GPa) = 48.60306 53.07077 50.83691
#
# Velocity S-wave (km/s) = 4.23767 4.42816 4.33396
# Velocity P-wave (km/s) = 6.83143 7.33741 7.08893
#
# Compressibility (1/GPa) = 0.01625907
#
# Stress axis : x y z
#
# Youngs Moduli (GPa) = 153.92172 95.83360 106.33376
#
# Poissons Ratio (x) = 0.16183 0.17509
# Poissons Ratio (y) = 0.25993 0.18110
# Poissons Ratio (z) = 0.25344 0.16322
#
# Static dielectric constant tensor:
#      x y z
#    x 2.045630 0.043780 0.051260 
#    y 0.043780 2.154650 0.024450 
#    z 0.051260 0.024450 2.163630 
# 
# From -- ./inp_files/391761.got.cif
#   From: 2010.05.17/outbox.cif.g08.bks.cpg/sg2_196_cif.got.tgz:391761.got - 2010.06.03 11:33:40.
