data_PCOD9062113
_publ_section_title
;
Structure prediction by ZEFSAII (Michael W. Deem and Ramdas Pophale) SiO2 
 PCOD9062113
Probable space group: P -1
;
_chemical_formula_sum "Si O2"
_cell_formula_units_Z 16
_cell_length_a 12.442026
_cell_length_b 9.108631
_cell_length_c 8.246487
_cell_angle_alpha 48.863612
_cell_angle_beta 80.310103
_cell_angle_gamma 92.567903
_cell_volume 678.431169
_symmetry_space_group_name_H-M "P -1"
_symmetry_group_IT_number 2
_symmetry_cell_setting 'triclinic'
loop_
_space_group_symop_operation_xyz
x,y,z
-x,-y,-z
loop_
_atom_site_type_symbol
_atom_site_label
_atom_site_fract_x
_atom_site_fract_y
_atom_site_fract_z
Si Si1 0.036385 0.806620 0.711120
Si Si2 0.521600 0.638013 0.549345
Si Si3 0.393061 0.387799 0.011227
Si Si4 0.570477 0.035126 0.793364
Si Si5 0.144679 0.845997 0.009989
Si Si6 0.779242 0.696609 0.397472
Si Si7 0.174347 0.441920 0.189207
Si Si8 0.180910 0.704832 0.451711
O O1 0.065633 0.837714 0.873950
O O2 0.131552 0.760872 0.595128
O O3 0.932579 0.621702 0.848670
O O4 0.000000 0.000000 0.500000
O O5 0.500000 0.500000 0.500000
O O6 0.411901 0.531136 0.750770
O O7 0.505996 0.861337 0.376786
O O8 0.652179 0.641212 0.541397
O O9 0.500000 0.500000 0.000000
O O10 0.275502 0.376318 0.125656
O O11 0.411066 0.171743 0.125030
O O12 0.691520 0.174778 0.687229
O O13 0.500000 0.000000 0.000000
O O14 0.201457 0.079815 0.838759
O O15 0.209502 0.674927 0.058889
O O16 0.116222 0.768996 0.260113
O O17 0.852582 0.680837 0.548817
O O18 0.811144 0.527894 0.395957
#
# Coordination Sequence:
#
# PCOD9062113 Si02
#       8
#     2   2   2   2   2   2   2   2
#     4  12  26  54  76 105 152 191 252 309 365 447
#     4  12  24  42  72 107 145 194 234 293 367 439
#     4  12  27  45  73 109 147 190 244 302 364 437
#     4  12  25  45  73 108 152 193 240 302 368 442
#     4  11  27  48  79 106 146 197 242 310 373 430
#     4  11  23  47  73 110 150 184 250 307 363 446
#     4  11  26  49  71 108 149 188 247 309 362 441
#     4  11  27  48  76 112 147 196 248 304 372 439
#
# _framework density 23.583821
#
# number of rings (size 3 to 8) (size 9 to 14) (size 15 to 20)
#    0.000    0.500    5.000    1.875    5.250    3.000 
#    4.500    0.000    0.000    0.000    0.000    0.000 
#    0.000    0.000    0.000    0.000    0.000    0.000 
#
# Total GULP energy -89262.028854 kJ/mol
# GULP energy per Si atom -5578.876803 kJ/mol
# Density = 2.353014 g / cm^3
# Si number density = 23.583821 Si / 1000 Ang^3
#
#
#
# Elastic Constant Matrix: (Units=GPa)
#
#
# Indices 1 2 3 4 5 6 
#
# 1 96.3694 41.8632 21.9122 5.5061 -5.9874 -4.7168
# 2 41.8632 108.1525 44.1043 -32.5885 -13.4912 -14.6127
# 3 21.9122 44.1043 78.1813 -18.7883 8.8712 -11.6938
# 4 5.5061 -32.5885 -18.7883 51.6050 -5.3415 12.3700
# 5 -5.9874 -13.4912 8.8712 -5.3415 40.8443 0.4982
# 6 -4.7168 -14.6127 -11.6938 12.3700 0.4982 44.7048
#
#
#
# Elastic Compliance Matrix: (Units=1/GPa)
#
#
# Indices 1 2 3 4 5 6 
#
# 1 0.014036 -0.006808 -0.001488 -0.006581 -0.000737 0.000696
# 2 -0.006808 0.019229 -0.007161 0.010992 0.008340 0.000560
# 3 -0.001488 -0.007161 0.018593 0.001232 -0.006486 0.002097
# 4 -0.006581 0.010992 0.001232 0.029310 0.006292 -0.004960
# 5 -0.000737 0.008340 -0.006486 0.006292 0.029375 -0.001117
# 6 0.000696 0.000560 0.002097 -0.004960 -0.001117 0.024559
#
#
# Mechanical properties :
#
#
# Convention : Reuss Voigt Hill
#
# Bulk Modulus (GPa) = 47.74006 55.38473 51.56239
# Shear Modulus (GPa) = 28.90223 39.08574 33.99398
#
# Velocity S-wave (km/s) = 3.50453 4.07543 3.80071
# Velocity P-wave (km/s) = 6.05494 6.75875 6.41650
#
# Compressibility (1/GPa) = 0.02094677
#
# Stress axis : x y z
#
# Youngs Moduli (GPa) = 71.24286 52.00390 53.78328
#
# Poissons Ratio (x) = 0.35402 0.08001
# Poissons Ratio (y) = 0.48499 0.38514
# Poissons Ratio (z) = 0.10598 0.37240
#
# Static dielectric constant tensor:
#      x y z
#    x 1.901990 0.049000 0.073550 
#    y 0.049000 1.860760 0.021200 
#    z 0.073550 0.021200 1.953120 
# 
# From -- ./inp_files/242034.got.cif
#   From: 2010.05.17/outbox.cif.g08.bks.cpg/sg2_122_cif.got.tgz:242034.got - 2010.06.03 11:33:40.
