data_PCOD9062078
_publ_section_title
;
Structure prediction by ZEFSAII (Michael W. Deem and Ramdas Pophale) SiO2 
 PCOD9062078
Probable space group: P -1
;
_chemical_formula_sum "Si O2"
_cell_formula_units_Z 12
_cell_length_a 12.651003
_cell_length_b 7.732973
_cell_length_c 11.623363
_cell_angle_alpha 41.128161
_cell_angle_beta 36.354020
_cell_angle_gamma 54.874283
_cell_volume 441.925082
_symmetry_space_group_name_H-M "P -1"
_symmetry_group_IT_number 2
_symmetry_cell_setting 'triclinic'
loop_
_space_group_symop_operation_xyz
x,y,z
-x,-y,-z
loop_
_atom_site_type_symbol
_atom_site_label
_atom_site_fract_x
_atom_site_fract_y
_atom_site_fract_z
Si Si1 0.734282 0.358927 0.388214
Si Si2 0.790883 0.609209 0.621735
Si Si3 0.586557 0.657712 0.166773
Si Si4 0.954620 0.989643 0.679454
Si Si5 0.183931 0.174372 0.755647
Si Si6 0.581675 0.267541 0.154638
O O1 0.633411 0.420292 0.329560
O O2 0.594065 0.247544 0.665772
O O3 0.910088 0.211669 0.288629
O O4 0.800925 0.643855 0.238181
O O5 0.810278 0.632926 0.455729
O O6 0.617045 0.788151 0.694380
O O7 0.968277 0.742394 0.460598
O O8 0.713914 0.359060 0.888480
O O9 0.575777 0.518578 0.121179
O O10 0.749254 0.881113 0.921179
O O11 0.000000 0.000000 0.500000
O O12 0.337484 0.973413 0.731084
O O13 0.000000 0.000000 0.000000
#
# Coordination Sequence:
#
# PCOD9062078 Si02
#       6
#     2   2   2   2   2   2
#     4  11  26  43  72 107 132 182 240 287 349 419
#     4  11  25  46  71 102 138 188 231 285 354 419
#     4  11  23  47  72 100 137 183 234 287 347 420
#     4  12  25  46  70  98 143 183 230 291 348 415
#     4  12  25  44  73 105 143 181 231 294 348 420
#     4  11  24  47  72  99 142 188 227 286 358 410
#
# _framework density 27.153924
#
# number of rings (size 3 to 8) (size 9 to 14) (size 15 to 20)
#    0.000    0.667    3.333    4.000    4.667    1.333 
#    3.000    0.000    0.000    0.000    0.000    0.000 
#    0.000    0.000    0.000    0.000    0.000    0.000 
#
# Total GULP energy -67308.503810 kJ/mol
# GULP energy per Si atom -5609.041984 kJ/mol
# Density = 2.709212 g / cm^3
# Si number density = 27.153924 Si / 1000 Ang^3
#
#
#
# Elastic Constant Matrix: (Units=GPa)
#
#
# Indices 1 2 3 4 5 6 
#
# 1 133.9290 22.7914 58.5544 -1.9208 9.9041 3.8805
# 2 22.7914 75.0485 18.4545 -3.1993 3.6318 1.5488
# 3 58.5544 18.4545 165.9036 26.5420 -24.8988 7.5225
# 4 -1.9208 -3.1993 26.5420 33.7253 0.7843 -1.0788
# 5 9.9041 3.6318 -24.8988 0.7843 73.0457 -0.7667
# 6 3.8805 1.5488 7.5225 -1.0788 -0.7667 57.8859
#
#
#
# Elastic Compliance Matrix: (Units=1/GPa)
#
#
# Indices 1 2 3 4 5 6 
#
# 1 0.009914 -0.001637 -0.004360 0.003905 -0.002791 -0.000018
# 2 -0.001637 0.014372 -0.001585 0.002541 -0.001061 -0.000036
# 3 -0.004360 -0.001585 0.009704 -0.008162 0.004054 -0.001025
# 4 0.003905 0.002541 -0.008162 0.036671 -0.003818 0.001364
# 5 -0.002791 -0.001061 0.004054 -0.003818 0.015542 -0.000177
# 6 -0.000018 -0.000036 -0.001025 0.001364 -0.000177 0.017434
#
#
# Mechanical properties :
#
#
# Convention : Reuss Voigt Hill
#
# Bulk Modulus (GPa) = 53.11752 63.83129 58.47441
# Shear Modulus (GPa) = 39.97567 51.27010 45.62288
#
# Velocity S-wave (km/s) = 3.84107 4.34997 4.10342
# Velocity P-wave (km/s) = 6.26705 6.98484 6.63565
#
# Compressibility (1/GPa) = 0.01882618
#
# Stress axis : x y z
#
# Youngs Moduli (GPa) = 100.86439 69.57990 103.05529
#
# Poissons Ratio (x) = 0.11389 0.44931
# Poissons Ratio (y) = 0.16510 0.16335
# Poissons Ratio (z) = 0.43976 0.11029
#
# Static dielectric constant tensor:
#      x y z
#    x 2.034550 -0.056130 -0.008610 
#    y -0.056130 2.184750 0.010170 
#    z -0.008610 0.010170 2.091330 
# 
# From -- ./inp_files/180517.got.cif
#   From: 2010.05.17/outbox.cif.g08.bks.cpg/sg2_91_cif.got.tgz:180517.got - 2010.06.03 11:33:40.
