data_PCOD9062437
_publ_section_title
;
Structure prediction by ZEFSAII (Michael W. Deem and Ramdas Pophale) SiO2 
 PCOD9062437
Probable space group: P -1
;
_chemical_formula_sum "Si O2"
_cell_formula_units_Z 16
_cell_length_a 11.519074
_cell_length_b 8.408451
_cell_length_c 14.584573
_cell_angle_alpha 51.903991
_cell_angle_beta 135.642662
_cell_angle_gamma 137.769165
_cell_volume 652.164039
_symmetry_space_group_name_H-M "P -1"
_symmetry_group_IT_number 2
_symmetry_cell_setting 'triclinic'
loop_
_space_group_symop_operation_xyz
x,y,z
-x,-y,-z
loop_
_atom_site_type_symbol
_atom_site_label
_atom_site_fract_x
_atom_site_fract_y
_atom_site_fract_z
Si Si1 0.071156 0.269745 0.922933
Si Si2 0.337518 0.440526 0.849755
Si Si3 0.819586 0.658625 0.533851
Si Si4 0.993281 0.643554 0.806709
Si Si5 0.425213 0.151245 0.453888
Si Si6 0.726383 0.567309 0.838654
Si Si7 0.327422 0.139696 0.774182
Si Si8 0.158359 0.708593 0.583999
O O1 0.134455 0.306518 0.840854
O O2 0.947355 0.387482 0.836383
O O3 0.246986 0.412081 0.045335
O O4 0.000000 0.000000 0.000000
O O5 0.321513 0.277999 0.812634
O O6 0.329398 0.662259 0.725920
O O7 0.500000 0.500000 0.000000
O O8 0.621496 0.393480 0.513921
O O9 0.779433 0.817021 0.386089
O O10 0.865510 0.711175 0.647904
O O11 0.015841 0.681878 0.595487
O O12 0.924685 0.638209 0.872611
O O13 0.218447 0.860741 0.837393
O O14 0.334739 0.253163 0.295596
O O15 0.500000 0.000000 0.500000
O O16 0.269628 0.966472 0.506059
O O17 0.555697 0.291591 0.819020
O O18 0.000000 0.500000 0.500000
#
# Coordination Sequence:
#
# PCOD9062437 Si02
#       8
#     2   2   2   2   2   2   2   2
#     4  12  28  47  74 104 145 194 254 303 372 455
#     4  12  25  47  73 111 145 195 251 311 377 444
#     4  11  24  42  70 109 143 193 247 299 375 448
#     4  12  27  47  73 107 147 201 249 300 383 447
#     4  11  24  40  73 107 146 188 246 311 374 426
#     4  11  26  48  72 105 151 194 240 314 371 438
#     4  11  24  47  74 106 151 188 246 311 371 449
#     4  12  22  41  74 106 145 191 249 312 370 430
#
# _framework density 24.533705000000001
#
# number of rings (size 3 to 8) (size 9 to 14) (size 15 to 20)
#    0.000    0.500    5.000    3.000    3.500    3.500 
#    2.250    0.000    0.000    0.000    0.000    0.000 
#    0.000    0.000    0.000    0.000    0.000    0.000 
#
# Total GULP energy -89477.191254 kJ/mol
# GULP energy per Si atom -5592.324453 kJ/mol
# Density = 2.447786 g / cm^3
# Si number density = 24.533705 Si / 1000 Ang^3
#
#
#
# Elastic Constant Matrix: (Units=GPa)
#
#
# Indices 1 2 3 4 5 6 
#
# 1 61.1853 23.5217 29.7781 -23.9182 -17.9500 3.9250
# 2 23.5217 113.4073 28.7112 -32.5957 10.7946 7.5556
# 3 29.7781 28.7112 142.2516 -3.0760 6.8163 -8.0023
# 4 -23.9182 -32.5957 -3.0760 38.5518 -3.2889 -6.3787
# 5 -17.9500 10.7946 6.8163 -3.2889 39.1486 -2.2087
# 6 3.9250 7.5556 -8.0023 -6.3787 -2.2087 31.6650
#
#
#
# Elastic Compliance Matrix: (Units=1/GPa)
#
#
# Indices 1 2 3 4 5 6 
#
# 1 0.034377 -0.000817 -0.007494 0.021623 0.019093 -0.000272
# 2 -0.000817 0.012634 -0.002138 0.009479 -0.002788 -0.001739
# 3 -0.007494 -0.002138 0.009265 -0.005750 -0.004814 0.002286
# 4 0.021623 0.009479 -0.005750 0.048699 0.012635 0.004296
# 5 0.019093 -0.002788 -0.004814 0.012635 0.037091 0.002214
# 6 -0.000272 -0.001739 0.002286 0.004296 0.002214 0.033627
#
#
# Mechanical properties :
#
#
# Convention : Reuss Voigt Hill
#
# Bulk Modulus (GPa) = 28.26659 53.42956 40.84808
# Shear Modulus (GPa) = 23.99407 37.52863 30.76135
#
# Velocity S-wave (km/s) = 3.13070 3.91535 3.54480
# Velocity P-wave (km/s) = 4.96134 6.50117 5.78274
#
# Compressibility (1/GPa) = 0.03537745
#
# Stress axis : x y z
#
# Youngs Moduli (GPa) = 29.08938 79.14934 107.93262
#
# Poissons Ratio (x) = 0.06468 0.80884
# Poissons Ratio (y) = 0.02377 0.23078
# Poissons Ratio (z) = 0.21799 0.16924
#
# Static dielectric constant tensor:
#      x y z
#    x 1.840730 0.041690 -0.050580 
#    y 0.041690 1.943340 0.009670 
#    z -0.050580 0.009670 1.994780 
# 
# From -- ./inp_files/515103.got.cif
#   From: 2010.05.17/outbox.cif.g08.bks.cpg/sg2_258_cif.got.tgz:515103.got - 2010.06.03 11:33:40.
