data_PCOD9062843
_publ_section_title
;
Structure prediction by ZEFSAII (Michael W. Deem and Ramdas Pophale) SiO2 
 PCOD9062843
Probable space group: P -1
;
_chemical_formula_sum "Si O2"
_cell_formula_units_Z 16
_cell_length_a 8.949090
_cell_length_b 8.254662
_cell_length_c 13.337044
_cell_angle_alpha 97.098575
_cell_angle_beta 78.740616
_cell_angle_gamma 132.017485
_cell_volume 717.845390
_symmetry_space_group_name_H-M "P -1"
_symmetry_group_IT_number 2
_symmetry_cell_setting 'triclinic'
loop_
_space_group_symop_operation_xyz
x,y,z
-x,-y,-z
loop_
_atom_site_type_symbol
_atom_site_label
_atom_site_fract_x
_atom_site_fract_y
_atom_site_fract_z
Si Si1 0.159618 0.715403 0.282812
Si Si2 0.962245 0.780046 0.483661
Si Si3 0.007752 0.600395 0.903479
Si Si4 0.606245 0.161889 0.219558
Si Si5 0.370468 0.573375 0.362322
Si Si6 0.214206 0.234183 0.011899
Si Si7 0.326138 0.948741 0.590140
Si Si8 0.500633 0.423699 0.163566
O O1 0.027948 0.749611 0.366876
O O2 0.232992 0.621418 0.338858
O O3 0.044540 0.557054 0.192333
O O4 0.370960 0.943306 0.233867
O O5 0.738290 0.572404 0.535313
O O6 0.118712 0.815933 0.547329
O O7 0.000000 0.000000 0.500000
O O8 0.238000 0.825677 0.871003
O O9 0.843986 0.627094 0.929776
O O10 0.000000 0.500000 0.000000
O O11 0.611239 0.351089 0.196115
O O12 0.682424 0.174119 0.322247
O O13 0.588724 0.812753 0.371446
O O14 0.391334 0.449272 0.266374
O O15 0.344506 0.248013 0.085417
O O16 0.346646 0.353924 0.903564
O O17 0.000000 0.000000 0.000000
O O18 0.500000 0.000000 0.500000
#
# Coordination Sequence:
#
# PCOD9062843 Si02
#       8
#     2   2   2   2   2   2   2   2
#     4  11  25  45  71 102 141 187 229 290 355 413
#     4  12  26  46  71 106 140 185 235 290 351 420
#     4  12  26  46  70 106 136 188 236 287 353 427
#     4  11  25  43  73  99 142 181 236 286 353 415
#     4  11  24  42  73  97 142 181 232 289 349 413
#     4  11  27  46  70  99 143 184 241 298 355 413
#     4  11  25  45  69 101 139 185 233 283 354 417
#     4  11  25  47  67 105 139 186 238 294 354 419
#
# _framework density 22.288920999999998
#
# number of rings (size 3 to 8) (size 9 to 14) (size 15 to 20)
#    0.000    0.750    5.000    1.875    7.000    2.000 
#    0.000    0.000    0.000    0.000    0.000    0.000 
#    0.000    0.000    0.000    0.000    0.000    0.000 
#
# Total GULP energy -89543.861673 kJ/mol
# GULP energy per Si atom -5596.491355 kJ/mol
# Density = 2.223819 g / cm^3
# Si number density = 22.288921 Si / 1000 Ang^3
#
#
#
# Elastic Constant Matrix: (Units=GPa)
#
#
# Indices 1 2 3 4 5 6 
#
# 1 66.1716 -0.0465 21.8805 -3.2560 -1.1054 -2.9187
# 2 -0.0465 60.2081 39.9707 6.4183 6.3495 16.6700
# 3 21.8805 39.9707 110.1167 -16.1720 -9.1661 12.7475
# 4 -3.2560 6.4183 -16.1720 35.6717 5.6155 -1.1399
# 5 -1.1054 6.3495 -9.1661 5.6155 43.5267 -1.7699
# 6 -2.9187 16.6700 12.7475 -1.1399 -1.7699 31.9154
#
#
#
# Elastic Compliance Matrix: (Units=1/GPa)
#
#
# Indices 1 2 3 4 5 6 
#
# 1 0.016718 0.002861 -0.004786 -0.000973 -0.000799 0.001867
# 2 0.002861 0.029117 -0.011794 -0.009753 -0.005844 -0.010909
# 3 -0.004786 -0.011794 0.015861 0.008263 0.003869 -0.000103
# 4 -0.000973 -0.009753 0.008263 0.033709 -0.001095 0.002848
# 5 -0.000799 -0.005844 0.003869 -0.001095 0.024875 0.002774
# 6 0.001867 -0.010909 -0.000103 0.002848 0.002774 0.037498
#
#
# Mechanical properties :
#
#
# Convention : Reuss Voigt Hill
#
# Bulk Modulus (GPa) = 29.18934 40.01178 34.60056
# Shear Modulus (GPa) = 25.42792 33.86888 29.64840
#
# Velocity S-wave (km/s) = 3.38129 3.90236 3.65113
# Velocity P-wave (km/s) = 5.32620 6.18829 5.77336
#
# Compressibility (1/GPa) = 0.03425908
#
# Stress axis : x y z
#
# Youngs Moduli (GPa) = 59.81603 34.34420 63.04882
#
# Poissons Ratio (x) = -0.09828 0.30176
# Poissons Ratio (y) = -0.17116 0.74357
# Poissons Ratio (z) = 0.28629 0.40504
#
# Static dielectric constant tensor:
#      x y z
#    x 1.817140 0.028720 -0.009000 
#    y 0.028720 1.884750 0.000750 
#    z -0.009000 0.000750 1.792380 
# 
# From -- ./inp_files/382285.got.cif
#   From: 2010.05.17/outbox.cif.g08.bks.cpg/sg2_192_cif.got.tgz:382285.got - 2010.06.03 11:33:40.
