data_PCOD9062569
_publ_section_title
;
Structure prediction by ZEFSAII (Michael W. Deem and Ramdas Pophale) SiO2 
 PCOD9062569
Probable space group: P -1
;
_chemical_formula_sum "Si O2"
_cell_formula_units_Z 16
_cell_length_a 13.672702
_cell_length_b 15.100927
_cell_length_c 5.583054
_cell_angle_alpha 106.892841
_cell_angle_beta 60.186651
_cell_angle_gamma 135.886688
_cell_volume 691.981694
_symmetry_space_group_name_H-M "P -1"
_symmetry_group_IT_number 2
_symmetry_cell_setting 'triclinic'
loop_
_space_group_symop_operation_xyz
x,y,z
-x,-y,-z
loop_
_atom_site_type_symbol
_atom_site_label
_atom_site_fract_x
_atom_site_fract_y
_atom_site_fract_z
Si Si1 0.246185 0.001118 0.158431
Si Si2 0.387343 0.893788 0.753837
Si Si3 0.472594 0.758856 0.796265
Si Si4 0.799274 0.470909 0.782629
Si Si5 0.539883 0.444227 0.597408
Si Si6 0.943493 0.073603 0.169183
Si Si7 0.741877 0.635924 0.874370
Si Si8 0.891365 0.394108 0.250241
O O1 0.153695 0.970351 0.496219
O O2 0.390042 0.155491 0.108434
O O3 0.325935 0.944756 0.025960
O O4 0.148364 0.952009 0.987985
O O5 0.477412 0.856658 0.722243
O O6 0.226333 0.755154 0.763197
O O7 0.500000 0.000000 0.500000
O O8 0.482661 0.670807 0.566072
O O9 0.302124 0.657541 0.041955
O O10 0.735530 0.536571 0.953255
O O11 0.790383 0.422446 0.493201
O O12 0.981444 0.573496 0.695164
O O13 0.500000 0.500000 0.500000
O O14 0.705091 0.571166 0.607528
O O15 0.402180 0.378378 0.909916
O O16 0.096978 0.223182 0.150159
O O17 0.000000 0.000000 0.000000
O O18 0.000000 0.500000 0.000000
#
# Coordination Sequence:
#
# PCOD9062569 Si02
#       8
#     2   2   2   2   2   2   2   2
#     4  12  29  48  79 111 159 209 265 316 391 487
#     4  12  26  48  77 113 159 209 259 325 397 476
#     4  12  25  47  77 110 157 199 261 319 400 458
#     4  11  24  41  70 108 141 195 246 328 376 464
#     4  11  25  45  74 112 143 195 251 331 383 470
#     4  12  29  51  79 110 156 211 258 329 392 474
#     4  11  26  43  74 107 148 187 261 313 402 452
#     4  11  24  43  70 104 149 192 257 309 387 457
#
# _framework density 23.122
#
# number of rings (size 3 to 8) (size 9 to 14) (size 15 to 20)
#    0.000    0.500    2.500    4.500    5.250    2.000 
#    0.000    0.000    0.000    0.000    0.000    0.000 
#    0.000    0.000    0.000    0.000    0.000    0.000 
#
# Total GULP energy -89286.100004 kJ/mol
# GULP energy per Si atom -5580.381250 kJ/mol
# Density = 2.306937 g / cm^3
# Si number density = 23.122000 Si / 1000 Ang^3
#
#
#
# Elastic Constant Matrix: (Units=GPa)
#
#
# Indices 1 2 3 4 5 6 
#
# 1 102.5710 71.4176 36.6817 26.1058 7.0145 -4.5311
# 2 71.4176 214.6191 70.6652 23.6005 4.1528 19.1932
# 3 36.6817 70.6652 137.9487 20.1663 -20.9076 -12.8922
# 4 26.1058 23.6005 20.1663 46.7176 -4.6890 1.4156
# 5 7.0145 4.1528 -20.9076 -4.6890 38.3979 10.7333
# 6 -4.5311 19.1932 -12.8922 1.4156 10.7333 56.7490
#
#
#
# Elastic Compliance Matrix: (Units=1/GPa)
#
#
# Indices 1 2 3 4 5 6 
#
# 1 0.015222 -0.004095 -0.001434 -0.006406 -0.004837 0.003349
# 2 -0.004095 0.007373 -0.003116 -0.000071 -0.000812 -0.003373
# 3 -0.001434 -0.003116 0.010520 -0.001688 0.005468 0.002337
# 4 -0.006406 -0.000071 -0.001688 0.026231 0.004105 -0.002302
# 5 -0.004837 -0.000812 0.005468 0.004105 0.031892 -0.005004
# 6 0.003349 -0.003373 0.002337 -0.002302 -0.005004 0.020565
#
#
# Mechanical properties :
#
#
# Convention : Reuss Voigt Hill
#
# Bulk Modulus (GPa) = 63.18500 90.29641 76.74071
# Shear Modulus (GPa) = 37.21118 46.79784 42.00451
#
# Velocity S-wave (km/s) = 4.01601 4.50372 4.26684
# Velocity P-wave (km/s) = 6.99218 8.13521 7.58525
#
# Compressibility (1/GPa) = 0.01582654
#
# Stress axis : x y z
#
# Youngs Moduli (GPa) = 65.69277 135.62641 95.05303
#
# Poissons Ratio (x) = 0.55538 0.13628
# Poissons Ratio (y) = 0.26901 0.29619
# Poissons Ratio (z) = 0.09419 0.42262
#
# Static dielectric constant tensor:
#      x y z
#    x 1.981560 0.019430 0.084920 
#    y 0.019430 1.785230 0.087040 
#    z 0.084920 0.087040 1.966650 
# 
# From -- ./inp_files/98395.got.cif
#   From: 2010.05.17/outbox.cif.g08.bks.cpg/sg2_50_cif.got.tgz:98395.got - 2010.06.03 11:33:40.
