data_PCOD9062595
_publ_section_title
;
Structure prediction by ZEFSAII (Michael W. Deem and Ramdas Pophale) SiO2 
 PCOD9062595
Probable space group: P -1
;
_chemical_formula_sum "Si O2"
_cell_formula_units_Z 16
_cell_length_a 16.947044
_cell_length_b 9.064455
_cell_length_c 12.104488
_cell_angle_alpha 48.705578
_cell_angle_beta 31.781340
_cell_angle_gamma 47.541890
_cell_volume 704.562482
_symmetry_space_group_name_H-M "P -1"
_symmetry_group_IT_number 2
_symmetry_cell_setting 'triclinic'
loop_
_space_group_symop_operation_xyz
x,y,z
-x,-y,-z
loop_
_atom_site_type_symbol
_atom_site_label
_atom_site_fract_x
_atom_site_fract_y
_atom_site_fract_z
Si Si1 0.428061 0.743810 0.441300
Si Si2 0.251617 0.557242 0.107753
Si Si3 0.189330 0.923291 0.824209
Si Si4 0.060821 0.371421 0.281714
Si Si5 0.247088 0.227984 0.921278
Si Si6 0.230812 0.343212 0.643493
Si Si7 0.837968 0.155608 0.723893
Si Si8 0.410477 0.665875 0.247893
O O1 0.500000 0.500000 0.500000
O O2 0.274236 0.837791 0.650441
O O3 0.564742 0.842687 0.266678
O O4 0.400438 0.759238 0.335843
O O5 0.118443 0.457178 0.279040
O O6 0.226842 0.654419 0.209500
O O7 0.236638 0.740219 0.946951
O O8 0.416822 0.388237 0.979922
O O9 0.254039 0.109242 0.696903
O O10 0.000000 0.000000 0.000000
O O11 0.912239 0.527164 0.323908
O O12 0.003846 0.175052 0.476017
O O13 0.194421 0.336983 0.046915
O O14 0.194682 0.361078 0.808438
O O15 0.165102 0.047420 0.108051
O O16 0.368097 0.449009 0.410967
O O17 0.715598 0.188361 0.753703
#
# Coordination Sequence:
#
# PCOD9062595 Si02
#       8
#     2   2   2   2   2   2   2   2
#     4  12  24  45  73 101 138 181 228 288 346 402
#     4  12  22  46  71  94 143 181 228 278 349 408
#     4  12  25  42  71 112 137 173 230 291 345 402
#     4  11  24  45  67 100 139 185 226 281 348 405
#     4  12  23  44  71 100 138 180 231 287 338 406
#     4  11  24  41  72 104 135 175 230 287 342 408
#     4  11  27  43  65 103 138 183 230 281 338 411
#     4  11  25  47  70 100 136 182 232 279 345 412
#
# _framework density 22.709129000000001
#
# number of rings (size 3 to 8) (size 9 to 14) (size 15 to 20)
#    0.000    0.500    6.250    1.500    1.750    3.500 
#    2.250    0.000    0.000    0.000    0.000    0.000 
#    0.000    0.000    0.000    0.000    0.000    0.000 
#
# Total GULP energy -89572.497994 kJ/mol
# GULP energy per Si atom -5598.281125 kJ/mol
# Density = 2.265744 g / cm^3
# Si number density = 22.709129 Si / 1000 Ang^3
#
#
#
# Elastic Constant Matrix: (Units=GPa)
#
#
# Indices 1 2 3 4 5 6 
#
# 1 97.8786 2.6396 28.0620 16.4586 -2.1324 2.4158
# 2 2.6396 47.0876 16.8125 9.1825 -4.9181 9.8130
# 3 28.0620 16.8125 90.9850 9.8634 -6.2959 -3.2858
# 4 16.4586 9.1825 9.8634 51.4317 11.0082 1.8080
# 5 -2.1324 -4.9181 -6.2959 11.0082 36.0751 3.3163
# 6 2.4158 9.8130 -3.2858 1.8080 3.3163 30.2815
#
#
#
# Elastic Compliance Matrix: (Units=1/GPa)
#
#
# Indices 1 2 3 4 5 6 
#
# 1 0.011904 0.001913 -0.003572 -0.003754 0.001663 -0.001915
# 2 0.001913 0.026428 -0.004885 -0.005199 0.005325 -0.009520
# 3 -0.003572 -0.004885 0.013315 -0.000960 0.001444 0.003212
# 4 -0.003754 -0.005199 -0.000960 0.023506 -0.008399 0.001396
# 5 0.001663 0.005325 0.001444 -0.008399 0.031790 -0.004681
# 6 -0.001915 -0.009520 0.003212 0.001396 -0.004681 0.037039
#
#
# Mechanical properties :
#
#
# Convention : Reuss Voigt Hill
#
# Bulk Modulus (GPa) = 25.93446 36.77549 31.35498
# Shear Modulus (GPa) = 29.42506 36.12012 32.77259
#
# Velocity S-wave (km/s) = 3.60354 3.99250 3.80300
# Velocity P-wave (km/s) = 5.36275 6.12232 5.75508
#
# Compressibility (1/GPa) = 0.03855873
#
# Stress axis : x y z
#
# Youngs Moduli (GPa) = 84.00466 37.83885 75.10144
#
# Poissons Ratio (x) = -0.07239 0.26827
# Poissons Ratio (y) = -0.16071 0.36689
# Poissons Ratio (z) = 0.30007 0.18485
#
# Static dielectric constant tensor:
#      x y z
#    x 1.795720 0.022610 -0.004990 
#    y 0.022610 1.843800 -0.007390 
#    z -0.004990 -0.007390 1.828740 
# 
# From -- ./inp_files/185809.got.cif
#   From: 2010.05.17/outbox.cif.g08.bks.cpg/sg2_93_cif.got.tgz:185809.got - 2010.06.03 11:33:40.
