data_PCOD9062677
_publ_section_title
;
Structure prediction by ZEFSAII (Michael W. Deem and Ramdas Pophale) SiO2 
 PCOD9062677
Probable space group: P -1
;
_chemical_formula_sum "Si O2"
_cell_formula_units_Z 13
_cell_length_a 3.310253
_cell_length_b 7.624158
_cell_length_c 17.379196
_cell_angle_alpha 97.872557
_cell_angle_beta 74.924513
_cell_angle_gamma 114.080398
_cell_volume 386.424879
_symmetry_space_group_name_H-M "P -1"
_symmetry_group_IT_number 2
_symmetry_cell_setting 'triclinic'
loop_
_space_group_symop_operation_xyz
x,y,z
-x,-y,-z
loop_
_atom_site_type_symbol
_atom_site_label
_atom_site_fract_x
_atom_site_fract_y
_atom_site_fract_z
Si Si1 0.000000 0.500000 0.000000
Si Si2 0.981395 0.208469 0.110691
Si Si3 0.851459 0.224966 0.413530
Si Si4 0.822736 0.204095 0.586013
Si Si5 0.354194 0.663938 0.714316
Si Si6 0.198376 0.897959 0.105108
Si Si7 0.180674 0.240583 0.716262
O O1 0.214275 0.402421 0.060132
O O2 0.091334 0.696883 0.055353
O O3 0.881003 0.254642 0.206360
O O4 0.445390 0.156439 0.099410
O O5 0.776376 0.957195 0.088611
O O6 0.003942 0.285823 0.495523
O O7 0.812100 0.391888 0.370745
O O8 0.161964 0.177919 0.329101
O O9 0.407047 0.030467 0.429371
O O10 0.678822 0.206289 0.692522
O O11 0.325032 0.242020 0.608051
O O12 0.359710 0.470898 0.737676
O O13 0.032239 0.860114 0.198756
#
# Coordination Sequence:
#
# PCOD9062677 Si02
#       7
#     1   2   2   2   2   2   2
#     4  12  28  54  76 120 142 186 248 306 356 464
#     4  12  27  49  78 109 150 195 237 301 372 437
#     4  11  24  42  67  99 141 193 248 300 360 429
#     4  11  24  42  67  99 141 193 248 300 360 429
#     4  12  24  43  68 103 145 190 245 303 356 436
#     4  12  27  49  78 109 150 195 237 301 372 437
#     4  12  24  43  68 103 145 190 245 303 356 436
#
# _framework density 33.641727000000003
#
# number of rings (size 3 to 8) (size 9 to 14) (size 15 to 20)
#    0.000    0.308    1.538    8.308    0.000    8.615 
#    0.000    0.000    0.000    0.000    0.000    0.000 
#    0.000    0.000    0.000    0.000    0.000    0.000 
#
# Total GULP energy -72679.495868 kJ/mol
# GULP energy per Si atom -5590.730451 kJ/mol
# Density = 3.356516 g / cm^3
# Si number density = 33.641727 Si / 1000 Ang^3
#
#
#
# Elastic Constant Matrix: (Units=GPa)
#
#
# Indices 1 2 3 4 5 6 
#
# 1 295.9641 114.8169 135.6339 3.4325 14.4356 -39.3041
# 2 114.8169 224.6464 138.7783 -14.0452 -16.2705 -29.7450
# 3 135.6339 138.7783 307.8720 -32.3215 7.6931 -15.3505
# 4 3.4325 -14.0452 -32.3215 89.8924 0.4481 1.2405
# 5 14.4356 -16.2705 7.6931 0.4481 99.7462 11.7304
# 6 -39.3041 -29.7450 -15.3505 1.2405 11.7304 121.3234
#
#
#
# Elastic Compliance Matrix: (Units=1/GPa)
#
#
# Indices 1 2 3 4 5 6 
#
# 1 0.004861 -0.001569 -0.001456 -0.000965 -0.000973 0.001110
# 2 -0.001569 0.006972 -0.002423 0.000260 0.001462 0.000750
# 3 -0.001456 -0.002423 0.005137 0.001532 -0.000543 -0.000379
# 4 -0.000965 0.000260 0.001532 0.011755 0.000032 -0.000178
# 5 -0.000973 0.001462 -0.000543 0.000032 0.010570 -0.001048
# 6 0.001110 0.000750 -0.000379 -0.000178 -0.001048 0.008841
#
#
# Mechanical properties :
#
#
# Convention : Reuss Voigt Hill
#
# Bulk Modulus (GPa) = 164.63798 178.54898 171.59348
# Shear Modulus (GPa) = 81.89199 91.47594 86.68397
#
# Velocity S-wave (km/s) = 4.93915 5.22018 5.08161
# Velocity P-wave (km/s) = 9.03171 9.46164 9.24917
#
# Compressibility (1/GPa) = 0.00607393
#
# Stress axis : x y z
#
# Youngs Moduli (GPa) = 205.73687 143.43567 194.65331
#
# Poissons Ratio (x) = 0.22501 0.28338
# Poissons Ratio (y) = 0.32275 0.47171
# Poissons Ratio (z) = 0.29952 0.34759
#
# Static dielectric constant tensor:
#      x y z
#    x 2.952830 -0.369910 0.306990 
#    y -0.369910 2.263130 0.007390 
#    z 0.306990 0.007390 2.301500 
# 
# From -- ./inp_files/547369.got.cif
#   From: 2010.05.17/outbox.cif.g08.bks.cpg/sg2_274_cif.got.tgz:547369.got - 2010.06.03 11:33:40.
