data_PCOD9062294
_publ_section_title
;
Structure prediction by ZEFSAII (Michael W. Deem and Ramdas Pophale) SiO2 
 PCOD9062294
Probable space group: P -1
;
_chemical_formula_sum "Si O2"
_cell_formula_units_Z 16
_cell_length_a 8.415302
_cell_length_b 29.345419
_cell_length_c 10.301740
_cell_angle_alpha 31.361060
_cell_angle_beta 58.017465
_cell_angle_gamma 36.903736
_cell_volume 692.984568
_symmetry_space_group_name_H-M "P -1"
_symmetry_group_IT_number 2
_symmetry_cell_setting 'triclinic'
loop_
_space_group_symop_operation_xyz
x,y,z
-x,-y,-z
loop_
_atom_site_type_symbol
_atom_site_label
_atom_site_fract_x
_atom_site_fract_y
_atom_site_fract_z
Si Si1 0.296845 0.205703 0.675669
Si Si2 0.595980 0.492575 0.331768
Si Si3 0.087590 0.800465 0.705212
Si Si4 0.353877 0.487775 0.199174
Si Si5 0.303504 0.794793 0.373835
Si Si6 0.861874 0.076882 0.136878
Si Si7 0.405638 0.977912 0.261003
Si Si8 0.712074 0.781004 0.850095
O O1 0.520979 0.202154 0.618282
O O2 0.957396 0.362142 0.472647
O O3 0.361239 0.143394 0.655427
O O4 0.389277 0.088220 0.007788
O O5 0.500000 0.500000 0.500000
O O6 0.488636 0.462285 0.343518
O O7 0.406995 0.649640 0.992171
O O8 0.112853 0.802039 0.533877
O O9 0.851265 0.808327 0.811284
O O10 0.987485 0.933781 0.464264
O O11 0.449116 0.357629 0.430111
O O12 0.500000 0.500000 0.000000
O O13 0.996499 0.631340 0.021597
O O14 0.124653 0.905737 0.063937
O O15 0.507806 0.203783 0.016950
O O16 0.072569 0.067739 0.142557
O O17 0.507932 0.899165 0.540977
#
# Coordination Sequence:
#
# PCOD9062294 Si02
#       8
#     2   2   2   2   2   2   2   2
#     4  11  26  44  72 104 141 192 239 295 364 423
#     4  11  26  46  75 107 149 187 240 303 362 419
#     4  11  25  46  74 104 144 192 234 297 358 444
#     4  11  23  49  76 104 142 198 240 288 360 439
#     4  12  25  46  75 103 143 189 250 286 354 445
#     4  12  26  44  70 108 143 183 244 300 364 420
#     4  11  25  45  71 102 146 188 243 299 359 431
#     4  11  25  43  74 100 147 187 233 296 372 425
#
# _framework density 23.088536999999999
#
# number of rings (size 3 to 8) (size 9 to 14) (size 15 to 20)
#    0.000    0.750    3.750    3.375    8.750    2.000 
#    4.500    0.000    0.000    0.000    0.000    0.000 
#    0.000    0.000    0.000    0.000    0.000    0.000 
#
# Total GULP energy -89563.782196 kJ/mol
# GULP energy per Si atom -5597.736387 kJ/mol
# Density = 2.303599 g / cm^3
# Si number density = 23.088537 Si / 1000 Ang^3
#
#
#
# Elastic Constant Matrix: (Units=GPa)
#
#
# Indices 1 2 3 4 5 6 
#
# 1 40.1487 33.1300 8.6397 -6.2580 5.3947 -11.6666
# 2 33.1300 131.3208 53.6503 -7.7312 2.9894 -23.9401
# 3 8.6397 53.6503 107.7668 -3.7925 9.7954 -5.6149
# 4 -6.2580 -7.7312 -3.7925 40.2033 6.2826 4.0321
# 5 5.3947 2.9894 9.7954 6.2826 30.9503 -8.4246
# 6 -11.6666 -23.9401 -5.6149 4.0321 -8.4246 40.7324
#
#
#
# Elastic Compliance Matrix: (Units=1/GPa)
#
#
# Indices 1 2 3 4 5 6 
#
# 1 0.033871 -0.008506 0.002380 0.004429 -0.005812 0.003389
# 2 -0.008506 0.012989 -0.005856 -0.000458 0.003584 0.005177
# 3 0.002380 -0.005856 0.012359 0.001347 -0.004618 -0.002145
# 4 0.004429 -0.000458 0.001347 0.027076 -0.007478 -0.003042
# 5 -0.005812 0.003584 -0.004618 -0.007478 0.038259 0.008458
# 6 0.003389 0.005177 -0.002145 -0.003042 0.008458 0.030319
#
#
# Mechanical properties :
#
#
# Convention : Reuss Voigt Hill
#
# Bulk Modulus (GPa) = 28.36599 52.23069 40.29834
# Shear Modulus (GPa) = 26.23447 34.63163 30.43305
#
# Velocity S-wave (km/s) = 3.37450 3.87712 3.63451
# Velocity P-wave (km/s) = 5.24360 6.53558 5.92491
#
# Compressibility (1/GPa) = 0.03525348
#
# Stress axis : x y z
#
# Youngs Moduli (GPa) = 29.52392 76.98932 80.90974
#
# Poissons Ratio (x) = 0.65491 -0.19258
# Poissons Ratio (y) = 0.25115 0.47385
# Poissons Ratio (z) = -0.07027 0.45089
#
# Static dielectric constant tensor:
#      x y z
#    x 1.830750 -0.022440 -0.004840 
#    y -0.022440 1.922010 -0.023730 
#    z -0.004840 -0.023730 1.847190 
# 
# From -- ./inp_files/227701.got.cif
#   From: 2010.05.17/outbox.cif.g08.bks.cpg/sg2_114_cif.got.tgz:227701.got - 2010.06.03 11:33:40.
