data_PCOD9062535
_publ_section_title
;
Structure prediction by ZEFSAII (Michael W. Deem and Ramdas Pophale) SiO2 
 PCOD9062535
Probable space group: P -1
;
_chemical_formula_sum "Si O2"
_cell_formula_units_Z 16
_cell_length_a 8.915231
_cell_length_b 4.979710
_cell_length_c 14.093548
_cell_angle_alpha 81.448619
_cell_angle_beta 108.095134
_cell_angle_gamma 88.869437
_cell_volume 586.682031
_symmetry_space_group_name_H-M "P -1"
_symmetry_group_IT_number 2
_symmetry_cell_setting 'triclinic'
loop_
_space_group_symop_operation_xyz
x,y,z
-x,-y,-z
loop_
_atom_site_type_symbol
_atom_site_label
_atom_site_fract_x
_atom_site_fract_y
_atom_site_fract_z
Si Si1 0.108078 0.463012 0.306210
Si Si2 0.471452 0.461368 0.884862
Si Si3 0.382729 0.179681 0.273179
Si Si4 0.837897 0.156642 0.228994
Si Si5 0.267719 0.969180 0.086279
Si Si6 0.296902 0.137666 0.612559
Si Si7 0.851234 0.322876 0.504939
Si Si8 0.044461 0.206057 0.906884
O O1 0.279775 0.329572 0.324711
O O2 0.131738 0.687483 0.377841
O O3 0.976605 0.256468 0.318048
O O4 0.027085 0.557612 0.187105
O O5 0.560383 0.623372 0.810166
O O6 0.293477 0.592071 0.825404
O O7 0.560525 0.160543 0.901643
O O8 0.500000 0.500000 0.000000
O O9 0.526675 0.994879 0.352037
O O10 0.269786 0.002802 0.197572
O O11 0.757527 0.925188 0.287400
O O12 0.899237 0.021826 0.149840
O O13 0.106841 0.813154 0.050917
O O14 0.203495 0.230101 0.998721
O O15 0.188253 0.961032 0.533283
O O16 0.286986 0.453678 0.568278
O O17 0.000000 0.500000 0.500000
#
# Coordination Sequence:
#
# PCOD9062535 Si02
#       8
#     2   2   2   2   2   2   2   2
#     4  12  26  43  75  99 143 188 243 307 365 435
#     4  11  24  44  64 100 142 188 236 294 362 431
#     4  11  27  45  70 103 144 188 240 304 367 435
#     4  11  24  43  69 104 141 191 242 299 361 441
#     4  11  24  42  70 101 148 190 236 298 366 436
#     4  11  28  48  73 111 148 188 250 306 373 444
#     4  12  26  48  78 108 145 193 246 310 375 437
#     4  11  24  41  68 108 141 189 246 296 360 442
#
# _framework density 27.272016000000001
#
# number of rings (size 3 to 8) (size 9 to 14) (size 15 to 20)
#    0.000    0.750    5.000    1.125    7.000    3.000 
#    0.000    0.000    0.000    0.000    0.000    0.000 
#    0.000    0.000    0.000    0.000    0.000    0.000 
#
# Total GULP energy -89475.054256 kJ/mol
# GULP energy per Si atom -5592.190891 kJ/mol
# Density = 2.720994 g / cm^3
# Si number density = 27.272016 Si / 1000 Ang^3
#
#
#
# Elastic Constant Matrix: (Units=GPa)
#
#
# Indices 1 2 3 4 5 6 
#
# 1 109.1417 15.9786 16.4829 -10.9844 17.7180 -24.5895
# 2 15.9786 89.6791 10.7753 -4.5320 8.4880 -21.3721
# 3 16.4829 10.7753 98.9645 -6.5618 21.7071 -14.2954
# 4 -10.9844 -4.5320 -6.5618 51.2324 -13.2256 -0.8704
# 5 17.7180 8.4880 21.7071 -13.2256 35.6165 -5.5582
# 6 -24.5895 -21.3721 -14.2954 -0.8704 -5.5582 33.9062
#
#
#
# Elastic Compliance Matrix: (Units=1/GPa)
#
#
# Indices 1 2 3 4 5 6 
#
# 1 0.011770 0.000303 0.000211 0.001639 -0.004172 0.008174
# 2 0.000303 0.013295 0.000164 0.000952 -0.001754 0.008406
# 3 0.000211 0.000164 0.012182 -0.000100 -0.006942 0.004252
# 4 0.001639 0.000952 -0.000100 0.022003 0.007748 0.003582
# 5 -0.004172 -0.001754 -0.006942 0.007748 0.037569 -0.000700
# 6 0.008174 0.008406 0.004252 0.003582 -0.000700 0.042490
#
#
# Mechanical properties :
#
#
# Convention : Reuss Voigt Hill
#
# Bulk Modulus (GPa) = 25.90450 42.69542 34.29996
# Shear Modulus (GPa) = 33.15241 41.12091 37.13666
#
# Velocity S-wave (km/s) = 3.49036 3.88726 3.69414
# Velocity P-wave (km/s) = 5.07569 5.98641 5.54976
#
# Compressibility (1/GPa) = 0.03860333
#
# Stress axis : x y z
#
# Youngs Moduli (GPa) = 84.96184 75.21885 82.08900
#
# Poissons Ratio (x) = -0.02281 -0.01733
# Poissons Ratio (y) = -0.02577 -0.01346
# Poissons Ratio (z) = -0.01794 -0.01234
#
# Static dielectric constant tensor:
#      x y z
#    x 2.204830 0.145530 -0.064020 
#    y 0.145530 2.278090 -0.121330 
#    z -0.064020 -0.121330 2.184040 
# 
# From -- ./inp_files/38109.got.cif
#   From: 2010.05.17/outbox.cif.g08.bks.cpg/sg2_20_cif.got.tgz:38109.got - 2010.06.03 11:33:40.
