data_PCOD9062943
_publ_section_title
;
Structure prediction by ZEFSAII (Michael W. Deem and Ramdas Pophale) SiO2 
 PCOD9062943
Probable space group: P -1
;
_chemical_formula_sum "Si O2"
_cell_formula_units_Z 16
_cell_length_a 9.860424
_cell_length_b 6.763499
_cell_length_c 21.569860
_cell_angle_alpha 53.278813
_cell_angle_beta 53.669400
_cell_angle_gamma 44.166277
_cell_volume 768.160519
_symmetry_space_group_name_H-M "P -1"
_symmetry_group_IT_number 2
_symmetry_cell_setting 'triclinic'
loop_
_space_group_symop_operation_xyz
x,y,z
-x,-y,-z
loop_
_atom_site_type_symbol
_atom_site_label
_atom_site_fract_x
_atom_site_fract_y
_atom_site_fract_z
Si Si1 0.270044 0.899365 0.181771
Si Si2 0.018477 0.560104 0.082388
Si Si3 0.602658 0.093759 0.715220
Si Si4 0.221783 0.059081 0.813703
Si Si5 0.161937 0.273211 0.548443
Si Si6 0.515317 0.387305 0.447106
Si Si7 0.298489 0.437434 0.919380
Si Si8 0.055240 0.561403 0.291809
O O1 0.340214 0.845878 0.244347
O O2 0.463856 0.811108 0.103996
O O3 0.189272 0.698249 0.222941
O O4 0.097288 0.245252 0.152577
O O5 0.936789 0.803451 0.112368
O O6 0.833733 0.640686 0.071579
O O7 0.201405 0.510514 0.000160
O O8 0.424339 0.038615 0.781620
O O9 0.523557 0.366407 0.638482
O O10 0.798998 0.792600 0.690678
O O11 0.118187 0.282550 0.742460
O O12 0.269628 0.737985 0.844760
O O13 0.338301 0.331480 0.496217
O O14 0.000000 0.500000 0.500000
O O15 0.048543 0.343357 0.631212
O O16 0.271875 0.928700 0.563380
O O17 0.500000 0.500000 0.500000
#
# Coordination Sequence:
#
# PCOD9062943 Si02
#       8
#     2   2   2   2   2   2   2   2
#     4  12  24  43  65 100 131 175 225 271 330 392
#     4  11  24  43  67  97 131 180 220 278 337 387
#     4  12  26  42  68  97 136 173 216 273 328 392
#     4  12  24  43  65 100 131 175 225 271 330 392
#     4  11  26  46  70 101 133 172 219 269 326 393
#     4  11  26  46  70 101 133 172 219 269 326 393
#     4  11  24  43  67  95 137 173 224 279 331 391
#     4  12  26  42  68  97 136 173 216 273 328 392
#
# _framework density 20.828980000000001
#
# number of rings (size 3 to 8) (size 9 to 14) (size 15 to 20)
#    0.000    0.500    5.000    3.000    3.500    6.000 
#    0.000    1.250    0.000    0.000    0.000    0.000 
#    0.000    0.000    0.000    0.000    0.000    0.000 
#
# Total GULP energy -89562.909267 kJ/mol
# GULP energy per Si atom -5597.681829 kJ/mol
# Density = 2.078157 g / cm^3
# Si number density = 20.828980 Si / 1000 Ang^3
#
#
#
# Elastic Constant Matrix: (Units=GPa)
#
#
# Indices 1 2 3 4 5 6 
#
# 1 46.1496 -2.8806 -17.2278 3.3320 7.0837 -5.7728
# 2 -2.8806 102.4663 0.7397 2.1066 5.7768 -4.1388
# 3 -17.2278 0.7397 58.7259 8.6465 9.5177 -3.5379
# 4 3.3320 2.1066 8.6465 45.3671 0.7474 1.2747
# 5 7.0837 5.7768 9.5177 0.7474 36.7815 0.7716
# 6 -5.7728 -4.1388 -3.5379 1.2747 0.7716 26.1627
#
#
#
# Elastic Compliance Matrix: (Units=1/GPa)
#
#
# Indices 1 2 3 4 5 6 
#
# 1 0.028555 0.001646 0.010914 -0.004350 -0.008672 0.008505
# 2 0.001646 0.010025 0.000956 -0.000794 -0.002169 0.002181
# 3 0.010914 0.000956 0.022673 -0.005205 -0.008142 0.006119
# 4 -0.004350 -0.000794 -0.005205 0.023443 0.001896 -0.002987
# 5 -0.008672 -0.002169 -0.008142 0.001896 0.031358 -0.004375
# 6 0.008505 0.002181 0.006119 -0.002987 -0.004375 0.041546
#
#
# Mechanical properties :
#
#
# Convention : Reuss Voigt Hill
#
# Bulk Modulus (GPa) = 11.32686 18.73384 15.03035
# Shear Modulus (GPa) = 31.25075 36.77628 34.01352
#
# Velocity S-wave (km/s) = 3.87764 4.20650 4.04541
# Velocity P-wave (km/s) = 5.04955 5.71021 5.39001
#
# Compressibility (1/GPa) = 0.08828572
#
# Stress axis : x y z
#
# Youngs Moduli (GPa) = 35.02043 99.74710 44.10614
#
# Poissons Ratio (x) = -0.16416 -0.48139
# Poissons Ratio (y) = -0.05764 -0.04218
# Poissons Ratio (z) = -0.38223 -0.09539
#
# Static dielectric constant tensor:
#      x y z
#    x 1.706440 -0.005230 -0.014450 
#    y -0.005230 1.726920 0.000220 
#    z -0.014450 0.000220 1.731470 
# 
# From -- ./inp_files/47302.got.cif
#   From: 2010.05.17/outbox.cif.g08.bks.cpg/sg2_24_cif.got.tgz:47302.got - 2010.06.03 11:33:40.
