data_PCOD9062790
_publ_section_title
;
Structure prediction by ZEFSAII (Michael W. Deem and Ramdas Pophale) SiO2 
 PCOD9062790
Probable space group: P -1
;
_chemical_formula_sum "Si O2"
_cell_formula_units_Z 16
_cell_length_a 16.083890
_cell_length_b 20.536501
_cell_length_c 28.531506
_cell_angle_alpha 17.239659
_cell_angle_beta 160.567538
_cell_angle_gamma 162.231862
_cell_volume 791.640600
_symmetry_space_group_name_H-M "P -1"
_symmetry_group_IT_number 2
_symmetry_cell_setting 'triclinic'
loop_
_space_group_symop_operation_xyz
x,y,z
-x,-y,-z
loop_
_atom_site_type_symbol
_atom_site_label
_atom_site_fract_x
_atom_site_fract_y
_atom_site_fract_z
Si Si1 0.323572 0.715872 0.537545
Si Si2 0.852502 0.871657 0.391744
Si Si3 0.722482 0.898263 0.194575
Si Si4 0.332747 0.503653 0.954840
Si Si5 0.489375 0.308209 0.448326
Si Si6 0.681238 0.798009 0.757245
Si Si7 0.283569 0.698633 0.268553
Si Si8 0.736240 0.059795 0.812277
O O1 0.496773 0.739975 0.566235
O O2 0.450476 0.650568 0.694606
O O3 0.000000 0.500000 0.500000
O O4 0.343843 0.976691 0.385780
O O5 0.823317 0.924068 0.285129
O O6 0.569580 0.825298 0.301688
O O7 0.820020 0.592367 0.570431
O O8 0.145812 0.093036 0.421801
O O9 0.571038 0.596215 0.306959
O O10 0.002457 0.063045 0.195815
O O11 0.500000 0.000000 0.000000
O O12 0.988746 0.328643 0.885315
O O13 0.451734 0.799636 0.822659
O O14 0.500000 0.500000 0.000000
O O15 0.396508 0.402371 0.105196
O O16 0.732286 0.263575 0.633802
O O17 0.321564 0.860327 0.223460
O O18 0.000000 0.000000 0.000000
#
# Coordination Sequence:
#
# PCOD9062790 Si02
#       8
#     2   2   2   2   2   2   2   2
#     4  11  24  42  71 103 135 186 233 296 358 414
#     4  11  25  47  72  99 146 188 238 292 351 422
#     4  12  26  48  72 102 142 193 241 291 347 423
#     4  12  25  44  70 105 145 180 230 296 357 424
#     4  12  25  47  75 101 144 187 240 293 358 422
#     4  11  26  43  69 105 143 180 238 291 357 427
#     4  11  25  44  70 106 142 188 234 291 356 420
#     4  12  26  42  74 109 138 185 236 292 358 428
#
# _framework density 20.211190999999999
#
# number of rings (size 3 to 8) (size 9 to 14) (size 15 to 20)
#    0.000    0.500    6.250    1.500    1.750    3.000 
#    2.250    0.000    0.000    0.000    0.000    0.000 
#    0.000    0.000    0.000    0.000    0.000    0.000 
#
# Total GULP energy -89312.230639 kJ/mol
# GULP energy per Si atom -5582.014415 kJ/mol
# Density = 2.016519 g / cm^3
# Si number density = 20.211191 Si / 1000 Ang^3
#
#
#
# Elastic Constant Matrix: (Units=GPa)
#
#
# Indices 1 2 3 4 5 6 
#
# 1 107.2147 25.5656 58.5779 -0.6492 3.1924 -11.9399
# 2 25.5656 103.9766 29.3390 8.9558 22.3670 -3.6863
# 3 58.5779 29.3390 111.8875 7.1074 -1.7785 -6.5317
# 4 -0.6492 8.9558 7.1074 31.1081 -5.0108 0.4990
# 5 3.1924 22.3670 -1.7785 -5.0108 28.3376 -3.4854
# 6 -11.9399 -3.6863 -6.5317 0.4990 -3.4854 39.9906
#
#
#
# Elastic Compliance Matrix: (Units=1/GPa)
#
#
# Indices 1 2 3 4 5 6 
#
# 1 0.013713 -0.001562 -0.006747 0.002233 0.000006 0.002821
# 2 -0.001562 0.013735 -0.002673 -0.005274 -0.011840 -0.000603
# 3 -0.006747 -0.002673 0.013358 -0.001879 0.003405 0.000241
# 4 0.002233 -0.005274 -0.001879 0.035771 0.010157 0.000313
# 5 0.000006 -0.011840 0.003405 0.010157 0.047067 0.003442
# 6 0.002821 -0.000603 0.000241 0.000313 0.003442 0.026128
#
#
# Mechanical properties :
#
#
# Convention : Reuss Voigt Hill
#
# Bulk Modulus (GPa) = 53.06549 61.11597 57.09073
# Shear Modulus (GPa) = 28.08725 33.86034 30.97379
#
# Velocity S-wave (km/s) = 3.73190 4.09752 3.91897
# Velocity P-wave (km/s) = 6.69939 7.25882 6.98471
#
# Compressibility (1/GPa) = 0.01884464
#
# Stress axis : x y z
#
# Youngs Moduli (GPa) = 72.92191 72.80422 74.85993
#
# Poissons Ratio (x) = 0.11369 0.50509
# Poissons Ratio (y) = 0.11388 0.20006
# Poissons Ratio (z) = 0.49201 0.19457
#
# Static dielectric constant tensor:
#      x y z
#    x 1.662550 0.035170 -0.017900 
#    y 0.035170 1.717840 0.032830 
#    z -0.017900 0.032830 1.730990 
# 
# From -- ./inp_files/69015.got.cif
#   From: 2010.05.17/outbox.cif.g08.bks.cpg/sg2_35_cif.got.tgz:69015.got - 2010.06.03 11:33:40.
