data_PCOD9062969
_publ_section_title
;
Structure prediction by ZEFSAII (Michael W. Deem and Ramdas Pophale) SiO2 
 PCOD9062969
Probable space group: P -1
;
_chemical_formula_sum "Si O2"
_cell_formula_units_Z 16
_cell_length_a 8.871647
_cell_length_b 11.329875
_cell_length_c 13.757997
_cell_angle_alpha 32.452581
_cell_angle_beta 115.057638
_cell_angle_gamma 110.022864
_cell_volume 671.894986
_symmetry_space_group_name_H-M "P -1"
_symmetry_group_IT_number 2
_symmetry_cell_setting 'triclinic'
loop_
_space_group_symop_operation_xyz
x,y,z
-x,-y,-z
loop_
_atom_site_type_symbol
_atom_site_label
_atom_site_fract_x
_atom_site_fract_y
_atom_site_fract_z
Si Si1 0.133766 0.740678 0.962086
Si Si2 0.736851 0.199260 0.426622
Si Si3 0.176772 0.572974 0.887096
Si Si4 0.192171 0.344961 0.775360
Si Si5 0.827441 0.339722 0.757083
Si Si6 0.399939 0.170750 0.241043
Si Si7 0.569303 0.030527 0.814061
Si Si8 0.211386 0.203680 0.658913
O O1 0.219259 0.729880 0.098296
O O2 0.986993 0.569466 0.051710
O O3 0.225553 0.663748 0.942553
O O4 0.093402 0.998423 0.755941
O O5 0.840941 0.238736 0.329363
O O6 0.777298 0.401962 0.366450
O O7 0.547586 0.222163 0.318630
O O8 0.735275 0.965344 0.641479
O O9 0.317104 0.392290 0.021939
O O10 0.177240 0.307575 0.682681
O O11 0.019763 0.278792 0.826656
O O12 0.341337 0.184814 0.964716
O O13 0.702297 0.220954 0.733299
O O14 0.810616 0.600926 0.559139
O O15 0.460175 0.020362 0.271961
O O16 0.398331 0.104094 0.767875
#
# Coordination Sequence:
#
# PCOD9062969 Si02
#       8
#     2   2   2   2   2   2   2   2
#     4  11  26  43  69 102 141 188 234 289 356 410
#     4  11  24  43  68 102 134 181 237 286 344 414
#     4  11  24  44  68  99 141 187 235 289 344 424
#     4  12  25  45  75 103 141 190 233 291 349 424
#     4  12  26  47  73 104 145 186 238 288 354 424
#     4  11  25  42  72  99 140 186 234 289 348 420
#     4  12  25  47  74 107 143 186 236 292 356 417
#     4  12  28  45  72 107 145 185 233 297 354 417
#
# _framework density 23.813244999999998
#
# number of rings (size 3 to 8) (size 9 to 14) (size 15 to 20)
#    0.000    0.500    3.750    3.375    5.250    3.000 
#    0.000    2.500    0.000    0.000    0.000    0.000 
#    0.000    0.000    0.000    0.000    0.000    0.000 
#
# Total GULP energy -89579.073942 kJ/mol
# GULP energy per Si atom -5598.692121 kJ/mol
# Density = 2.375904 g / cm^3
# Si number density = 23.813245 Si / 1000 Ang^3
#
#
#
# Elastic Constant Matrix: (Units=GPa)
#
#
# Indices 1 2 3 4 5 6 
#
# 1 90.4639 47.4947 19.1317 0.9618 -7.3082 -3.2333
# 2 47.4947 125.9107 -4.0625 -15.0218 -13.8612 -16.0701
# 3 19.1317 -4.0625 80.3312 -16.3465 -19.5261 -9.5759
# 4 0.9618 -15.0218 -16.3465 24.2515 8.1110 -8.9796
# 5 -7.3082 -13.8612 -19.5261 8.1110 36.5432 3.1733
# 6 -3.2333 -16.0701 -9.5759 -8.9796 3.1733 42.7102
#
#
#
# Elastic Compliance Matrix: (Units=1/GPa)
#
#
# Indices 1 2 3 4 5 6 
#
# 1 0.018095 -0.010076 -0.009154 -0.015661 -0.000950 -0.007696
# 2 -0.010076 0.016308 0.009574 0.019881 0.003883 0.011411
# 3 -0.009154 0.009574 0.023450 0.024156 0.007870 0.012661
# 4 -0.015661 0.019881 0.024156 0.082491 -0.003539 0.029317
# 5 -0.000950 0.003883 0.007870 -0.003539 0.033646 -0.000091
# 6 -0.007696 0.011411 0.012661 0.029317 -0.000091 0.036134
#
#
# Mechanical properties :
#
#
# Convention : Reuss Voigt Hill
#
# Bulk Modulus (GPa) = 25.94735 46.87042 36.40888
# Shear Modulus (GPa) = 20.63697 36.31043 28.47370
#
# Velocity S-wave (km/s) = 2.94703 3.90910 3.46165
# Velocity P-wave (km/s) = 4.74340 6.33246 5.59463
#
# Compressibility (1/GPa) = 0.03853958
#
# Stress axis : x y z
#
# Youngs Moduli (GPa) = 55.26386 61.32111 42.64312
#
# Poissons Ratio (x) = 0.61789 0.39037
# Poissons Ratio (y) = 0.55686 -0.40826
# Poissons Ratio (z) = 0.50591 -0.58708
#
# Static dielectric constant tensor:
#      x y z
#    x 1.913290 0.021330 -0.030090 
#    y 0.021330 1.882540 0.000970 
#    z -0.030090 0.000970 1.863740 
# 
# From -- ./inp_files/448424.got.cif
#   From: 2010.05.17/outbox.cif.g08.bks.cpg/sg2_225_cif.got.tgz:448424.got - 2010.06.03 11:33:40.
