data_PCOD9062189
_publ_section_title
;
Structure prediction by ZEFSAII (Michael W. Deem and Ramdas Pophale) SiO2 
 PCOD9062189
Probable space group: P -1
;
_chemical_formula_sum "Si O2"
_cell_formula_units_Z 16
_cell_length_a 11.931431
_cell_length_b 6.699441
_cell_length_c 11.314597
_cell_angle_alpha 58.938646
_cell_angle_beta 79.231694
_cell_angle_gamma 72.542327
_cell_volume 738.485944
_symmetry_space_group_name_H-M "P -1"
_symmetry_group_IT_number 2
_symmetry_cell_setting 'triclinic'
loop_
_space_group_symop_operation_xyz
x,y,z
-x,-y,-z
loop_
_atom_site_type_symbol
_atom_site_label
_atom_site_fract_x
_atom_site_fract_y
_atom_site_fract_z
Si Si1 0.246024 0.016856 0.551940
Si Si2 0.579147 0.240870 0.600518
Si Si3 0.650942 0.888646 0.253094
Si Si4 0.238671 0.771097 0.225831
Si Si5 0.177300 0.337035 0.057073
Si Si6 0.841044 0.456569 0.246583
Si Si7 0.079218 0.438050 0.310760
Si Si8 0.636640 0.396778 0.987981
O O1 0.355085 0.905783 0.478301
O O2 0.188817 0.800455 0.667978
O O3 0.297707 0.126787 0.620094
O O4 0.149035 0.211207 0.440849
O O5 0.500000 0.500000 0.500000
O O6 0.486765 0.107862 0.717851
O O7 0.682810 0.264810 0.661326
O O8 0.724196 0.659425 0.238313
O O9 0.670465 0.132692 0.119096
O O10 0.124723 0.661669 0.283872
O O11 0.199379 0.053585 0.121099
O O12 0.321303 0.635325 0.145898
O O13 0.120095 0.399293 0.177815
O O14 0.117444 0.478697 0.910634
O O15 0.297742 0.422955 0.017571
O O16 0.940223 0.467649 0.320871
O O17 0.500000 0.500000 0.000000
#
# Coordination Sequence:
#
# PCOD9062189 Si02
#       8
#     2   2   2   2   2   2   2   2
#     4  12  26  48  69 103 141 179 236 283 343 409
#     4  12  25  44  70  99 140 185 226 280 347 412
#     4  12  26  43  70 104 139 179 228 284 345 410
#     4  11  25  45  70 101 140 179 232 285 344 407
#     4  11  23  48  69 103 138 176 234 284 345 404
#     4  12  26  47  72 103 140 182 231 286 345 405
#     4  11  27  46  73 102 136 187 233 282 340 411
#     4  11  25  40  68 103 137 181 226 282 343 411
#
# _framework density 21.665949000000001
#
# number of rings (size 3 to 8) (size 9 to 14) (size 15 to 20)
#    0.000    0.500    5.000    2.625    5.250    3.000 
#    0.000    0.000    0.000    0.000    0.000    0.000 
#    0.000    0.000    0.000    0.000    0.000    0.000 
#
# Total GULP energy -89571.547736 kJ/mol
# GULP energy per Si atom -5598.221733 kJ/mol
# Density = 2.161664 g / cm^3
# Si number density = 21.665949 Si / 1000 Ang^3
#
#
#
# Elastic Constant Matrix: (Units=GPa)
#
#
# Indices 1 2 3 4 5 6 
#
# 1 65.8655 15.2120 -3.7371 -8.8638 7.9042 18.6018
# 2 15.2120 75.7989 28.3129 -10.9329 -8.9652 26.7942
# 3 -3.7371 28.3129 76.7265 -8.7101 8.5446 6.0112
# 4 -8.8638 -10.9329 -8.7101 51.7259 7.6527 -3.6693
# 5 7.9042 -8.9652 8.5446 7.6527 25.8177 3.2654
# 6 18.6018 26.7942 6.0112 -3.6693 3.2654 29.0730
#
#
#
# Elastic Compliance Matrix: (Units=1/GPa)
#
#
# Indices 1 2 3 4 5 6 
#
# 1 0.020432 -0.002398 0.004093 0.004199 -0.008393 -0.010237
# 2 -0.002398 0.028156 -0.010585 -0.000510 0.017230 -0.024226
# 3 0.004093 -0.010585 0.018605 0.003876 -0.012897 0.005227
# 4 0.004199 -0.000510 0.003876 0.022043 -0.009383 0.000818
# 5 -0.008393 0.017230 -0.012897 -0.009383 0.056276 -0.015348
# 6 -0.010237 -0.024226 0.005227 0.000818 -0.015348 0.064019
#
#
# Mechanical properties :
#
#
# Convention : Reuss Voigt Hill
#
# Bulk Modulus (GPa) = 20.23735 33.10738 26.67237
# Shear Modulus (GPa) = 20.51015 33.23019 26.87017
#
# Velocity S-wave (km/s) = 3.08011 3.92056 3.52547
# Velocity P-wave (km/s) = 4.69152 5.98401 5.37675
#
# Compressibility (1/GPa) = 0.04941358
#
# Stress axis : x y z
#
# Youngs Moduli (GPa) = 48.94334 35.51683 53.74787
#
# Poissons Ratio (x) = 0.08516 -0.22001
# Poissons Ratio (y) = 0.11735 0.56893
# Poissons Ratio (z) = -0.20034 0.37595
#
# Static dielectric constant tensor:
#      x y z
#    x 1.774490 0.017410 -0.011050 
#    y 0.017410 1.747400 0.019110 
#    z -0.011050 0.019110 1.809160 
# 
# From -- ./inp_files/68468.got.cif
#   From: 2010.05.17/outbox.cif.g08.bks.cpg/sg2_35_cif.got.tgz:68468.got - 2010.06.03 11:33:40.
