data_PCOD9062280
_publ_section_title
;
Structure prediction by ZEFSAII (Michael W. Deem and Ramdas Pophale) SiO2 
 PCOD9062280
Probable space group: P -1
;
_chemical_formula_sum "Si O2"
_cell_formula_units_Z 16
_cell_length_a 18.298754
_cell_length_b 20.482013
_cell_length_c 9.003036
_cell_angle_alpha 130.075277
_cell_angle_beta 60.762507
_cell_angle_gamma 160.535753
_cell_volume 761.689423
_symmetry_space_group_name_H-M "P -1"
_symmetry_group_IT_number 2
_symmetry_cell_setting 'triclinic'
loop_
_space_group_symop_operation_xyz
x,y,z
-x,-y,-z
loop_
_atom_site_type_symbol
_atom_site_label
_atom_site_fract_x
_atom_site_fract_y
_atom_site_fract_z
Si Si1 0.577327 0.949493 0.120603
Si Si2 0.935786 0.031857 0.173656
Si Si3 0.881053 0.072242 0.975337
Si Si4 0.762207 0.296208 0.342306
Si Si5 0.585723 0.484032 0.394879
Si Si6 0.572160 0.924122 0.421687
Si Si7 0.590849 0.426410 0.969156
Si Si8 0.925068 0.516664 0.182942
O O1 0.572017 0.971088 0.330430
O O2 0.617953 0.068336 0.145831
O O3 0.301481 0.654639 0.925380
O O4 0.786283 0.078872 0.079318
O O5 0.161417 0.278161 0.414015
O O6 0.657034 0.764207 0.126600
O O7 0.910424 0.069068 0.110918
O O8 0.000000 0.000000 0.000000
O O9 0.653727 0.800380 0.731281
O O10 0.147254 0.312935 0.990405
O O11 0.604648 0.207700 0.470981
O O12 0.842146 0.411537 0.276624
O O13 0.000000 0.500000 0.500000
O O14 0.500000 0.500000 0.500000
O O15 0.628009 0.493435 0.198590
O O16 0.485249 0.745668 0.212795
O O17 0.845693 0.199844 0.617240
O O18 0.000000 0.500000 0.000000
#
# Coordination Sequence:
#
# PCOD9062280 Si02
#       8
#     2   2   2   2   2   2   2   2
#     4  12  24  47  68  99 145 185 235 297 348 417
#     4  11  23  49  74 100 142 182 230 293 355 426
#     4  11  26  46  69 108 146 182 236 294 355 419
#     4  12  24  44  71  98 138 187 240 286 352 420
#     4  11  23  49  74 101 140 182 231 294 354 426
#     4  12  25  47  68 100 145 185 235 296 353 414
#     4  11  26  45  70 108 142 186 238 290 359 419
#     4  12  27  46  71 102 135 193 245 292 354 414
#
# _framework density 21.005936999999999
#
# number of rings (size 3 to 8) (size 9 to 14) (size 15 to 20)
#    0.000    0.500    7.500    2.250    1.750    2.000 
#    2.250    0.000    0.000    0.000    0.000    0.000 
#    0.000    0.000    0.000    0.000    0.000    0.000 
#
# Total GULP energy -89438.004925 kJ/mol
# GULP energy per Si atom -5589.875308 kJ/mol
# Density = 2.095813 g / cm^3
# Si number density = 21.005937 Si / 1000 Ang^3
#
#
#
# Elastic Constant Matrix: (Units=GPa)
#
#
# Indices 1 2 3 4 5 6 
#
# 1 58.5649 35.5261 31.3159 -14.3773 -6.0514 26.2570
# 2 35.5261 189.7611 71.2231 1.6131 5.0742 23.1034
# 3 31.3159 71.2231 138.9367 23.2936 4.6321 18.2299
# 4 -14.3773 1.6131 23.2936 37.5531 20.2070 4.2500
# 5 -6.0514 5.0742 4.6321 20.2070 40.6959 9.7966
# 6 26.2570 23.1034 18.2299 4.2500 9.7966 30.3989
#
#
#
# Elastic Compliance Matrix: (Units=1/GPa)
#
#
# Indices 1 2 3 4 5 6 
#
# 1 0.047431 -0.000784 -0.009583 0.025996 0.004926 -0.039848
# 2 -0.000784 0.007044 -0.003479 0.002505 -0.001231 -0.002543
# 3 -0.009583 -0.003479 0.012798 -0.013747 0.003397 0.004074
# 4 0.025996 0.002505 -0.013747 0.057248 -0.018974 -0.018003
# 5 0.004926 -0.001231 0.003397 -0.018974 0.038100 -0.014982
# 6 -0.039848 -0.002543 0.004074 -0.018003 -0.014982 0.074149
#
#
# Mechanical properties :
#
#
# Convention : Reuss Voigt Hill
#
# Bulk Modulus (GPa) = 25.26547 73.71032 49.48789
# Shear Modulus (GPa) = 18.00783 38.34277 28.17530
#
# Velocity S-wave (km/s) = 2.93110 4.27702 3.66635
# Velocity P-wave (km/s) = 4.84861 7.71732 6.44461
#
# Compressibility (1/GPa) = 0.03957971
#
# Stress axis : x y z
#
# Youngs Moduli (GPa) = 21.08314 141.96959 78.13654
#
# Poissons Ratio (x) = 0.11135 0.74878
# Poissons Ratio (y) = 0.01654 0.27187
# Poissons Ratio (z) = 0.20204 0.49397
#
# Static dielectric constant tensor:
#      x y z
#    x 1.760160 0.007350 -0.009570 
#    y 0.007350 1.832050 0.059090 
#    z -0.009570 0.059090 1.785990 
# 
# From -- ./inp_files/337804.got.cif
#   From: 2010.05.17/outbox.cif.g08.bks.cpg/sg2_169_cif.got.tgz:337804.got - 2010.06.03 11:33:40.
