data_PCOD9062951
_publ_section_title
;
Structure prediction by ZEFSAII (Michael W. Deem and Ramdas Pophale) SiO2 
 PCOD9062951
Probable space group: P -1
;
_chemical_formula_sum "Si O2"
_cell_formula_units_Z 15
_cell_length_a 6.801542
_cell_length_b 6.757217
_cell_length_c 19.472214
_cell_angle_alpha 80.228698
_cell_angle_beta 66.523588
_cell_angle_gamma 110.390533
_cell_volume 718.174315
_symmetry_space_group_name_H-M "P -1"
_symmetry_group_IT_number 2
_symmetry_cell_setting 'triclinic'
loop_
_space_group_symop_operation_xyz
x,y,z
-x,-y,-z
loop_
_atom_site_type_symbol
_atom_site_label
_atom_site_fract_x
_atom_site_fract_y
_atom_site_fract_z
Si Si1 0.952955 0.935742 0.244072
Si Si2 0.581597 0.591619 0.874634
Si Si3 0.664574 0.257043 0.985824
Si Si4 0.000000 0.500000 0.500000
Si Si5 0.918578 0.072447 0.626009
Si Si6 0.154741 0.388596 0.851021
Si Si7 0.648533 0.174535 0.288596
Si Si8 0.239980 0.817083 0.573614
O O1 0.995513 0.832602 0.314423
O O2 0.932002 0.793994 0.187324
O O3 0.175516 0.189354 0.194038
O O4 0.713291 0.968585 0.281516
O O5 0.638455 0.428136 0.925136
O O6 0.409064 0.440009 0.846774
O O7 0.427858 0.690708 0.933055
O O8 0.942114 0.307679 0.941314
O O9 0.500000 0.000000 0.000000
O O10 0.956550 0.252085 0.551355
O O11 0.870523 0.383300 0.452710
O O12 0.632884 0.908772 0.677975
O O13 0.065253 0.933661 0.597669
O O14 0.203690 0.626025 0.796479
O O15 0.723261 0.255851 0.351134
O O16 0.500000 0.000000 0.500000
#
# Coordination Sequence:
#
# PCOD9062951 Si02
#       8
#     2   2   2   1   2   2   2   2
#     4  11  24  44  66 100 132 177 226 272 334 398
#     4  11  24  43  67  97 135 171 226 277 325 399
#     4  11  24  44  68  97 135 176 221 276 335 393
#     4  12  24  44  72  98 134 180 216 274 340 388
#     4  11  25  46  69 100 138 174 226 277 330 403
#     4  12  24  42  71  95 132 181 219 275 338 391
#     4  11  24  45  67  98 136 174 221 280 332 394
#     4  11  25  46  69  99 136 174 222 277 330 400
#
# _framework density 20.886292000000001
#
# number of rings (size 3 to 8) (size 9 to 14) (size 15 to 20)
#    0.000    0.800    5.333    1.600    0.000    4.267 
#    0.000    0.000    0.000    0.000    0.000    0.000 
#    0.000    0.000    0.000    0.000    0.000    0.000 
#
# Total GULP energy -83602.557868 kJ/mol
# GULP energy per Si atom -5573.503858 kJ/mol
# Density = 2.083875 g / cm^3
# Si number density = 20.886292 Si / 1000 Ang^3
#
#
#
# Elastic Constant Matrix: (Units=GPa)
#
#
# Indices 1 2 3 4 5 6 
#
# 1 96.0397 19.0234 24.7680 0.6597 -20.8677 10.9164
# 2 19.0234 68.3997 -3.2226 5.0262 -10.4810 16.2691
# 3 24.7680 -3.2226 49.6103 -0.9470 -3.5233 -2.9525
# 4 0.6597 5.0262 -0.9470 33.1767 -2.8880 10.8105
# 5 -20.8677 -10.4810 -3.5233 -2.8880 34.8566 2.4395
# 6 10.9164 16.2691 -2.9525 10.8105 2.4395 15.5213
#
#
#
# Elastic Compliance Matrix: (Units=1/GPa)
#
#
# Indices 1 2 3 4 5 6 
#
# 1 0.017738 0.001461 -0.009107 0.007773 0.012399 -0.023102
# 2 0.001461 0.022946 -0.000254 0.007956 0.010672 -0.032346
# 3 -0.009107 -0.000254 0.025196 -0.004407 -0.004412 0.015227
# 4 0.007773 0.007956 -0.004407 0.045708 0.013792 -0.048648
# 5 0.012399 0.010672 -0.004412 0.013792 0.042610 -0.037049
# 6 -0.023102 -0.032346 0.015227 -0.048648 -0.037049 0.157183
#
#
# Mechanical properties :
#
#
# Convention : Reuss Voigt Hill
#
# Bulk Modulus (GPa) = 19.96802 32.79856 26.38329
# Shear Modulus (GPa) = 14.54021 28.27631 21.40826
#
# Velocity S-wave (km/s) = 2.64135 3.68342 3.20502
# Velocity P-wave (km/s) = 4.34550 5.81615 5.13376
#
# Compressibility (1/GPa) = 0.05008007
#
# Stress axis : x y z
#
# Youngs Moduli (GPa) = 56.37584 43.58110 39.68894
#
# Poissons Ratio (x) = -0.06368 0.36144
# Poissons Ratio (y) = -0.08238 0.01009
# Poissons Ratio (z) = 0.51340 0.01108
#
# Static dielectric constant tensor:
#      x y z
#    x 1.740050 0.001920 -0.003640 
#    y 0.001920 1.711140 0.013420 
#    z -0.003640 0.013420 1.748820 
# 
# From -- ./inp_files/7712.got.cif
#   From: 2010.05.17/outbox.cif.g08.bks.cpg/sg2_4_cif.got.tgz:7712.got - 2010.06.03 11:33:40.
