data_PCOD9062470
_publ_section_title
;
Structure prediction by ZEFSAII (Michael W. Deem and Ramdas Pophale) SiO2 
 PCOD9062470
Probable space group: P -1
;
_chemical_formula_sum "Si O2"
_cell_formula_units_Z 14
_cell_length_a 5.500516
_cell_length_b 6.137269
_cell_length_c 24.802177
_cell_angle_alpha 71.099388
_cell_angle_beta 67.241339
_cell_angle_gamma 52.506445
_cell_volume 608.096763
_symmetry_space_group_name_H-M "P -1"
_symmetry_group_IT_number 2
_symmetry_cell_setting 'triclinic'
loop_
_space_group_symop_operation_xyz
x,y,z
-x,-y,-z
loop_
_atom_site_type_symbol
_atom_site_label
_atom_site_fract_x
_atom_site_fract_y
_atom_site_fract_z
Si Si1 0.621143 0.391979 0.254270
Si Si2 0.251428 0.962730 0.176921
Si Si3 0.789527 0.758536 0.649834
Si Si4 0.869654 0.352657 0.988769
Si Si5 0.130939 0.050416 0.892494
Si Si6 0.468846 0.366710 0.637734
Si Si7 0.669636 0.712964 0.539843
O O1 0.451028 0.654171 0.208844
O O2 0.448182 0.230046 0.286366
O O3 0.568387 0.510312 0.309637
O O4 0.981197 0.181703 0.223154
O O5 0.506903 0.045847 0.140006
O O6 0.059916 0.946715 0.143371
O O7 0.695571 0.780077 0.594039
O O8 0.111333 0.454198 0.651346
O O9 0.758829 0.048310 0.638037
O O10 0.937507 0.111683 0.043965
O O11 0.500000 0.500000 0.000000
O O12 0.000000 0.500000 0.000000
O O13 0.001076 0.321192 0.919159
O O14 0.503089 0.545831 0.574755
O O15 0.000000 0.500000 0.500000
O O16 0.500000 0.000000 0.500000
#
# Coordination Sequence:
#
# PCOD9062470 Si02
#       7
#     2   2   2   2   2   2   2
#     4  11  28  46  68 102 140 187 234 307 352 437
#     4  12  28  46  76 105 150 187 250 303 366 427
#     4  11  24  44  69  96 136 187 235 286 368 427
#     4  11  24  47  76 101 149 190 238 295 372 433
#     4  11  28  46  70 114 140 192 242 304 360 440
#     4  11  24  44  69  96 136 187 235 286 368 427
#     4  11  24  41  64 102 140 174 236 297 350 433
#
# _framework density 23.022651
#
# number of rings (size 3 to 8) (size 9 to 14) (size 15 to 20)
#    0.000    0.857    0.000    5.143   12.000   10.286 
#    0.000    0.000    0.000    0.000    0.000    0.000 
#    0.000    0.000    0.000    0.000    0.000    0.000 
#
# Total GULP energy -78095.253271 kJ/mol
# GULP energy per Si atom -5578.232377 kJ/mol
# Density = 2.297025 g / cm^3
# Si number density = 23.022651 Si / 1000 Ang^3
#
#
#
# Elastic Constant Matrix: (Units=GPa)
#
#
# Indices 1 2 3 4 5 6 
#
# 1 101.0903 10.4192 43.9051 7.0621 -8.7180 -1.4998
# 2 10.4192 88.6749 30.4674 -1.6429 -10.5229 -13.6977
# 3 43.9051 30.4674 113.4154 -0.0118 -17.0725 -1.3230
# 4 7.0621 -1.6429 -0.0118 43.8175 -11.7490 -5.3787
# 5 -8.7180 -10.5229 -17.0725 -11.7490 43.1646 6.2074
# 6 -1.4998 -13.6977 -1.3230 -5.3787 6.2074 33.8246
#
#
#
# Elastic Compliance Matrix: (Units=1/GPa)
#
#
# Indices 1 2 3 4 5 6 
#
# 1 0.012058 0.000192 -0.004705 -0.001900 0.000088 0.000110
# 2 0.000192 0.013454 -0.003379 0.001562 0.001650 0.005270
# 3 -0.004705 -0.003379 0.012071 0.001413 0.003607 -0.001542
# 4 -0.001900 0.001562 0.001413 0.025479 0.007006 0.003369
# 5 0.000088 0.001650 0.003607 0.007006 0.027366 -0.003095
# 6 0.000110 0.005270 -0.001542 0.003369 -0.003095 0.032747
#
#
# Mechanical properties :
#
#
# Convention : Reuss Voigt Hill
#
# Bulk Modulus (GPa) = 45.87147 52.52931 49.20039
# Shear Modulus (GPa) = 34.19376 38.72061 36.45719
#
# Velocity S-wave (km/s) = 3.85804 4.10548 3.98368
# Velocity P-wave (km/s) = 6.30981 6.73344 6.52506
#
# Compressibility (1/GPa) = 0.02180004
#
# Stress axis : x y z
#
# Youngs Moduli (GPa) = 82.93387 74.32578 82.84143
#
# Poissons Ratio (x) = -0.01427 0.38977
# Poissons Ratio (y) = -0.01593 0.27989
# Poissons Ratio (z) = 0.39021 0.25112
#
# Static dielectric constant tensor:
#      x y z
#    x 2.186350 0.576990 -0.029160 
#    y 0.576990 3.345290 0.011120 
#    z -0.029160 0.011120 1.857030 
# 
# From -- ./inp_files/13509.got.cif
#   From: 2010.05.17/outbox.cif.g08.bks.cpg/sg2_7_cif.got.tgz:13509.got - 2010.06.03 11:33:40.
