data_PCOD9062775
_publ_section_title
;
Structure prediction by ZEFSAII (Michael W. Deem and Ramdas Pophale) SiO2 
 PCOD9062775
Probable space group: P -1
;
_chemical_formula_sum "Si O2"
_cell_formula_units_Z 14
_cell_length_a 7.420741
_cell_length_b 8.801444
_cell_length_c 10.398575
_cell_angle_alpha 57.162732
_cell_angle_beta 83.322780
_cell_angle_gamma 108.607160
_cell_volume 503.861660
_symmetry_space_group_name_H-M "P -1"
_symmetry_group_IT_number 2
_symmetry_cell_setting 'triclinic'
loop_
_space_group_symop_operation_xyz
x,y,z
-x,-y,-z
loop_
_atom_site_type_symbol
_atom_site_label
_atom_site_fract_x
_atom_site_fract_y
_atom_site_fract_z
Si Si1 0.739653 0.301061 0.498812
Si Si2 0.977889 0.842660 0.341812
Si Si3 0.030898 0.267092 0.163016
Si Si4 0.551045 0.575881 0.624173
Si Si5 0.000042 0.290618 0.855406
Si Si6 0.550494 0.165273 0.273925
Si Si7 0.372678 0.680640 0.074929
O O1 0.873572 0.260806 0.611068
O O2 0.583289 0.393493 0.493556
O O3 0.899281 0.478615 0.313738
O O4 0.597950 0.069558 0.574286
O O5 0.783574 0.707655 0.505524
O O6 0.935296 0.830511 0.198167
O O7 0.053342 0.067270 0.285538
O O8 0.198050 0.463776 0.131486
O O9 0.790617 0.211793 0.228328
O O10 0.069601 0.301230 0.991217
O O11 0.492100 0.689839 0.692590
O O12 0.520938 0.370873 0.791775
O O13 0.756735 0.205718 0.920794
O O14 0.502297 0.207568 0.112386
#
# Coordination Sequence:
#
# PCOD9062775 Si02
#       7
#     2   2   2   2   2   2   2
#     4  12  25  44  70 104 142 181 234 288 337 420
#     4  12  27  46  72 104 145 188 226 287 358 412
#     4  11  24  48  75 102 139 190 231 292 348 411
#     4  12  25  42  73 107 141 179 236 285 354 408
#     4  11  25  48  73 102 142 187 236 281 351 424
#     4  11  24  42  70 110 138 177 242 290 340 416
#     4  11  24  46  75 102 141 186 232 291 351 406
#
# _framework density 27.785406999999999
#
# number of rings (size 3 to 8) (size 9 to 14) (size 15 to 20)
#    0.000    0.571    2.857    6.000    2.000    2.857 
#    0.000    2.857    0.000    0.000    0.000    0.000 
#    0.000    0.000    0.000    0.000    0.000    0.000 
#
# Total GULP energy -78431.810741 kJ/mol
# GULP energy per Si atom -5602.272196 kJ/mol
# Density = 2.772217 g / cm^3
# Si number density = 27.785407 Si / 1000 Ang^3
#
#
#
# Elastic Constant Matrix: (Units=GPa)
#
#
# Indices 1 2 3 4 5 6 
#
# 1 136.8446 9.8490 25.6839 10.5760 11.7554 -15.5935
# 2 9.8490 72.1433 20.0841 -4.1392 -12.6096 -4.8843
# 3 25.6839 20.0841 97.4421 3.1657 3.7458 11.1169
# 4 10.5760 -4.1392 3.1657 46.4856 -8.0546 1.5579
# 5 11.7554 -12.6096 3.7458 -8.0546 50.4002 -3.9277
# 6 -15.5935 -4.8843 11.1169 1.5579 -3.9277 35.9428
#
#
#
# Elastic Compliance Matrix: (Units=1/GPa)
#
#
# Indices 1 2 3 4 5 6 
#
# 1 0.008674 -0.000697 -0.002479 -0.002367 -0.002056 0.004313
# 2 -0.000697 0.016350 -0.003883 0.002668 0.005247 0.003578
# 3 -0.002479 -0.003883 0.012455 -0.000767 -0.001880 -0.005628
# 4 -0.002367 0.002668 -0.000767 0.023223 0.004918 -0.000896
# 5 -0.002056 0.005247 -0.001880 0.004918 0.022768 0.002678
# 6 0.004313 0.003578 -0.005628 -0.000896 0.002678 0.032251
#
#
# Mechanical properties :
#
#
# Convention : Reuss Voigt Hill
#
# Bulk Modulus (GPa) = 42.80484 46.40710 44.60597
# Shear Modulus (GPa) = 36.33045 43.28659 39.80852
#
# Velocity S-wave (km/s) = 3.61991 3.95129 3.78923
# Velocity P-wave (km/s) = 5.73678 6.12823 5.93573
#
# Compressibility (1/GPa) = 0.02336184
#
# Stress axis : x y z
#
# Youngs Moduli (GPa) = 115.28738 61.16273 80.28667
#
# Poissons Ratio (x) = 0.04264 0.19901
# Poissons Ratio (y) = 0.08038 0.31173
# Poissons Ratio (z) = 0.28577 0.23748
#
# Static dielectric constant tensor:
#      x y z
#    x 2.292850 0.040810 0.067100 
#    y 0.040810 2.188530 0.071160 
#    z 0.067100 0.071160 2.108470 
# 
# From -- ./inp_files/375537.got.cif
#   From: 2010.05.17/outbox.cif.g08.bks.cpg/sg2_188_cif.got.tgz:375537.got - 2010.06.03 11:33:40.
