data_PCOD9062182
_publ_section_title
;
Structure prediction by ZEFSAII (Michael W. Deem and Ramdas Pophale) SiO2 
 PCOD9062182
Probable space group: P -1
;
_chemical_formula_sum "Si O2"
_cell_formula_units_Z 14
_cell_length_a 6.737948
_cell_length_b 18.648838
_cell_length_c 5.421043
_cell_angle_alpha 87.489416
_cell_angle_beta 98.368539
_cell_angle_gamma 52.015346
_cell_volume 523.345771
_symmetry_space_group_name_H-M "P -1"
_symmetry_group_IT_number 2
_symmetry_cell_setting 'triclinic'
loop_
_space_group_symop_operation_xyz
x,y,z
-x,-y,-z
loop_
_atom_site_type_symbol
_atom_site_label
_atom_site_fract_x
_atom_site_fract_y
_atom_site_fract_z
Si Si1 0.449210 0.333853 0.870864
Si Si2 0.247202 0.219080 0.883964
Si Si3 0.868177 0.951047 0.680095
Si Si4 0.344674 0.514706 0.720529
Si Si5 0.874435 0.726750 0.646353
Si Si6 0.349949 0.756608 0.582474
Si Si7 0.736883 0.017732 0.141616
O O1 0.281078 0.298488 0.859898
O O2 0.304214 0.438256 0.746315
O O3 0.646402 0.274387 0.689593
O O4 0.559248 0.317559 0.171297
O O5 0.127407 0.224009 0.602378
O O6 0.080810 0.244480 0.092394
O O7 0.523599 0.120700 0.987682
O O8 0.102127 0.851852 0.631313
O O9 0.994805 0.000610 0.756163
O O10 0.676803 0.003740 0.407438
O O11 0.773726 0.952064 0.938328
O O12 0.500000 0.500000 0.500000
O O13 0.078439 0.617884 0.664232
O O14 0.500000 0.500000 0.000000
O O15 0.583154 0.762348 0.609222
#
# Coordination Sequence:
#
# PCOD9062182 Si02
#       7
#     2   2   2   2   2   2   2
#     4  10  21  35  56  77 109 140 175 229 270 325
#     4  10  19  34  54  87 116 140 176 211 273 327
#     4  10  18  26  45  77 125 154 163 195 249 332
#     4  12  26  44  58  76 102 140 192 234 276 320
#     4  10  21  35  56  77 109 140 175 229 270 325
#     4  10  19  34  54  87 116 140 176 211 273 327
#     4  10  18  26  45  77 125 154 163 195 249 332
#
# _framework density 26.750957
#
# number of rings (size 3 to 8) (size 9 to 14) (size 15 to 20)
#    0.000    1.714    2.857    3.429    8.000    4.571 
#    0.000    0.000    0.000    0.000    0.000    0.000 
#    0.000  132.571    0.000    0.000    0.000    0.000 
#
# Total GULP energy -78402.394919 kJ/mol
# GULP energy per Si atom -5600.171066 kJ/mol
# Density = 2.669007 g / cm^3
# Si number density = 26.750957 Si / 1000 Ang^3
#
#
#
# Elastic Constant Matrix: (Units=GPa)
#
#
# Indices 1 2 3 4 5 6 
#
# 1 102.1128 18.3460 23.6525 6.9433 -4.8680 11.7667
# 2 18.3460 144.3800 59.3014 7.9658 7.5566 -10.0678
# 3 23.6525 59.3014 271.4354 26.0488 -14.5136 -9.4802
# 4 6.9433 7.9658 26.0488 53.2684 -6.9223 -6.5812
# 5 -4.8680 7.5566 -14.5136 -6.9223 31.5022 8.7844
# 6 11.7667 -10.0678 -9.4802 -6.5812 8.7844 15.0225
#
#
#
# Elastic Compliance Matrix: (Units=1/GPa)
#
#
# Indices 1 2 3 4 5 6 
#
# 1 0.012896 -0.002858 -0.000525 -0.002254 0.006763 -0.017290
# 2 -0.002858 0.009096 -0.001731 0.000403 -0.006454 0.011193
# 3 -0.000525 -0.001731 0.004366 -0.001530 0.001956 0.000193
# 4 -0.002254 0.000403 -0.001530 0.021069 0.000726 0.009876
# 5 0.006763 -0.006454 0.001956 0.000726 0.044983 -0.034373
# 6 -0.017290 0.011193 0.000193 0.009876 -0.034373 0.112159
#
#
# Mechanical properties :
#
#
# Convention : Reuss Voigt Hill
#
# Bulk Modulus (GPa) = 61.99718 80.05869 71.02793
# Shear Modulus (GPa) = 22.70919 47.73384 35.22151
#
# Velocity S-wave (km/s) = 2.91677 4.22877 3.63250
# Velocity P-wave (km/s) = 5.87957 7.33728 6.64850
#
# Compressibility (1/GPa) = 0.01612976
#
# Stress axis : x y z
#
# Youngs Moduli (GPa) = 77.54154 109.93330 229.03161
#
# Poissons Ratio (x) = 0.31421 0.12031
# Poissons Ratio (y) = 0.22163 0.39648
# Poissons Ratio (z) = 0.04073 0.19031
#
# Static dielectric constant tensor:
#      x y z
#    x 2.173760 0.020130 -0.035100 
#    y 0.020130 2.012890 0.032210 
#    z -0.035100 0.032210 2.197250 
# 
# From -- ./inp_files/51537.got.cif
#   From: 2010.05.17/outbox.cif.g08.bks.cpg/sg2_26_cif.got.tgz:51537.got - 2010.06.03 11:33:40.
