data_PCOD9062321
_publ_section_title
;
Structure prediction by ZEFSAII (Michael W. Deem and Ramdas Pophale) SiO2 
 PCOD9062321
Probable space group: P -1
;
_chemical_formula_sum "Si O2"
_cell_formula_units_Z 13
_cell_length_a 10.675120
_cell_length_b 9.393583
_cell_length_c 17.508507
_cell_angle_alpha 134.557676
_cell_angle_beta 149.476547
_cell_angle_gamma 38.358282
_cell_volume 551.467307
_symmetry_space_group_name_H-M "P -1"
_symmetry_group_IT_number 2
_symmetry_cell_setting 'triclinic'
loop_
_space_group_symop_operation_xyz
x,y,z
-x,-y,-z
loop_
_atom_site_type_symbol
_atom_site_label
_atom_site_fract_x
_atom_site_fract_y
_atom_site_fract_z
Si Si1 0.030937 0.256141 0.447786
Si Si2 0.385952 0.896719 0.225740
Si Si3 0.000000 0.500000 0.000000
Si Si4 0.023251 0.030853 0.826711
Si Si5 0.295818 0.826727 0.630295
Si Si6 0.127024 0.379495 0.195844
Si Si7 0.560989 0.776453 0.113690
O O1 0.321538 0.125391 0.599049
O O2 0.000000 0.500000 0.500000
O O3 0.772510 0.291499 0.379974
O O4 0.041756 0.098299 0.323886
O O5 0.472201 0.733611 0.135227
O O6 0.229542 0.872108 0.207231
O O7 0.181796 0.145706 0.176604
O O8 0.050273 0.249013 0.896881
O O9 0.966097 0.599044 0.932727
O O10 0.313828 0.837949 0.946396
O O11 0.561416 0.641506 0.650738
O O12 0.411432 0.993851 0.782017
O O13 0.000000 0.000000 0.500000
O O14 0.873941 0.581764 0.184269
#
# Coordination Sequence:
#
# PCOD9062321 Si02
#       7
#     2   2   1   2   2   2   2
#     4  12  29  51  80 117 160 208 262 326 398 466
#     4  11  26  54  74 115 162 209 264 319 399 482
#     4  12  26  50  78 118 154 204 256 336 390 450
#     4  12  28  50  81 115 163 203 269 329 391 470
#     4  11  23  51  75 111 156 200 267 319 383 484
#     4  11  26  45  80 113 154 206 261 320 401 452
#     4  11  25  49  81 115 149 213 267 323 394 461
#
# _framework density 23.573471999999999
#
# number of rings (size 3 to 8) (size 9 to 14) (size 15 to 20)
#    0.000    0.615    6.154    1.846    6.462    2.462 
#    5.538    0.000    0.000    0.000    0.000    0.000 
#    0.000    0.000    0.000    0.000    0.000    0.000 
#
# Total GULP energy -72483.932493 kJ/mol
# GULP energy per Si atom -5575.687115 kJ/mol
# Density = 2.351982 g / cm^3
# Si number density = 23.573472 Si / 1000 Ang^3
#
#
#
# Elastic Constant Matrix: (Units=GPa)
#
#
# Indices 1 2 3 4 5 6 
#
# 1 113.3585 47.4204 34.1523 -9.8688 14.8038 -24.8343
# 2 47.4204 114.5066 38.0455 12.0071 -5.8250 -21.6619
# 3 34.1523 38.0455 106.4403 -2.9470 -14.6809 -8.1710
# 4 -9.8688 12.0071 -2.9470 29.0164 -3.3780 13.1418
# 5 14.8038 -5.8250 -14.6809 -3.3780 39.8497 -11.1260
# 6 -24.8343 -21.6619 -8.1710 13.1418 -11.1260 43.4168
#
#
#
# Elastic Compliance Matrix: (Units=1/GPa)
#
#
# Indices 1 2 3 4 5 6 
#
# 1 0.013420 -0.005077 -0.003066 0.004964 -0.006011 0.001523
# 2 -0.005077 0.014791 -0.002698 -0.011492 0.004479 0.008594
# 3 -0.003066 -0.002698 0.012136 0.001944 0.005372 -0.000028
# 4 0.004964 -0.011492 0.001944 0.048961 -0.003771 -0.018315
# 5 -0.006011 0.004479 0.005372 -0.003771 0.032211 0.009204
# 6 0.001523 0.008594 -0.000028 -0.018315 0.009204 0.036089
#
#
# Mechanical properties :
#
#
# Convention : Reuss Voigt Hill
#
# Bulk Modulus (GPa) = 53.57898 63.72687 58.65292
# Shear Modulus (GPa) = 26.95245 36.76906 31.86075
#
# Velocity S-wave (km/s) = 3.38500 3.95367 3.68033
# Velocity P-wave (km/s) = 6.16891 6.92344 6.55704
#
# Compressibility (1/GPa) = 0.01866404
#
# Stress axis : x y z
#
# Youngs Moduli (GPa) = 74.51566 67.60826 82.40036
#
# Poissons Ratio (x) = 0.34326 0.25263
# Poissons Ratio (y) = 0.37833 0.22235
# Poissons Ratio (z) = 0.22846 0.18243
#
# Static dielectric constant tensor:
#      x y z
#    x 1.887080 -0.040590 -0.014210 
#    y -0.040590 1.918670 0.016160 
#    z -0.014210 0.016160 1.912600 
# 
# From -- ./inp_files/493731.got.cif
#   From: 2010.05.17/outbox.cif.g08.bks.cpg/sg2_247_cif.got.tgz:493731.got - 2010.06.03 11:33:40.
