data_PCOD9062599
_publ_section_title
;
Structure prediction by ZEFSAII (Michael W. Deem and Ramdas Pophale) SiO2 
 PCOD9062599
Probable space group: P -1
;
_chemical_formula_sum "Si O2"
_cell_formula_units_Z 16
_cell_length_a 10.320182
_cell_length_b 9.176027
_cell_length_c 12.717398
_cell_angle_alpha 132.746985
_cell_angle_beta 57.094229
_cell_angle_gamma 106.719432
_cell_volume 736.065491
_symmetry_space_group_name_H-M "P -1"
_symmetry_group_IT_number 2
_symmetry_cell_setting 'triclinic'
loop_
_space_group_symop_operation_xyz
x,y,z
-x,-y,-z
loop_
_atom_site_type_symbol
_atom_site_label
_atom_site_fract_x
_atom_site_fract_y
_atom_site_fract_z
Si Si1 0.739037 0.532106 0.961427
Si Si2 0.371208 0.119945 0.189383
Si Si3 0.771151 0.687299 0.243446
Si Si4 0.043861 0.275011 0.409342
Si Si5 0.489046 0.527955 0.393743
Si Si6 0.015865 0.235767 0.623611
Si Si7 0.299530 0.858082 0.500799
Si Si8 0.449321 0.800767 0.172437
O O1 0.863922 0.401186 0.770014
O O2 0.095726 0.271217 0.714803
O O3 0.814708 0.589038 0.064341
O O4 0.634205 0.729986 0.061465
O O5 0.195465 0.141203 0.229271
O O6 0.418197 0.340101 0.286321
O O7 0.392700 0.003284 0.234655
O O8 0.500000 0.000000 0.000000
O O9 0.658007 0.552583 0.285066
O O10 0.685729 0.911175 0.370978
O O11 0.000000 0.500000 0.500000
O O12 0.107067 0.289400 0.507591
O O13 0.883311 0.177076 0.435223
O O14 0.500000 0.500000 0.500000
O O15 0.381549 0.721532 0.490075
O O16 0.616215 0.373292 0.952326
O O17 0.000000 0.000000 0.500000
O O18 0.378236 0.806861 0.325630
#
# Coordination Sequence:
#
# PCOD9062599 Si02
#       8
#     2   2   2   2   2   2   2   2
#     4  11  24  41  72 106 144 177 244 300 354 415
#     4  12  28  46  73 107 145 188 240 299 364 425
#     4  12  25  43  73 104 144 187 240 301 362 428
#     4  12  25  45  74 102 141 188 241 297 354 428
#     4  12  26  45  67 105 150 187 234 298 363 429
#     4  12  24  46  71 102 138 189 242 294 355 435
#     4  12  24  47  74 105 140 193 248 288 358 441
#     4  11  24  45  76 104 143 194 245 296 354 434
#
# _framework density 21.737196999999998
#
# number of rings (size 3 to 8) (size 9 to 14) (size 15 to 20)
#    0.000    0.250    5.000    4.500    5.250    0.000 
#    2.250    0.000    0.000    2.250    0.000    0.000 
#    0.000    0.000    0.000    0.000    0.000    0.000 
#
# Total GULP energy -89362.025888 kJ/mol
# GULP energy per Si atom -5585.126618 kJ/mol
# Density = 2.168772 g / cm^3
# Si number density = 21.737197 Si / 1000 Ang^3
#
#
#
# Elastic Constant Matrix: (Units=GPa)
#
#
# Indices 1 2 3 4 5 6 
#
# 1 84.9118 18.5462 32.1373 1.1147 -3.3268 -5.3495
# 2 18.5462 119.0957 28.0376 12.4108 -8.7690 -17.8177
# 3 32.1373 28.0376 119.7214 4.3288 -18.1697 -7.4640
# 4 1.1147 12.4108 4.3288 22.5974 -1.6153 -3.8852
# 5 -3.3268 -8.7690 -18.1697 -1.6153 47.4285 5.3297
# 6 -5.3495 -17.8177 -7.4640 -3.8852 5.3297 40.5284
#
#
#
# Elastic Compliance Matrix: (Units=1/GPa)
#
#
# Indices 1 2 3 4 5 6 
#
# 1 0.013343 -0.001308 -0.003357 0.000782 -0.000647 0.000728
# 2 -0.001308 0.009984 -0.001515 -0.004495 0.000636 0.003423
# 3 -0.003357 -0.001515 0.010153 -0.000665 0.003322 0.000260
# 4 0.000782 -0.004495 -0.000665 0.047261 0.000298 0.002496
# 5 -0.000647 0.000636 0.003322 0.000298 0.022681 -0.002148
# 6 0.000728 0.003423 0.000260 0.002496 -0.002148 0.026845
#
#
# Mechanical properties :
#
#
# Convention : Reuss Voigt Hill
#
# Bulk Modulus (GPa) = 47.34337 53.46346 50.40342
# Shear Modulus (GPa) = 33.40777 38.44472 35.92625
#
# Velocity S-wave (km/s) = 3.92458 4.21005 4.06982
# Velocity P-wave (km/s) = 6.50873 6.94849 6.73220
#
# Compressibility (1/GPa) = 0.02112228
#
# Stress axis : x y z
#
# Youngs Moduli (GPa) = 74.94444 100.15779 98.49388
#
# Poissons Ratio (x) = 0.13099 0.33060
# Poissons Ratio (y) = 0.09802 0.14918
# Poissons Ratio (z) = 0.25155 0.15170
#
# Static dielectric constant tensor:
#      x y z
#    x 1.861640 -0.010200 -0.072760 
#    y -0.010200 1.782250 -0.024190 
#    z -0.072760 -0.024190 1.894090 
# 
# From -- ./inp_files/516201.got.cif
#   From: 2010.05.17/outbox.cif.g08.bks.cpg/sg2_259_cif.got.tgz:516201.got - 2010.06.03 11:33:40.
