data_PCOD9062315
_publ_section_title
;
Structure prediction by ZEFSAII (Michael W. Deem and Ramdas Pophale) SiO2 
 PCOD9062315
Probable space group: P -1
;
_chemical_formula_sum "Si O2"
_cell_formula_units_Z 10
_cell_length_a 17.808585
_cell_length_b 9.224150
_cell_length_c 8.631019
_cell_angle_alpha 33.580275
_cell_angle_beta 42.940094
_cell_angle_gamma 34.837133
_cell_volume 442.711553
_symmetry_space_group_name_H-M "P -1"
_symmetry_group_IT_number 2
_symmetry_cell_setting 'triclinic'
loop_
_space_group_symop_operation_xyz
x,y,z
-x,-y,-z
loop_
_atom_site_type_symbol
_atom_site_label
_atom_site_fract_x
_atom_site_fract_y
_atom_site_fract_z
Si Si1 0.079558 0.347074 0.858358
Si Si2 0.860354 0.767368 0.578675
Si Si3 0.362250 0.173984 0.460156
Si Si4 0.167898 0.763301 0.065796
Si Si5 0.420659 0.868847 0.310602
O O1 0.983817 0.614822 0.640669
O O2 0.231934 0.248369 0.688955
O O3 0.000000 0.500000 0.000000
O O4 0.085999 0.031821 0.080506
O O5 0.864451 0.476771 0.747421
O O6 0.722362 0.956314 0.711098
O O7 0.844981 0.020817 0.251929
O O8 0.500000 0.000000 0.500000
O O9 0.391802 0.958965 0.455275
O O10 0.690632 0.485123 0.842946
O O11 0.500000 0.000000 0.000000
O O12 0.500000 0.500000 0.500000
#
# Coordination Sequence:
#
# PCOD9062315 Si02
#       5
#     2   2   2   2   2
#     4  12  28  47  74 113 149 196 241 308 371 431
#     4  11  25  47  78 104 146 190 253 300 359 440
#     4  11  28  50  73 108 155 193 241 306 374 436
#     4  11  23  50  76 104 142 199 243 303 365 428
#     4  11  24  44  74 106 138 191 244 297 359 430
#
# _framework density 22.588073000000001
#
# number of rings (size 3 to 8) (size 9 to 14) (size 15 to 20)
#    0.000    0.800    4.000    3.600    5.600    3.200 
#    0.000    0.000    0.000    0.000    0.000    0.000 
#    0.000    0.000    0.000    0.000    0.000    0.000 
#
# Total GULP energy -55787.876784 kJ/mol
# GULP energy per Si atom -5578.787678 kJ/mol
# Density = 2.253666 g / cm^3
# Si number density = 22.588073 Si / 1000 Ang^3
#
#
#
# Elastic Constant Matrix: (Units=GPa)
#
#
# Indices 1 2 3 4 5 6 
#
# 1 186.4607 57.4711 74.5219 4.3514 14.6658 -42.3154
# 2 57.4711 190.4343 100.1191 -2.3560 2.4392 -26.0480
# 3 74.5219 100.1191 159.9305 -18.7807 -5.6427 -9.9299
# 4 4.3514 -2.3560 -18.7807 49.6148 -11.9659 -3.4441
# 5 14.6658 2.4392 -5.6427 -11.9659 37.9014 0.5987
# 6 -42.3154 -26.0480 -9.9299 -3.4441 0.5987 40.7547
#
#
#
# Elastic Compliance Matrix: (Units=1/GPa)
#
#
# Indices 1 2 3 4 5 6 
#
# 1 0.009849 0.001180 -0.005379 -0.003631 -0.005983 0.009451
# 2 0.001180 0.008836 -0.006124 -0.002302 -0.002746 0.005226
# 3 -0.005379 -0.006124 0.013207 0.006352 0.006539 -0.005840
# 4 -0.003631 -0.002302 0.006352 0.025176 0.010474 -0.001720
# 5 -0.005983 -0.002746 0.006539 0.010474 0.033251 -0.005978
# 6 0.009451 0.005226 -0.005840 -0.001720 -0.005978 0.036210
#
#
# Mechanical properties :
#
#
# Convention : Reuss Voigt Hill
#
# Bulk Modulus (GPa) = 88.91669 111.22777 100.07223
# Shear Modulus (GPa) = 33.12933 45.96840 39.54886
#
# Velocity S-wave (km/s) = 3.83387 4.51607 4.18888
# Velocity P-wave (km/s) = 7.68427 8.74882 8.23377
#
# Compressibility (1/GPa) = 0.01124648
#
# Stress axis : x y z
#
# Youngs Moduli (GPa) = 101.53057 113.16844 75.71866
#
# Poissons Ratio (x) = -0.13352 0.40727
# Poissons Ratio (y) = -0.11979 0.46371
# Poissons Ratio (z) = 0.54610 0.69306
#
# Static dielectric constant tensor:
#      x y z
#    x 1.988090 -0.031020 -0.111310 
#    y -0.031020 1.847960 0.035380 
#    z -0.111310 0.035380 1.944600 
# 
# From -- ./inp_files/5137.got.cif
#   From: 2010.05.17/outbox.cif.g08.bks.cpg/sg2_3_cif.got.tgz:5137.got - 2010.06.03 11:33:40.
