data_PCOD9062423
_publ_section_title
;
Structure prediction by ZEFSAII (Michael W. Deem and Ramdas Pophale) SiO2 
 PCOD9062423
Probable space group: P -1
;
_chemical_formula_sum "Si O2"
_cell_formula_units_Z 16
_cell_length_a 25.431452
_cell_length_b 15.724180
_cell_length_c 5.618374
_cell_angle_alpha 116.635357
_cell_angle_beta 99.441812
_cell_angle_gamma 26.920930
_cell_volume 739.189366
_symmetry_space_group_name_H-M "P -1"
_symmetry_group_IT_number 2
_symmetry_cell_setting 'triclinic'
loop_
_space_group_symop_operation_xyz
x,y,z
-x,-y,-z
loop_
_atom_site_type_symbol
_atom_site_label
_atom_site_fract_x
_atom_site_fract_y
_atom_site_fract_z
Si Si1 0.683903 0.835925 0.459810
Si Si2 0.645224 0.730896 0.635966
Si Si3 0.899564 0.407960 0.688598
Si Si4 0.045555 0.533591 0.575564
Si Si5 0.100992 0.924099 0.491084
Si Si6 0.194738 0.943931 0.787784
Si Si7 0.610490 0.592976 0.211467
Si Si8 0.639782 0.329091 0.943691
O O1 0.646254 0.794153 0.480456
O O2 0.787799 0.725384 0.566983
O O3 0.537813 0.131553 0.673506
O O4 0.785122 0.647177 0.076167
O O5 0.794188 0.515721 0.591700
O O6 0.641121 0.625668 0.461421
O O7 0.500000 0.000000 0.000000
O O8 0.973094 0.371971 0.555815
O O9 0.016818 0.142852 0.548576
O O10 0.000000 0.500000 0.500000
O O11 0.940818 0.761985 0.964748
O O12 0.136670 0.930777 0.756504
O O13 0.253057 0.636960 0.148030
O O14 0.000000 0.000000 0.500000
O O15 0.278081 0.809061 0.426743
O O16 0.280664 0.831165 0.950290
O O17 0.597148 0.508780 0.189782
O O18 0.500000 0.500000 0.000000
#
# Coordination Sequence:
#
# PCOD9062423 Si02
#       8
#     2   2   2   2   2   2   2   2
#     4  11  24  45  67 103 142 183 249 298 370 440
#     4  11  24  40  70 101 145 187 235 310 366 441
#     4  11  24  46  68 102 145 193 244 303 370 441
#     4  11  26  45  74 101 140 194 245 310 370 443
#     4  11  25  44  74 105 148 195 238 304 370 452
#     4  11  25  50  72 109 145 191 254 305 371 446
#     4  11  25  42  68 105 136 190 242 292 370 443
#     4  11  27  49  75 104 148 195 245 315 368 442
#
# _framework density 21.645333999999998
#
# number of rings (size 3 to 8) (size 9 to 14) (size 15 to 20)
#    0.000    1.000    2.500    3.000    7.000    3.000 
#    0.000    0.000    0.000    0.000    0.000    0.000 
#    0.000    0.000    0.000    0.000    0.000    0.000 
#
# Total GULP energy -89283.301704 kJ/mol
# GULP energy per Si atom -5580.206356 kJ/mol
# Density = 2.159607 g / cm^3
# Si number density = 21.645334 Si / 1000 Ang^3
#
#
#
# Elastic Constant Matrix: (Units=GPa)
#
#
# Indices 1 2 3 4 5 6 
#
# 1 170.8924 35.4628 53.4350 4.3147 7.6274 -18.7570
# 2 35.4628 133.6076 36.2171 19.3059 -6.9291 -14.7471
# 3 53.4350 36.2171 122.7157 21.6323 7.2556 2.5573
# 4 4.3147 19.3059 21.6323 37.0893 -0.3273 3.3438
# 5 7.6274 -6.9291 7.2556 -0.3273 33.1043 0.4814
# 6 -18.7570 -14.7471 2.5573 3.3438 0.4814 35.5033
#
#
#
# Elastic Compliance Matrix: (Units=1/GPa)
#
#
# Indices 1 2 3 4 5 6 
#
# 1 0.007475 -0.000944 -0.003178 0.001131 -0.001266 0.003697
# 2 -0.000944 0.009381 -0.001880 -0.004004 0.002497 0.003877
# 3 -0.003178 -0.001880 0.011137 -0.004916 -0.002111 -0.002770
# 4 0.001131 -0.004004 -0.004916 0.032122 0.000351 -0.003742
# 5 -0.001266 0.002497 -0.002111 0.000351 0.031487 0.000061
# 6 0.003697 0.003877 -0.002770 -0.003742 0.000061 0.032281
#
#
# Mechanical properties :
#
#
# Convention : Reuss Voigt Hill
#
# Bulk Modulus (GPa) = 62.54374 75.27173 68.90773
# Shear Modulus (GPa) = 35.40699 41.27945 38.34322
#
# Velocity S-wave (km/s) = 4.04886 4.37175 4.21340
# Velocity P-wave (km/s) = 7.12848 7.76746 7.45482
#
# Compressibility (1/GPa) = 0.01598881
#
# Stress axis : x y z
#
# Youngs Moduli (GPa) = 133.78306 106.60203 89.79336
#
# Poissons Ratio (x) = 0.10059 0.28535
# Poissons Ratio (y) = 0.12623 0.16884
# Poissons Ratio (z) = 0.42514 0.20044
#
# Static dielectric constant tensor:
#      x y z
#    x 1.787750 -0.014280 -0.009260 
#    y -0.014280 1.838250 -0.123400 
#    z -0.009260 -0.123400 1.731950 
# 
# From -- ./inp_files/124390.got.cif
#   From: 2010.05.17/outbox.cif.g08.bks.cpg/sg2_63_cif.got.tgz:124390.got - 2010.06.03 11:33:40.
