data_PCOD9062066
_publ_section_title
;
Structure prediction by ZEFSAII (Michael W. Deem and Ramdas Pophale) SiO2 
 PCOD9062066
Probable space group: P -1
;
_chemical_formula_sum "Si O2"
_cell_formula_units_Z 14
_cell_length_a 8.641368
_cell_length_b 11.976368
_cell_length_c 14.617346
_cell_angle_alpha 151.852371
_cell_angle_beta 51.231550
_cell_angle_gamma 120.392820
_cell_volume 552.012628
_symmetry_space_group_name_H-M "P -1"
_symmetry_group_IT_number 2
_symmetry_cell_setting 'triclinic'
loop_
_space_group_symop_operation_xyz
x,y,z
-x,-y,-z
loop_
_atom_site_type_symbol
_atom_site_label
_atom_site_fract_x
_atom_site_fract_y
_atom_site_fract_z
Si Si1 0.414001 0.771397 0.410678
Si Si2 0.621004 0.161069 0.864845
Si Si3 0.291358 0.341037 0.622191
Si Si4 0.911509 0.189572 0.279769
Si Si5 0.704150 0.121364 0.002322
Si Si6 0.181737 0.260295 0.094266
Si Si7 0.829622 0.387739 0.789853
O O1 0.616378 0.659846 0.310704
O O2 0.254072 0.770390 0.552403
O O3 0.274686 0.708108 0.330549
O O4 0.500000 0.000000 0.500000
O O5 0.694541 0.327277 0.879638
O O6 0.609819 0.899002 0.637964
O O7 0.755120 0.130675 0.882455
O O8 0.402197 0.283831 0.064460
O O9 0.319805 0.600505 0.756799
O O10 0.056990 0.306811 0.676479
O O11 0.005982 0.374605 0.309752
O O12 0.821476 0.020170 0.117458
O O13 0.113904 0.046875 0.142490
O O14 0.500000 0.000000 0.000000
O O15 0.166116 0.345379 0.056099
#
# Coordination Sequence:
#
# PCOD9062066 Si02
#       7
#     2   2   2   2   2   2   2
#     4  12  26  48  76 109 152 200 254 313 379 452
#     4  12  25  48  77 109 154 193 260 314 376 455
#     4  12  27  49  75 113 151 199 254 317 373 451
#     4  11  24  47  70 103 152 195 249 310 377 454
#     4  12  27  49  74 114 150 199 257 309 385 458
#     4  11  23  47  71 104 148 201 243 310 385 438
#     4  12  26  48  76 111 151 200 255 314 383 446
#
# _framework density 25.361740999999999
#
# number of rings (size 3 to 8) (size 9 to 14) (size 15 to 20)
#    0.000    0.286    5.714    2.571    2.000    2.857 
#    2.571    0.000    0.000    0.000    0.000    0.000 
#    0.000    0.000    0.000    0.000    0.000    0.000 
#
# Total GULP energy -78107.778644 kJ/mol
# GULP energy per Si atom -5579.127046 kJ/mol
# Density = 2.530402 g / cm^3
# Si number density = 25.361741 Si / 1000 Ang^3
#
#
#
# Elastic Constant Matrix: (Units=GPa)
#
#
# Indices 1 2 3 4 5 6 
#
# 1 182.0344 31.3094 30.0738 -10.5405 -9.5099 4.6910
# 2 31.3094 155.6411 45.8210 -12.7794 -0.5145 5.5300
# 3 30.0738 45.8210 72.6285 -10.6733 6.4389 7.5683
# 4 -10.5405 -12.7794 -10.6733 39.1775 -6.6100 2.7401
# 5 -9.5099 -0.5145 6.4389 -6.6100 42.1964 -4.0433
# 6 4.6910 5.5300 7.5683 2.7401 -4.0433 57.6355
#
#
#
# Elastic Compliance Matrix: (Units=1/GPa)
#
#
# Indices 1 2 3 4 5 6 
#
# 1 0.006111 -0.000468 -0.002216 0.001213 0.001891 -0.000087
# 2 -0.000468 0.008035 -0.004745 0.001365 0.000920 -0.000110
# 3 -0.002216 -0.004745 0.018558 0.002522 -0.003199 -0.002146
# 4 0.001213 0.001365 0.002522 0.027788 0.004105 -0.001594
# 5 0.001891 0.000920 -0.003199 0.004105 0.025437 0.001767
# 6 -0.000087 -0.000110 -0.002146 -0.001594 0.001767 0.017850
#
#
# Mechanical properties :
#
#
# Convention : Reuss Voigt Hill
#
# Bulk Modulus (GPa) = 56.03283 69.41248 62.72266
# Shear Modulus (GPa) = 40.13337 48.00853 44.07095
#
# Velocity S-wave (km/s) = 3.98230 4.35553 4.17309
# Velocity P-wave (km/s) = 6.57924 7.26103 6.92852
#
# Compressibility (1/GPa) = 0.01784668
#
# Stress axis : x y z
#
# Youngs Moduli (GPa) = 163.63102 124.45252 53.88635
#
# Poissons Ratio (x) = 0.05827 0.11939
# Poissons Ratio (y) = 0.07661 0.25569
# Poissons Ratio (z) = 0.36254 0.59052
#
# Static dielectric constant tensor:
#      x y z
#    x 1.964510 0.008070 -0.000780 
#    y 0.008070 2.264860 0.099620 
#    z -0.000780 0.099620 2.144960 
# 
# From -- ./inp_files/501065.got.cif
#   From: 2010.05.17/outbox.cif.g08.bks.cpg/sg2_251_cif.got.tgz:501065.got - 2010.06.03 11:33:40.
