data_PCOD9062307
_publ_section_title
;
Structure prediction by ZEFSAII (Michael W. Deem and Ramdas Pophale) SiO2 
 PCOD9062307
Probable space group: P -1
;
_chemical_formula_sum "Si O2"
_cell_formula_units_Z 12
_cell_length_a 12.376497
_cell_length_b 13.470906
_cell_length_c 7.010554
_cell_angle_alpha 101.440451
_cell_angle_beta 122.421813
_cell_angle_gamma 32.432227
_cell_volume 437.858400
_symmetry_space_group_name_H-M "P -1"
_symmetry_group_IT_number 2
_symmetry_cell_setting 'triclinic'
loop_
_space_group_symop_operation_xyz
x,y,z
-x,-y,-z
loop_
_atom_site_type_symbol
_atom_site_label
_atom_site_fract_x
_atom_site_fract_y
_atom_site_fract_z
Si Si1 0.468130 0.143189 0.049433
Si Si2 0.093957 0.334787 0.329100
Si Si3 0.745055 0.460245 0.317346
Si Si4 0.567732 0.218461 0.525093
Si Si5 0.300235 0.736381 0.666863
Si Si6 0.264054 0.042661 0.140107
O O1 0.510342 0.170133 0.300002
O O2 0.086551 0.268181 0.107936
O O3 0.153746 0.407477 0.802302
O O4 0.703401 0.012103 0.067567
O O5 0.023649 0.305382 0.420313
O O6 0.410257 0.153611 0.578290
O O7 0.660768 0.592379 0.460190
O O8 0.734851 0.356134 0.354071
O O9 0.520209 0.620155 0.990932
O O10 0.607064 0.291572 0.465395
O O11 0.813275 0.995886 0.807818
O O12 0.000000 0.000000 0.500000
O O13 0.500000 0.000000 0.000000
#
# Coordination Sequence:
#
# PCOD9062307 Si02
#       6
#     2   2   2   2   2   2
#     4  12  26  46  71 106 153 207 254 299 376 452
#     4  11  23  50  70 107 156 196 251 317 371 446
#     4  11  25  50  77 110 156 193 254 325 376 452
#     4  12  24  48  71 112 149 200 252 310 383 444
#     4  11  25  49  80 110 144 199 257 314 393 457
#     4  11  25  44  73 106 155 203 247 314 368 452
#
# _framework density 27.406122
#
# number of rings (size 3 to 8) (size 9 to 14) (size 15 to 20)
#    0.000    0.667    3.333    4.000    0.000    3.333 
#    9.000    0.000    0.000    0.000    0.000    0.000 
#    0.000    0.000    0.000    0.000    0.000    0.000 
#
# Total GULP energy -67234.622403 kJ/mol
# GULP energy per Si atom -5602.885200 kJ/mol
# Density = 2.734374 g / cm^3
# Si number density = 27.406122 Si / 1000 Ang^3
#
#
#
# Elastic Constant Matrix: (Units=GPa)
#
#
# Indices 1 2 3 4 5 6 
#
# 1 171.0011 46.6449 41.3541 4.3318 -28.4516 30.7777
# 2 46.6449 182.7352 37.4223 23.9877 -3.8224 24.5637
# 3 41.3541 37.4223 125.2253 11.3107 -9.6572 -7.7400
# 4 4.3318 23.9877 11.3107 48.9001 -6.3922 -4.4213
# 5 -28.4516 -3.8224 -9.6572 -6.3922 44.2212 3.3690
# 6 30.7777 24.5637 -7.7400 -4.4213 3.3690 56.6816
#
#
#
# Elastic Compliance Matrix: (Units=1/GPa)
#
#
# Indices 1 2 3 4 5 6 
#
# 1 0.008412 -0.000975 -0.002425 0.000550 0.005239 -0.004745
# 2 -0.000975 0.006862 -0.001664 -0.003240 -0.000646 -0.002886
# 3 -0.002425 -0.001664 0.009567 -0.000885 0.000007 0.003275
# 4 0.000550 -0.003240 -0.000885 0.022819 0.002982 0.002587
# 5 0.005239 -0.000646 0.000007 0.002982 0.026660 -0.003916
# 6 -0.004745 -0.002886 0.003275 0.002587 -0.003916 0.022351
#
#
# Mechanical properties :
#
#
# Convention : Reuss Voigt Hill
#
# Bulk Modulus (GPa) = 67.97576 81.08936 74.53256
# Shear Modulus (GPa) = 44.76100 53.52995 49.14548
#
# Velocity S-wave (km/s) = 4.04573 4.42431 4.23925
# Velocity P-wave (km/s) = 6.83234 7.46670 7.15655
#
# Compressibility (1/GPa) = 0.01471113
#
# Stress axis : x y z
#
# Youngs Moduli (GPa) = 118.87229 145.73318 104.52852
#
# Poissons Ratio (x) = 0.14215 0.25353
# Poissons Ratio (y) = 0.11595 0.17394
# Poissons Ratio (z) = 0.28832 0.24250
#
# Static dielectric constant tensor:
#      x y z
#    x 2.317770 0.024360 -0.063170 
#    y 0.024360 2.100130 -0.028810 
#    z -0.063170 -0.028810 2.223600 
# 
# From -- ./inp_files/73219.got.cif
#   From: 2010.05.17/outbox.cif.g08.bks.cpg/sg2_37_cif.got.tgz:73219.got - 2010.06.03 11:33:40.
