data_PCOD9062974
_publ_section_title
;
Structure prediction by ZEFSAII (Michael W. Deem and Ramdas Pophale) SiO2 
 PCOD9062974
Probable space group: P -1
;
_chemical_formula_sum "Si O2"
_cell_formula_units_Z 14
_cell_length_a 9.467401
_cell_length_b 12.819160
_cell_length_c 9.134269
_cell_angle_alpha 45.143292
_cell_angle_beta 134.068388
_cell_angle_gamma 125.220797
_cell_volume 556.495355
_symmetry_space_group_name_H-M "P -1"
_symmetry_group_IT_number 2
_symmetry_cell_setting 'triclinic'
loop_
_space_group_symop_operation_xyz
x,y,z
-x,-y,-z
loop_
_atom_site_type_symbol
_atom_site_label
_atom_site_fract_x
_atom_site_fract_y
_atom_site_fract_z
Si Si1 0.629894 0.274421 0.255308
Si Si2 0.627230 0.216067 0.853263
Si Si3 0.975698 0.669874 0.343147
Si Si4 0.320056 0.150602 0.947211
Si Si5 0.235008 0.513713 0.135071
Si Si6 0.989665 0.113956 0.116865
Si Si7 0.611126 0.763084 0.604865
O O1 0.836811 0.254619 0.498608
O O2 0.497921 0.317829 0.251868
O O3 0.474888 0.141551 0.199316
O O4 0.692261 0.388517 0.053865
O O5 0.448486 0.148761 0.896157
O O6 0.671465 0.390480 0.753905
O O7 0.832142 0.153377 0.084098
O O8 0.557189 0.185514 0.667377
O O9 0.975596 0.749154 0.107630
O O10 0.000000 0.500000 0.500000
O O11 0.771223 0.697222 0.245256
O O12 0.125122 0.026703 0.913965
O O13 0.295328 0.354287 0.309866
O O14 0.000000 0.500000 0.000000
O O15 0.205309 0.109873 0.343246
#
# Coordination Sequence:
#
# PCOD9062974 Si02
#       7
#     2   2   2   2   2   2   2
#     4  11  26  43  70 100 140 186 232 283 351 416
#     4  11  26  44  69 104 137 186 237 287 348 417
#     4  12  27  43  73 106 136 180 240 290 344 415
#     4  11  28  47  71 102 145 185 232 291 350 411
#     4  11  24  43  68 102 146 181 232 294 352 406
#     4  12  25  48  71 103 144 186 234 287 346 424
#     4  12  24  42  70 101 142 185 230 289 351 413
#
# _framework density 25.157440999999999
#
# number of rings (size 3 to 8) (size 9 to 14) (size 15 to 20)
#    0.000    0.571    4.286    2.571    6.000    2.286 
#    0.000    0.000    0.000    0.000    0.000    0.000 
#    0.000    0.000    0.000    0.000    0.000    0.000 
#
# Total GULP energy -78401.161714 kJ/mol
# GULP energy per Si atom -5600.082980 kJ/mol
# Density = 2.510018 g / cm^3
# Si number density = 25.157441 Si / 1000 Ang^3
#
#
#
# Elastic Constant Matrix: (Units=GPa)
#
#
# Indices 1 2 3 4 5 6 
#
# 1 147.7638 26.7214 32.1028 8.1013 21.0591 4.1402
# 2 26.7214 109.4049 39.8579 26.8593 3.0493 6.1310
# 3 32.1028 39.8579 84.2540 36.9454 17.5233 4.3395
# 4 8.1013 26.8593 36.9454 48.4979 2.1831 11.8409
# 5 21.0591 3.0493 17.5233 2.1831 40.0972 5.0856
# 6 4.1402 6.1310 4.3395 11.8409 5.0856 35.3219
#
#
#
# Elastic Compliance Matrix: (Units=1/GPa)
#
#
# Indices 1 2 3 4 5 6 
#
# 1 0.007884 -0.001310 -0.002374 0.001466 -0.003025 -0.000461
# 2 -0.001310 0.011666 -0.003981 -0.003147 0.001786 -0.000584
# 3 -0.002374 -0.003981 0.023005 -0.015672 -0.008232 0.004582
# 4 0.001466 -0.003147 -0.015672 0.036419 0.005696 -0.010729
# 5 -0.003025 0.001786 -0.008232 0.005696 0.030342 -0.005222
# 6 -0.000461 -0.000584 0.004582 -0.010729 -0.005222 0.032252
#
#
# Mechanical properties :
#
#
# Convention : Reuss Voigt Hill
#
# Bulk Modulus (GPa) = 36.73213 59.86523 48.29868
# Shear Modulus (GPa) = 30.12511 40.96611 35.54561
#
# Velocity S-wave (km/s) = 3.46419 4.03971 3.76297
# Velocity P-wave (km/s) = 5.53475 6.75329 6.17415
#
# Compressibility (1/GPa) = 0.02722412
#
# Stress axis : x y z
#
# Youngs Moduli (GPa) = 126.83987 85.71613 43.46905
#
# Poissons Ratio (x) = 0.11233 0.10320
# Poissons Ratio (y) = 0.16622 0.17305
# Poissons Ratio (z) = 0.30112 0.34124
#
# Static dielectric constant tensor:
#      x y z
#    x 1.938270 -0.004690 -0.009110 
#    y -0.004690 2.040240 -0.005170 
#    z -0.009110 -0.005170 1.952070 
# 
# From -- ./inp_files/184628.got.cif
#   From: 2010.05.17/outbox.cif.g08.bks.cpg/sg2_93_cif.got.tgz:184628.got - 2010.06.03 11:33:40.
