data_PCOD9062081
_publ_section_title
;
Structure prediction by ZEFSAII (Michael W. Deem and Ramdas Pophale) SiO2 
 PCOD9062081
Probable space group: P -1
;
_chemical_formula_sum "Si O2"
_cell_formula_units_Z 13
_cell_length_a 9.556900
_cell_length_b 8.728087
_cell_length_c 8.953434
_cell_angle_alpha 66.377323
_cell_angle_beta 125.231546
_cell_angle_gamma 93.629071
_cell_volume 544.676322
_symmetry_space_group_name_H-M "P -1"
_symmetry_group_IT_number 2
_symmetry_cell_setting 'triclinic'
loop_
_space_group_symop_operation_xyz
x,y,z
-x,-y,-z
loop_
_atom_site_type_symbol
_atom_site_label
_atom_site_fract_x
_atom_site_fract_y
_atom_site_fract_z
Si Si1 0.490397 0.612134 0.300067
Si Si2 0.342051 0.842677 0.677978
Si Si3 0.292768 0.382976 0.110886
Si Si4 0.812684 0.486923 0.328593
Si Si5 0.125025 0.118062 0.223048
Si Si6 0.240268 0.962018 0.030769
Si Si7 0.500000 0.000000 0.000000
O O1 0.500000 0.500000 0.500000
O O2 0.339746 0.552864 0.137105
O O3 0.667594 0.560767 0.336324
O O4 0.427745 0.818291 0.200255
O O5 0.519076 0.753952 0.729873
O O6 0.220767 0.703634 0.651063
O O7 0.234663 0.010601 0.463561
O O8 0.408318 0.891231 0.859213
O O9 0.162606 0.305869 0.163786
O O10 0.219955 0.420917 0.886557
O O11 0.000000 0.500000 0.500000
O O12 0.199219 0.029810 0.145035
O O13 0.923419 0.106875 0.101066
O O14 0.299683 0.090742 0.904445
#
# Coordination Sequence:
#
# PCOD9062081 Si02
#       7
#     2   2   2   2   2   2   1
#     4  11  25  44  72 104 141 185 240 292 352 425
#     4  11  24  45  72 108 134 196 231 293 360 424
#     4  11  23  47  72 102 141 190 231 298 356 428
#     4  11  26  47  77 100 145 190 241 288 362 425
#     4  11  26  44  75 101 146 183 241 286 364 424
#     4  11  25  44  68 106 141 186 229 299 350 422
#     4  12  24  42  72  96 150 170 242 286 346 418
#
# _framework density 23.867384999999999
#
# number of rings (size 3 to 8) (size 9 to 14) (size 15 to 20)
#    0.000    0.923    1.538    6.000    8.615    1.231 
#    2.769    0.000    0.000    0.000    0.000    0.000 
#    0.000    0.000    0.000    0.000    0.000    0.000 
#
# Total GULP energy -72571.368679 kJ/mol
# GULP energy per Si atom -5582.412975 kJ/mol
# Density = 2.381306 g / cm^3
# Si number density = 23.867385 Si / 1000 Ang^3
#
#
#
# Elastic Constant Matrix: (Units=GPa)
#
#
# Indices 1 2 3 4 5 6 
#
# 1 117.0939 38.7288 47.4716 16.6508 17.6895 28.3159
# 2 38.7288 113.5728 28.3650 21.5203 18.1588 21.5441
# 3 47.4716 28.3650 88.4027 10.5844 16.1906 15.1421
# 4 16.6508 21.5203 10.5844 40.5162 17.4290 4.7998
# 5 17.6895 18.1588 16.1906 17.4290 31.7237 11.0905
# 6 28.3159 21.5441 15.1421 4.7998 11.0905 50.6329
#
#
#
# Elastic Compliance Matrix: (Units=1/GPa)
#
#
# Indices 1 2 3 4 5 6 
#
# 1 0.012661 -0.001669 -0.005102 -0.002122 -0.000770 -0.004475
# 2 -0.001669 0.011254 -0.001484 -0.003856 -0.001701 -0.002673
# 3 -0.005102 -0.001484 0.015282 0.000855 -0.004513 -0.000179
# 4 -0.002122 -0.003856 0.000855 0.034314 -0.016958 0.003034
# 5 -0.000770 -0.001701 -0.004513 -0.016958 0.046683 -0.006114
# 6 -0.004475 -0.002673 -0.000179 0.003034 -0.006114 0.024495
#
#
# Mechanical properties :
#
#
# Convention : Reuss Voigt Hill
#
# Bulk Modulus (GPa) = 44.07499 60.91114 52.49307
# Shear Modulus (GPa) = 29.62779 38.20815 33.91797
#
# Velocity S-wave (km/s) = 3.52710 4.00541 3.77384
# Velocity P-wave (km/s) = 5.92402 6.85325 6.40551
#
# Compressibility (1/GPa) = 0.02268860
#
# Stress axis : x y z
#
# Youngs Moduli (GPa) = 78.98471 88.85433 65.43591
#
# Poissons Ratio (x) = 0.14831 0.33382
# Poissons Ratio (y) = 0.13183 0.09709
# Poissons Ratio (z) = 0.40294 0.13183
#
# Static dielectric constant tensor:
#      x y z
#    x 1.793890 -0.127560 0.050440 
#    y -0.127560 1.871520 0.043830 
#    z 0.050440 0.043830 1.781820 
# 
# From -- ./inp_files/157770.got.cif
#   From: 2010.05.17/outbox.cif.g08.bks.cpg/sg2_79_cif.got.tgz:157770.got - 2010.06.03 11:33:40.
