data_PCOD9062435
_publ_section_title
;
Structure prediction by ZEFSAII (Michael W. Deem and Ramdas Pophale) SiO2 
 PCOD9062435
Probable space group: P -1
;
_chemical_formula_sum "Si O2"
_cell_formula_units_Z 12
_cell_length_a 8.384476
_cell_length_b 9.760071
_cell_length_c 12.725513
_cell_angle_alpha 101.594034
_cell_angle_beta 67.826702
_cell_angle_gamma 149.339042
_cell_volume 474.616607
_symmetry_space_group_name_H-M "P -1"
_symmetry_group_IT_number 2
_symmetry_cell_setting 'triclinic'
loop_
_space_group_symop_operation_xyz
x,y,z
-x,-y,-z
loop_
_atom_site_type_symbol
_atom_site_label
_atom_site_fract_x
_atom_site_fract_y
_atom_site_fract_z
Si Si1 0.613287 0.195851 0.580693
Si Si2 0.309788 0.500904 0.697927
Si Si3 0.252558 0.910506 0.830282
Si Si4 0.679119 0.783742 0.463078
Si Si5 0.580260 0.897305 0.861962
Si Si6 0.513665 0.345938 0.941592
O O1 0.322497 0.108760 0.615017
O O2 0.000000 0.500000 0.500000
O O3 0.500000 0.000000 0.500000
O O4 0.550640 0.104406 0.701172
O O5 0.367066 0.618022 0.590200
O O6 0.402481 0.414274 0.612522
O O7 0.537468 0.749327 0.759623
O O8 0.957312 0.226806 0.803913
O O9 0.334234 0.856811 0.894449
O O10 0.885422 0.602606 0.833248
O O11 0.255328 0.075450 0.891061
O O12 0.000000 0.000000 0.500000
O O13 0.500629 0.758328 0.966146
O O14 0.500000 0.500000 0.000000
#
# Coordination Sequence:
#
# PCOD9062435 Si02
#       6
#     2   2   2   2   2   2
#     4  12  28  46  74 108 151 192 241 299 370 441
#     4  11  24  40  72 102 141 189 244 296 357 433
#     4  12  26  49  72 104 146 189 238 303 368 431
#     4  11  25  44  70 106 150 189 252 294 368 432
#     4  12  24  45  74  99 142 191 245 294 370 433
#     4  12  28  46  73 105 142 186 249 302 364 427
#
# _framework density 25.283563999999998
#
# number of rings (size 3 to 8) (size 9 to 14) (size 15 to 20)
#    0.000    0.333    1.667    6.500    9.333    0.000 
#    0.000    0.000    0.000    0.000    0.000    0.000 
#    0.000    0.000    0.000    0.000    0.000    0.000 
#
# Total GULP energy -66942.322211 kJ/mol
# GULP energy per Si atom -5578.526851 kJ/mol
# Density = 2.522602 g / cm^3
# Si number density = 25.283564 Si / 1000 Ang^3
#
#
#
# Elastic Constant Matrix: (Units=GPa)
#
#
# Indices 1 2 3 4 5 6 
#
# 1 73.8674 35.5763 4.9728 -3.9053 15.6252 -16.4491
# 2 35.5763 163.2785 35.1184 -2.3970 2.5159 -4.6994
# 3 4.9728 35.1184 91.3975 -11.3123 -0.7497 -1.4628
# 4 -3.9053 -2.3970 -11.3123 59.0364 -3.5682 -17.4199
# 5 15.6252 2.5159 -0.7497 -3.5682 31.4907 -4.1331
# 6 -16.4491 -4.6994 -1.4628 -17.4199 -4.1331 35.8188
#
#
#
# Elastic Compliance Matrix: (Units=1/GPa)
#
#
# Indices 1 2 3 4 5 6 
#
# 1 0.019226 -0.003971 0.001006 0.003561 -0.007587 0.009205
# 2 -0.003971 0.007526 -0.002783 -0.000783 0.001055 -0.001209
# 3 0.001006 -0.002783 0.012365 0.002990 0.000636 0.002129
# 4 0.003561 -0.000783 0.002990 0.021522 0.002433 0.012402
# 5 -0.007587 0.001055 0.000636 0.002433 0.035991 0.002017
# 6 0.009205 -0.001209 0.002129 0.012402 0.002017 0.038338
#
#
# Mechanical properties :
#
#
# Convention : Reuss Voigt Hill
#
# Bulk Modulus (GPa) = 36.20680 53.31981 44.76330
# Shear Modulus (GPa) = 32.11880 42.12759 37.12319
#
# Velocity S-wave (km/s) = 3.56805 4.08635 3.83596
# Velocity P-wave (km/s) = 5.59697 6.58778 6.11248
#
# Compressibility (1/GPa) = 0.02761912
#
# Stress axis : x y z
#
# Youngs Moduli (GPa) = 52.01381 132.87523 80.87172
#
# Poissons Ratio (x) = 0.52768 -0.08133
# Poissons Ratio (y) = 0.20656 0.22509
# Poissons Ratio (z) = -0.05231 0.36983
#
# Static dielectric constant tensor:
#      x y z
#    x 2.210770 -0.232210 0.121710 
#    y -0.232210 2.403830 -0.256350 
#    z 0.121710 -0.256350 2.144320 
# 
# From -- ./inp_files/379502.got.cif
#   From: 2010.05.17/outbox.cif.g08.bks.cpg/sg2_190_cif.got.tgz:379502.got - 2010.06.03 11:33:40.
