data_PCOD9062650
_publ_section_title
;
Structure prediction by ZEFSAII (Michael W. Deem and Ramdas Pophale) SiO2 
 PCOD9062650
Probable space group: P -1
;
_chemical_formula_sum "Si O2"
_cell_formula_units_Z 12
_cell_length_a 24.900343
_cell_length_b 5.202745
_cell_length_c 6.602814
_cell_angle_alpha 48.506691
_cell_angle_beta 127.720051
_cell_angle_gamma 119.751085
_cell_volume 500.816008
_symmetry_space_group_name_H-M "P -1"
_symmetry_group_IT_number 2
_symmetry_cell_setting 'triclinic'
loop_
_space_group_symop_operation_xyz
x,y,z
-x,-y,-z
loop_
_atom_site_type_symbol
_atom_site_label
_atom_site_fract_x
_atom_site_fract_y
_atom_site_fract_z
Si Si1 0.721726 0.469571 0.852358
Si Si2 0.952116 0.758240 0.168912
Si Si3 0.363704 0.204693 0.181189
Si Si4 0.455055 0.767465 0.852291
Si Si5 0.817721 0.590742 0.670073
Si Si6 0.839066 0.853784 0.142893
O O1 0.669823 0.657949 0.765954
O O2 0.752533 0.651886 0.620533
O O3 0.686939 0.087471 0.904789
O O4 0.790280 0.509917 0.128534
O O5 0.915729 0.899089 0.207604
O O6 0.000000 0.500000 0.500000
O O7 0.885155 0.626861 0.947834
O O8 0.000000 0.000000 0.000000
O O9 0.427082 0.015941 0.495185
O O10 0.390389 0.535129 0.932324
O O11 0.500000 0.500000 0.000000
O O12 0.500000 0.000000 0.000000
O O13 0.834747 0.817662 0.392241
O O14 0.806696 0.179463 0.813320
#
# Coordination Sequence:
#
# PCOD9062650 Si02
#       6
#     2   2   2   2   2   2
#     4  11  26  47  70 112 142 187 246 294 364 423
#     4  11  24  42  66 102 138 188 244 290 360 434
#     4  12  26  45  78 105 144 191 238 292 350 431
#     4  12  26  48  72 107 148 188 236 290 350 416
#     4  11  25  44  69  98 146 185 232 310 355 419
#     4  11  25  44  69  98 146 185 232 310 355 419
#
# _framework density 23.960894
#
# number of rings (size 3 to 8) (size 9 to 14) (size 15 to 20)
#    0.000    0.667    1.667    5.000    2.333   10.667 
#    0.000    0.000    0.000    0.000    0.000    0.000 
#    0.000    0.000    0.000    0.000    0.000    0.000 
#
# Total GULP energy -67157.818729 kJ/mol
# GULP energy per Si atom -5596.484894 kJ/mol
# Density = 2.390636 g / cm^3
# Si number density = 23.960894 Si / 1000 Ang^3
#
#
#
# Elastic Constant Matrix: (Units=GPa)
#
#
# Indices 1 2 3 4 5 6 
#
# 1 175.6168 35.6901 14.5248 -10.9757 -14.2539 -24.0801
# 2 35.6901 124.5800 4.7767 9.9831 -7.2370 0.3490
# 3 14.5248 4.7767 94.4522 -7.1487 -13.4787 0.1015
# 4 -10.9757 9.9831 -7.1487 36.8274 8.5406 2.9637
# 5 -14.2539 -7.2370 -13.4787 8.5406 36.4856 -5.1511
# 6 -24.0801 0.3490 0.1015 2.9637 -5.1511 46.7410
#
#
#
# Elastic Compliance Matrix: (Units=1/GPa)
#
#
# Indices 1 2 3 4 5 6 
#
# 1 0.006941 -0.001982 -0.000521 0.001680 0.002260 0.003734
# 2 -0.001982 0.008969 -0.000170 -0.003378 0.001635 -0.000693
# 3 -0.000521 -0.000170 0.011290 0.001234 0.003649 0.000032
# 4 0.001680 -0.003378 0.001234 0.030573 -0.006971 -0.001819
# 5 0.002260 0.001635 0.003649 -0.006971 0.032322 0.005148
# 6 0.003734 -0.000693 0.000032 -0.001819 0.005148 0.024006
#
#
# Mechanical properties :
#
#
# Convention : Reuss Voigt Hill
#
# Bulk Modulus (GPa) = 45.76327 56.07023 50.91675
# Shear Modulus (GPa) = 39.45317 46.65463 43.05390
#
# Velocity S-wave (km/s) = 4.06219 4.41740 4.24351
# Velocity P-wave (km/s) = 6.41424 7.03345 6.73097
#
# Compressibility (1/GPa) = 0.02185158
#
# Stress axis : x y z
#
# Youngs Moduli (GPa) = 144.08003 111.49517 88.57201
#
# Poissons Ratio (x) = 0.22101 0.04619
# Poissons Ratio (y) = 0.28560 0.01510
# Poissons Ratio (z) = 0.07513 0.01900
#
# Static dielectric constant tensor:
#      x y z
#    x 1.931630 -0.012760 0.010490 
#    y -0.012760 2.011050 0.009660 
#    z 0.010490 0.009660 1.865910 
# 
# From -- ./inp_files/121378.got.cif
#   From: 2010.05.17/outbox.cif.g08.bks.cpg/sg2_61_cif.got.tgz:121378.got - 2010.06.03 11:33:40.
