data_PCOD9062940
_publ_section_title
;
Structure prediction by ZEFSAII (Michael W. Deem and Ramdas Pophale) SiO2 
 PCOD9062940
Probable space group: P -1
;
_chemical_formula_sum "Si O2"
_cell_formula_units_Z 12
_cell_length_a 9.435783
_cell_length_b 9.495592
_cell_length_c 7.050985
_cell_angle_alpha 106.440603
_cell_angle_beta 80.855257
_cell_angle_gamma 65.584815
_cell_volume 523.482282
_symmetry_space_group_name_H-M "P -1"
_symmetry_group_IT_number 2
_symmetry_cell_setting 'triclinic'
loop_
_space_group_symop_operation_xyz
x,y,z
-x,-y,-z
loop_
_atom_site_type_symbol
_atom_site_label
_atom_site_fract_x
_atom_site_fract_y
_atom_site_fract_z
Si Si1 0.078429 0.289941 0.625483
Si Si2 0.521917 0.326083 0.006979
Si Si3 0.388782 0.118018 0.737746
Si Si4 0.929097 0.188640 0.327696
Si Si5 0.221899 0.447483 0.375385
Si Si6 0.768496 0.039958 0.070915
O O1 0.201300 0.225609 0.746539
O O2 0.179473 0.321768 0.448199
O O3 0.018367 0.165151 0.502831
O O4 0.909227 0.466231 0.736513
O O5 0.401865 0.369594 0.228970
O O6 0.700522 0.191088 0.990974
O O7 0.500000 0.500000 0.000000
O O8 0.462248 0.234770 0.834617
O O9 0.500000 0.000000 0.500000
O O10 0.368919 0.011513 0.871266
O O11 0.822816 0.391074 0.420914
O O12 0.816319 0.106063 0.274956
O O13 0.070275 0.112548 0.110456
#
# Coordination Sequence:
#
# PCOD9062940 Si02
#       6
#     2   2   2   2   2   2
#     4   9  20  40  68  92 127 162 217 257 329 368
#     4  12  28  42  66  96 131 173 218 263 322 384
#     4  12  26  41  67  97 134 173 210 267 324 384
#     4   9  21  42  69  91 125 174 209 269 316 378
#     4   9  21  42  66  93 131 165 210 272 316 374
#     4  11  24  43  67  93 133 168 219 261 324 384
#
# _framework density 22.923411000000002
#
# number of rings (size 3 to 8) (size 9 to 14) (size 15 to 20)
#    1.000    0.667    0.000    3.500    4.667    4.667 
#    0.000    0.000    0.000    0.000    0.000    0.000 
#    0.000    0.000    0.000    0.000    0.000    0.000 
#
# Total GULP energy -66998.210379 kJ/mol
# GULP energy per Si atom -5583.184198 kJ/mol
# Density = 2.287124 g / cm^3
# Si number density = 22.923411 Si / 1000 Ang^3
#
#
#
# Elastic Constant Matrix: (Units=GPa)
#
#
# Indices 1 2 3 4 5 6 
#
# 1 74.7670 29.4033 25.6548 12.6416 24.1119 8.1371
# 2 29.4033 104.2775 28.4864 11.1199 18.2462 9.2422
# 3 25.6548 28.4864 65.3564 31.8259 11.6743 5.5203
# 4 12.6416 11.1199 31.8259 26.4266 2.8262 9.3053
# 5 24.1119 18.2462 11.6743 2.8262 48.8558 1.7149
# 6 8.1371 9.2422 5.5203 9.3053 1.7149 38.4830
#
#
#
# Elastic Compliance Matrix: (Units=1/GPa)
#
#
# Indices 1 2 3 4 5 6 
#
# 1 0.018501 -0.002550 -0.003984 -0.001501 -0.007068 -0.002050
# 2 -0.002550 0.011980 -0.005594 0.003979 -0.002025 -0.002408
# 3 -0.003984 -0.005594 0.044654 -0.052113 -0.003900 0.008555
# 4 -0.001501 0.003979 -0.052113 0.105662 0.006262 -0.018991
# 5 -0.007068 -0.002025 -0.003900 0.006262 0.025286 -0.000101
# 6 -0.002050 -0.002408 0.008555 -0.018991 -0.000101 0.030367
#
#
# Mechanical properties :
#
#
# Convention : Reuss Voigt Hill
#
# Bulk Modulus (GPa) = 19.65429 45.72110 32.68770
# Shear Modulus (GPa) = 18.00732 33.47684 25.74208
#
# Velocity S-wave (km/s) = 2.80579 3.82563 3.35470
# Velocity P-wave (km/s) = 4.36911 6.28510 5.41256
#
# Compressibility (1/GPa) = 0.05087947
#
# Stress axis : x y z
#
# Youngs Moduli (GPa) = 54.05102 83.47120 22.39459
#
# Poissons Ratio (x) = 0.21284 0.08923
# Poissons Ratio (y) = 0.13782 0.12527
# Poissons Ratio (z) = 0.21535 0.46690
#
# Static dielectric constant tensor:
#      x y z
#    x 1.876860 -0.028820 0.035370 
#    y -0.028820 1.903580 -0.010420 
#    z 0.035370 -0.010420 1.831970 
# 
# From -- ./inp_files/151917.got.cif
#   From: 2010.05.17/outbox.cif.g08.bks.cpg/sg2_76_cif.got.tgz:151917.got - 2010.06.03 11:33:40.
