data_PCOD9062011
_publ_section_title
;
Structure prediction by ZEFSAII (Michael W. Deem and Ramdas Pophale) SiO2 
 PCOD9062011
Probable space group: P -1
;
_chemical_formula_sum "Si O2"
_cell_formula_units_Z 12
_cell_length_a 8.177641
_cell_length_b 11.478132
_cell_length_c 9.851777
_cell_angle_alpha 109.869450
_cell_angle_beta 119.964443
_cell_angle_gamma 115.674066
_cell_volume 506.679194
_symmetry_space_group_name_H-M "P -1"
_symmetry_group_IT_number 2
_symmetry_cell_setting 'triclinic'
loop_
_space_group_symop_operation_xyz
x,y,z
-x,-y,-z
loop_
_atom_site_type_symbol
_atom_site_label
_atom_site_fract_x
_atom_site_fract_y
_atom_site_fract_z
Si Si1 0.706984 0.424467 0.377267
Si Si2 0.962429 0.623561 0.837223
Si Si3 0.251468 0.345819 0.731855
Si Si4 0.335259 0.627163 0.156428
Si Si5 0.753448 0.974907 0.926009
Si Si6 0.320291 0.828304 0.452888
O O1 0.715978 0.552188 0.344298
O O2 0.737988 0.477013 0.569978
O O3 0.000000 0.500000 0.500000
O O4 0.450905 0.210646 0.139143
O O5 0.816850 0.564320 0.904028
O O6 0.717550 0.305940 0.714836
O O7 0.204165 0.635946 0.975281
O O8 0.104180 0.819971 0.917748
O O9 0.343695 0.252639 0.689856
O O10 0.500000 0.500000 0.000000
O O11 0.955966 0.237483 0.633013
O O12 0.520933 0.889708 0.682478
O O13 0.000000 0.000000 0.000000
O O14 0.500000 0.000000 0.500000
#
# Coordination Sequence:
#
# PCOD9062011 Si02
#       6
#     2   2   2   2   2   2
#     4  12  25  48  72 107 156 191 247 312 365 439
#     4  11  24  46  75 111 150 201 246 307 370 443
#     4  12  27  47  78 110 143 203 249 302 379 443
#     4  11  23  46  79 106 151 199 245 299 375 439
#     4  12  27  45  72 109 147 198 243 303 375 437
#     4  12  26  51  72 110 154 190 251 312 362 447
#
# _framework density 23.683623999999998
#
# number of rings (size 3 to 8) (size 9 to 14) (size 15 to 20)
#    0.000    0.333    5.000    4.000    4.667    2.667 
#    0.000    0.000    0.000    0.000    0.000    0.000 
#    0.000    0.000    0.000    0.000    0.000    0.000 
#
# Total GULP energy -66844.720272 kJ/mol
# GULP energy per Si atom -5570.393356 kJ/mol
# Density = 2.362972 g / cm^3
# Si number density = 23.683624 Si / 1000 Ang^3
#
#
#
# Elastic Constant Matrix: (Units=GPa)
#
#
# Indices 1 2 3 4 5 6 
#
# 1 154.4129 49.1395 40.0678 -8.4831 54.7372 -7.3768
# 2 49.1395 124.5654 30.7751 9.0337 12.6185 1.1044
# 3 40.0678 30.7751 77.4695 -2.8841 21.1908 0.4898
# 4 -8.4831 9.0337 -2.8841 57.5358 -2.7604 0.5770
# 5 54.7372 12.6185 21.1908 -2.7604 53.6962 -9.3583
# 6 -7.3768 1.1044 0.4898 0.5770 -9.3583 35.1495
#
#
#
# Elastic Compliance Matrix: (Units=1/GPa)
#
#
# Indices 1 2 3 4 5 6 
#
# 1 0.011785 -0.003242 -0.001883 0.001653 -0.010461 -0.000211
# 2 -0.003242 0.009982 -0.002889 -0.002094 0.001921 -0.000408
# 3 -0.001883 -0.002889 0.016171 0.000810 -0.004023 -0.001614
# 4 0.001653 -0.002094 0.000810 0.017965 -0.000598 -0.000053
# 5 -0.010461 0.001921 -0.004023 -0.000598 0.031471 0.006189
# 6 -0.000211 -0.000408 -0.001614 -0.000053 0.006189 0.030090
#
#
# Mechanical properties :
#
#
# Convention : Reuss Voigt Hill
#
# Bulk Modulus (GPa) = 45.64454 66.26809 55.95631
# Shear Modulus (GPa) = 35.51247 45.04067 40.27657
#
# Velocity S-wave (km/s) = 3.87648 4.36565 4.12832
# Velocity P-wave (km/s) = 6.27300 7.31117 6.81189
#
# Compressibility (1/GPa) = 0.02190842
#
# Stress axis : x y z
#
# Youngs Moduli (GPa) = 84.85020 100.18429 61.84005
#
# Poissons Ratio (x) = 0.32482 0.11647
# Poissons Ratio (y) = 0.27511 0.17866
# Poissons Ratio (z) = 0.15980 0.28944
#
# Static dielectric constant tensor:
#      x y z
#    x 2.068250 -0.198360 -0.094490 
#    y -0.198360 3.041110 0.414110 
#    z -0.094490 0.414110 2.169920 
# 
# From -- ./inp_files/379754.got.cif
#   From: 2010.05.17/outbox.cif.g08.bks.cpg/sg2_190_cif.got.tgz:379754.got - 2010.06.03 11:33:40.
