data_PCOD9062774
_publ_section_title
;
Structure prediction by ZEFSAII (Michael W. Deem and Ramdas Pophale) SiO2 
 PCOD9062774
Probable space group: P -1
;
_chemical_formula_sum "Si O2"
_cell_formula_units_Z 14
_cell_length_a 23.247130
_cell_length_b 6.022903
_cell_length_c 11.895194
_cell_angle_alpha 109.503397
_cell_angle_beta 147.724998
_cell_angle_gamma 92.980839
_cell_volume 626.752811
_symmetry_space_group_name_H-M "P -1"
_symmetry_group_IT_number 2
_symmetry_cell_setting 'triclinic'
loop_
_space_group_symop_operation_xyz
x,y,z
-x,-y,-z
loop_
_atom_site_type_symbol
_atom_site_label
_atom_site_fract_x
_atom_site_fract_y
_atom_site_fract_z
Si Si1 0.421317 0.151419 0.865522
Si Si2 0.132774 0.615970 0.161872
Si Si3 0.159080 0.536723 0.713078
Si Si4 0.706801 0.550710 0.697963
Si Si5 0.396170 0.166747 0.081914
Si Si6 0.884862 0.233674 0.094912
Si Si7 0.377854 0.622432 0.226182
O O1 0.281139 0.918644 0.515737
O O2 0.500000 0.500000 0.000000
O O3 0.374045 0.166423 0.913903
O O4 0.500000 0.000000 0.000000
O O5 0.174818 0.404441 0.175550
O O6 0.099933 0.654257 0.987153
O O7 0.000000 0.500000 0.000000
O O8 0.120342 0.590370 0.780205
O O9 0.019907 0.272493 0.366499
O O10 0.270923 0.498969 0.923815
O O11 0.254874 0.856399 0.853309
O O12 0.544893 0.234959 0.347840
O O13 0.714655 0.505601 0.834766
O O14 0.739595 0.872475 0.793518
O O15 0.437329 0.452003 0.272458
O O16 0.500000 0.000000 0.500000
#
# Coordination Sequence:
#
# PCOD9062774 Si02
#       7
#     2   2   2   2   2   2   2
#     4  12  29  52  79 112 155 206 264 320 373 455
#     4  12  28  51  72 101 148 208 253 306 385 462
#     4  11  24  42  70 109 147 183 241 308 385 452
#     4  12  24  44  72 105 145 183 247 311 377 453
#     4  12  25  45  75 108 145 190 250 311 383 452
#     4  11  25  45  69 103 147 191 240 310 377 458
#     4  12  24  40  75 112 144 186 238 312 393 451
#
# _framework density 22.337351999999999
#
# number of rings (size 3 to 8) (size 9 to 14) (size 15 to 20)
#    0.000    0.286    5.714    3.000    4.000    3.429 
#    0.000    0.000    0.000    0.000    0.000    0.000 
#    0.000    0.000    0.000    0.000    0.000    0.000 
#
# Total GULP energy -77994.545432 kJ/mol
# GULP energy per Si atom -5571.038959 kJ/mol
# Density = 2.228651 g / cm^3
# Si number density = 22.337352 Si / 1000 Ang^3
#
#
#
# Elastic Constant Matrix: (Units=GPa)
#
#
# Indices 1 2 3 4 5 6 
#
# 1 154.0016 41.8075 49.1301 -1.7971 -11.8425 10.3359
# 2 41.8075 40.9374 14.0799 1.2659 -4.5867 11.3814
# 3 49.1301 14.0799 118.3025 -9.3487 -5.2533 3.8662
# 4 -1.7971 1.2659 -9.3487 33.5586 6.2737 -6.2334
# 5 -11.8425 -4.5867 -5.2533 6.2737 42.5700 -8.5333
# 6 10.3359 11.3814 3.8662 -6.2334 -8.5333 37.7550
#
#
#
# Elastic Compliance Matrix: (Units=1/GPa)
#
#
# Indices 1 2 3 4 5 6 
#
# 1 0.010037 -0.009214 -0.003034 -0.000130 0.001580 0.000676
# 2 -0.009214 0.036665 -0.000532 -0.003720 0.000050 -0.009079
# 3 -0.003034 -0.000532 0.009978 0.002713 0.000014 0.000420
# 4 -0.000130 -0.003720 0.002713 0.032395 -0.003800 0.005369
# 5 0.001580 0.000050 0.000014 -0.003800 0.025434 0.004672
# 6 0.000676 -0.009079 0.000420 0.005369 0.004672 0.030938
#
#
# Mechanical properties :
#
#
# Convention : Reuss Voigt Hill
#
# Bulk Modulus (GPa) = 32.13436 58.14183 45.13809
# Shear Modulus (GPa) = 27.56627 36.65833 32.11230
#
# Velocity S-wave (km/s) = 3.51677 4.05547 3.79569
# Velocity P-wave (km/s) = 5.55944 6.92926 6.28180
#
# Compressibility (1/GPa) = 0.03111934
#
# Stress axis : x y z
#
# Youngs Moduli (GPa) = 99.62789 27.27371 100.22543
#
# Poissons Ratio (x) = 0.25130 0.30408
# Poissons Ratio (y) = 0.91798 0.05335
# Poissons Ratio (z) = 0.30227 0.01452
#
# Static dielectric constant tensor:
#      x y z
#    x 1.836380 -0.076670 0.034000 
#    y -0.076670 2.114530 -0.047190 
#    z 0.034000 -0.047190 1.847770 
# 
# From -- ./inp_files/49001.got.cif
#   From: 2010.05.17/outbox.cif.g08.bks.cpg/sg2_25_cif.got.tgz:49001.got - 2010.06.03 11:33:40.
