data_PCOD9062342
_publ_section_title
;
Structure prediction by ZEFSAII (Michael W. Deem and Ramdas Pophale) SiO2 
 PCOD9062342
Probable space group: P -1
;
_chemical_formula_sum "Si O2"
_cell_formula_units_Z 16
_cell_length_a 21.057777
_cell_length_b 13.008366
_cell_length_c 11.332632
_cell_angle_alpha 47.833023
_cell_angle_beta 29.589637
_cell_angle_gamma 30.923725
_cell_volume 752.845802
_symmetry_space_group_name_H-M "P -1"
_symmetry_group_IT_number 2
_symmetry_cell_setting 'triclinic'
loop_
_space_group_symop_operation_xyz
x,y,z
-x,-y,-z
loop_
_atom_site_type_symbol
_atom_site_label
_atom_site_fract_x
_atom_site_fract_y
_atom_site_fract_z
Si Si1 0.290711 0.137663 0.940487
Si Si2 0.822830 0.496748 0.757537
Si Si3 0.219289 0.170797 0.309236
Si Si4 0.154534 0.133396 0.922753
Si Si5 0.585513 0.679614 0.522071
Si Si6 0.258791 0.634860 0.665312
Si Si7 0.278664 0.313805 0.469503
Si Si8 0.505740 0.292880 0.728584
O O1 0.164375 0.159408 0.027592
O O2 0.312605 0.279978 0.752014
O O3 0.510215 0.905967 0.746401
O O4 0.231725 0.160423 0.154038
O O5 0.799602 0.654885 0.751549
O O6 0.826014 0.539262 0.584947
O O7 0.031108 0.257011 0.614185
O O8 0.627139 0.575544 0.042947
O O9 0.400870 0.935375 0.245828
O O10 0.164332 0.275179 0.734999
O O11 0.358357 0.897161 0.738812
O O12 0.966211 0.206912 0.122590
O O13 0.627723 0.501028 0.531141
O O14 0.684424 0.611822 0.541293
O O15 0.354257 0.453785 0.746734
O O16 0.320200 0.737423 0.528489
#
# Coordination Sequence:
#
# PCOD9062342 Si02
#       8
#     2   2   2   2   2   2   2   2
#     4   9  18  38  63  94 125 153 193 260 308 348
#     4  11  24  38  65  95 119 157 200 248 320 357
#     4  11  24  39  65  91 122 158 198 255 309 357
#     4   9  21  37  63  93 122 156 206 246 300 358
#     4   9  20  37  63  94 124 155 197 257 300 348
#     4  11  25  41  65  83 119 174 208 234 299 361
#     4   9  19  36  62  98 126 147 195 260 305 355
#     4  11  26  45  57  88 126 161 207 252 286 364
#
# _framework density 21.252692
#
# number of rings (size 3 to 8) (size 9 to 14) (size 15 to 20)
#    0.000    2.000    1.250    2.625   10.500    2.000 
#    0.000    3.750    0.000    0.000    0.000    0.000 
#    0.000    0.000    0.000    0.000    0.000    0.000 
#
# Total GULP energy -89266.200285 kJ/mol
# GULP energy per Si atom -5579.137518 kJ/mol
# Density = 2.120432 g / cm^3
# Si number density = 21.252692 Si / 1000 Ang^3
#
#
#
# Elastic Constant Matrix: (Units=GPa)
#
#
# Indices 1 2 3 4 5 6 
#
# 1 50.0994 39.8658 15.4376 -3.9339 -9.7305 -6.7209
# 2 39.8658 11.9374 64.2366 24.5385 5.9890 -2.2972
# 3 15.4376 64.2366 67.5415 14.0258 -11.8492 -11.8677
# 4 -3.9339 24.5385 14.0258 22.1709 -5.5129 -2.2489
# 5 -9.7305 5.9890 -11.8492 -5.5129 38.4535 6.5881
# 6 -6.7209 -2.2972 -11.8677 -2.2489 6.5881 19.2817
#
#
#
# Elastic Compliance Matrix: (Units=1/GPa)
#
#
# Indices 1 2 3 4 5 6 
#
# 1 0.016866 0.008594 -0.012456 0.001153 -0.000675 -0.000399
# 2 0.008594 -0.010269 0.007833 0.010159 0.006704 0.005487
# 3 -0.012456 0.007833 0.014624 -0.020571 -0.003571 0.004413
# 4 0.001153 0.010159 -0.020571 0.046509 0.000002 -0.005626
# 5 -0.000675 0.006704 -0.003571 0.000002 0.025461 -0.010334
# 6 -0.000399 0.005487 0.004413 -0.005626 -0.010334 0.057968
#
#
# Mechanical properties :
#
#
# Convention : Reuss Voigt Hill
#
# Bulk Modulus (GPa) = 34.29096 40.96204 37.62650
# Shear Modulus (GPa) = 32.69284 16.65044 24.67164
#
# Velocity S-wave (km/s) = 3.92636 2.80206 3.41085
# Velocity P-wave (km/s) = 6.06011 5.45750 5.76669
#
# Compressibility (1/GPa) = 0.02916220
#
# Stress axis : x y z
#
# Youngs Moduli (GPa) = 59.29000 -97.38025 68.38187
#
# Poissons Ratio (x) = 0.83685 0.85177
# Poissons Ratio (y) = -0.50952 -0.53564
# Poissons Ratio (z) = 0.73852 0.76279
#
# Static dielectric constant tensor:
#      x y z
#    x 1.798800 -0.031140 -0.014170 
#    y -0.031140 1.773790 0.001920 
#    z -0.014170 0.001920 1.831180 
# 
# From -- ./inp_files/475165.got.cif
#   From: 2010.05.17/outbox.cif.g08.bks.cpg/sg2_238_cif.got.tgz:475165.got - 2010.06.03 11:33:40.
