data_PCOD9062445
_publ_section_title
;
Structure prediction by ZEFSAII (Michael W. Deem and Ramdas Pophale) SiO2 
 PCOD9062445
Probable space group: P -1
;
_chemical_formula_sum "Si O2"
_cell_formula_units_Z 16
_cell_length_a 9.928699
_cell_length_b 5.403851
_cell_length_c 18.823663
_cell_angle_alpha 104.492951
_cell_angle_beta 60.016862
_cell_angle_gamma 64.915966
_cell_volume 640.223765
_symmetry_space_group_name_H-M "P -1"
_symmetry_group_IT_number 2
_symmetry_cell_setting 'triclinic'
loop_
_space_group_symop_operation_xyz
x,y,z
-x,-y,-z
loop_
_atom_site_type_symbol
_atom_site_label
_atom_site_fract_x
_atom_site_fract_y
_atom_site_fract_z
Si Si1 0.058546 0.439393 0.398504
Si Si2 0.744594 0.023750 0.967696
Si Si3 0.763600 0.292248 0.713046
Si Si4 0.290941 0.772076 0.855970
Si Si5 0.413552 0.676612 0.669441
Si Si6 0.244623 0.560909 0.118467
Si Si7 0.580428 0.798903 0.298190
Si Si8 0.709528 0.629645 0.398457
O O1 0.120249 0.652814 0.369379
O O2 0.000000 0.500000 0.500000
O O3 0.878148 0.531913 0.401669
O O4 0.223443 0.030027 0.317195
O O5 0.812572 0.033142 0.029991
O O6 0.494638 0.300777 0.044360
O O7 0.815819 0.155374 0.901037
O O8 0.806702 0.667559 0.910155
O O9 0.523824 0.624246 0.794219
O O10 0.841166 0.287292 0.770353
O O11 0.249146 0.896995 0.793548
O O12 0.315807 0.437475 0.814868
O O13 0.544141 0.301146 0.640415
O O14 0.326366 0.638988 0.619325
O O15 0.529936 0.814848 0.645633
O O16 0.748766 0.658546 0.307016
O O17 0.500000 0.000000 0.500000
#
# Coordination Sequence:
#
# PCOD9062445 Si02
#       8
#     2   2   2   2   2   2   2   2
#     4  12  28  42  62  89 118 161 199 250 301 366
#     4   9  16  28  52  86 118 149 207 224 290 335
#     4  11  24  41  57  83 132 156 197 235 320 355
#     4   8  20  31  60  90 128 156 188 256 286 355
#     4   8  19  33  57  82 111 154 195 232 298 336
#     4   9  18  31  51  80 117 167 183 239 280 367
#     4   8  19  34  56  83 110 155 190 235 295 340
#     4   9  23  42  63  83 113 149 206 255 294 349
#
# _framework density 24.991261999999999
#
# number of rings (size 3 to 8) (size 9 to 14) (size 15 to 20)
#    1.500    1.000    0.000    1.125    8.750    2.500 
#    0.000    0.000    0.000    0.000    0.000   21.000 
#    0.000    0.000    0.000    0.000    0.000    0.000 
#
# Total GULP energy -89155.526656 kJ/mol
# GULP energy per Si atom -5572.220416 kJ/mol
# Density = 2.493438 g / cm^3
# Si number density = 24.991262 Si / 1000 Ang^3
#
#
#
# Elastic Constant Matrix: (Units=GPa)
#
#
# Indices 1 2 3 4 5 6 
#
# 1 94.6162 26.0104 42.5104 1.3323 21.3952 12.0808
# 2 26.0104 101.3791 32.1788 -3.9108 -4.3442 47.6637
# 3 42.5104 32.1788 98.8069 -19.5532 36.3118 1.7162
# 4 1.3323 -3.9108 -19.5532 31.2965 0.7573 3.2493
# 5 21.3952 -4.3442 36.3118 0.7573 46.1459 8.9532
# 6 12.0808 47.6637 1.7162 3.2493 8.9532 52.5908
#
#
#
# Elastic Compliance Matrix: (Units=1/GPa)
#
#
# Indices 1 2 3 4 5 6 
#
# 1 0.014197 -0.001642 -0.005630 -0.004176 -0.002048 -0.000982
# 2 -0.001642 0.033462 -0.020551 -0.005759 0.026671 -0.033464
# 3 -0.005630 -0.020551 0.033276 0.016811 -0.030236 0.022942
# 4 -0.004176 -0.005759 0.016811 0.041685 -0.013560 0.005363
# 5 -0.002048 0.026671 -0.030236 -0.013560 0.055214 -0.031277
# 6 -0.000982 -0.033464 0.022942 0.005363 -0.031277 0.053814
#
#
# Mechanical properties :
#
#
# Convention : Reuss Voigt Hill
#
# Bulk Modulus (GPa) = 39.54320 55.13349 47.33834
# Shear Modulus (GPa) = 16.90753 38.94682 27.92717
#
# Velocity S-wave (km/s) = 2.60386 3.95196 3.34650
# Velocity P-wave (km/s) = 4.98971 6.55233 5.82367
#
# Compressibility (1/GPa) = 0.02528880
#
# Stress axis : x y z
#
# Youngs Moduli (GPa) = 70.43564 29.88421 30.05144
#
# Poissons Ratio (x) = 0.04908 0.16919
# Poissons Ratio (y) = 0.11569 0.61759
# Poissons Ratio (z) = 0.39655 0.61416
#
# Static dielectric constant tensor:
#      x y z
#    x 2.046970 -0.002230 0.018780 
#    y -0.002230 2.074460 -0.034490 
#    z 0.018780 -0.034490 2.012320 
# 
# From -- ./inp_files/563891.got.cif
#   From: 2010.05.17/outbox.cif.g08.bks.cpg/sg2_282_cif.got.tgz:563891.got - 2010.06.03 11:33:40.
