data_PCOD9062210
_publ_section_title
;
Structure prediction by ZEFSAII (Michael W. Deem and Ramdas Pophale) SiO2 
 PCOD9062210
Probable space group: P -1
;
_chemical_formula_sum "Si O2"
_cell_formula_units_Z 16
_cell_length_a 5.928760
_cell_length_b 19.045054
_cell_length_c 8.473640
_cell_angle_alpha 119.777566
_cell_angle_beta 114.202548
_cell_angle_gamma 51.823633
_cell_volume 645.348596
_symmetry_space_group_name_H-M "P -1"
_symmetry_group_IT_number 2
_symmetry_cell_setting 'triclinic'
loop_
_space_group_symop_operation_xyz
x,y,z
-x,-y,-z
loop_
_atom_site_type_symbol
_atom_site_label
_atom_site_fract_x
_atom_site_fract_y
_atom_site_fract_z
Si Si1 0.177460 0.542570 0.400440
Si Si2 0.745932 0.129830 0.918449
Si Si3 0.670086 0.013966 0.210401
Si Si4 0.815298 0.856262 0.334693
Si Si5 0.839961 0.282132 0.984492
Si Si6 0.780091 0.646179 0.685364
Si Si7 0.749199 0.163275 0.315237
Si Si8 0.688292 0.511184 0.931934
O O1 0.500000 0.500000 0.500000
O O2 0.138906 0.451716 0.313915
O O3 0.225237 0.567427 0.266034
O O4 0.943869 0.619990 0.534960
O O5 0.850809 0.203796 0.012773
O O6 0.745371 0.120105 0.094903
O O7 0.446891 0.162738 0.778862
O O8 0.993819 0.036236 0.801294
O O9 0.687795 0.953103 0.300641
O O10 0.587805 0.122139 0.330259
O O11 0.500000 0.000000 0.000000
O O12 0.949739 0.862370 0.545114
O O13 0.087897 0.769407 0.221545
O O14 0.537897 0.377754 0.041473
O O15 0.086614 0.305106 0.117737
O O16 0.448268 0.723728 0.643838
O O17 0.500000 0.500000 0.000000
O O18 0.000000 0.500000 0.000000
#
# Coordination Sequence:
#
# PCOD9062210 Si02
#       8
#     2   2   2   2   2   2   2   2
#     4  11  25  46  73 104 143 198 257 312 382 461
#     4  11  24  47  71 103 144 196 242 307 379 452
#     4  11  23  48  72 102 148 194 239 305 382 450
#     4  11  26  44  70 108 148 186 246 306 369 461
#     4  11  24  49  69  98 151 197 241 312 384 455
#     4  11  24  47  75 103 148 200 258 317 388 460
#     4  12  24  44  75 105 144 191 249 307 378 454
#     4  12  28  45  72 109 150 200 255 325 392 455
#
# _framework density 24.792798999999999
#
# number of rings (size 3 to 8) (size 9 to 14) (size 15 to 20)
#    0.000    0.750    3.750    3.000    5.250    0.500 
#    9.000    0.000    0.000    0.000    0.000    0.000 
#    0.000    0.000    0.000    0.000    0.000    0.000 
#
# Total GULP energy -89243.633698 kJ/mol
# GULP energy per Si atom -5577.727106 kJ/mol
# Density = 2.473637 g / cm^3
# Si number density = 24.792799 Si / 1000 Ang^3
#
#
#
# Elastic Constant Matrix: (Units=GPa)
#
#
# Indices 1 2 3 4 5 6 
#
# 1 89.7758 -8.0694 36.2129 -4.4795 -3.2614 -14.5869
# 2 -8.0694 58.1448 2.3049 2.6016 0.3318 -8.4455
# 3 36.2129 2.3049 89.6100 -12.1293 16.1796 -7.4403
# 4 -4.4795 2.6016 -12.1293 36.5705 -9.4425 13.5328
# 5 -3.2614 0.3318 16.1796 -9.4425 49.8898 3.3356
# 6 -14.5869 -8.4455 -7.4403 13.5328 3.3356 42.0302
#
#
#
# Elastic Compliance Matrix: (Units=1/GPa)
#
#
# Indices 1 2 3 4 5 6 
#
# 1 0.014763 0.003091 -0.006285 -0.001753 0.002316 0.005013
# 2 0.003091 0.018706 -0.001674 -0.003773 -0.000481 0.005788
# 3 -0.006285 -0.001674 0.014975 0.003347 -0.004584 -0.000581
# 4 -0.001753 -0.003773 0.003347 0.034723 0.006229 -0.012449
# 5 0.002316 -0.000481 -0.004584 0.006229 0.023128 -0.003946
# 6 0.005013 0.005788 -0.000581 -0.012449 -0.003946 0.030914
#
#
# Mechanical properties :
#
#
# Convention : Reuss Voigt Hill
#
# Bulk Modulus (GPa) = 25.83335 33.15858 29.49597
# Shear Modulus (GPa) = 31.28006 39.50359 35.39183
#
# Velocity S-wave (km/s) = 3.55584 3.99601 3.78233
# Velocity P-wave (km/s) = 5.22503 5.89017 5.56754
#
# Compressibility (1/GPa) = 0.03870966
#
# Stress axis : x y z
#
# Youngs Moduli (GPa) = 67.73735 53.45836 66.77920
#
# Poissons Ratio (x) = -0.16526 0.41968
# Poissons Ratio (y) = -0.20940 0.11177
# Poissons Ratio (z) = 0.42570 0.08947
#
# Static dielectric constant tensor:
#      x y z
#    x 1.966400 0.088840 0.047060 
#    y 0.088840 2.116100 0.051330 
#    z 0.047060 0.051330 2.184070 
# 
# From -- ./inp_files/141538.got.cif
#   From: 2010.05.17/outbox.cif.g08.bks.cpg/sg2_71_cif.got.tgz:141538.got - 2010.06.03 11:33:40.
