data_PCOD9062640
_publ_section_title
;
Structure prediction by ZEFSAII (Michael W. Deem and Ramdas Pophale) SiO2 
 PCOD9062640
Probable space group: P -1
;
_chemical_formula_sum "Si O2"
_cell_formula_units_Z 16
_cell_length_a 8.051767
_cell_length_b 9.136005
_cell_length_c 11.668222
_cell_angle_alpha 55.062485
_cell_angle_beta 87.828523
_cell_angle_gamma 87.984388
_cell_volume 703.035513
_symmetry_space_group_name_H-M "P -1"
_symmetry_group_IT_number 2
_symmetry_cell_setting 'triclinic'
loop_
_space_group_symop_operation_xyz
x,y,z
-x,-y,-z
loop_
_atom_site_type_symbol
_atom_site_label
_atom_site_fract_x
_atom_site_fract_y
_atom_site_fract_z
Si Si1 0.876450 0.127108 0.375514
Si Si2 0.602695 0.476895 0.890834
Si Si3 0.394765 0.943943 0.919586
Si Si4 0.107710 0.174603 0.917382
Si Si5 0.626721 0.383987 0.373205
Si Si6 0.866945 0.620878 0.383065
Si Si7 0.624124 0.887138 0.384623
Si Si8 0.099960 0.319026 0.105938
O O1 0.803193 0.302769 0.360320
O O2 0.975700 0.185827 0.232882
O O3 0.702532 0.030554 0.401952
O O4 0.000000 0.000000 0.500000
O O5 0.482334 0.526889 0.765753
O O6 0.753023 0.615006 0.843602
O O7 0.500000 0.500000 0.000000
O O8 0.653344 0.264849 0.978689
O O9 0.255729 0.094673 0.874167
O O10 0.458513 0.996600 0.768869
O O11 0.500000 0.000000 0.000000
O O12 0.043439 0.323858 0.763989
O O13 0.151167 0.239961 0.014777
O O14 0.000000 0.000000 0.000000
O O15 0.694216 0.526444 0.397217
O O16 0.510458 0.241197 0.500974
O O17 0.794685 0.778383 0.395191
O O18 0.000000 0.500000 0.500000
O O19 0.000000 0.500000 0.000000
#
# Coordination Sequence:
#
# PCOD9062640 Si02
#       8
#     2   2   2   2   2   2   2   2
#     4  12  26  45  66  96 133 175 225 279 340 409
#     4  12  24  43  70 100 135 179 226 283 344 409
#     4  11  24  42  65  95 131 169 217 272 333 404
#     4  11  24  42  65  96 132 171 219 275 335 403
#     4  12  26  45  67  97 134 176 227 283 342 408
#     4  11  24  44  67  97 134 175 224 280 338 411
#     4  11  24  44  66  96 133 174 222 277 336 407
#     4  12  24  43  70 101 136 179 228 283 341 407
#
# _framework density 22.758454
#
# number of rings (size 3 to 8) (size 9 to 14) (size 15 to 20)
#    0.000    0.500    0.000   10.500    0.000    5.000 
#    0.000    0.000    0.000    0.000    0.000    0.000 
#    0.000    0.000    0.000    0.000    0.000    0.000 
#
# Total GULP energy -89305.795187 kJ/mol
# GULP energy per Si atom -5581.612199 kJ/mol
# Density = 2.270665 g / cm^3
# Si number density = 22.758454 Si / 1000 Ang^3
#
#
#
# Elastic Constant Matrix: (Units=GPa)
#
#
# Indices 1 2 3 4 5 6 
#
# 1 56.1691 3.8648 41.8249 2.3716 7.8428 18.0246
# 2 3.8648 107.2695 20.7238 -5.1028 5.6577 8.3621
# 3 41.8249 20.7238 173.4643 -3.5350 8.9680 14.8988
# 4 2.3716 -5.1028 -3.5350 26.9330 5.9409 -2.0495
# 5 7.8428 5.6577 8.9680 5.9409 46.5151 -2.9327
# 6 18.0246 8.3621 14.8988 -2.0495 -2.9327 49.8504
#
#
#
# Elastic Compliance Matrix: (Units=1/GPa)
#
#
# Indices 1 2 3 4 5 6 
#
# 1 0.024769 0.000794 -0.005271 -0.002563 -0.003422 -0.007821
# 2 0.000794 0.009798 -0.001112 0.001837 -0.001447 -0.001608
# 3 -0.005271 -0.001112 0.007227 0.001318 -0.000541 -0.000045
# 4 -0.002563 0.001837 0.001318 0.039083 -0.004940 0.001541
# 5 -0.003422 -0.001447 -0.000541 -0.004940 0.023163 0.002801
# 6 -0.007821 -0.001608 -0.000045 0.001541 0.002801 0.023399
#
#
# Mechanical properties :
#
#
# Convention : Reuss Voigt Hill
#
# Bulk Modulus (GPa) = 32.66101 52.19224 42.42662
# Shear Modulus (GPa) = 33.59735 42.69233 38.14484
#
# Velocity S-wave (km/s) = 3.84638 4.33585 4.09843
# Velocity P-wave (km/s) = 5.84025 6.93174 6.40927
#
# Compressibility (1/GPa) = 0.03061755
#
# Stress axis : x y z
#
# Youngs Moduli (GPa) = 40.37288 102.06639 138.36559
#
# Poissons Ratio (x) = -0.08105 0.72928
# Poissons Ratio (y) = -0.03206 0.15381
# Poissons Ratio (z) = 0.21279 0.11346
#
# Static dielectric constant tensor:
#      x y z
#    x 1.877000 -0.025790 -0.090990 
#    y -0.025790 1.807020 -0.029690 
#    z -0.090990 -0.029690 1.391770 
# 
# From -- ./inp_files/381045.got.cif
#   From: 2010.05.17/outbox.cif.g08.bks.cpg/sg2_191_cif.got.tgz:381045.got - 2010.06.03 11:33:40.
