data_PCOD9062341
_publ_section_title
;
Structure prediction by ZEFSAII (Michael W. Deem and Ramdas Pophale) SiO2 
 PCOD9062341
Probable space group: P -1
;
_chemical_formula_sum "Si O2"
_cell_formula_units_Z 16
_cell_length_a 24.296691
_cell_length_b 14.840113
_cell_length_c 10.887206
_cell_angle_alpha 153.431601
_cell_angle_beta 28.107199
_cell_angle_gamma 152.183590
_cell_volume 737.300401
_symmetry_space_group_name_H-M "P -1"
_symmetry_group_IT_number 2
_symmetry_cell_setting 'triclinic'
loop_
_space_group_symop_operation_xyz
x,y,z
-x,-y,-z
loop_
_atom_site_type_symbol
_atom_site_label
_atom_site_fract_x
_atom_site_fract_y
_atom_site_fract_z
Si Si1 0.802245 0.900582 0.424550
Si Si2 0.427657 0.066740 0.830923
Si Si3 0.139162 0.451170 0.280596
Si Si4 0.699554 0.775654 0.912851
Si Si5 0.905472 0.829476 0.754956
Si Si6 0.532634 0.279563 0.524716
Si Si7 0.841907 0.176698 0.463353
Si Si8 0.454903 0.448505 0.386539
O O1 0.692370 0.749329 0.550871
O O2 0.763054 0.039428 0.570376
O O3 0.828589 0.720885 0.072545
O O4 0.938051 0.068124 0.425416
O O5 0.307532 0.069289 0.994189
O O6 0.500000 0.000000 0.500000
O O7 0.411146 0.893049 0.759912
O O8 0.513652 0.318050 0.024955
O O9 0.158397 0.405207 0.328409
O O10 0.208349 0.691875 0.370420
O O11 0.981868 0.361025 0.467372
O O12 0.609777 0.795184 0.224271
O O13 0.838103 0.817700 0.744250
O O14 0.624982 0.520094 0.698614
O O15 0.875155 0.005522 0.109762
O O16 0.530023 0.335017 0.454591
O O17 0.500000 0.500000 0.500000
#
# Coordination Sequence:
#
# PCOD9062341 Si02
#       8
#     2   2   2   2   2   2   2   2
#     4   9  19  34  48  78 123 151 180 234 293 340
#     4   9  20  43  62  81 110 152 199 244 282 332
#     4   8  15  29  48  73 111 153 185 225 279 332
#     4   9  18  35  61  84 106 144 201 244 277 336
#     4   9  17  30  54  82 111 150 192 231 284 340
#     4   9  20  38  57  80 114 147 190 245 284 331
#     4   8  15  29  47  74 113 152 186 225 271 339
#     4  11  24  38  59  87 120 154 189 236 293 350
#
# _framework density 21.700787999999999
#
# number of rings (size 3 to 8) (size 9 to 14) (size 15 to 20)
#    0.000    3.000    0.000    2.250    3.500    2.500 
#    4.500    2.500    0.000    1.500    0.000    0.000 
#    0.000    0.000    0.000    0.000    0.000    0.000 
#
# Total GULP energy -89167.113310 kJ/mol
# GULP energy per Si atom -5572.944582 kJ/mol
# Density = 2.165140 g / cm^3
# Si number density = 21.700788 Si / 1000 Ang^3
#
#
#
# Elastic Constant Matrix: (Units=GPa)
#
#
# Indices 1 2 3 4 5 6 
#
# 1 166.8119 48.4294 35.9671 10.3806 -24.5666 -27.6394
# 2 48.4294 63.8931 18.0176 1.1031 -20.1142 -23.7174
# 3 35.9671 18.0176 31.6159 14.3214 -12.9933 -11.2588
# 4 10.3806 1.1031 14.3214 28.3187 -15.5360 -11.5676
# 5 -24.5666 -20.1142 -12.9933 -15.5360 35.2577 12.5713
# 6 -27.6394 -23.7174 -11.2588 -11.5676 12.5713 42.3827
#
#
#
# Elastic Compliance Matrix: (Units=1/GPa)
#
#
# Indices 1 2 3 4 5 6 
#
# 1 0.009214 -0.003212 -0.008395 0.003008 0.002036 0.002199
# 2 -0.003212 0.030426 -0.011836 0.019224 0.014711 0.012671
# 3 -0.008395 -0.011836 0.058760 -0.029010 -0.002415 -0.003690
# 4 0.003008 0.019224 -0.029010 0.069656 0.027397 0.015898
# 5 0.002036 0.014711 -0.002415 0.027397 0.048656 0.001964
# 6 0.002199 0.012671 -0.003690 0.015898 0.001964 0.034896
#
#
# Mechanical properties :
#
#
# Convention : Reuss Voigt Hill
#
# Bulk Modulus (GPa) = 19.41183 51.90545 35.65864
# Shear Modulus (GPa) = 15.83961 31.85228 23.84594
#
# Velocity S-wave (km/s) = 2.70461 3.83534 3.31849
# Velocity P-wave (km/s) = 4.32642 6.60179 5.58129
#
# Compressibility (1/GPa) = 0.05151497
#
# Stress axis : x y z
#
# Youngs Moduli (GPa) = 108.52804 32.86645 17.01851
#
# Poissons Ratio (x) = 0.10556 0.14287
# Poissons Ratio (y) = 0.34856 0.20143
# Poissons Ratio (z) = 0.91109 0.38900
#
# Static dielectric constant tensor:
#      x y z
#    x 1.849100 -0.010210 -0.001720 
#    y -0.010210 1.841550 -0.006830 
#    z -0.001720 -0.006830 1.868220 
# 
# From -- ./inp_files/475081.got.cif
#   From: 2010.05.17/outbox.cif.g08.bks.cpg/sg2_238_cif.got.tgz:475081.got - 2010.06.03 11:33:40.
