data_PCOD9062027
_publ_section_title
;
Structure prediction by ZEFSAII (Michael W. Deem and Ramdas Pophale) SiO2 
 PCOD9062027
Probable space group: P -1
;
_chemical_formula_sum "Si O2"
_cell_formula_units_Z 16
_cell_length_a 11.459925
_cell_length_b 8.801832
_cell_length_c 13.857861
_cell_angle_alpha 93.631715
_cell_angle_beta 148.157556
_cell_angle_gamma 97.283095
_cell_volume 691.347864
_symmetry_space_group_name_H-M "P -1"
_symmetry_group_IT_number 2
_symmetry_cell_setting 'triclinic'
loop_
_space_group_symop_operation_xyz
x,y,z
-x,-y,-z
loop_
_atom_site_type_symbol
_atom_site_label
_atom_site_fract_x
_atom_site_fract_y
_atom_site_fract_z
Si Si1 0.416297 0.054052 0.257118
Si Si2 0.009031 0.293937 0.309662
Si Si3 0.216178 0.444113 0.793815
Si Si4 0.121901 0.786010 0.294736
Si Si5 0.041003 0.210567 0.016708
Si Si6 0.814050 0.820602 0.388553
Si Si7 0.436015 0.960507 0.065652
Si Si8 0.243341 0.496251 0.296752
O O1 0.660678 0.090996 0.488441
O O2 0.213163 0.877336 0.115747
O O3 0.486817 0.087283 0.194701
O O4 0.265366 0.157589 0.199462
O O5 0.867219 0.399803 0.266204
O O6 0.172438 0.241113 0.496470
O O7 0.110481 0.398764 0.292300
O O8 0.838502 0.126952 0.140737
O O9 0.139003 0.317240 0.647333
O O10 0.079378 0.332003 0.782694
O O11 0.500000 0.500000 0.000000
O O12 0.999107 0.847440 0.125075
O O13 0.229086 0.672803 0.302564
O O14 0.138124 0.397624 0.122501
O O15 0.566507 0.837625 0.187284
O O16 0.000000 0.000000 0.500000
O O17 0.500000 0.000000 0.000000
O O18 0.500000 0.500000 0.500000
#
# Coordination Sequence:
#
# PCOD9062027 Si02
#       8
#     2   2   2   2   2   2   2   2
#     4  11  25  45  68 105 139 179 235 292 361 408
#     4  11  25  46  69  99 145 180 231 297 344 428
#     4  11  25  46  68 102 143 186 237 288 356 419
#     4  11  25  43  71 102 137 183 237 288 347 430
#     4  11  24  44  72  99 142 183 229 297 349 420
#     4  12  25  44  71 102 133 188 232 284 358 414
#     4  12  25  43  72 102 140 180 233 293 351 422
#     4  11  23  47  69 102 137 185 233 284 357 415
#
# _framework density 23.143197000000001
#
# number of rings (size 3 to 8) (size 9 to 14) (size 15 to 20)
#    0.000    0.750    5.000    1.875    1.750    3.000 
#    0.000    0.000    0.000    0.000    0.000    0.000 
#    0.000    0.000    0.000    0.000    0.000    0.000 
#
# Total GULP energy -89248.765292 kJ/mol
# GULP energy per Si atom -5578.047831 kJ/mol
# Density = 2.309052 g / cm^3
# Si number density = 23.143197 Si / 1000 Ang^3
#
#
#
# Elastic Constant Matrix: (Units=GPa)
#
#
# Indices 1 2 3 4 5 6 
#
# 1 74.9037 -1.8041 35.1855 2.5054 -14.2460 -3.4781
# 2 -1.8041 28.6208 7.7249 -0.4587 -9.4974 -9.5841
# 3 35.1855 7.7249 116.3942 0.1472 -15.6367 -2.2457
# 4 2.5054 -0.4587 0.1472 42.3305 -0.6325 -9.8982
# 5 -14.2460 -9.4974 -15.6367 -0.6325 43.6350 -0.4675
# 6 -3.4781 -9.5841 -2.2457 -9.8982 -0.4675 33.9538
#
#
#
# Elastic Compliance Matrix: (Units=1/GPa)
#
#
# Indices 1 2 3 4 5 6 
#
# 1 0.016724 0.004861 -0.004670 -0.000197 0.004872 0.002786
# 2 0.004861 0.044188 -0.002736 0.003628 0.010427 0.013991
# 3 -0.004670 -0.002736 0.010390 0.000116 0.001599 -0.000508
# 4 -0.000197 0.003628 0.000116 0.025684 0.001230 0.008516
# 5 0.004872 0.010427 0.001599 0.001230 0.027414 0.004284
# 6 0.002786 0.013991 -0.000508 0.008516 0.004284 0.036194
#
#
# Mechanical properties :
#
#
# Convention : Reuss Voigt Hill
#
# Bulk Modulus (GPa) = 15.10316 33.57017 24.33666
# Shear Modulus (GPa) = 26.63071 35.90467 31.26769
#
# Velocity S-wave (km/s) = 3.39587 3.94307 3.67965
# Velocity P-wave (km/s) = 4.68145 5.93863 5.34712
#
# Compressibility (1/GPa) = 0.06621130
#
# Stress axis : x y z
#
# Youngs Moduli (GPa) = 59.79598 22.63075 96.25009
#
# Poissons Ratio (x) = -0.11000 0.44945
# Poissons Ratio (y) = -0.29066 0.26334
# Poissons Ratio (z) = 0.27922 0.06192
#
# Static dielectric constant tensor:
#      x y z
#    x 1.913460 -0.036830 0.057280 
#    y -0.036830 1.921010 -0.079630 
#    z 0.057280 -0.079630 2.070860 
# 
# From -- ./inp_files/272888.got.cif
#   From: 2010.05.17/outbox.cif.g08.bks.cpg/sg2_137_cif.got.tgz:272888.got - 2010.06.03 11:33:40.
