data_PCOD9062625
_publ_section_title
;
Structure prediction by ZEFSAII (Michael W. Deem and Ramdas Pophale) SiO2 
 PCOD9062625
Probable space group: P -1
;
_chemical_formula_sum "Si O2"
_cell_formula_units_Z 14
_cell_length_a 5.538282
_cell_length_b 11.902732
_cell_length_c 14.020313
_cell_angle_alpha 126.571495
_cell_angle_beta 68.514034
_cell_angle_gamma 130.201964
_cell_volume 566.666592
_symmetry_space_group_name_H-M "P -1"
_symmetry_group_IT_number 2
_symmetry_cell_setting 'triclinic'
loop_
_space_group_symop_operation_xyz
x,y,z
-x,-y,-z
loop_
_atom_site_type_symbol
_atom_site_label
_atom_site_fract_x
_atom_site_fract_y
_atom_site_fract_z
Si Si1 0.296070 0.312211 0.856167
Si Si2 0.769216 0.235913 0.496289
Si Si3 0.347006 0.546537 0.627386
Si Si4 0.391535 0.395126 0.188684
Si Si5 0.674953 0.160495 0.250023
Si Si6 0.370174 0.763947 0.061437
Si Si7 0.848063 0.966433 0.402953
O O1 0.548408 0.474707 0.838302
O O2 0.108776 0.144079 0.732197
O O3 0.010363 0.330187 0.934564
O O4 0.479384 0.278955 0.893392
O O5 0.652510 0.187155 0.380423
O O6 0.520769 0.152703 0.575903
O O7 0.986063 0.434846 0.587082
O O8 0.951036 0.145463 0.436445
O O9 0.500000 0.500000 0.500000
O O10 0.392908 0.491311 0.695504
O O11 0.469477 0.741375 0.721803
O O12 0.035876 0.268494 0.214169
O O13 0.517152 0.288035 0.072894
O O14 0.519949 0.965407 0.147855
O O15 0.000000 0.000000 0.500000
#
# Coordination Sequence:
#
# PCOD9062625 Si02
#       7
#     2   2   2   2   2   2   2
#     4  12  28  51  79 113 157 204 267 322 386 466
#     4  11  24  44  67 112 146 196 252 315 387 467
#     4  12  28  44  74 110 156 196 253 316 398 464
#     4  12  29  50  79 111 153 209 259 326 389 465
#     4  12  27  48  77 110 160 199 260 326 393 466
#     4  12  30  53  81 113 155 210 270 320 388 461
#     4  11  24  41  75 104 153 197 253 313 393 455
#
# _framework density 24.705888000000002
#
# number of rings (size 3 to 8) (size 9 to 14) (size 15 to 20)
#    0.000    0.286    2.857    4.286   16.000    0.571 
#    0.000    0.000    0.000    0.000    0.000    0.000 
#    0.000    0.000    0.000    0.000    0.000    0.000 
#
# Total GULP energy -78340.383925 kJ/mol
# GULP energy per Si atom -5595.741709 kJ/mol
# Density = 2.464966 g / cm^3
# Si number density = 24.705888 Si / 1000 Ang^3
#
#
#
# Elastic Constant Matrix: (Units=GPa)
#
#
# Indices 1 2 3 4 5 6 
#
# 1 82.1652 24.2280 32.8375 -1.8449 -8.2410 -13.4440
# 2 24.2280 100.5549 46.4716 11.4443 -7.5684 -6.3050
# 3 32.8375 46.4716 161.5514 3.7348 -11.4537 1.0501
# 4 -1.8449 11.4443 3.7348 43.5382 5.7835 -2.9227
# 5 -8.2410 -7.5684 -11.4537 5.7835 47.1563 -5.1608
# 6 -13.4440 -6.3050 1.0501 -2.9227 -5.1608 40.1333
#
#
#
# Elastic Compliance Matrix: (Units=1/GPa)
#
#
# Indices 1 2 3 4 5 6 
#
# 1 0.014801 -0.002202 -0.002297 0.001470 0.002047 0.005043
# 2 -0.002202 0.012387 -0.002949 -0.003201 0.001415 0.001234
# 3 -0.002297 -0.002949 0.007578 -0.000173 0.000841 -0.001336
# 4 0.001470 -0.003201 -0.000173 0.024396 -0.003142 0.001367
# 5 0.002047 0.001415 0.000841 -0.003142 0.022773 0.003586
# 6 0.005043 0.001234 -0.001336 0.001367 0.003586 0.027396
#
#
# Mechanical properties :
#
#
# Convention : Reuss Voigt Hill
#
# Bulk Modulus (GPa) = 50.32832 61.26063 55.79447
# Shear Modulus (GPa) = 38.21213 42.21451 40.21332
#
# Velocity S-wave (km/s) = 3.93705 4.13811 4.03883
# Velocity P-wave (km/s) = 6.40955 6.90519 6.66198
#
# Compressibility (1/GPa) = 0.01986953
#
# Stress axis : x y z
#
# Youngs Moduli (GPa) = 67.56238 80.73283 131.96914
#
# Poissons Ratio (x) = 0.17775 0.30311
# Poissons Ratio (y) = 0.14876 0.38921
# Poissons Ratio (z) = 0.15518 0.23810
#
# Static dielectric constant tensor:
#      x y z
#    x 2.436040 0.051690 0.242300 
#    y 0.051690 2.071580 -0.049310 
#    z 0.242300 -0.049310 2.205560 
# 
# From -- ./inp_files/483002.got.cif
#   From: 2010.05.17/outbox.cif.g08.bks.cpg/sg2_242_cif.got.tgz:483002.got - 2010.06.03 11:33:40.
