data_PCOD9062798
_publ_section_title
;
Structure prediction by ZEFSAII (Michael W. Deem and Ramdas Pophale) SiO2 
 PCOD9062798
Probable space group: P -1
;
_chemical_formula_sum "Si O2"
_cell_formula_units_Z 12
_cell_length_a 16.666746
_cell_length_b 5.862044
_cell_length_c 7.778641
_cell_angle_alpha 86.393845
_cell_angle_beta 122.323950
_cell_angle_gamma 59.576465
_cell_volume 492.315907
_symmetry_space_group_name_H-M "P -1"
_symmetry_group_IT_number 2
_symmetry_cell_setting 'triclinic'
loop_
_space_group_symop_operation_xyz
x,y,z
-x,-y,-z
loop_
_atom_site_type_symbol
_atom_site_label
_atom_site_fract_x
_atom_site_fract_y
_atom_site_fract_z
Si Si1 0.940596 0.285890 0.303103
Si Si2 0.577766 0.582034 0.994883
Si Si3 0.356954 0.247164 0.616611
Si Si4 0.870951 0.652266 0.519669
Si Si5 0.270342 0.633794 0.158121
Si Si6 0.043087 0.189007 0.988018
O O1 0.872154 0.589511 0.322944
O O2 0.067009 0.201312 0.378561
O O3 0.834713 0.365921 0.048882
O O4 0.000000 0.000000 0.500000
O O5 0.651130 0.401139 0.914355
O O6 0.488631 0.922782 0.808792
O O7 0.500000 0.500000 0.000000
O O8 0.658386 0.558465 0.246423
O O9 0.255072 0.209170 0.536437
O O10 0.339047 0.396187 0.404453
O O11 0.970710 0.321211 0.720519
O O12 0.189528 0.956016 0.139604
O O13 0.000000 0.500000 0.000000
O O14 0.000000 0.000000 0.000000
#
# Coordination Sequence:
#
# PCOD9062798 Si02
#       6
#     2   2   2   2   2   2
#     4  11  24  42  71 116 159 204 263 314 420 488
#     4  11  28  52  76 112 155 214 281 343 402 476
#     4  11  26  49  78 111 161 206 282 333 407 486
#     4  11  24  42  72 110 159 209 251 335 400 489
#     4  12  25  50  81 113 164 213 267 339 410 494
#     4  12  26  46  74 123 160 205 266 331 409 500
#
# _framework density 24.374593000000001
#
# number of rings (size 3 to 8) (size 9 to 14) (size 15 to 20)
#    0.000    0.667    5.000    1.500    2.333    2.000 
#    6.000    0.000    0.000    0.000    0.000    0.000 
#    0.000    0.000    0.000    0.000    0.000    0.000 
#
# Total GULP energy -66957.184813 kJ/mol
# GULP energy per Si atom -5579.765401 kJ/mol
# Density = 2.431912 g / cm^3
# Si number density = 24.374593 Si / 1000 Ang^3
#
#
#
# Elastic Constant Matrix: (Units=GPa)
#
#
# Indices 1 2 3 4 5 6 
#
# 1 177.6613 57.6772 38.3660 8.8512 -18.1849 0.8935
# 2 57.6772 127.0662 42.9162 7.9667 -16.8419 -8.0352
# 3 38.3660 42.9162 139.4633 2.5985 -26.2775 8.9503
# 4 8.8512 7.9667 2.5985 36.9758 1.2961 3.0022
# 5 -18.1849 -16.8419 -26.2775 1.2961 32.4892 1.7310
# 6 0.8935 -8.0352 8.9503 3.0022 1.7310 46.3863
#
#
#
# Elastic Compliance Matrix: (Units=1/GPa)
#
#
# Indices 1 2 3 4 5 6 
#
# 1 0.006877 -0.002589 -0.000661 -0.001076 0.002039 -0.000460
# 2 -0.002589 0.010310 -0.002185 -0.001707 0.002074 0.002290
# 3 -0.000661 -0.002185 0.009345 -0.000050 0.006185 -0.002396
# 4 -0.001076 -0.001707 -0.000050 0.027923 -0.002536 -0.001978
# 5 0.002039 0.002074 0.006185 -0.002536 0.038214 -0.002135
# 6 -0.000460 0.002290 -0.002396 -0.001978 -0.002135 0.022634
#
#
# Mechanical properties :
#
#
# Convention : Reuss Voigt Hill
#
# Bulk Modulus (GPa) = 63.85338 80.23441 72.04390
# Shear Modulus (GPa) = 38.05391 43.51902 40.78647
#
# Velocity S-wave (km/s) = 3.95550 4.23001 4.09506
# Velocity P-wave (km/s) = 6.86403 7.53963 7.20975
#
# Compressibility (1/GPa) = 0.01566088
#
# Stress axis : x y z
#
# Youngs Moduli (GPa) = 145.41666 96.99384 107.01385
#
# Poissons Ratio (x) = 0.25117 0.07075
# Poissons Ratio (y) = 0.37656 0.23378
# Poissons Ratio (z) = 0.09614 0.21189
#
# Static dielectric constant tensor:
#      x y z
#    x 2.597310 -0.484440 -0.586620 
#    y -0.484440 2.537940 0.521020 
#    z -0.586620 0.521020 2.511940 
# 
# From -- ./inp_files/322543.got.cif
#   From: 2010.05.17/outbox.cif.g08.bks.cpg/sg2_162_cif.got.tgz:322543.got - 2010.06.03 11:33:40.
