data_PCOD9062409
_publ_section_title
;
Structure prediction by ZEFSAII (Michael W. Deem and Ramdas Pophale) SiO2 
 PCOD9062409
Probable space group: P -1
;
_chemical_formula_sum "Si O2"
_cell_formula_units_Z 16
_cell_length_a 11.651341
_cell_length_b 25.276272
_cell_length_c 7.890576
_cell_angle_alpha 46.639852
_cell_angle_beta 143.289779
_cell_angle_gamma 148.571209
_cell_volume 724.301235
_symmetry_space_group_name_H-M "P -1"
_symmetry_group_IT_number 2
_symmetry_cell_setting 'triclinic'
loop_
_space_group_symop_operation_xyz
x,y,z
-x,-y,-z
loop_
_atom_site_type_symbol
_atom_site_label
_atom_site_fract_x
_atom_site_fract_y
_atom_site_fract_z
Si Si1 0.414691 0.589358 0.601382
Si Si2 0.191350 0.938268 0.787262
Si Si3 0.295270 0.112134 0.093177
Si Si4 0.879116 0.639304 0.238508
Si Si5 0.774762 0.884048 0.631122
Si Si6 0.249832 0.706933 0.204610
Si Si7 0.156810 0.774116 0.606790
Si Si8 0.182460 0.229351 0.548268
O O1 0.233582 0.471340 0.618258
O O2 0.256102 0.621113 0.386541
O O3 0.593218 0.656180 0.501118
O O4 0.626590 0.623715 0.924109
O O5 0.036458 0.904636 0.856477
O O6 0.034001 0.839367 0.704701
O O7 0.158085 0.012295 0.519782
O O8 0.500000 0.000000 0.000000
O O9 0.303773 0.182190 0.824025
O O10 0.350701 0.160394 0.236983
O O11 0.536722 0.123790 0.298447
O O12 0.000000 0.000000 0.000000
O O13 0.062437 0.681943 0.193638
O O14 0.032410 0.707936 0.434649
O O15 0.550950 0.809699 0.388775
O O16 0.163359 0.721371 0.893908
O O17 0.972216 0.789196 0.425499
#
# Coordination Sequence:
#
# PCOD9062409 Si02
#       8
#     2   2   2   2   2   2   2   2
#     4  11  25  49  73 101 143 177 230 292 355 410
#     4  11  24  40  67  98 132 187 230 283 348 408
#     4  12  26  46  65 103 144 182 237 286 337 413
#     4  11  27  48  72 108 134 182 235 288 349 422
#     4  11  24  42  68  98 140 183 230 286 344 409
#     4  12  23  48  73 103 140 182 230 289 350 410
#     4  12  27  44  74 104 140 183 237 285 342 416
#     4  12  25  44  68 101 141 183 225 291 347 405
#
# _framework density 22.090256
#
# number of rings (size 3 to 8) (size 9 to 14) (size 15 to 20)
#    0.000    0.500    6.250    1.125    5.250    2.500 
#    0.000    0.000    0.000    0.000    0.000    0.000 
#    0.000    0.000    0.000    0.000    0.000    0.000 
#
# Total GULP energy -89462.134499 kJ/mol
# GULP energy per Si atom -5591.383406 kJ/mol
# Density = 2.203998 g / cm^3
# Si number density = 22.090256 Si / 1000 Ang^3
#
#
#
# Elastic Constant Matrix: (Units=GPa)
#
#
# Indices 1 2 3 4 5 6 
#
# 1 145.2560 13.7990 23.6356 15.5454 5.9159 5.5648
# 2 13.7990 77.2536 0.7924 3.1327 -0.9824 6.8860
# 3 23.6356 0.7924 43.9179 3.7571 1.5794 -4.9981
# 4 15.5454 3.1327 3.7571 26.7411 0.9040 0.5034
# 5 5.9159 -0.9824 1.5794 0.9040 34.0196 -1.5607
# 6 5.5648 6.8860 -4.9981 0.5034 -1.5607 28.7020
#
#
#
# Elastic Compliance Matrix: (Units=1/GPa)
#
#
# Indices 1 2 3 4 5 6 
#
# 1 0.008239 -0.001098 -0.004265 -0.003980 -0.001256 -0.002075
# 2 -0.001098 0.013446 0.000072 -0.000907 0.000464 -0.002959
# 3 -0.004265 0.000072 0.025781 -0.001245 -0.000176 0.005311
# 4 -0.003980 -0.000907 -0.001245 0.040001 -0.000337 0.000053
# 5 -0.001256 0.000464 -0.000176 -0.000337 0.029723 0.001724
# 6 -0.002075 -0.002959 0.005311 0.000053 0.001724 0.036971
#
#
# Mechanical properties :
#
#
# Convention : Reuss Voigt Hill
#
# Bulk Modulus (GPa) = 27.11051 38.09794 32.60422
# Shear Modulus (GPa) = 28.24265 33.10591 30.67428
#
# Velocity S-wave (km/s) = 3.57951 3.87546 3.73042
# Velocity P-wave (km/s) = 5.42062 6.10815 5.77463
#
# Compressibility (1/GPa) = 0.03688606
#
# Stress axis : x y z
#
# Youngs Moduli (GPa) = 121.37005 74.37071 38.78813
#
# Poissons Ratio (x) = 0.08162 0.16543
# Poissons Ratio (y) = 0.13321 -0.00280
# Poissons Ratio (z) = 0.51763 -0.00537
#
# Static dielectric constant tensor:
#      x y z
#    x 1.867100 0.035620 0.008440 
#    y 0.035620 1.792160 -0.007210 
#    z 0.008440 -0.007210 1.874470 
# 
# From -- ./inp_files/284770.got.cif
#   From: 2010.05.17/outbox.cif.g08.bks.cpg/sg2_143_cif.got.tgz:284770.got - 2010.06.03 11:33:40.
