data_PCOD9062756
_publ_section_title
;
Structure prediction by ZEFSAII (Michael W. Deem and Ramdas Pophale) SiO2 
 PCOD9062756
Probable space group: P -1
;
_chemical_formula_sum "Si O2"
_cell_formula_units_Z 16
_cell_length_a 12.049019
_cell_length_b 24.758388
_cell_length_c 6.275668
_cell_angle_alpha 66.486824
_cell_angle_beta 90.003488
_cell_angle_gamma 34.584173
_cell_volume 755.788380
_symmetry_space_group_name_H-M "P -1"
_symmetry_group_IT_number 2
_symmetry_cell_setting 'triclinic'
loop_
_space_group_symop_operation_xyz
x,y,z
-x,-y,-z
loop_
_atom_site_type_symbol
_atom_site_label
_atom_site_fract_x
_atom_site_fract_y
_atom_site_fract_z
Si Si1 0.030659 0.378722 0.732062
Si Si2 0.970114 0.061569 0.590987
Si Si3 0.210123 0.152922 0.696723
Si Si4 0.067360 0.451015 0.314762
Si Si5 0.440684 0.135740 0.416259
Si Si6 0.796133 0.372135 0.726126
Si Si7 0.946347 0.851349 0.654882
Si Si8 0.612330 0.154977 0.720470
O O1 0.979309 0.426751 0.416439
O O2 0.018100 0.449040 0.725707
O O3 0.833523 0.421957 0.720701
O O4 0.294969 0.227333 0.059979
O O5 0.756847 0.137268 0.623032
O O6 0.923210 0.147390 0.354364
O O7 0.000000 0.000000 0.500000
O O8 0.213923 0.950210 0.920617
O O9 0.251303 0.185265 0.473388
O O10 0.112174 0.141877 0.593704
O O11 0.001925 0.268966 0.692249
O O12 0.500000 0.000000 0.000000
O O13 0.363731 0.302136 0.582689
O O14 0.000000 0.500000 0.000000
O O15 0.534155 0.142602 0.566160
O O16 0.685220 0.983712 0.576190
O O17 0.500000 0.500000 0.500000
O O18 0.894242 0.275935 0.038650
#
# Coordination Sequence:
#
# PCOD9062756 Si02
#       8
#     2   2   2   2   2   2   2   2
#     4  11  25  45  69 101 141 183 241 301 353 419
#     4  11  25  43  66 100 143 182 227 289 356 424
#     4  12  24  44  76 104 138 184 242 299 354 419
#     4  11  24  43  71 102 136 184 238 295 357 419
#     4  12  21  45  74 104 141 179 248 309 354 411
#     4  12  29  48  68 104 149 193 235 290 363 440
#     4  12  25  44  71 104 141 188 239 293 358 424
#     4  11  24  42  70 102 138 183 235 291 358 426
#
# _framework density 21.169944999999998
#
# number of rings (size 3 to 8) (size 9 to 14) (size 15 to 20)
#    0.000    0.500    5.000    3.375    0.000    3.500 
#    0.000    0.000    0.000    0.000    0.000    0.000 
#    0.000    0.000    0.000    0.000    0.000    0.000 
#
# Total GULP energy -89264.319444 kJ/mol
# GULP energy per Si atom -5579.019965 kJ/mol
# Density = 2.112176 g / cm^3
# Si number density = 21.169945 Si / 1000 Ang^3
#
#
#
# Elastic Constant Matrix: (Units=GPa)
#
#
# Indices 1 2 3 4 5 6 
#
# 1 145.4637 8.9575 60.5862 -7.9618 -19.8824 2.6608
# 2 8.9575 56.0469 7.3416 -12.0939 1.9589 -3.0564
# 3 60.5862 7.3416 103.4401 -12.9212 -16.3236 4.4148
# 4 -7.9618 -12.0939 -12.9212 32.9479 -0.5602 2.3597
# 5 -19.8824 1.9589 -16.3236 -0.5602 42.1103 2.3195
# 6 2.6608 -3.0564 4.4148 2.3597 2.3195 30.0128
#
#
#
# Elastic Compliance Matrix: (Units=1/GPa)
#
#
# Indices 1 2 3 4 5 6 
#
# 1 0.009373 -0.000948 -0.004999 0.000028 0.002553 -0.000392
# 2 -0.000948 0.019627 -0.000308 0.006706 -0.001485 0.001715
# 3 -0.004999 -0.000308 0.013744 0.004280 0.003159 -0.002190
# 4 0.000028 0.006706 0.004280 0.034734 0.001978 -0.002833
# 5 0.002553 -0.001485 0.003159 0.001978 0.026440 -0.003041
# 6 -0.000392 0.001715 -0.002190 -0.002833 -0.003041 0.034309
#
#
# Mechanical properties :
#
#
# Convention : Reuss Voigt Hill
#
# Bulk Modulus (GPa) = 33.07554 50.96904 42.02229
# Shear Modulus (GPa) = 31.09178 36.21855 33.65516
#
# Velocity S-wave (km/s) = 3.83649 4.14073 3.99151
# Velocity P-wave (km/s) = 5.93992 6.85487 6.41373
#
# Compressibility (1/GPa) = 0.03023382
#
# Stress axis : x y z
#
# Youngs Moduli (GPa) = 106.69048 50.95145 72.75850
#
# Poissons Ratio (x) = 0.04829 0.36375
# Poissons Ratio (y) = 0.10111 0.02239
# Poissons Ratio (z) = 0.53339 0.01568
#
# Static dielectric constant tensor:
#      x y z
#    x 1.755380 -0.004810 -0.014490 
#    y -0.004810 1.850190 0.111040 
#    z -0.014490 0.111040 1.871340 
# 
# From -- ./inp_files/84315.got.cif
#   From: 2010.05.17/outbox.cif.g08.bks.cpg/sg2_43_cif.got.tgz:84315.got - 2010.06.03 11:33:40.
