data_PCOD9062476
_publ_section_title
;
Structure prediction by ZEFSAII (Michael W. Deem and Ramdas Pophale) SiO2 
 PCOD9062476
Probable space group: P -1
;
_chemical_formula_sum "Si O2"
_cell_formula_units_Z 12
_cell_length_a 27.035691
_cell_length_b 5.548741
_cell_length_c 25.057082
_cell_angle_alpha 130.756736
_cell_angle_beta 10.379598
_cell_angle_gamma 130.323191
_cell_volume 512.665690
_symmetry_space_group_name_H-M "P -1"
_symmetry_group_IT_number 2
_symmetry_cell_setting 'triclinic'
loop_
_space_group_symop_operation_xyz
x,y,z
-x,-y,-z
loop_
_atom_site_type_symbol
_atom_site_label
_atom_site_fract_x
_atom_site_fract_y
_atom_site_fract_z
Si Si1 0.198410 0.381315 0.316993
Si Si2 0.057652 0.546952 0.106951
Si Si3 0.310096 0.430524 0.398700
Si Si4 0.044080 0.122791 0.909606
Si Si5 0.085221 0.709447 0.293558
Si Si6 0.350970 0.136180 0.486430
O O1 0.000000 0.500000 0.500000
O O2 0.081199 0.493663 0.514243
O O3 0.193172 0.003321 0.257904
O O4 0.500000 0.500000 0.000000
O O5 0.855466 0.647723 0.383194
O O6 0.878040 0.626653 0.256992
O O7 0.123553 0.170386 0.984381
O O8 0.344721 0.737123 0.830657
O O9 0.147948 0.247539 0.497082
O O10 0.283711 0.811182 0.479104
O O11 0.637163 0.391537 0.044422
O O12 0.323995 0.087675 0.572357
O O13 0.000000 0.500000 0.000000
O O14 0.000000 0.000000 0.000000
#
# Coordination Sequence:
#
# PCOD9062476 Si02
#       6
#     2   2   2   2   2   2
#     4  11  24  41  64  94 130 177 228 283 342 411
#     4  11  25  45  69 102 139 181 235 287 350 427
#     4  11  24  41  66  97 134 178 224 288 352 417
#     4  11  24  48  74 107 142 191 238 297 360 425
#     4  11  24  42  64  98 134 172 232 280 344 416
#     4  11  25  45  69 102 139 181 235 287 350 427
#
# _framework density 23.407069
#
# number of rings (size 3 to 8) (size 9 to 14) (size 15 to 20)
#    0.000    1.000    1.667    4.000    0.000   16.000 
#    0.000    0.000    0.000    0.000    0.000    0.000 
#    0.000    0.000    0.000    0.000    0.000    0.000 
#
# Total GULP energy -66848.808294 kJ/mol
# GULP energy per Si atom -5570.734024 kJ/mol
# Density = 2.335379 g / cm^3
# Si number density = 23.407069 Si / 1000 Ang^3
#
#
#
# Elastic Constant Matrix: (Units=GPa)
#
#
# Indices 1 2 3 4 5 6 
#
# 1 93.2314 13.3066 4.6040 -28.7820 0.4675 3.3830
# 2 13.3066 70.1315 88.8893 -7.5335 28.8020 -19.2926
# 3 4.6040 88.8893 -56.9565 -74.4195 -76.9552 60.0122
# 4 -28.7820 -7.5335 -74.4195 31.7328 -16.4796 11.7273
# 5 0.4675 28.8020 -76.9552 -16.4796 18.6601 22.8545
# 6 3.3830 -19.2926 60.0122 11.7273 22.8545 10.0182
#
#
#
# Elastic Compliance Matrix: (Units=1/GPa)
#
#
# Indices 1 2 3 4 5 6 
#
# 1 0.012812 0.001304 -0.001076 0.007368 -0.002581 0.001892
# 2 0.001304 0.011662 0.001824 0.009639 0.000981 -0.002432
# 3 -0.001076 0.001824 0.001812 -0.001617 -0.005288 0.006977
# 4 0.007368 0.009639 -0.001617 0.029067 -0.007839 0.009617
# 5 -0.002581 0.000981 -0.005288 -0.007839 0.016727 0.005455
# 6 0.001892 -0.002432 0.006977 0.009617 0.005455 0.028999
#
#
# Mechanical properties :
#
#
# Convention : Reuss Voigt Hill
#
# Bulk Modulus (GPa) = 32.90267 35.55625 34.22946
# Shear Modulus (GPa) = 46.68288 12.05599 29.36943
#
# Velocity S-wave (km/s) = 4.47071 2.27195 3.54605
# Velocity P-wave (km/s) = 6.38254 4.70167 5.60547
#
# Compressibility (1/GPa) = 0.03039267
#
# Stress axis : x y z
#
# Youngs Moduli (GPa) = 78.05261 85.74526 551.76757
#
# Poissons Ratio (x) = -0.11184 0.59357
# Poissons Ratio (y) = -0.10180 -1.00667
# Poissons Ratio (z) = 0.08397 -0.15644
#
# Static dielectric constant tensor:
#      x y z
#    x 1.961880 0.006110 0.090270 
#    y 0.006110 2.174310 0.062160 
#    z 0.090270 0.062160 1.911260 
# 
# From -- ./inp_files/7343.got.cif
#   From: 2010.05.17/outbox.cif.g08.bks.cpg/sg2_4_cif.got.tgz:7343.got - 2010.06.03 11:33:40.
