data_PCOD9062457
_publ_section_title
;
Structure prediction by ZEFSAII (Michael W. Deem and Ramdas Pophale) SiO2 
 PCOD9062457
Probable space group: P -1
;
_chemical_formula_sum "Si O2"
_cell_formula_units_Z 16
_cell_length_a 25.769106
_cell_length_b 25.912831
_cell_length_c 5.139597
_cell_angle_alpha 99.352006
_cell_angle_beta 100.654174
_cell_angle_gamma 10.606732
_cell_volume 617.306466
_symmetry_space_group_name_H-M "P -1"
_symmetry_group_IT_number 2
_symmetry_cell_setting 'triclinic'
loop_
_space_group_symop_operation_xyz
x,y,z
-x,-y,-z
loop_
_atom_site_type_symbol
_atom_site_label
_atom_site_fract_x
_atom_site_fract_y
_atom_site_fract_z
Si Si1 0.269098 0.769186 0.957349
Si Si2 0.779795 0.735407 0.706048
Si Si3 0.625811 0.153520 0.930802
Si Si4 0.545380 0.034156 0.144789
Si Si5 0.189283 0.933824 0.647861
Si Si6 0.354100 0.506834 0.654553
Si Si7 0.089057 0.619974 0.939372
Si Si8 0.088039 0.555257 0.375480
O O1 0.442105 0.649785 0.142981
O O2 0.500000 0.500000 0.000000
O O3 0.148994 0.915126 0.706784
O O4 0.000000 0.000000 0.000000
O O5 0.000000 0.500000 0.500000
O O6 0.500000 0.000000 0.500000
O O7 0.710204 0.760505 0.893765
O O8 0.713508 0.855083 0.888297
O O9 0.434808 0.371714 0.727064
O O10 0.383522 0.363698 0.058205
O O11 0.830586 0.997145 0.125898
O O12 0.838965 0.900958 0.830920
O O13 0.829604 0.766269 0.362063
O O14 0.357377 0.266950 0.244289
O O15 0.521066 0.612124 0.616533
O O16 0.970381 0.159413 0.395839
O O17 0.159535 0.511244 0.681997
O O18 0.984168 0.697231 0.176107
#
# Coordination Sequence:
#
# PCOD9062457 Si02
#       8
#     2   2   2   2   2   2   2   2
#     4  11  24  41  62  98 142 178 234 290 358 449
#     4  11  24  43  76 105 145 198 250 307 371 438
#     4  11  26  46  70 101 138 179 246 309 360 455
#     4  11  26  46  70 110 148 194 252 309 370 457
#     4  11  24  42  69  98 133 184 234 299 366 429
#     4  11  24  42  69  98 133 184 234 299 366 429
#     4  12  28  47  74 106 144 196 246 307 384 449
#     4  12  28  47  74 108 150 196 244 309 384 447
#
# _framework density 25.919056000000001
#
# number of rings (size 3 to 8) (size 9 to 14) (size 15 to 20)
#    0.000    0.750    0.000    6.000   10.500    9.000 
#    0.000    0.000    0.000    0.000    0.000    0.000 
#    0.000    0.000    0.000    0.000    0.000    0.000 
#
# Total GULP energy -89174.393648 kJ/mol
# GULP energy per Si atom -5573.399603 kJ/mol
# Density = 2.586006 g / cm^3
# Si number density = 25.919056 Si / 1000 Ang^3
#
#
#
# Elastic Constant Matrix: (Units=GPa)
#
#
# Indices 1 2 3 4 5 6 
#
# 1 80.8543 32.5845 15.6074 8.9849 -10.6085 -8.7793
# 2 32.5845 191.0588 12.8620 15.0725 -3.8877 2.5057
# 3 15.6074 12.8620 88.9123 15.4939 2.0449 -1.6229
# 4 8.9849 15.0725 15.4939 41.9681 -4.9940 2.0781
# 5 -10.6085 -3.8877 2.0449 -4.9940 32.0129 4.4695
# 6 -8.7793 2.5057 -1.6229 2.0781 4.4695 48.4612
#
#
#
# Elastic Compliance Matrix: (Units=1/GPa)
#
#
# Indices 1 2 3 4 5 6 
#
# 1 0.014595 -0.002201 -0.002091 -0.001180 0.004190 0.002352
# 2 -0.002201 0.005746 -0.000189 -0.001512 -0.000169 -0.000622
# 3 -0.002091 -0.000189 0.012464 -0.004377 -0.002257 0.000444
# 4 -0.001180 -0.001512 -0.004377 0.026822 0.004142 -0.001814
# 5 0.004190 -0.000169 -0.002257 0.004142 0.033759 -0.002599
# 6 0.002352 -0.000622 0.000444 -0.001814 -0.002599 0.021426
#
#
# Mechanical properties :
#
#
# Convention : Reuss Voigt Hill
#
# Bulk Modulus (GPa) = 41.94128 53.65923 47.80025
# Shear Modulus (GPa) = 37.95899 44.47320 41.21609
#
# Velocity S-wave (km/s) = 3.83106 4.14678 3.99204
# Velocity P-wave (km/s) = 5.98215 6.60872 6.30323
#
# Compressibility (1/GPa) = 0.02384286
#
# Stress axis : x y z
#
# Youngs Moduli (GPa) = 68.51725 174.03235 80.23016
#
# Poissons Ratio (x) = 0.38301 0.16779
# Poissons Ratio (y) = 0.15079 0.01515
# Poissons Ratio (z) = 0.14330 0.03287
#
# Static dielectric constant tensor:
#      x y z
#    x -2.109930 0.058150 8.547270 
#    y 0.058150 1.923680 -0.192810 
#    z 8.547270 -0.192810 -15.949520 
# 
# From -- ./inp_files/127782.got.cif
#   From: 2010.05.17/outbox.cif.g08.bks.cpg/sg2_64_cif.got.tgz:127782.got - 2010.06.03 11:33:40.
