data_PCOD9062637
_publ_section_title
;
Structure prediction by ZEFSAII (Michael W. Deem and Ramdas Pophale) SiO2 
 PCOD9062637
Probable space group: P -1
;
_chemical_formula_sum "Si O2"
_cell_formula_units_Z 16
_cell_length_a 9.267774
_cell_length_b 16.235607
_cell_length_c 12.577865
_cell_angle_alpha 142.455131
_cell_angle_beta 112.235846
_cell_angle_gamma 45.181474
_cell_volume 743.389455
_symmetry_space_group_name_H-M "P -1"
_symmetry_group_IT_number 2
_symmetry_cell_setting 'triclinic'
loop_
_space_group_symop_operation_xyz
x,y,z
-x,-y,-z
loop_
_atom_site_type_symbol
_atom_site_label
_atom_site_fract_x
_atom_site_fract_y
_atom_site_fract_z
Si Si1 0.333174 0.615247 0.972708
Si Si2 0.892740 0.830435 0.567610
Si Si3 0.274790 0.664498 0.674748
Si Si4 0.583891 0.214270 0.001591
Si Si5 0.855400 0.557432 0.326204
Si Si6 0.545526 0.690886 0.538841
Si Si7 0.626663 0.790420 0.865855
Si Si8 0.043681 0.961975 0.597857
O O1 0.452444 0.635280 0.935156
O O2 0.261922 0.504514 0.814696
O O3 0.500000 0.500000 0.000000
O O4 0.109880 0.835966 0.172792
O O5 0.868726 0.686450 0.394034
O O6 0.078964 0.748272 0.625507
O O7 0.970195 0.861278 0.516497
O O8 0.681705 0.038448 0.772222
O O9 0.500000 0.500000 0.500000
O O10 0.263611 0.810024 0.887792
O O11 0.296878 0.537893 0.642387
O O12 0.409231 0.244336 0.060320
O O13 0.695548 0.701963 0.526928
O O14 0.107033 0.365257 0.233701
O O15 0.523643 0.748562 0.712202
O O16 0.304586 0.819531 0.552274
O O17 0.500000 0.000000 0.000000
O O18 0.000000 0.000000 0.500000
#
# Coordination Sequence:
#
# PCOD9062637 Si02
#       8
#     2   2   2   2   2   2   2   2
#     4  11  26  48  71  96 128 181 233 274 333 410
#     4  11  24  42  65 104 134 175 221 281 339 390
#     4  12  20  37  67  97 134 178 221 265 329 407
#     4  11  24  42  67  95 139 182 225 268 333 408
#     4  12  25  42  68 100 137 173 220 284 340 391
#     4  12  23  39  65  99 137 176 222 265 336 397
#     4  12  25  40  63 102 143 174 218 280 343 395
#     4  11  25  46  71  95 131 180 231 275 325 407
#
# _framework density 21.523040000000002
#
# number of rings (size 3 to 8) (size 9 to 14) (size 15 to 20)
#    0.000    0.500    5.000    3.000    1.750    2.000 
#    0.000    9.375    0.000    0.000    0.000    0.000 
#    0.000    0.000    0.000    0.000    0.000    0.000 
#
# Total GULP energy -89178.223936 kJ/mol
# GULP energy per Si atom -5573.638996 kJ/mol
# Density = 2.147405 g / cm^3
# Si number density = 21.523040 Si / 1000 Ang^3
#
#
#
# Elastic Constant Matrix: (Units=GPa)
#
#
# Indices 1 2 3 4 5 6 
#
# 1 135.0681 72.4023 40.6910 0.3991 -4.4177 32.0859
# 2 72.4023 114.6199 28.0339 -12.8909 -0.3795 24.9449
# 3 40.6910 28.0339 69.1785 4.7662 20.4421 18.3542
# 4 0.3991 -12.8909 4.7662 31.3023 7.9130 3.9431
# 5 -4.4177 -0.3795 20.4421 7.9130 43.8633 3.4417
# 6 32.0859 24.9449 18.3542 3.9431 3.4417 20.5932
#
#
#
# Elastic Compliance Matrix: (Units=1/GPa)
#
#
# Indices 1 2 3 4 5 6 
#
# 1 0.015093 -0.005740 -0.004371 -0.001443 0.004803 -0.013194
# 2 -0.005740 0.015842 -0.000329 0.008308 -0.000892 -0.011395
# 3 -0.004371 -0.000329 0.023413 0.000523 -0.010507 -0.012003
# 4 -0.001443 0.008308 0.000523 0.038709 -0.006150 -0.014667
# 5 0.004803 -0.000892 -0.010507 -0.006150 0.029340 -0.000764
# 6 -0.013194 -0.011395 -0.012003 -0.014667 -0.000764 0.096554
#
#
# Mechanical properties :
#
#
# Convention : Reuss Voigt Hill
#
# Bulk Modulus (GPa) = 29.87894 66.79122 48.33508
# Shear Modulus (GPa) = 19.92137 31.00103 25.46120
#
# Velocity S-wave (km/s) = 3.04564 3.79933 3.44317
# Velocity P-wave (km/s) = 5.12644 7.09552 6.18978
#
# Compressibility (1/GPa) = 0.03346839
#
# Stress axis : x y z
#
# Youngs Moduli (GPa) = 66.25666 63.12361 42.71118
#
# Poissons Ratio (x) = 0.36230 0.18669
# Poissons Ratio (y) = 0.38028 0.01406
# Poissons Ratio (z) = 0.28961 0.02078
#
# Static dielectric constant tensor:
#      x y z
#    x 1.938510 0.077210 0.104870 
#    y 0.077210 1.749980 0.059770 
#    z 0.104870 0.059770 1.985360 
# 
# From -- ./inp_files/399820.got.cif
#   From: 2010.05.17/outbox.cif.g08.bks.cpg/sg2_200_cif.got.tgz:399820.got - 2010.06.03 11:33:40.
