data_PCOD9062844
_publ_section_title
;
Structure prediction by ZEFSAII (Michael W. Deem and Ramdas Pophale) SiO2 
 PCOD9062844
Probable space group: P -1
;
_chemical_formula_sum "Si O2"
_cell_formula_units_Z 10
_cell_length_a 11.475262
_cell_length_b 10.180821
_cell_length_c 7.915693
_cell_angle_alpha 44.563168
_cell_angle_beta 91.377647
_cell_angle_gamma 125.376785
_cell_volume 388.457117
_symmetry_space_group_name_H-M "P -1"
_symmetry_group_IT_number 2
_symmetry_cell_setting 'triclinic'
loop_
_space_group_symop_operation_xyz
x,y,z
-x,-y,-z
loop_
_atom_site_type_symbol
_atom_site_label
_atom_site_fract_x
_atom_site_fract_y
_atom_site_fract_z
Si Si1 0.154125 0.607564 0.775209
Si Si2 0.502403 0.230852 0.349324
Si Si3 0.348049 0.758881 0.069364
Si Si4 0.991991 0.218897 0.780379
Si Si5 0.559931 0.663355 0.171113
O O1 0.291567 0.605175 0.833306
O O2 0.054581 0.399230 0.792934
O O3 0.329200 0.986734 0.429596
O O4 0.000000 0.500000 0.000000
O O5 0.548050 0.488377 0.190784
O O6 0.402547 0.984017 0.726849
O O7 0.402040 0.615067 0.162370
O O8 0.137142 0.474900 0.404430
O O9 0.500000 0.000000 0.000000
O O10 0.779097 0.004234 0.909769
O O11 0.000000 0.000000 0.000000
O O12 0.500000 0.500000 0.500000
#
# Coordination Sequence:
#
# PCOD9062844 Si02
#       5
#     2   2   2   2   2
#     4  11  24  42  73  97 143 185 219 282 357 401
#     4  11  25  47  67 102 141 181 224 287 346 405
#     4  12  24  43  73 105 136 177 240 284 332 412
#     4  12  23  43  75 104 131 184 237 278 342 411
#     4  12  22  41  73  99 137 177 228 288 334 397
#
# _framework density 25.742867
#
# number of rings (size 3 to 8) (size 9 to 14) (size 15 to 20)
#    0.000    0.400    8.000    1.200    0.000    2.400 
#    0.000    5.000    0.000    0.000    0.000    0.000 
#    0.000    0.000    0.000    0.000    0.000    0.000 
#
# Total GULP energy -55961.199132 kJ/mol
# GULP energy per Si atom -5596.119913 kJ/mol
# Density = 2.568428 g / cm^3
# Si number density = 25.742867 Si / 1000 Ang^3
#
#
#
# Elastic Constant Matrix: (Units=GPa)
#
#
# Indices 1 2 3 4 5 6 
#
# 1 190.1036 83.7794 74.7989 -22.2498 -18.7761 -27.4360
# 2 83.7794 221.6320 38.5215 -27.2684 -1.9623 -3.6700
# 3 74.7989 38.5215 141.3029 -0.7030 -23.3425 16.2275
# 4 -22.2498 -27.2684 -0.7030 51.7859 2.3932 8.1686
# 5 -18.7761 -1.9623 -23.3425 2.3932 67.0217 -10.8004
# 6 -27.4360 -3.6700 16.2275 8.1686 -10.8004 64.6026
#
#
#
# Elastic Compliance Matrix: (Units=1/GPa)
#
#
# Indices 1 2 3 4 5 6 
#
# 1 0.009149 -0.002366 -0.004481 0.001770 0.001665 0.004931
# 2 -0.002366 0.005705 -0.000315 0.002183 -0.000848 -0.001019
# 3 -0.004481 -0.000315 0.010275 -0.001394 0.001713 -0.004039
# 4 0.001770 0.002183 -0.001394 0.021507 -0.000960 -0.001654
# 5 0.001665 -0.000848 0.001713 -0.000960 0.016494 0.003107
# 6 0.004931 -0.001019 -0.004039 -0.001654 0.003107 0.019259
#
#
# Mechanical properties :
#
#
# Convention : Reuss Voigt Hill
#
# Bulk Modulus (GPa) = 92.54120 105.24870 98.89495
# Shear Modulus (GPa) = 49.84404 60.41129 55.12766
#
# Velocity S-wave (km/s) = 4.40503 4.84955 4.63263
# Velocity P-wave (km/s) = 7.86757 8.50476 8.19236
#
# Compressibility (1/GPa) = 0.01080600
#
# Stress axis : x y z
#
# Youngs Moduli (GPa) = 109.30213 175.27772 97.32694
#
# Poissons Ratio (x) = 0.41462 0.43608
# Poissons Ratio (y) = 0.25856 0.03069
# Poissons Ratio (z) = 0.48974 0.05526
#
# Static dielectric constant tensor:
#      x y z
#    x 4.439420 -2.852530 -3.055670 
#    y -2.852530 5.668910 4.081290 
#    z -3.055670 4.081290 6.532060 
# 
# From -- ./inp_files/246541.got.cif
#   From: 2010.05.17/outbox.cif.g08.bks.cpg/sg2_124_cif.got.tgz:246541.got - 2010.06.03 11:33:40.
