data_PCOD9062295
_publ_section_title
;
Structure prediction by ZEFSAII (Michael W. Deem and Ramdas Pophale) SiO2 
 PCOD9062295
Probable space group: P -1
;
_chemical_formula_sum "Si O2"
_cell_formula_units_Z 14
_cell_length_a 7.941642
_cell_length_b 5.840392
_cell_length_c 18.848559
_cell_angle_alpha 49.489659
_cell_angle_beta 61.939367
_cell_angle_gamma 68.349515
_cell_volume 583.919544
_symmetry_space_group_name_H-M "P -1"
_symmetry_group_IT_number 2
_symmetry_cell_setting 'triclinic'
loop_
_space_group_symop_operation_xyz
x,y,z
-x,-y,-z
loop_
_atom_site_type_symbol
_atom_site_label
_atom_site_fract_x
_atom_site_fract_y
_atom_site_fract_z
Si Si1 0.639449 0.292364 0.563277
Si Si2 0.152651 0.836360 0.948866
Si Si3 0.604962 0.697188 0.258834
Si Si4 0.735203 0.442893 0.735895
Si Si5 0.023576 0.744846 0.700128
Si Si6 0.108688 0.199124 0.130313
Si Si7 0.840228 0.763742 0.526699
O O1 0.500000 0.500000 0.500000
O O2 0.522051 0.168066 0.677306
O O3 0.754039 0.545792 0.529596
O O4 0.729921 0.028428 0.545722
O O5 0.036956 0.816152 0.902637
O O6 0.318420 0.046071 0.856559
O O7 0.208541 0.504316 0.035774
O O8 0.000000 0.000000 0.000000
O O9 0.466589 0.507479 0.275757
O O10 0.786958 0.491432 0.297002
O O11 0.890952 0.520230 0.628619
O O12 0.820022 0.619824 0.748197
O O13 0.749961 0.100202 0.828424
O O14 0.015794 0.800522 0.773840
O O15 0.038795 0.027924 0.588269
#
# Coordination Sequence:
#
# PCOD9062295 Si02
#       7
#     2   2   2   2   2   2   2
#     4  11  24  44  71 114 148 200 259 298 369 452
#     4  11  23  49  76 107 137 195 249 310 381 448
#     4  11  25  46  78 102 150 195 244 313 376 438
#     4  11  27  47  67 118 145 193 251 306 368 456
#     4  12  25  48  75 105 153 201 244 304 368 447
#     4  11  25  45  77 106 145 187 258 304 374 453
#     4  11  27  44  75 109 160 202 247 304 371 449
#
# _framework density 23.975902000000001
#
# number of rings (size 3 to 8) (size 9 to 14) (size 15 to 20)
#    0.000    0.857    4.286    0.857   10.000    1.143 
#    0.000    2.857    0.000    0.000    0.000    0.000 
#    0.000    0.000    0.000    0.000    0.000    0.000 
#
# Total GULP energy -78122.890808 kJ/mol
# GULP energy per Si atom -5580.206486 kJ/mol
# Density = 2.392133 g / cm^3
# Si number density = 23.975902 Si / 1000 Ang^3
#
#
#
# Elastic Constant Matrix: (Units=GPa)
#
#
# Indices 1 2 3 4 5 6 
#
# 1 94.5343 52.1417 45.2889 -14.6823 5.3469 5.7338
# 2 52.1417 139.9226 61.2068 -2.8501 -5.5526 13.1326
# 3 45.2889 61.2068 183.0860 -19.0734 -8.4108 19.1615
# 4 -14.6823 -2.8501 -19.0734 57.0983 -0.5309 6.8686
# 5 5.3469 -5.5526 -8.4108 -0.5309 44.8038 -6.0015
# 6 5.7338 13.1326 19.1615 6.8686 -6.0015 29.5850
#
#
#
# Elastic Compliance Matrix: (Units=1/GPa)
#
#
# Indices 1 2 3 4 5 6 
#
# 1 0.014682 -0.004650 -0.001797 0.003023 -0.002747 -0.000877
# 2 -0.004650 0.009967 -0.002077 -0.001181 0.001163 -0.001668
# 3 -0.001797 -0.002077 0.007282 0.002334 0.000840 -0.003818
# 4 0.003023 -0.001181 0.002334 0.019763 -0.000679 -0.006299
# 5 -0.002747 0.001163 0.000840 -0.000679 0.023531 0.004403
# 6 -0.000877 -0.001668 -0.003818 -0.006299 0.004403 0.039539
#
#
# Mechanical properties :
#
#
# Convention : Reuss Voigt Hill
#
# Bulk Modulus (GPa) = 67.18977 81.64640 74.41809
# Shear Modulus (GPa) = 36.55699 43.55777 40.05738
#
# Velocity S-wave (km/s) = 3.90903 4.26694 4.09190
# Velocity P-wave (km/s) = 6.96123 7.64219 7.30965
#
# Compressibility (1/GPa) = 0.01488322
#
# Stress axis : x y z
#
# Youngs Moduli (GPa) = 68.11069 100.33304 137.32765
#
# Poissons Ratio (x) = 0.46659 0.24673
# Poissons Ratio (y) = 0.31674 0.28518
# Poissons Ratio (z) = 0.12237 0.20835
#
# Static dielectric constant tensor:
#      x y z
#    x 2.005100 -0.023020 -0.068250 
#    y -0.023020 2.006390 -0.006500 
#    z -0.068250 -0.006500 1.895690 
# 
# From -- ./inp_files/77540.got.cif
#   From: 2010.05.17/outbox.cif.g08.bks.cpg/sg2_39_cif.got.tgz:77540.got - 2010.06.03 11:33:40.
