data_PCOD9062556
_publ_section_title
;
Structure prediction by ZEFSAII (Michael W. Deem and Ramdas Pophale) SiO2 
 PCOD9062556
Probable space group: P -1
;
_chemical_formula_sum "Si O2"
_cell_formula_units_Z 14
_cell_length_a 24.100574
_cell_length_b 23.421924
_cell_length_c 7.717155
_cell_angle_alpha 44.746542
_cell_angle_beta 135.185051
_cell_angle_gamma 168.277360
_cell_volume 620.081532
_symmetry_space_group_name_H-M "P -1"
_symmetry_group_IT_number 2
_symmetry_cell_setting 'triclinic'
loop_
_space_group_symop_operation_xyz
x,y,z
-x,-y,-z
loop_
_atom_site_type_symbol
_atom_site_label
_atom_site_fract_x
_atom_site_fract_y
_atom_site_fract_z
Si Si1 0.749910 0.457779 0.242553
Si Si2 0.568258 0.575792 0.283666
Si Si3 0.797069 0.056270 0.048888
Si Si4 0.941013 0.536207 0.780394
Si Si5 0.460301 0.144415 0.733576
Si Si6 0.923088 0.014561 0.604457
Si Si7 0.295554 0.459176 0.765266
O O1 0.788814 0.414528 0.530487
O O2 0.848113 0.628382 0.216001
O O3 0.929877 0.635056 0.087275
O O4 0.437533 0.169741 0.127777
O O5 0.500000 0.500000 0.500000
O O6 0.875542 0.851778 0.327243
O O7 0.487951 0.583964 0.016008
O O8 0.367666 0.315018 0.300894
O O9 0.872483 0.039984 0.309794
O O10 0.665478 0.969400 0.110597
O O11 0.737161 0.365785 0.847433
O O12 0.223348 0.864797 0.705747
O O13 0.000000 0.500000 0.000000
O O14 0.537839 0.309877 0.475911
O O15 0.075544 0.198353 0.716096
#
# Coordination Sequence:
#
# PCOD9062556 Si02
#       7
#     2   2   2   2   2   2   2
#     4  11  24  41  69  96 128 172 216 270 324 389
#     4  12  26  42  63  95 133 173 222 283 334 374
#     4  12  23  43  64  98 132 171 222 267 322 388
#     4  11  24  46  71 102 134 171 216 265 326 399
#     4  11  24  43  71  97 134 178 215 266 328 398
#     4  12  25  41  64  93 133 176 219 278 328 381
#     4  11  24  44  67  97 129 177 229 269 328 401
#
# _framework density 22.577674999999999
#
# number of rings (size 3 to 8) (size 9 to 14) (size 15 to 20)
#    0.000    0.571    0.000   10.286    0.000    5.714 
#    0.000    4.286    0.000    0.000    0.000    0.000 
#    0.000    0.000    0.000    0.000    0.000    0.000 
#
# Total GULP energy -78463.716200 kJ/mol
# GULP energy per Si atom -5604.551157 kJ/mol
# Density = 2.252629 g / cm^3
# Si number density = 22.577675 Si / 1000 Ang^3
#
#
#
# Elastic Constant Matrix: (Units=GPa)
#
#
# Indices 1 2 3 4 5 6 
#
# 1 70.5982 17.6284 52.7134 5.1728 9.6127 15.1313
# 2 17.6284 101.3356 18.0357 9.9450 5.3967 6.9364
# 3 52.7134 18.0357 137.9250 30.7914 27.1486 10.7878
# 4 5.1728 9.9450 30.7914 33.4977 10.2300 -5.1774
# 5 9.6127 5.3967 27.1486 10.2300 33.7435 2.8194
# 6 15.1313 6.9364 10.7878 -5.1774 2.8194 44.6426
#
#
#
# Elastic Compliance Matrix: (Units=1/GPa)
#
#
# Indices 1 2 3 4 5 6 
#
# 1 0.021908 -0.002414 -0.008793 0.004686 0.000165 -0.004393
# 2 -0.002414 0.010640 0.000417 -0.003297 -0.000241 -0.001303
# 3 -0.008793 0.000417 0.014037 -0.010136 -0.005675 -0.001294
# 4 0.004686 -0.003297 -0.010136 0.042297 -0.006032 0.006660
# 5 0.000165 -0.000241 -0.005675 -0.006032 0.036157 -0.001630
# 6 -0.004393 -0.001303 -0.001294 0.006660 -0.001630 0.025279
#
#
# Mechanical properties :
#
#
# Convention : Reuss Voigt Hill
#
# Bulk Modulus (GPa) = 39.99242 54.06819 47.03031
# Shear Modulus (GPa) = 27.74177 37.14217 32.44197
#
# Velocity S-wave (km/s) = 3.50912 4.06036 3.79477
# Velocity P-wave (km/s) = 5.84554 6.78098 6.33056
#
# Compressibility (1/GPa) = 0.02500474
#
# Stress axis : x y z
#
# Youngs Moduli (GPa) = 45.64487 93.98881 71.23891
#
# Poissons Ratio (x) = 0.22692 0.62637
# Poissons Ratio (y) = 0.11020 -0.02969
# Poissons Ratio (z) = 0.40134 -0.03917
#
# Static dielectric constant tensor:
#      x y z
#    x 1.860910 -0.021900 -0.046250 
#    y -0.021900 1.829470 0.014400 
#    z -0.046250 0.014400 1.808040 
# 
# From -- ./inp_files/357914.got.cif
#   From: 2010.05.17/outbox.cif.g08.bks.cpg/sg2_179_cif.got.tgz:357914.got - 2010.06.03 11:33:40.
