data_PCOD9062023
_publ_section_title
;
Structure prediction by ZEFSAII (Michael W. Deem and Ramdas Pophale) SiO2 
 PCOD9062023
Probable space group: P -1
;
_chemical_formula_sum "Si O2"
_cell_formula_units_Z 14
_cell_length_a 6.698307
_cell_length_b 8.860798
_cell_length_c 17.555957
_cell_angle_alpha 110.025384
_cell_angle_beta 63.839718
_cell_angle_gamma 66.116405
_cell_volume 660.802282
_symmetry_space_group_name_H-M "P -1"
_symmetry_group_IT_number 2
_symmetry_cell_setting 'triclinic'
loop_
_space_group_symop_operation_xyz
x,y,z
-x,-y,-z
loop_
_atom_site_type_symbol
_atom_site_label
_atom_site_fract_x
_atom_site_fract_y
_atom_site_fract_z
Si Si1 0.064035 0.439911 0.205848
Si Si2 0.146909 0.170881 0.586327
Si Si3 0.688090 0.233164 0.105704
Si Si4 0.769539 0.571124 0.117271
Si Si5 0.105415 0.990898 0.294524
Si Si6 0.101828 0.634999 0.501340
Si Si7 0.260810 0.729394 0.724820
O O1 0.418095 0.278769 0.115234
O O2 0.964771 0.616436 0.315673
O O3 0.910845 0.554978 0.171412
O O4 0.947832 0.321045 0.228471
O O5 0.011361 0.085924 0.639924
O O6 0.034284 0.225065 0.528338
O O7 0.500000 0.000000 0.500000
O O8 0.708771 0.408950 0.107046
O O9 0.627672 0.256641 0.210721
O O10 0.000000 0.000000 0.000000
O O11 0.455507 0.804913 0.196024
O O12 0.000000 0.500000 0.000000
O O13 0.014781 0.206331 0.381201
O O14 0.929150 0.057612 0.256656
O O15 0.455101 0.466117 0.403573
O O16 0.000000 0.500000 0.500000
#
# Coordination Sequence:
#
# PCOD9062023 Si02
#       7
#     2   2   2   2   2   2   2
#     4  11  23  47  68  96 138 176 228 278 338 409
#     4  12  22  41  69  99 136 179 221 282 343 395
#     4  11  26  46  72  96 133 185 229 277 340 405
#     4  11  27  45  68 103 137 176 229 283 339 401
#     4  12  25  43  66 105 137 175 229 282 337 403
#     4  12  24  43  68 101 140 181 227 274 339 413
#     4  11  25  44  68 101 135 178 230 276 340 412
#
# _framework density 21.186366
#
# number of rings (size 3 to 8) (size 9 to 14) (size 15 to 20)
#    0.000    0.571    2.857    5.143    4.000    2.857 
#    0.000    0.000    0.000    0.000    0.000    0.000 
#    0.000    0.000    0.000    0.000    0.000    0.000 
#
# Total GULP energy -78413.035287 kJ/mol
# GULP energy per Si atom -5600.931092 kJ/mol
# Density = 2.113814 g / cm^3
# Si number density = 21.186366 Si / 1000 Ang^3
#
#
#
# Elastic Constant Matrix: (Units=GPa)
#
#
# Indices 1 2 3 4 5 6 
#
# 1 83.5250 25.5776 21.4557 2.8503 -28.9964 -21.3836
# 2 25.5776 94.2810 26.3563 -7.6764 -15.7331 -29.7543
# 3 21.4557 26.3563 116.1737 16.6327 -33.9006 -21.1906
# 4 2.8503 -7.6764 16.6327 47.3153 -9.8570 -4.2352
# 5 -28.9964 -15.7331 -33.9006 -9.8570 42.5245 10.5174
# 6 -21.3836 -29.7543 -21.1906 -4.2352 10.5174 43.9467
#
#
#
# Elastic Compliance Matrix: (Units=1/GPa)
#
#
# Indices 1 2 3 4 5 6 
#
# 1 0.017334 -0.001330 0.001214 0.001141 0.011187 0.005552
# 2 -0.001330 0.014796 -0.001512 0.004241 0.002239 0.008514
# 3 0.001214 -0.001512 0.012172 -0.002523 0.008613 0.003132
# 4 0.001141 0.004241 -0.002523 0.023995 0.005080 0.003306
# 5 0.011187 0.002239 0.008613 0.005080 0.039484 0.002153
# 6 0.005552 0.008514 0.003132 0.003306 0.002153 0.032535
#
#
# Mechanical properties :
#
#
# Convention : Reuss Voigt Hill
#
# Bulk Modulus (GPa) = 24.36248 48.97323 36.66785
# Shear Modulus (GPa) = 31.79578 41.46331 36.62954
#
# Velocity S-wave (km/s) = 3.87817 4.42868 4.16254
# Velocity P-wave (km/s) = 5.61941 7.02258 6.35981
#
# Compressibility (1/GPa) = 0.04104673
#
# Stress axis : x y z
#
# Youngs Moduli (GPa) = 57.69049 67.58561 82.15293
#
# Poissons Ratio (x) = 0.08990 -0.09975
# Poissons Ratio (y) = 0.07674 0.12420
# Poissons Ratio (z) = -0.07005 0.10218
#
# Static dielectric constant tensor:
#      x y z
#    x 1.761020 -0.022150 0.025650 
#    y -0.022150 1.760880 -0.019210 
#    z 0.025650 -0.019210 1.764500 
# 
# From -- ./inp_files/24563.got.cif
#   From: 2010.05.17/outbox.cif.g08.bks.cpg/sg2_13_cif.got.tgz:24563.got - 2010.06.03 11:33:40.
