data_PCOD9062028
_publ_section_title
;
Structure prediction by ZEFSAII (Michael W. Deem and Ramdas Pophale) SiO2 
 PCOD9062028
Probable space group: P -1
;
_chemical_formula_sum "Si O2"
_cell_formula_units_Z 12
_cell_length_a 13.361837
_cell_length_b 9.373772
_cell_length_c 17.441215
_cell_angle_alpha 43.317232
_cell_angle_beta 156.784933
_cell_angle_gamma 144.053857
_cell_volume 504.209988
_symmetry_space_group_name_H-M "P -1"
_symmetry_group_IT_number 2
_symmetry_cell_setting 'triclinic'
loop_
_space_group_symop_operation_xyz
x,y,z
-x,-y,-z
loop_
_atom_site_type_symbol
_atom_site_label
_atom_site_fract_x
_atom_site_fract_y
_atom_site_fract_z
Si Si1 0.863866 0.968091 0.833524
Si Si2 0.225404 0.104015 0.799413
Si Si3 0.707126 0.514296 0.408329
Si Si4 0.161318 0.395920 0.774185
Si Si5 0.673361 0.697639 0.478976
Si Si6 0.219937 0.792315 0.049452
O O1 0.519506 0.764434 0.665693
O O2 0.952950 0.229663 0.761783
O O3 0.031026 0.877483 0.931059
O O4 0.000000 0.000000 0.000000
O O5 0.403409 0.333131 0.778386
O O6 0.109181 0.225320 0.731511
O O7 0.982847 0.897411 0.654710
O O8 0.329589 0.960056 0.984293
O O9 0.694449 0.572651 0.465286
O O10 0.040952 0.574796 0.602151
O O11 0.500000 0.500000 0.000000
O O12 0.500000 0.500000 0.500000
O O13 0.493501 0.824952 0.277830
O O14 0.000000 0.500000 0.000000
#
# Coordination Sequence:
#
# PCOD9062028 Si02
#       6
#     2   2   2   2   2   2
#     4  11  25  43  71 104 138 193 236 293 354 427
#     4  11  26  45  72 102 144 187 234 301 351 422
#     4  12  26  46  71 111 142 187 244 291 362 424
#     4  11  26  48  71 104 144 189 239 297 356 424
#     4  12  25  46  73 105 146 191 234 298 353 429
#     4  11  23  47  69 102 146 187 238 287 363 419
#
# _framework density 23.799607000000002
#
# number of rings (size 3 to 8) (size 9 to 14) (size 15 to 20)
#    0.000    0.667    3.333    3.500    9.333    0.667 
#    3.000    0.000    0.000    0.000    0.000    0.000 
#    0.000    0.000    0.000    0.000    0.000    0.000 
#
# Total GULP energy -67113.994867 kJ/mol
# GULP energy per Si atom -5592.832906 kJ/mol
# Density = 2.374544 g / cm^3
# Si number density = 23.799607 Si / 1000 Ang^3
#
#
#
# Elastic Constant Matrix: (Units=GPa)
#
#
# Indices 1 2 3 4 5 6 
#
# 1 87.1159 23.4128 33.1785 -10.9614 -27.4336 -0.1145
# 2 23.4128 103.1755 33.9320 -7.1632 -15.0797 25.1335
# 3 33.1785 33.9320 147.1480 -16.7757 -11.8307 13.3444
# 4 -10.9614 -7.1632 -16.7757 52.7084 -2.0488 -3.9688
# 5 -27.4336 -15.0797 -11.8307 -2.0488 52.0939 -12.6775
# 6 -0.1145 25.1335 13.3444 -3.9688 -12.6775 37.4969
#
#
#
# Elastic Compliance Matrix: (Units=1/GPa)
#
#
# Indices 1 2 3 4 5 6 
#
# 1 0.016399 -0.002895 -0.002537 0.003021 0.008851 0.006206
# 2 -0.002895 0.012819 -0.001579 0.000023 -0.000139 -0.008084
# 3 -0.002537 -0.001579 0.008056 0.001678 -0.000323 -0.001748
# 4 0.003021 0.000023 0.001678 0.020477 0.003448 0.002730
# 5 0.008851 -0.000139 -0.000323 0.003448 0.026179 0.009451
# 6 0.006206 -0.008084 -0.001748 0.002730 0.009451 0.036213
#
#
# Mechanical properties :
#
#
# Convention : Reuss Voigt Hill
#
# Bulk Modulus (GPa) = 43.00689 57.60957 50.30823
# Shear Modulus (GPa) = 35.23264 44.92091 40.07677
#
# Velocity S-wave (km/s) = 3.85175 4.34921 4.10802
# Velocity P-wave (km/s) = 6.15557 7.03416 6.60948
#
# Compressibility (1/GPa) = 0.02325209
#
# Stress axis : x y z
#
# Youngs Moduli (GPa) = 60.98093 78.00946 124.13589
#
# Poissons Ratio (x) = 0.22586 0.31489
# Poissons Ratio (y) = 0.17656 0.19596
# Poissons Ratio (z) = 0.15469 0.12314
#
# Static dielectric constant tensor:
#      x y z
#    x 1.895620 0.072970 0.039300 
#    y 0.072970 1.986860 -0.083440 
#    z 0.039300 -0.083440 1.983980 
# 
# From -- ./inp_files/399881.got.cif
#   From: 2010.05.17/outbox.cif.g08.bks.cpg/sg2_200_cif.got.tgz:399881.got - 2010.06.03 11:33:40.
