data_PCOD9062040
_publ_section_title
;
Structure prediction by ZEFSAII (Michael W. Deem and Ramdas Pophale) SiO2 
 PCOD9062040
Probable space group: P -1
;
_chemical_formula_sum "Si O2"
_cell_formula_units_Z 16
_cell_length_a 6.103915
_cell_length_b 18.128504
_cell_length_c 9.144831
_cell_angle_alpha 91.068619
_cell_angle_beta 96.278591
_cell_angle_gamma 51.093699
_cell_volume 781.087303
_symmetry_space_group_name_H-M "P -1"
_symmetry_group_IT_number 2
_symmetry_cell_setting 'triclinic'
loop_
_space_group_symop_operation_xyz
x,y,z
-x,-y,-z
loop_
_atom_site_type_symbol
_atom_site_label
_atom_site_fract_x
_atom_site_fract_y
_atom_site_fract_z
Si Si1 0.834354 0.460577 0.550090
Si Si2 0.187591 0.663477 0.927493
Si Si3 0.943549 0.865132 0.944709
Si Si4 0.248742 0.099024 0.557730
Si Si5 0.176032 0.522541 0.102844
Si Si6 0.293391 0.003075 0.822524
Si Si7 0.787401 0.133028 0.333883
Si Si8 0.175877 0.267631 0.391231
O O1 0.500000 0.500000 0.500000
O O2 0.863389 0.464015 0.726244
O O3 0.000000 0.500000 0.500000
O O4 0.023333 0.357022 0.488383
O O5 0.503177 0.572123 0.905774
O O6 0.127855 0.755402 0.999332
O O7 0.019150 0.703660 0.763813
O O8 0.097631 0.617519 0.028518
O O9 0.608102 0.917913 0.901435
O O10 0.064904 0.864161 0.797856
O O11 0.930451 0.933742 0.063674
O O12 0.236595 0.181731 0.487778
O O13 0.963102 0.118703 0.487466
O O14 0.500000 0.000000 0.500000
O O15 0.298185 0.077900 0.732259
O O16 0.000000 0.500000 0.000000
O O17 0.220537 0.951778 0.707131
O O18 0.473933 0.229447 0.342488
#
# Coordination Sequence:
#
# PCOD9062040 Si02
#       8
#     2   2   2   2   2   2   2   2
#     4  12  29  52  81 112 153 193 253 317 382 454
#     4  11  23  47  69  99 140 184 236 299 372 446
#     4  11  24  42  68  93 140 179 234 290 352 431
#     4  12  23  43  65  99 143 182 237 296 360 437
#     4  11  27  47  76 103 143 187 244 307 379 445
#     4  11  24  42  64  99 136 182 233 292 352 427
#     4  12  22  42  68  97 134 188 238 287 365 430
#     4  12  26  44  73 102 139 193 237 300 373 446
#
# _framework density 20.484264
#
# number of rings (size 3 to 8) (size 9 to 14) (size 15 to 20)
#    0.000    0.500    6.250    1.500    8.750    0.000 
#    2.250    0.000    0.000    0.000    0.000    0.000 
#    0.000    0.000    0.000    0.000    0.000    0.000 
#
# Total GULP energy -89234.946899 kJ/mol
# GULP energy per Si atom -5577.184181 kJ/mol
# Density = 2.043764 g / cm^3
# Si number density = 20.484264 Si / 1000 Ang^3
#
#
#
# Elastic Constant Matrix: (Units=GPa)
#
#
# Indices 1 2 3 4 5 6 
#
# 1 62.1860 39.6931 24.2064 3.1420 -9.1090 4.1355
# 2 39.6931 148.3047 36.2154 10.4195 -19.4176 3.3759
# 3 24.2064 36.2154 98.8335 11.3100 -19.5435 3.6354
# 4 3.1420 10.4195 11.3100 41.9519 1.6990 -6.8960
# 5 -9.1090 -19.4176 -19.5435 1.6990 29.0109 -7.7728
# 6 4.1355 3.3759 3.6354 -6.8960 -7.7728 24.8228
#
#
#
# Elastic Compliance Matrix: (Units=1/GPa)
#
#
# Indices 1 2 3 4 5 6 
#
# 1 0.020457 -0.004579 -0.003129 0.000077 0.000686 -0.002091
# 2 -0.004579 0.008875 -0.001186 -0.001617 0.003936 0.000513
# 3 -0.003129 -0.001186 0.013133 -0.003286 0.007299 0.000132
# 4 0.000077 -0.001617 -0.003286 0.026405 -0.002912 0.007112
# 5 0.000686 0.003936 0.007299 -0.002912 0.045551 0.011736
# 6 -0.002091 0.000513 0.000132 0.007112 0.011736 0.046196
#
#
# Mechanical properties :
#
#
# Convention : Reuss Voigt Hill
#
# Bulk Modulus (GPa) = 40.52278 56.61710 48.56994
# Shear Modulus (GPa) = 26.79063 33.10442 29.94752
#
# Velocity S-wave (km/s) = 3.62036 4.02442 3.82773
# Velocity P-wave (km/s) = 6.10749 7.02097 6.58010
#
# Compressibility (1/GPa) = 0.02467748
#
# Stress axis : x y z
#
# Youngs Moduli (GPa) = 48.88253 112.67135 76.14166
#
# Poissons Ratio (x) = 0.51595 0.23823
# Poissons Ratio (y) = 0.22385 0.09032
# Poissons Ratio (z) = 0.15294 0.13366
#
# Static dielectric constant tensor:
#      x y z
#    x 1.808050 0.048630 -0.020260 
#    y 0.048630 1.726830 -0.016670 
#    z -0.020260 -0.016670 1.783570 
# 
# From -- ./inp_files/49324.got.cif
#   From: 2010.05.17/outbox.cif.g08.bks.cpg/sg2_25_cif.got.tgz:49324.got - 2010.06.03 11:33:40.
