data_PCOD9062397
_publ_section_title
;
Structure prediction by ZEFSAII (Michael W. Deem and Ramdas Pophale) SiO2 
 PCOD9062397
Probable space group: P -1
;
_chemical_formula_sum "Si O2"
_cell_formula_units_Z 15
_cell_length_a 22.931998
_cell_length_b 5.207764
_cell_length_c 5.152976
_cell_angle_alpha 92.107416
_cell_angle_beta 111.195897
_cell_angle_gamma 70.978722
_cell_volume 540.132261
_symmetry_space_group_name_H-M "P -1"
_symmetry_group_IT_number 2
_symmetry_cell_setting 'triclinic'
loop_
_space_group_symop_operation_xyz
x,y,z
-x,-y,-z
loop_
_atom_site_type_symbol
_atom_site_label
_atom_site_fract_x
_atom_site_fract_y
_atom_site_fract_z
Si Si1 0.192868 0.840729 0.793153
Si Si2 0.764660 0.470527 0.654901
Si Si3 0.000000 0.500000 0.000000
Si Si4 0.640785 0.774814 0.778132
Si Si5 0.470021 0.239228 0.744399
Si Si6 0.122580 0.305032 0.320234
Si Si7 0.395004 0.681624 0.008338
Si Si8 0.942417 0.275698 0.382793
O O1 0.239564 0.649400 0.640252
O O2 0.129106 0.747059 0.706220
O O3 0.164245 0.135658 0.624436
O O4 0.221891 0.778211 0.125530
O O5 0.700760 0.704165 0.670674
O O6 0.825605 0.587356 0.739873
O O7 0.956571 0.407177 0.151631
O O8 0.073007 0.172319 0.105550
O O9 0.569471 0.882458 0.524600
O O10 0.636978 0.498242 0.882988
O O11 0.644640 0.998985 0.003092
O O12 0.530716 0.343401 0.782418
O O13 0.412038 0.514020 0.762294
O O14 0.500000 0.000000 0.000000
O O15 0.056904 0.545972 0.347140
O O16 0.000000 0.000000 0.500000
#
# Coordination Sequence:
#
# PCOD9062397 Si02
#       8
#     2   2   1   2   2   2   2   2
#     4  11  26  48  72 101 146 196 248 320 383 468
#     4  11  29  50  72 105 152 202 261 319 390 470
#     4  12  22  40  74  98 138 190 236 316 382 462
#     4  12  28  48  76 111 155 211 263 327 396 481
#     4  11  25  46  78 117 156 201 257 331 398 474
#     4  11  26  44  70 105 143 192 249 318 391 472
#     4  11  26  46  76 112 158 198 258 323 398 467
#     4  11  24  40  65 104 139 180 243 307 390 466
#
# _framework density 27.770976000000001
#
# number of rings (size 3 to 8) (size 9 to 14) (size 15 to 20)
#    0.000    0.800    4.000    1.200    9.333    0.533 
#    2.400    0.000    0.000    0.000    0.000    0.000 
#    0.000    0.000    0.000    0.000    0.000    0.000 
#
# Total GULP energy -83834.667685 kJ/mol
# GULP energy per Si atom -5588.977846 kJ/mol
# Density = 2.770777 g / cm^3
# Si number density = 27.770976 Si / 1000 Ang^3
#
#
#
# Elastic Constant Matrix: (Units=GPa)
#
#
# Indices 1 2 3 4 5 6 
#
# 1 165.8972 59.7247 44.4385 -7.5597 -28.9749 -16.8683
# 2 59.7247 129.7431 29.3167 16.3642 -14.9704 3.6617
# 3 44.4385 29.3167 133.8617 -6.9165 -16.9618 6.0370
# 4 -7.5597 16.3642 -6.9165 46.1905 -4.9517 -7.6203
# 5 -28.9749 -14.9704 -16.9618 -4.9517 47.6797 -3.0411
# 6 -16.8683 3.6617 6.0370 -7.6203 -3.0411 39.4965
#
#
#
# Elastic Compliance Matrix: (Units=1/GPa)
#
#
# Indices 1 2 3 4 5 6 
#
# 1 0.009637 -0.004210 -0.001722 0.004304 0.004749 0.005966
# 2 -0.004210 0.010611 -0.001082 -0.005256 -0.000391 -0.003661
# 3 -0.001722 -0.001082 0.008636 0.001321 0.001723 -0.001568
# 4 0.004304 -0.005256 0.001321 0.026152 0.004631 0.007526
# 5 0.004749 -0.000391 0.001723 0.004631 0.025126 0.004629
# 6 0.005966 -0.003661 -0.001568 0.007526 0.004629 0.030254
#
#
# Mechanical properties :
#
#
# Convention : Reuss Voigt Hill
#
# Bulk Modulus (GPa) = 67.31511 77.38464 72.34988
# Shear Modulus (GPa) = 38.64043 46.40815 42.52429
#
# Velocity S-wave (km/s) = 3.73419 4.09235 3.91736
# Velocity P-wave (km/s) = 6.54860 7.08911 6.82421
#
# Compressibility (1/GPa) = 0.01485551
#
# Stress axis : x y z
#
# Youngs Moduli (GPa) = 103.76551 94.23805 115.78914
#
# Poissons Ratio (x) = 0.39678 0.19939
# Poissons Ratio (y) = 0.43690 0.12532
# Poissons Ratio (z) = 0.17868 0.10200
#
# Static dielectric constant tensor:
#      x y z
#    x 2.136510 -0.220780 0.014940 
#    y -0.220780 2.574860 -0.099950 
#    z 0.014940 -0.099950 2.535700 
# 
# From -- ./inp_files/114125.got.cif
#   From: 2010.05.17/outbox.cif.g08.bks.cpg/sg2_58_cif.got.tgz:114125.got - 2010.06.03 11:33:40.
