data_PCOD9062487
_publ_section_title
;
Structure prediction by ZEFSAII (Michael W. Deem and Ramdas Pophale) SiO2 
 PCOD9062487
Probable space group: P -1
;
_chemical_formula_sum "Si O2"
_cell_formula_units_Z 16
_cell_length_a 17.485080
_cell_length_b 20.007877
_cell_length_c 10.933141
_cell_angle_alpha 35.485604
_cell_angle_beta 150.683782
_cell_angle_gamma 158.567964
_cell_volume 684.226074
_symmetry_space_group_name_H-M "P -1"
_symmetry_group_IT_number 2
_symmetry_cell_setting 'triclinic'
loop_
_space_group_symop_operation_xyz
x,y,z
-x,-y,-z
loop_
_atom_site_type_symbol
_atom_site_label
_atom_site_fract_x
_atom_site_fract_y
_atom_site_fract_z
Si Si1 0.290394 0.144159 0.719132
Si Si2 0.554730 0.440414 0.271481
Si Si3 0.722212 0.058246 0.790200
Si Si4 0.621789 0.187373 0.940669
Si Si5 0.975829 0.957082 0.890112
Si Si6 0.370225 0.340585 0.747065
Si Si7 0.021947 0.470780 0.256881
Si Si8 0.110547 0.468198 0.791192
O O1 0.429500 0.168840 0.759862
O O2 0.378120 0.314266 0.652660
O O3 0.000000 0.000000 0.500000
O O4 0.336524 0.072595 0.994930
O O5 0.620107 0.532410 0.358539
O O6 0.787650 0.504371 0.449967
O O7 0.310068 0.224320 0.268742
O O8 0.500000 0.500000 0.000000
O O9 0.912583 0.252827 0.831134
O O10 0.500000 0.000000 0.500000
O O11 0.878455 0.077735 0.879167
O O12 0.795849 0.349156 0.842366
O O13 0.821145 0.281087 0.186919
O O14 0.500000 0.000000 0.000000
O O15 0.117902 0.135625 0.745770
O O16 0.000000 0.000000 0.000000
O O17 0.614864 0.417345 0.027945
O O18 0.885730 0.475560 0.153166
O O19 0.000000 0.500000 0.500000
#
# Coordination Sequence:
#
# PCOD9062487 Si02
#       8
#     2   2   2   2   2   2   2   2
#     4  11  26  48  74 105 143 193 244 300 364 430
#     4  12  25  44  70 107 147 186 231 294 368 430
#     4  11  26  44  72 110 142 190 243 298 369 432
#     4  11  26  52  75  99 142 188 246 304 357 425
#     4  11  24  41  65 102 145 186 237 286 358 434
#     4  11  24  45  66 101 141 189 236 295 354 429
#     4  11  28  45  72 109 137 188 245 291 359 436
#     4  12  23  45  71 103 151 185 237 301 363 437
#
# _framework density 23.384084000000001
#
# number of rings (size 3 to 8) (size 9 to 14) (size 15 to 20)
#    0.000    0.750    3.750    3.000    7.000    0.000 
#    0.000    1.250    0.000    0.000    0.000    0.000 
#    0.000    0.000    0.000    0.000    0.000    0.000 
#
# Total GULP energy -89475.652887 kJ/mol
# GULP energy per Si atom -5592.228305 kJ/mol
# Density = 2.333086 g / cm^3
# Si number density = 23.384084 Si / 1000 Ang^3
#
#
#
# Elastic Constant Matrix: (Units=GPa)
#
#
# Indices 1 2 3 4 5 6 
#
# 1 149.1813 45.5461 8.4654 7.7307 7.2956 -20.7997
# 2 45.5461 156.6689 23.4125 26.6698 -5.1841 -29.0745
# 3 8.4654 23.4125 93.0938 24.4619 2.0312 5.6506
# 4 7.7307 26.6698 24.4619 35.9693 3.5446 -2.9126
# 5 7.2956 -5.1841 2.0312 3.5446 32.6617 7.7059
# 6 -20.7997 -29.0745 5.6506 -2.9126 7.7059 49.5826
#
#
#
# Elastic Compliance Matrix: (Units=1/GPa)
#
#
# Indices 1 2 3 4 5 6 
#
# 1 0.007779 -0.001873 -0.000477 0.000522 -0.002691 0.002668
# 2 -0.001873 0.008737 -0.000905 -0.005294 0.001517 0.003894
# 3 -0.000477 -0.000905 0.013454 -0.008684 0.000751 -0.002891
# 4 0.000522 -0.005294 -0.008684 0.038082 -0.004807 0.001089
# 5 -0.002691 0.001517 0.000751 -0.004807 0.033298 -0.005782
# 6 0.002668 0.003894 -0.002891 0.001089 -0.005782 0.024863
#
#
# Mechanical properties :
#
#
# Convention : Reuss Voigt Hill
#
# Bulk Modulus (GPa) = 42.62747 61.53243 52.07995
# Shear Modulus (GPa) = 35.57657 45.07741 40.32699
#
# Velocity S-wave (km/s) = 3.90475 4.39532 4.15727
# Velocity P-wave (km/s) = 6.21275 7.22007 6.73526
#
# Compressibility (1/GPa) = 0.02345905
#
# Stress axis : x y z
#
# Youngs Moduli (GPa) = 128.55630 114.46035 74.32820
#
# Poissons Ratio (x) = 0.21438 0.03544
# Poissons Ratio (y) = 0.24078 0.06729
# Poissons Ratio (z) = 0.06130 0.10362
#
# Static dielectric constant tensor:
#      x y z
#    x 1.852120 -0.072740 -0.006740 
#    y -0.072740 1.818900 -0.004440 
#    z -0.006740 -0.004440 1.886160 
# 
# From -- ./inp_files/467102.got.cif
#   From: 2010.05.17/outbox.cif.g08.bks.cpg/sg2_234_cif.got.tgz:467102.got - 2010.06.03 11:33:40.
