data_PCOD9062972
_publ_section_title
;
Structure prediction by ZEFSAII (Michael W. Deem and Ramdas Pophale) SiO2 
 PCOD9062972
Probable space group: P -1
;
_chemical_formula_sum "Si O2"
_cell_formula_units_Z 16
_cell_length_a 7.783431
_cell_length_b 29.082221
_cell_length_c 8.513435
_cell_angle_alpha 139.636684
_cell_angle_beta 37.959216
_cell_angle_gamma 146.666925
_cell_volume 620.249476
_symmetry_space_group_name_H-M "P -1"
_symmetry_group_IT_number 2
_symmetry_cell_setting 'triclinic'
loop_
_space_group_symop_operation_xyz
x,y,z
-x,-y,-z
loop_
_atom_site_type_symbol
_atom_site_label
_atom_site_fract_x
_atom_site_fract_y
_atom_site_fract_z
Si Si1 0.796442 0.149117 0.797603
Si Si2 0.588280 0.246984 0.420240
Si Si3 0.415325 0.570052 0.724938
Si Si4 0.263364 0.167403 0.089919
Si Si5 0.693946 0.671548 0.456172
Si Si6 0.331347 0.586334 0.181835
Si Si7 0.508437 0.977490 0.754096
Si Si8 0.478185 0.812154 0.335383
O O1 0.171136 0.198078 0.577623
O O2 0.707408 0.062764 0.723981
O O3 0.755935 0.207385 0.102637
O O4 0.499222 0.133145 0.852962
O O5 0.788511 0.350806 0.537857
O O6 0.585116 0.224233 0.543209
O O7 0.500000 0.500000 0.500000
O O8 0.583049 0.623251 0.579804
O O9 0.999255 0.514272 0.851418
O O10 0.486037 0.611326 0.957560
O O11 0.432401 0.264416 0.289620
O O12 0.881805 0.087274 0.201491
O O13 0.245963 0.185814 0.966501
O O14 0.562427 0.610087 0.235093
O O15 0.106887 0.742660 0.341152
O O16 0.622120 0.913177 0.504983
O O17 0.500000 0.000000 0.000000
#
# Coordination Sequence:
#
# PCOD9062972 Si02
#       8
#     2   2   2   2   2   2   2   2
#     4  12  27  45  73 105 143 197 246 305 372 437
#     4  12  26  46  76 104 145 197 244 302 374 446
#     4  11  26  44  74 109 147 188 242 306 371 457
#     4  11  25  44  69 102 144 192 250 307 365 447
#     4  11  24  47  72 107 147 193 247 304 375 445
#     4  11  25  46  72 106 145 193 243 301 376 443
#     4  11  24  43  68 102 144 193 247 308 372 433
#     4  11  25  42  71 101 144 194 249 306 366 444
#
# _framework density 25.796071999999999
#
# number of rings (size 3 to 8) (size 9 to 14) (size 15 to 20)
#    0.000    0.750    2.500    3.750    8.750    4.000 
#    0.000    0.000    0.000    0.000    0.000    0.000 
#    0.000    0.000    0.000    0.000    0.000    0.000 
#
# Total GULP energy -89432.991259 kJ/mol
# GULP energy per Si atom -5589.561954 kJ/mol
# Density = 2.573736 g / cm^3
# Si number density = 25.796072 Si / 1000 Ang^3
#
#
#
# Elastic Constant Matrix: (Units=GPa)
#
#
# Indices 1 2 3 4 5 6 
#
# 1 114.7297 37.1758 35.3084 1.6288 19.6166 -0.4298
# 2 37.1758 135.0647 34.2674 -14.7267 6.8262 -9.9220
# 3 35.3084 34.2674 93.6556 10.2902 37.1887 2.3942
# 4 1.6288 -14.7267 10.2902 32.5952 -3.3916 7.0427
# 5 19.6166 6.8262 37.1887 -3.3916 54.5948 -2.2677
# 6 -0.4298 -9.9220 2.3942 7.0427 -2.2677 48.6374
#
#
#
# Elastic Compliance Matrix: (Units=1/GPa)
#
#
# Indices 1 2 3 4 5 6 
#
# 1 0.010520 -0.002386 -0.002128 -0.001102 -0.002110 -0.000228
# 2 -0.002386 0.009865 -0.004718 0.006084 0.003278 0.001496
# 3 -0.002128 -0.004718 0.019108 -0.009080 -0.012274 -0.001179
# 4 -0.001102 0.006084 -0.009080 0.037929 0.008034 -0.003439
# 5 -0.002110 0.003278 -0.012274 0.008034 0.027582 0.001377
# 6 -0.000228 0.001496 -0.001179 -0.003439 0.001377 0.021484
#
#
# Mechanical properties :
#
#
# Convention : Reuss Voigt Hill
#
# Bulk Modulus (GPa) = 47.55646 61.88367 54.72007
# Shear Modulus (GPa) = 32.90303 42.94538 37.92421
#
# Velocity S-wave (km/s) = 3.57530 4.08463 3.83842
# Velocity P-wave (km/s) = 5.95980 6.80347 6.39556
#
# Compressibility (1/GPa) = 0.02102764
#
# Stress axis : x y z
#
# Youngs Moduli (GPa) = 95.05952 101.36666 52.33445
#
# Poissons Ratio (x) = 0.24183 0.11139
# Poissons Ratio (y) = 0.22679 0.24693
# Poissons Ratio (z) = 0.20233 0.47829
#
# Static dielectric constant tensor:
#      x y z
#    x 2.258710 0.053530 0.051540 
#    y 0.053530 1.951970 0.009890 
#    z 0.051540 0.009890 2.056030 
# 
# From -- ./inp_files/56863.got.cif
#   From: 2010.05.17/outbox.cif.g08.bks.cpg/sg2_29_cif.got.tgz:56863.got - 2010.06.03 11:33:40.
