data_PCOD9062098
_publ_section_title
;
Structure prediction by ZEFSAII (Michael W. Deem and Ramdas Pophale) SiO2 
 PCOD9062098
Probable space group: P -1
;
_chemical_formula_sum "Si O2"
_cell_formula_units_Z 16
_cell_length_a 11.969206
_cell_length_b 6.305608
_cell_length_c 23.396815
_cell_angle_alpha 53.540149
_cell_angle_beta 31.750874
_cell_angle_gamma 47.712017
_cell_volume 686.308244
_symmetry_space_group_name_H-M "P -1"
_symmetry_group_IT_number 2
_symmetry_cell_setting 'triclinic'
loop_
_space_group_symop_operation_xyz
x,y,z
-x,-y,-z
loop_
_atom_site_type_symbol
_atom_site_label
_atom_site_fract_x
_atom_site_fract_y
_atom_site_fract_z
Si Si1 0.647356 0.685837 0.396026
Si Si2 0.941415 0.790572 0.340337
Si Si3 0.113936 0.723505 0.396740
Si Si4 0.317396 0.150512 0.270603
Si Si5 0.998412 0.696227 0.916080
Si Si6 0.503216 0.812308 0.938462
Si Si7 0.992601 0.667036 0.801212
Si Si8 0.440979 0.820678 0.726423
O O1 0.500000 0.500000 0.500000
O O2 0.517404 0.986282 0.372271
O O3 0.731392 0.734035 0.414195
O O4 0.859862 0.520990 0.285774
O O5 0.966427 0.870347 0.381688
O O6 0.946157 0.056933 0.260822
O O7 0.156794 0.488582 0.288372
O O8 0.151994 0.973495 0.375592
O O9 0.000000 0.500000 0.500000
O O10 0.378378 0.508310 0.304482
O O11 0.494273 0.077735 0.257815
O O12 0.441248 0.115559 0.161426
O O13 0.047427 0.521635 0.862750
O O14 0.187886 0.825251 0.827779
O O15 0.000000 0.500000 0.000000
O O16 0.745701 0.947318 0.977551
O O17 0.723386 0.794158 0.882305
O O18 0.500000 0.500000 0.000000
#
# Coordination Sequence:
#
# PCOD9062098 Si02
#       8
#     2   2   2   2   2   2   2   2
#     4  12  28  46  75 108 145 193 237 298 370 423
#     4  11  23  47  73 101 145 186 241 293 353 425
#     4  11  26  45  76 102 141 194 240 293 366 431
#     4  11  25  46  72 104 145 188 237 297 353 439
#     4  12  28  46  72 109 147 193 238 305 375 417
#     4  12  25  46  78 103 138 200 250 288 366 437
#     4  12  26  50  73 104 153 188 248 302 347 447
#     4  11  28  45  67 108 153 178 243 303 355 434
#
# _framework density 23.313139
#
# number of rings (size 3 to 8) (size 9 to 14) (size 15 to 20)
#    0.000    0.500    3.750    2.625   12.250    2.000 
#    0.000    0.000    0.000    0.000    0.000    0.000 
#    0.000    0.000    0.000    0.000    0.000    0.000 
#
# Total GULP energy -89475.065275 kJ/mol
# GULP energy per Si atom -5592.191580 kJ/mol
# Density = 2.326008 g / cm^3
# Si number density = 23.313139 Si / 1000 Ang^3
#
#
#
# Elastic Constant Matrix: (Units=GPa)
#
#
# Indices 1 2 3 4 5 6 
#
# 1 145.7435 0.8648 29.9735 14.1254 -18.1870 -14.7399
# 2 0.8648 85.9131 12.2506 8.7496 -2.6804 -8.4375
# 3 29.9735 12.2506 94.6988 -0.0905 -14.0964 0.4828
# 4 14.1254 8.7496 -0.0905 31.1109 -1.0912 1.3943
# 5 -18.1870 -2.6804 -14.0964 -1.0912 39.6830 -13.8564
# 6 -14.7399 -8.4375 0.4828 1.3943 -13.8564 31.6819
#
#
#
# Elastic Compliance Matrix: (Units=1/GPa)
#
#
# Indices 1 2 3 4 5 6 
#
# 1 0.009344 0.001680 -0.002304 -0.004852 0.006143 0.007730
# 2 0.001680 0.013001 -0.001819 -0.004580 0.002877 0.005732
# 3 -0.002304 -0.001819 0.011965 0.001719 0.002933 -0.000532
# 4 -0.004852 -0.004580 0.001719 0.035818 -0.003200 -0.006479
# 5 0.006143 0.002877 0.002933 -0.003200 0.035953 0.019445
# 6 0.007730 0.005732 -0.000532 -0.006479 0.019445 0.045484
#
#
# Mechanical properties :
#
#
# Convention : Reuss Voigt Hill
#
# Bulk Modulus (GPa) = 33.98674 45.83703 39.91188
# Shear Modulus (GPa) = 30.07335 39.37959 34.72647
#
# Velocity S-wave (km/s) = 3.59552 4.11440 3.86368
# Velocity P-wave (km/s) = 5.64332 6.50193 6.08778
#
# Compressibility (1/GPa) = 0.02942324
#
# Stress axis : x y z
#
# Youngs Moduli (GPa) = 107.02118 76.91586 83.57421
#
# Poissons Ratio (x) = -0.12918 0.19259
# Poissons Ratio (y) = -0.17974 0.15200
# Poissons Ratio (z) = 0.24662 0.13989
#
# Static dielectric constant tensor:
#      x y z
#    x 1.735360 -0.128480 0.121850 
#    y -0.128480 1.700910 0.112740 
#    z 0.121850 0.112740 1.864180 
# 
# From -- ./inp_files/617883.got.cif
#   From: 2010.05.17/outbox.cif.g08.bks.cpg/sg2_309_cif.got.tgz:617883.got - 2010.06.03 11:33:40.
