data_PCOD9062163
_publ_section_title
;
Structure prediction by ZEFSAII (Michael W. Deem and Ramdas Pophale) SiO2 
 PCOD9062163
Probable space group: P -1
;
_chemical_formula_sum "Si O2"
_cell_formula_units_Z 16
_cell_length_a 7.804294
_cell_length_b 12.615247
_cell_length_c 9.769650
_cell_angle_alpha 125.191403
_cell_angle_beta 115.117036
_cell_angle_gamma 77.495073
_cell_volume 711.215051
_symmetry_space_group_name_H-M "P -1"
_symmetry_group_IT_number 2
_symmetry_cell_setting 'triclinic'
loop_
_space_group_symop_operation_xyz
x,y,z
-x,-y,-z
loop_
_atom_site_type_symbol
_atom_site_label
_atom_site_fract_x
_atom_site_fract_y
_atom_site_fract_z
Si Si1 0.675360 0.297819 0.988619
Si Si2 0.533004 0.081219 0.209684
Si Si3 0.793859 0.432489 0.871744
Si Si4 0.514527 0.368094 0.491217
Si Si5 0.915927 0.937917 0.291520
Si Si6 0.256008 0.313972 0.820922
Si Si7 0.825521 0.552047 0.385173
Si Si8 0.168767 0.963537 0.127881
O O1 0.719586 0.422553 0.191599
O O2 0.783609 0.325390 0.904263
O O3 0.464250 0.258845 0.834820
O O4 0.764128 0.176623 0.999112
O O5 0.535428 0.237442 0.313764
O O6 0.730872 0.022504 0.273168
O O7 0.359087 0.051633 0.234421
O O8 0.500000 0.000000 0.000000
O O9 0.696917 0.383796 0.664458
O O10 0.680479 0.553296 0.980331
O O11 0.000000 0.500000 0.000000
O O12 0.500000 0.500000 0.500000
O O13 0.321000 0.368698 0.514559
O O14 0.857753 0.788182 0.197803
O O15 0.931008 0.043875 0.763804
O O16 0.000000 0.000000 0.500000
O O17 0.148807 0.357961 0.678097
O O18 0.000000 0.500000 0.500000
O O19 0.000000 0.000000 0.000000
#
# Coordination Sequence:
#
# PCOD9062163 Si02
#       8
#     2   2   2   2   2   2   2   2
#     4  11  23  47  78 104 149 208 254 322 390 470
#     4  12  30  54  77 113 165 211 263 336 397 476
#     4  11  24  44  72 109 151 196 258 314 389 467
#     4  12  30  46  76 114 156 203 262 322 403 469
#     4  12  30  47  81 117 155 208 275 333 388 479
#     4  11  23  49  76 105 157 202 256 326 393 460
#     4  11  26  45  75 114 154 199 255 327 393 473
#     4  12  28  49  82 111 154 216 268 320 413 475
#
# _framework density 22.496713
#
# number of rings (size 3 to 8) (size 9 to 14) (size 15 to 20)
#    0.000    0.500    5.000    1.500   14.000    0.500 
#    0.000    0.000    0.000    0.000    0.000    0.000 
#    0.000    0.000    0.000    0.000    0.000    0.000 
#
# Total GULP energy -89273.402254 kJ/mol
# GULP energy per Si atom -5579.587641 kJ/mol
# Density = 2.244551 g / cm^3
# Si number density = 22.496713 Si / 1000 Ang^3
#
#
#
# Elastic Constant Matrix: (Units=GPa)
#
#
# Indices 1 2 3 4 5 6 
#
# 1 137.7284 28.0296 39.2274 -11.1388 2.0901 -4.1408
# 2 28.0296 134.2237 50.1874 12.9451 -5.3169 -14.0127
# 3 39.2274 50.1874 131.9357 -9.5628 1.2509 -14.3254
# 4 -11.1388 12.9451 -9.5628 35.5637 -9.4985 5.4875
# 5 2.0901 -5.3169 1.2509 -9.4985 33.9252 -11.4333
# 6 -4.1408 -14.0127 -14.3254 5.4875 -11.4333 42.4661
#
#
#
# Elastic Compliance Matrix: (Units=1/GPa)
#
#
# Indices 1 2 3 4 5 6 
#
# 1 0.008253 -0.001377 -0.001805 0.002666 -0.000126 -0.000637
# 2 -0.001377 0.009857 -0.003393 -0.005032 0.001353 0.002988
# 3 -0.001805 -0.003393 0.009829 0.003230 0.000727 0.001799
# 4 0.002666 -0.005032 0.003230 0.034088 0.007570 -0.002678
# 5 -0.000126 0.001353 0.000727 0.007570 0.034851 0.009084
# 6 -0.000637 0.002988 0.001799 -0.002678 0.009084 0.027871
#
#
# Mechanical properties :
#
#
# Convention : Reuss Voigt Hill
#
# Bulk Modulus (GPa) = 67.61553 70.97515 69.29534
# Shear Modulus (GPa) = 35.00660 41.48725 38.24692
#
# Velocity S-wave (km/s) = 3.94899 4.29901 4.12771
# Velocity P-wave (km/s) = 7.13538 7.50064 7.32029
#
# Compressibility (1/GPa) = 0.01478950
#
# Stress axis : x y z
#
# Youngs Moduli (GPa) = 121.16316 101.44589 101.73667
#
# Poissons Ratio (x) = 0.13972 0.18361
# Poissons Ratio (y) = 0.16688 0.34522
# Poissons Ratio (z) = 0.21867 0.34423
#
# Static dielectric constant tensor:
#      x y z
#    x 2.624390 0.043600 -0.374010 
#    y 0.043600 1.672630 0.087670 
#    z -0.374010 0.087670 1.939120 
# 
# From -- ./inp_files/182847.got.cif
#   From: 2010.05.17/outbox.cif.g08.bks.cpg/sg2_92_cif.got.tgz:182847.got - 2010.06.03 11:33:40.
