data_PCOD9062511
_publ_section_title
;
Structure prediction by ZEFSAII (Michael W. Deem and Ramdas Pophale) SiO2 
 PCOD9062511
Probable space group: P -1
;
_chemical_formula_sum "Si O2"
_cell_formula_units_Z 16
_cell_length_a 12.444624
_cell_length_b 9.392987
_cell_length_c 10.884772
_cell_angle_alpha 79.531600
_cell_angle_beta 35.496577
_cell_angle_gamma 65.823123
_cell_volume 645.743631
_symmetry_space_group_name_H-M "P -1"
_symmetry_group_IT_number 2
_symmetry_cell_setting 'triclinic'
loop_
_space_group_symop_operation_xyz
x,y,z
-x,-y,-z
loop_
_atom_site_type_symbol
_atom_site_label
_atom_site_fract_x
_atom_site_fract_y
_atom_site_fract_z
Si Si1 0.185621 0.788914 0.611638
Si Si2 0.549853 0.563203 0.147952
Si Si3 0.222276 0.503782 0.791413
Si Si4 0.089830 0.392240 0.313983
Si Si5 0.756172 0.679689 0.416996
Si Si6 0.155749 0.047113 0.272424
Si Si7 0.405123 0.770005 0.914481
Si Si8 0.963640 0.909990 0.164973
O O1 0.330974 0.704897 0.373719
O O2 0.211372 0.663267 0.713280
O O3 0.950495 0.864026 0.770563
O O4 0.205012 0.943906 0.618544
O O5 0.670648 0.514047 0.174830
O O6 0.518293 0.424247 0.127295
O O7 0.697331 0.610225 0.924157
O O8 0.345866 0.359718 0.600730
O O9 0.000000 0.500000 0.000000
O O10 0.917315 0.503359 0.353922
O O11 0.150196 0.204797 0.317821
O O12 0.000000 0.500000 0.500000
O O13 0.577735 0.781478 0.665244
O O14 0.880678 0.778074 0.245329
O O15 0.000000 0.000000 0.500000
O O16 0.350675 0.882948 0.068736
O O17 0.182032 0.827074 0.046292
O O18 0.000000 0.000000 0.000000
#
# Coordination Sequence:
#
# PCOD9062511 Si02
#       8
#     2   2   2   2   2   2   2   2
#     4  11  24  41  67 100 140 181 230 278 353 411
#     4  12  23  43  71 104 140 186 229 286 346 420
#     4  12  21  41  71 100 141 182 231 279 339 426
#     4  12  26  47  74 100 136 182 238 292 346 416
#     4  12  25  45  70 103 140 187 236 280 347 421
#     4  11  25  47  71  99 139 181 235 297 349 409
#     4  11  24  44  71  99 144 180 232 282 349 407
#     4  11  25  43  63 102 146 180 221 286 341 407
#
# _framework density 24.777635
#
# number of rings (size 3 to 8) (size 9 to 14) (size 15 to 20)
#    0.000    0.500    5.000    2.625    5.250    2.500 
#    0.000    3.750    0.000    0.000    0.000    0.000 
#    0.000    0.000    0.000    0.000    0.000    0.000 
#
# Total GULP energy -89481.431298 kJ/mol
# GULP energy per Si atom -5592.589456 kJ/mol
# Density = 2.472124 g / cm^3
# Si number density = 24.777635 Si / 1000 Ang^3
#
#
#
# Elastic Constant Matrix: (Units=GPa)
#
#
# Indices 1 2 3 4 5 6 
#
# 1 79.2868 39.9180 14.6183 3.3841 6.9387 -3.5540
# 2 39.9180 168.3342 81.9025 10.5158 11.7497 29.4150
# 3 14.6183 81.9025 164.7473 11.5935 10.8577 11.0506
# 4 3.3841 10.5158 11.5935 59.2896 11.2886 8.6271
# 5 6.9387 11.7497 10.8577 11.2886 37.4935 3.3502
# 6 -3.5540 29.4150 11.0506 8.6271 3.3502 34.5937
#
#
#
# Elastic Compliance Matrix: (Units=1/GPa)
#
#
# Indices 1 2 3 4 5 6 
#
# 1 0.015380 -0.004909 0.000855 -0.000665 -0.001876 0.005829
# 2 -0.004909 0.010651 -0.004304 0.000551 -0.000611 -0.008265
# 3 0.000855 -0.004304 0.008167 -0.000898 -0.001035 0.001463
# 4 -0.000665 0.000551 -0.000898 0.018572 -0.004988 -0.004399
# 5 -0.001876 -0.000611 -0.001035 -0.004988 0.029093 -0.000917
# 6 0.005829 -0.008265 0.001463 -0.004399 -0.000917 0.037252
#
#
# Mechanical properties :
#
#
# Convention : Reuss Voigt Hill
#
# Bulk Modulus (GPa) = 57.19899 76.13842 66.66870
# Shear Modulus (GPa) = 35.29630 44.67069 39.98349
#
# Velocity S-wave (km/s) = 3.77838 4.25062 4.02144
# Velocity P-wave (km/s) = 6.49384 7.40849 6.96619
#
# Compressibility (1/GPa) = 0.01748283
#
# Stress axis : x y z
#
# Youngs Moduli (GPa) = 65.01820 93.88764 122.44673
#
# Poissons Ratio (x) = 0.46094 -0.10475
# Poissons Ratio (y) = 0.31921 0.52697
# Poissons Ratio (z) = -0.05562 0.40406
#
# Static dielectric constant tensor:
#      x y z
#    x 2.082080 0.029020 0.026620 
#    y 0.029020 2.054080 0.090720 
#    z 0.026620 0.090720 2.004880 
# 
# From -- ./inp_files/297375.got.cif
#   From: 2010.05.17/outbox.cif.g08.bks.cpg/sg2_149_cif.got.tgz:297375.got - 2010.06.03 11:33:40.
