data_PCOD9062074
_publ_section_title
;
Structure prediction by ZEFSAII (Michael W. Deem and Ramdas Pophale) SiO2 
 PCOD9062074
Probable space group: P -1
;
_chemical_formula_sum "Si O2"
_cell_formula_units_Z 14
_cell_length_a 9.009325
_cell_length_b 10.413607
_cell_length_c 9.888859
_cell_angle_alpha 55.272800
_cell_angle_beta 132.205474
_cell_angle_gamma 101.946901
_cell_volume 540.788773
_symmetry_space_group_name_H-M "P -1"
_symmetry_group_IT_number 2
_symmetry_cell_setting 'triclinic'
loop_
_space_group_symop_operation_xyz
x,y,z
-x,-y,-z
loop_
_atom_site_type_symbol
_atom_site_label
_atom_site_fract_x
_atom_site_fract_y
_atom_site_fract_z
Si Si1 0.797075 0.277604 0.756366
Si Si2 0.664309 0.636074 0.928467
Si Si3 0.618757 0.816616 0.519360
Si Si4 0.831999 0.076888 0.158060
Si Si5 0.153990 0.211819 0.808717
Si Si6 0.293907 0.860372 0.655451
Si Si7 0.075552 0.393610 0.374588
O O1 0.580223 0.245021 0.602877
O O2 0.811549 0.462526 0.649408
O O3 0.970055 0.186639 0.807094
O O4 0.846640 0.211677 0.978217
O O5 0.702850 0.731036 0.762970
O O6 0.412614 0.688895 0.758575
O O7 0.721128 0.707315 0.061268
O O8 0.840015 0.463641 0.132552
O O9 0.793132 0.752804 0.549409
O O10 0.581223 0.009613 0.387646
O O11 0.723243 0.146315 0.189274
O O12 0.723410 0.959908 0.079398
O O13 0.059835 0.951790 0.406351
O O14 0.077123 0.334023 0.564088
#
# Coordination Sequence:
#
# PCOD9062074 Si02
#       7
#     2   2   2   2   2   2   2
#     4  11  24  42  72 103 136 180 231 279 340 408
#     4  11  24  41  70 100 136 178 227 278 338 401
#     4  12  24  45  72 104 138 179 231 282 341 403
#     4  11  24  44  71 102 139 179 231 284 341 405
#     4  11  23  47  71  99 142 181 225 280 345 404
#     4  11  24  43  70 105 138 177 231 287 340 401
#     4  11  25  48  70  99 143 182 225 279 348 405
#
# _framework density 25.888110999999999
#
# number of rings (size 3 to 8) (size 9 to 14) (size 15 to 20)
#    0.000    0.857    1.429    6.857    2.000    2.286 
#    2.571    3.571    0.000    0.000    0.000    0.000 
#    0.000    0.000    0.000    0.000    0.000    0.000 
#
# Total GULP energy -78445.278604 kJ/mol
# GULP energy per Si atom -5603.234186 kJ/mol
# Density = 2.582919 g / cm^3
# Si number density = 25.888111 Si / 1000 Ang^3
#
#
#
# Elastic Constant Matrix: (Units=GPa)
#
#
# Indices 1 2 3 4 5 6 
#
# 1 135.6248 8.1706 58.1477 -4.7330 -17.6959 -0.8906
# 2 8.1706 67.6855 -2.2619 3.5478 -1.0974 18.4788
# 3 58.1477 -2.2619 130.5644 -3.5306 -38.1215 8.4703
# 4 -4.7330 3.5478 -3.5306 29.0332 -1.5250 -5.3309
# 5 -17.6959 -1.0974 -38.1215 -1.5250 68.6615 -0.7430
# 6 -0.8906 18.4788 8.4703 -5.3309 -0.7430 50.0441
#
#
#
# Elastic Compliance Matrix: (Units=1/GPa)
#
#
# Indices 1 2 3 4 5 6 
#
# 1 0.009385 -0.001828 -0.004259 0.001557 0.000078 0.001730
# 2 -0.001828 0.017151 0.001635 -0.003451 0.000558 -0.007002
# 3 -0.004259 0.001635 0.011259 0.000291 0.005159 -0.002478
# 4 0.001557 -0.003451 0.000291 0.036167 0.001367 0.005126
# 5 0.000078 0.000558 0.005159 0.001367 0.017481 -0.000673
# 6 0.001730 -0.007002 -0.002478 0.005126 -0.000673 0.023554
#
#
# Mechanical properties :
#
#
# Convention : Reuss Voigt Hill
#
# Bulk Modulus (GPa) = 34.61111 51.33195 42.97153
# Shear Modulus (GPa) = 37.44459 47.53564 42.49011
#
# Velocity S-wave (km/s) = 3.80728 4.28973 4.05569
# Velocity P-wave (km/s) = 5.72064 6.66387 6.21019
#
# Compressibility (1/GPa) = 0.02889246
#
# Stress axis : x y z
#
# Youngs Moduli (GPa) = 106.55111 58.30579 88.81807
#
# Poissons Ratio (x) = 0.10657 0.37824
# Poissons Ratio (y) = 0.19476 -0.14523
# Poissons Ratio (z) = 0.45376 -0.09534
#
# Static dielectric constant tensor:
#      x y z
#    x 2.035930 0.040800 0.105060 
#    y 0.040800 2.058850 0.023920 
#    z 0.105060 0.023920 2.073650 
# 
# From -- ./inp_files/185481.got.cif
#   From: 2010.05.17/outbox.cif.g08.bks.cpg/sg2_93_cif.got.tgz:185481.got - 2010.06.03 11:33:40.
