data_PCOD9062049
_publ_section_title
;
Structure prediction by ZEFSAII (Michael W. Deem and Ramdas Pophale) SiO2 
 PCOD9062049
Probable space group: P -1
;
_chemical_formula_sum "Si O2"
_cell_formula_units_Z 14
_cell_length_a 9.104629
_cell_length_b 8.689446
_cell_length_c 11.526494
_cell_angle_alpha 139.706743
_cell_angle_beta 71.071798
_cell_angle_gamma 114.231044
_cell_volume 537.675621
_symmetry_space_group_name_H-M "P -1"
_symmetry_group_IT_number 2
_symmetry_cell_setting 'triclinic'
loop_
_space_group_symop_operation_xyz
x,y,z
-x,-y,-z
loop_
_atom_site_type_symbol
_atom_site_label
_atom_site_fract_x
_atom_site_fract_y
_atom_site_fract_z
Si Si1 0.651515 0.894978 0.866466
Si Si2 0.780001 0.122020 0.304357
Si Si3 0.925151 0.330806 0.137480
Si Si4 0.236163 0.039859 0.355188
Si Si5 0.260033 0.536133 0.287913
Si Si6 0.542637 0.243920 0.824590
Si Si7 0.863981 0.811321 0.303326
O O1 0.657373 0.675530 0.822849
O O2 0.665155 0.790322 0.673186
O O3 0.500000 0.000000 0.000000
O O4 0.825741 0.092025 0.954949
O O5 0.862824 0.242081 0.233615
O O6 0.805889 0.340676 0.516918
O O7 0.595291 0.997249 0.248825
O O8 0.815615 0.888275 0.232203
O O9 0.882702 0.551742 0.201188
O O10 0.115247 0.424538 0.170581
O O11 0.299549 0.797108 0.176537
O O12 0.045520 0.988678 0.362919
O O13 0.254838 0.125966 0.532982
O O14 0.402275 0.743857 0.314576
O O15 0.500000 0.500000 0.000000
#
# Coordination Sequence:
#
# PCOD9062049 Si02
#       7
#     2   2   2   2   2   2   2
#     4  12  28  46  72 113 152 197 247 309 378 445
#     4  12  26  47  78 110 146 197 249 309 373 438
#     4  12  26  48  75 110 149 194 250 309 370 442
#     4  11  23  47  70 107 150 187 249 305 368 444
#     4  12  24  48  72 101 150 193 249 301 365 445
#     4  12  26  45  70 109 151 189 240 304 379 442
#     4  11  24  46  77 110 142 194 256 305 364 440
#
# _framework density 26.038004000000001
#
# number of rings (size 3 to 8) (size 9 to 14) (size 15 to 20)
#    0.000    0.286    2.857    6.429    4.000    1.714 
#    0.000    2.857    0.000    0.000    0.000    0.000 
#    0.000    0.000    0.000    0.000    0.000    0.000 
#
# Total GULP energy -78112.713608 kJ/mol
# GULP energy per Si atom -5579.479543 kJ/mol
# Density = 2.597874 g / cm^3
# Si number density = 26.038004 Si / 1000 Ang^3
#
#
#
# Elastic Constant Matrix: (Units=GPa)
#
#
# Indices 1 2 3 4 5 6 
#
# 1 107.2716 40.7724 38.8878 -9.3032 -5.7952 -13.3561
# 2 40.7724 141.6045 18.5872 -13.6623 -7.3652 -10.3102
# 3 38.8878 18.5872 70.8091 -13.3030 -1.1283 -9.9521
# 4 -9.3032 -13.6623 -13.3030 45.1996 -5.0527 -9.2382
# 5 -5.7952 -7.3652 -1.1283 -5.0527 32.7804 9.5578
# 6 -13.3561 -10.3102 -9.9521 -9.2382 9.5578 55.9250
#
#
#
# Elastic Compliance Matrix: (Units=1/GPa)
#
#
# Indices 1 2 3 4 5 6 
#
# 1 0.012801 -0.002693 -0.006028 0.000452 0.001120 0.001371
# 2 -0.002693 0.008213 -0.000091 0.002262 0.001428 0.000985
# 3 -0.006028 -0.000091 0.018727 0.004748 -0.000511 0.002748
# 4 0.000452 0.002262 0.004748 0.025695 0.003237 0.005061
# 5 0.001120 0.001428 -0.000511 0.003237 0.032859 -0.004641
# 6 0.001371 0.000985 0.002748 0.005061 -0.004641 0.020508
#
#
# Mechanical properties :
#
#
# Convention : Reuss Voigt Hill
#
# Bulk Modulus (GPa) = 45.21159 57.35331 51.28245
# Shear Modulus (GPa) = 34.77032 41.54354 38.15693
#
# Velocity S-wave (km/s) = 3.65823 3.99870 3.83225
# Velocity P-wave (km/s) = 5.93675 6.58742 6.27053
#
# Compressibility (1/GPa) = 0.02211822
#
# Stress axis : x y z
#
# Youngs Moduli (GPa) = 78.11635 121.75116 53.39899
#
# Poissons Ratio (x) = 0.32787 0.32189
# Poissons Ratio (y) = 0.21036 0.00485
# Poissons Ratio (z) = 0.47089 0.01106
#
# Static dielectric constant tensor:
#      x y z
#    x 2.064410 -0.090930 0.000540 
#    y -0.090930 2.139750 -0.065550 
#    z 0.000540 -0.065550 2.090470 
# 
# From -- ./inp_files/157860.got.cif
#   From: 2010.05.17/outbox.cif.g08.bks.cpg/sg2_79_cif.got.tgz:157860.got - 2010.06.03 11:33:40.
