data_PCOD9062583
_publ_section_title
;
Structure prediction by ZEFSAII (Michael W. Deem and Ramdas Pophale) SiO2 
 PCOD9062583
Probable space group: P -1
;
_chemical_formula_sum "Si O2"
_cell_formula_units_Z 16
_cell_length_a 13.763447
_cell_length_b 14.493671
_cell_length_c 5.492164
_cell_angle_alpha 90.813485
_cell_angle_beta 73.715067
_cell_angle_gamma 134.837418
_cell_volume 718.109022
_symmetry_space_group_name_H-M "P -1"
_symmetry_group_IT_number 2
_symmetry_cell_setting 'triclinic'
loop_
_space_group_symop_operation_xyz
x,y,z
-x,-y,-z
loop_
_atom_site_type_symbol
_atom_site_label
_atom_site_fract_x
_atom_site_fract_y
_atom_site_fract_z
Si Si1 0.262359 0.264890 0.672235
Si Si2 0.327766 0.126993 0.905651
Si Si3 0.073466 0.514417 0.200078
Si Si4 0.545468 0.456526 0.178228
Si Si5 0.061868 0.769846 0.752389
Si Si6 0.591612 0.280564 0.039337
Si Si7 0.957991 0.137970 0.714243
Si Si8 0.608916 0.992648 0.519554
O O1 0.271957 0.185053 0.839976
O O2 0.380951 0.322962 0.383297
O O3 0.336851 0.405624 0.743179
O O4 0.096846 0.168512 0.693949
O O5 0.337798 0.050195 0.707066
O O6 0.497744 0.247574 0.868891
O O7 0.203694 0.016560 0.184617
O O8 0.000000 0.500000 0.500000
O O9 0.046004 0.387524 0.205967
O O10 0.246608 0.653745 0.095031
O O11 0.000000 0.500000 0.000000
O O12 0.612415 0.397377 0.135404
O O13 0.500000 0.500000 0.000000
O O14 0.012252 0.807612 0.577990
O O15 0.229113 0.854101 0.544393
O O16 0.053487 0.798814 0.041543
O O17 0.485752 0.131665 0.227553
O O18 0.500000 0.000000 0.500000
#
# Coordination Sequence:
#
# PCOD9062583 Si02
#       8
#     2   2   2   2   2   2   2   2
#     4  11  24  41  71 102 148 187 239 290 362 435
#     4  11  24  45  67 109 135 190 244 293 362 434
#     4  12  29  48  73 106 142 188 243 305 370 429
#     4  11  24  42  69 106 139 189 235 290 362 437
#     4  11  25  48  68 107 143 186 247 291 364 436
#     4  12  25  45  76 102 145 185 241 304 359 433
#     4  11  25  44  72 104 147 191 234 299 356 434
#     4  11  25  46  73  96 141 189 243 305 357 419
#
# _framework density 22.280740000000002
#
# number of rings (size 3 to 8) (size 9 to 14) (size 15 to 20)
#    0.000    0.750    3.750    2.625    7.000    1.500 
#    0.000    2.500    0.000    0.000    0.000    0.000 
#    0.000    0.000    0.000    0.000    0.000    0.000 
#
# Total GULP energy -89147.545389 kJ/mol
# GULP energy per Si atom -5571.721587 kJ/mol
# Density = 2.223003 g / cm^3
# Si number density = 22.280740 Si / 1000 Ang^3
#
#
#
# Elastic Constant Matrix: (Units=GPa)
#
#
# Indices 1 2 3 4 5 6 
#
# 1 175.8902 4.9603 -6.2543 -13.5040 -20.6155 12.8730
# 2 4.9603 62.9464 2.0773 -19.4307 -10.0292 17.8778
# 3 -6.2543 2.0773 44.7154 -13.2411 -2.9988 7.6652
# 4 -13.5040 -19.4307 -13.2411 30.8712 1.9840 -1.8268
# 5 -20.6155 -10.0292 -2.9988 1.9840 39.3038 -7.0285
# 6 12.8730 17.8778 7.6652 -1.8268 -7.0285 53.5397
#
#
#
# Elastic Compliance Matrix: (Units=1/GPa)
#
#
# Indices 1 2 3 4 5 6 
#
# 1 0.006715 0.002167 0.002993 0.005225 0.003663 -0.002108
# 2 0.002167 0.024294 0.006308 0.018110 0.005436 -0.008205
# 3 0.002993 0.006308 0.028784 0.017054 0.003458 -0.005911
# 4 0.005225 0.018110 0.017054 0.052656 0.004694 -0.007332
# 5 0.003663 0.005436 0.003458 0.004694 0.028915 0.000765
# 6 -0.002108 -0.008205 -0.005911 -0.007332 0.000765 0.022621
#
#
# Mechanical properties :
#
#
# Convention : Reuss Voigt Hill
#
# Bulk Modulus (GPa) = 12.08741 31.67985 21.88363
# Shear Modulus (GPa) = 29.65141 43.59419 36.62280
#
# Velocity S-wave (km/s) = 3.65198 4.42813 4.05865
# Velocity P-wave (km/s) = 4.81866 6.35561 5.63974
#
# Compressibility (1/GPa) = 0.08273072
#
# Stress axis : x y z
#
# Youngs Moduli (GPa) = 148.91128 41.16193 34.74106
#
# Poissons Ratio (x) = -0.08921 -0.10397
# Poissons Ratio (y) = -0.32272 -0.21916
# Poissons Ratio (z) = -0.44566 -0.25966
#
# Static dielectric constant tensor:
#      x y z
#    x 1.648460 -0.222350 -0.128290 
#    y -0.222350 1.005700 -0.333300 
#    z -0.128290 -0.333300 1.697550 
# 
# From -- ./inp_files/70134.got.cif
#   From: 2010.05.17/outbox.cif.g08.bks.cpg/sg2_36_cif.got.tgz:70134.got - 2010.06.03 11:33:40.
