data_PCOD9062274
_publ_section_title
;
Structure prediction by ZEFSAII (Michael W. Deem and Ramdas Pophale) SiO2 
 PCOD9062274
Probable space group: P -1
;
_chemical_formula_sum "Si O2"
_cell_formula_units_Z 14
_cell_length_a 16.228825
_cell_length_b 13.421357
_cell_length_c 8.485061
_cell_angle_alpha 122.707625
_cell_angle_beta 129.133277
_cell_angle_gamma 26.603471
_cell_volume 640.446436
_symmetry_space_group_name_H-M "P -1"
_symmetry_group_IT_number 2
_symmetry_cell_setting 'triclinic'
loop_
_space_group_symop_operation_xyz
x,y,z
-x,-y,-z
loop_
_atom_site_type_symbol
_atom_site_label
_atom_site_fract_x
_atom_site_fract_y
_atom_site_fract_z
Si Si1 0.510667 0.162683 0.322786
Si Si2 0.224433 0.250865 0.522805
Si Si3 0.342937 0.578145 0.489281
Si Si4 0.629546 0.287054 0.071123
Si Si5 0.014566 0.197594 0.939305
Si Si6 0.634433 0.662415 0.048122
Si Si7 0.807554 0.735029 0.879687
O O1 0.439560 0.358957 0.465680
O O2 0.356516 0.200738 0.196878
O O3 0.706486 0.930741 0.452004
O O4 0.498992 0.186750 0.139927
O O5 0.352632 0.238008 0.737174
O O6 0.233711 0.233623 0.331501
O O7 0.000000 0.500000 0.500000
O O8 0.500000 0.500000 0.500000
O O9 0.291232 0.712521 0.684972
O O10 0.141624 0.732593 0.288128
O O11 0.812014 0.051376 0.999381
O O12 0.500000 0.500000 0.000000
O O13 0.471618 0.341806 0.992186
O O14 0.139818 0.174543 0.967174
O O15 0.859846 0.414163 0.051466
O O16 0.000000 0.500000 0.000000
#
# Coordination Sequence:
#
# PCOD9062274 Si02
#       7
#     2   2   2   2   2   2   2
#     4  11  24  45  72  98 146 182 230 298 348 416
#     4  12  25  41  69 107 139 180 232 285 358 418
#     4  11  23  49  71  99 136 187 238 286 348 419
#     4  12  28  44  72 103 139 189 239 287 350 417
#     4  11  24  47  72  99 141 183 237 287 350 414
#     4  11  24  49  69 103 145 183 238 293 353 415
#     4  12  23  45  73 102 140 181 231 291 352 418
#
# _framework density 21.859753000000001
#
# number of rings (size 3 to 8) (size 9 to 14) (size 15 to 20)
#    0.000    0.571    7.143    2.143    4.000    1.714 
#    2.571    0.000    0.000    0.000    0.000    0.000 
#    0.000    0.000    0.000    0.000    0.000    0.000 
#
# Total GULP energy -78112.870975 kJ/mol
# GULP energy per Si atom -5579.490784 kJ/mol
# Density = 2.181000 g / cm^3
# Si number density = 21.859753 Si / 1000 Ang^3
#
#
#
# Elastic Constant Matrix: (Units=GPa)
#
#
# Indices 1 2 3 4 5 6 
#
# 1 122.4105 58.1627 20.9198 -8.3874 11.8688 14.7194
# 2 58.1627 169.3629 18.6011 -24.0420 -1.0128 20.6493
# 3 20.9198 18.6011 70.5306 13.9437 3.6976 11.4219
# 4 -8.3874 -24.0420 13.9437 24.1994 14.8765 -10.2900
# 5 11.8688 -1.0128 3.6976 14.8765 43.2824 0.8223
# 6 14.7194 20.6493 11.4219 -10.2900 0.8223 34.3768
#
#
#
# Elastic Compliance Matrix: (Units=1/GPa)
#
#
# Indices 1 2 3 4 5 6 
#
# 1 0.010869 -0.002452 -0.003617 0.006505 -0.004966 0.000087
# 2 -0.002452 0.008856 -0.004096 0.012638 -0.003132 0.000949
# 3 -0.003617 -0.004096 0.024126 -0.030946 0.009728 -0.013503
# 4 0.006505 0.012638 -0.030946 0.111881 -0.037950 0.034303
# 5 -0.004966 -0.003132 0.009728 -0.037950 0.036823 -0.011465
# 6 0.000087 0.000949 -0.013503 0.034303 -0.011465 0.043511
#
#
# Mechanical properties :
#
#
# Convention : Reuss Voigt Hill
#
# Bulk Modulus (GPa) = 42.51570 61.96347 52.23959
# Shear Modulus (GPa) = 18.92240 38.01306 28.46773
#
# Velocity S-wave (km/s) = 2.94535 4.17460 3.61264
# Velocity P-wave (km/s) = 5.57300 7.18636 6.43048
#
# Compressibility (1/GPa) = 0.02352072
#
# Stress axis : x y z
#
# Youngs Moduli (GPa) = 92.00132 112.91625 41.44906
#
# Poissons Ratio (x) = 0.27692 0.14991
# Poissons Ratio (y) = 0.22563 0.16978
# Poissons Ratio (z) = 0.33275 0.46253
#
# Static dielectric constant tensor:
#      x y z
#    x 1.445790 -0.155140 0.126280 
#    y -0.155140 1.829350 0.047380 
#    z 0.126280 0.047380 1.720130 
# 
# From -- ./inp_files/203419.got.cif
#   From: 2010.05.17/outbox.cif.g08.bks.cpg/sg2_102_cif.got.tgz:203419.got - 2010.06.03 11:33:40.
