data_PCOD9062372
_publ_section_title
;
Structure prediction by ZEFSAII (Michael W. Deem and Ramdas Pophale) SiO2 
 PCOD9062372
Probable space group: P -1
;
_chemical_formula_sum "Si O2"
_cell_formula_units_Z 16
_cell_length_a 18.838519
_cell_length_b 14.867584
_cell_length_c 12.101322
_cell_angle_alpha 29.912620
_cell_angle_beta 32.975475
_cell_angle_gamma 20.996884
_cell_volume 597.223212
_symmetry_space_group_name_H-M "P -1"
_symmetry_group_IT_number 2
_symmetry_cell_setting 'triclinic'
loop_
_space_group_symop_operation_xyz
x,y,z
-x,-y,-z
loop_
_atom_site_type_symbol
_atom_site_label
_atom_site_fract_x
_atom_site_fract_y
_atom_site_fract_z
Si Si1 0.118990 0.433352 0.806619
Si Si2 0.160489 0.134351 0.886819
Si Si3 0.828412 0.200853 0.601629
Si Si4 0.561645 0.643030 0.780346
Si Si5 0.460906 0.834577 0.254609
Si Si6 0.534263 0.028044 0.659216
Si Si7 0.625362 0.414726 0.305473
Si Si8 0.841642 0.407603 0.848739
O O1 0.053503 0.408909 0.803271
O O2 0.153823 0.610125 0.582906
O O3 0.342538 0.111187 0.861902
O O4 0.000000 0.500000 0.000000
O O5 0.064546 0.206036 0.814897
O O6 0.397077 0.905544 0.797659
O O7 0.133537 0.982331 0.155860
O O8 0.603333 0.390628 0.646446
O O9 0.000000 0.000000 0.500000
O O10 0.538062 0.773331 0.559210
O O11 0.778324 0.433997 0.778113
O O12 0.500000 0.500000 0.000000
O O13 0.430087 0.889979 0.368041
O O14 0.616757 0.579786 0.234136
O O15 0.298046 0.843253 0.453347
O O16 0.500000 0.000000 0.000000
O O17 0.720234 0.713065 0.717721
O O18 0.751318 0.344680 0.111077
#
# Coordination Sequence:
#
# PCOD9062372 Si02
#       8
#     2   2   2   2   2   2   2   2
#     4  12  26  47  77 115 162 208 259 322 400 475
#     4  12  29  52  79 120 160 204 269 336 389 472
#     4  12  25  44  74 114 162 213 258 318 399 478
#     4  12  27  56  85 109 159 213 270 331 395 474
#     4  11  24  39  72 110 149 194 265 308 382 473
#     4  12  25  49  80 109 156 218 261 320 403 472
#     4  11  24  44  71 110 159 205 251 321 398 464
#     4  12  27  50  80 117 156 206 269 327 398 474
#
# _framework density 26.790652000000001
#
# number of rings (size 3 to 8) (size 9 to 14) (size 15 to 20)
#    0.000    0.250    6.250    1.875    5.250    2.000 
#    2.250    0.000    0.000    0.000    0.000    0.000 
#    0.000    0.000    0.000    0.000    0.000    0.000 
#
# Total GULP energy -89385.714609 kJ/mol
# GULP energy per Si atom -5586.607163 kJ/mol
# Density = 2.672968 g / cm^3
# Si number density = 26.790652 Si / 1000 Ang^3
#
#
#
# Elastic Constant Matrix: (Units=GPa)
#
#
# Indices 1 2 3 4 5 6 
#
# 1 143.9403 26.7508 18.4808 -19.4059 -2.1421 13.3546
# 2 26.7508 87.3463 37.7841 -4.0362 -11.8041 23.1906
# 3 18.4808 37.7841 165.7338 -17.9826 -8.2243 27.2084
# 4 -19.4059 -4.0362 -17.9826 45.2870 12.8096 -10.6624
# 5 -2.1421 -11.8041 -8.2243 12.8096 37.1300 -2.2336
# 6 13.3546 23.1906 27.2084 -10.6624 -2.2336 56.4414
#
#
#
# Elastic Compliance Matrix: (Units=1/GPa)
#
#
# Indices 1 2 3 4 5 6 
#
# 1 0.007868 -0.002388 0.000021 0.003535 -0.001537 -0.000284
# 2 -0.002388 0.015050 -0.002474 -0.003191 0.004909 -0.004835
# 3 0.000021 -0.002474 0.007161 0.002174 -0.000071 -0.002033
# 4 0.003535 -0.003191 0.002174 0.027938 -0.009707 0.004320
# 5 -0.001537 0.004909 -0.000071 -0.009707 0.031605 -0.002202
# 6 -0.000284 -0.004835 -0.002033 0.004320 -0.002202 0.021480
#
#
# Mechanical properties :
#
#
# Convention : Reuss Voigt Hill
#
# Bulk Modulus (GPa) = 49.02419 62.56131 55.79275
# Shear Modulus (GPa) = 39.19001 48.70533 43.94767
#
# Velocity S-wave (km/s) = 3.82884 4.26842 4.05459
# Velocity P-wave (km/s) = 6.15511 6.90617 6.54143
#
# Compressibility (1/GPa) = 0.02039809
#
# Stress axis : x y z
#
# Youngs Moduli (GPa) = 127.08936 66.44696 139.63606
#
# Poissons Ratio (x) = 0.15867 -0.00291
# Poissons Ratio (y) = 0.30348 0.34542
# Poissons Ratio (z) = -0.00265 0.16437
#
# Static dielectric constant tensor:
#      x y z
#    x 2.440130 -0.092150 0.125200 
#    y -0.092150 2.147790 -0.125920 
#    z 0.125200 -0.125920 2.283020 
# 
# From -- ./inp_files/475110.got.cif
#   From: 2010.05.17/outbox.cif.g08.bks.cpg/sg2_238_cif.got.tgz:475110.got - 2010.06.03 11:33:40.
