data_PCOD9062093
_publ_section_title
;
Structure prediction by ZEFSAII (Michael W. Deem and Ramdas Pophale) SiO2 
 PCOD9062093
Probable space group: P -1
;
_chemical_formula_sum "Si O2"
_cell_formula_units_Z 13
_cell_length_a 9.903232
_cell_length_b 11.723996
_cell_length_c 12.935794
_cell_angle_alpha 147.820624
_cell_angle_beta 44.546985
_cell_angle_gamma 143.447181
_cell_volume 473.829262
_symmetry_space_group_name_H-M "P -1"
_symmetry_group_IT_number 2
_symmetry_cell_setting 'triclinic'
loop_
_space_group_symop_operation_xyz
x,y,z
-x,-y,-z
loop_
_atom_site_type_symbol
_atom_site_label
_atom_site_fract_x
_atom_site_fract_y
_atom_site_fract_z
Si Si1 0.272828 0.167079 0.787583
Si Si2 0.235919 0.007171 0.374847
Si Si3 0.071244 0.720992 0.050540
Si Si4 0.500000 0.000000 0.000000
Si Si5 0.216712 0.363061 0.165212
Si Si6 0.617523 0.578548 0.655340
Si Si7 0.050055 0.671882 0.405122
O O1 0.535597 0.383847 0.801555
O O2 0.128058 0.248786 0.857868
O O3 0.203127 0.154382 0.935231
O O4 0.212256 0.905815 0.571872
O O5 0.274466 0.952304 0.192758
O O6 0.177641 0.771964 0.301487
O O7 0.432578 0.278424 0.516552
O O8 0.000000 0.000000 0.500000
O O9 0.248476 0.790818 0.917467
O O10 0.000000 0.500000 0.000000
O O11 0.506331 0.743961 0.842517
O O12 0.234412 0.342277 0.260453
O O13 0.039495 0.433954 0.278275
O O14 0.807814 0.648393 0.517589
#
# Coordination Sequence:
#
# PCOD9062093 Si02
#       7
#     2   2   2   1   2   2   2
#     4  11  23  47  72 107 141 197 243 295 370 431
#     4  12  24  45  75 103 149 190 241 301 367 435
#     4  12  25  46  73 105 147 192 239 303 369 428
#     4  12  26  48  72 106 152 184 252 306 348 454
#     4  11  25  46  78 103 151 191 246 306 365 440
#     4  12  27  48  72 112 144 197 245 301 375 429
#     4  12  25  49  72 112 147 190 249 305 362 448
#
# _framework density 27.436046000000001
#
# number of rings (size 3 to 8) (size 9 to 14) (size 15 to 20)
#    0.000    0.308    4.615    3.692    0.000    6.769 
#    0.000    0.000    0.000    0.000    0.000    0.000 
#    0.000    0.000    0.000    0.000    0.000    0.000 
#
# Total GULP energy -72689.778613 kJ/mol
# GULP energy per Si atom -5591.521432 kJ/mol
# Density = 2.737360 g / cm^3
# Si number density = 27.436046 Si / 1000 Ang^3
#
#
#
# Elastic Constant Matrix: (Units=GPa)
#
#
# Indices 1 2 3 4 5 6 
#
# 1 141.5774 12.7811 56.1815 -5.8297 -0.7398 -1.8653
# 2 12.7811 102.5798 -0.2675 -0.5854 0.2769 6.9165
# 3 56.1815 -0.2675 101.9996 -15.5231 6.8640 -8.3695
# 4 -5.8297 -0.5854 -15.5231 37.3617 -6.6810 0.9531
# 5 -0.7398 0.2769 6.8640 -6.6810 62.3391 -9.4631
# 6 -1.8653 6.9165 -8.3695 0.9531 -9.4631 56.9076
#
#
#
# Elastic Compliance Matrix: (Units=1/GPa)
#
#
# Indices 1 2 3 4 5 6 
#
# 1 0.009219 -0.001153 -0.005237 -0.000644 0.000589 -0.000219
# 2 -0.001153 0.009977 0.000613 0.000211 -0.000287 -0.001211
# 3 -0.005237 0.000613 0.013579 0.004647 -0.000829 0.001535
# 4 -0.000644 0.000211 0.004647 0.029064 0.002685 0.000596
# 5 0.000589 -0.000287 -0.000829 0.002685 0.016836 0.002687
# 6 -0.000219 -0.001211 0.001535 0.000596 0.002687 0.018375
#
#
# Mechanical properties :
#
#
# Convention : Reuss Voigt Hill
#
# Bulk Modulus (GPa) = 47.11923 53.72744 50.42334
# Shear Modulus (GPa) = 43.22373 49.81912 46.52143
#
# Velocity S-wave (km/s) = 3.97348 4.26588 4.12227
# Velocity P-wave (km/s) = 6.18570 6.62487 6.40905
#
# Compressibility (1/GPa) = 0.02122276
#
# Stress axis : x y z
#
# Youngs Moduli (GPa) = 108.47181 100.22651 73.64417
#
# Poissons Ratio (x) = 0.11554 0.38564
# Poissons Ratio (y) = 0.12505 -0.04515
# Poissons Ratio (z) = 0.56801 -0.06145
#
# Static dielectric constant tensor:
#      x y z
#    x 2.085270 0.056230 0.129090 
#    y 0.056230 3.138770 -0.671380 
#    z 0.129090 -0.671380 2.816480 
# 
# From -- ./inp_files/501076.got.cif
#   From: 2010.05.17/outbox.cif.g08.bks.cpg/sg2_251_cif.got.tgz:501076.got - 2010.06.03 11:33:40.
