data_PCOD9062159
_publ_section_title
;
Structure prediction by ZEFSAII (Michael W. Deem and Ramdas Pophale) SiO2 
 PCOD9062159
Probable space group: P -1
;
_chemical_formula_sum "Si O2"
_cell_formula_units_Z 16
_cell_length_a 13.422032
_cell_length_b 19.057170
_cell_length_c 9.666335
_cell_angle_alpha 145.357482
_cell_angle_beta 32.728956
_cell_angle_gamma 147.130805
_cell_volume 666.255816
_symmetry_space_group_name_H-M "P -1"
_symmetry_group_IT_number 2
_symmetry_cell_setting 'triclinic'
loop_
_space_group_symop_operation_xyz
x,y,z
-x,-y,-z
loop_
_atom_site_type_symbol
_atom_site_label
_atom_site_fract_x
_atom_site_fract_y
_atom_site_fract_z
Si Si1 0.112755 0.997682 0.003476
Si Si2 0.586544 0.172148 0.785112
Si Si3 0.365550 0.551095 0.448930
Si Si4 0.012162 0.695933 0.673742
Si Si5 0.049698 0.131290 0.558978
Si Si6 0.355942 0.849316 0.998371
Si Si7 0.779286 0.473059 0.140948
Si Si8 0.794778 0.608894 0.055937
O O1 0.098907 0.097309 0.296696
O O2 0.364630 0.061539 0.799943
O O3 0.987933 0.836541 0.938539
O O4 0.000000 0.000000 0.000000
O O5 0.772847 0.236692 0.557890
O O6 0.622403 0.119748 0.809478
O O7 0.602711 0.315354 0.056592
O O8 0.373673 0.707510 0.704663
O O9 0.324475 0.485125 0.545817
O O10 0.565011 0.535812 0.136728
O O11 0.162086 0.438747 0.420919
O O12 0.979750 0.646818 0.791397
O O13 0.224155 0.259566 0.646169
O O14 0.869964 0.174606 0.822377
O O15 0.000000 0.000000 0.500000
O O16 0.500000 0.000000 0.000000
O O17 0.823051 0.539167 0.046722
O O18 0.000000 0.500000 0.000000
#
# Coordination Sequence:
#
# PCOD9062159 Si02
#       8
#     2   2   2   2   2   2   2   2
#     4  12  28  48  76 110 152 207 254 324 390 456
#     4  11  25  50  74 111 154 202 261 311 389 465
#     4  11  25  48  75 115 152 196 264 317 390 456
#     4  12  27  48  73 110 164 197 257 314 391 472
#     4  12  24  48  73 109 148 192 263 312 382 461
#     4  11  25  47  84 110 147 205 260 326 381 465
#     4  11  23  47  77 110 148 201 258 319 387 458
#     4  12  26  45  77 109 153 203 251 325 383 462
#
# _framework density 24.014800999999999
#
# number of rings (size 3 to 8) (size 9 to 14) (size 15 to 20)
#    0.000    0.500    2.500    6.375    3.500    0.500 
#    0.000    0.000    0.000    0.000    0.000    0.000 
#    0.000    0.000    0.000    0.000    0.000    0.000 
#
# Total GULP energy -89166.600494 kJ/mol
# GULP energy per Si atom -5572.912531 kJ/mol
# Density = 2.396014 g / cm^3
# Si number density = 24.014801 Si / 1000 Ang^3
#
#
#
# Elastic Constant Matrix: (Units=GPa)
#
#
# Indices 1 2 3 4 5 6 
#
# 1 171.9512 72.8403 50.5072 -16.5626 13.7926 -15.9279
# 2 72.8403 133.2787 37.2023 -3.2291 3.9640 -10.3349
# 3 50.5072 37.2023 83.3559 -15.9960 14.8240 1.4086
# 4 -16.5626 -3.2291 -15.9960 39.5644 -3.2828 9.8507
# 5 13.7926 3.9640 14.8240 -3.2828 54.0320 -11.0584
# 6 -15.9279 -10.3349 1.4086 9.8507 -11.0584 47.5950
#
#
#
# Elastic Compliance Matrix: (Units=1/GPa)
#
#
# Indices 1 2 3 4 5 6 
#
# 1 0.008673 -0.003639 -0.003260 0.001529 -0.000601 0.001753
# 2 -0.003639 0.010426 -0.003154 -0.002318 0.001281 0.001917
# 3 -0.003260 -0.003154 0.017405 0.006197 -0.004270 -0.004566
# 4 0.001529 -0.002318 0.006197 0.029772 -0.001479 -0.006681
# 5 -0.000601 0.001281 -0.004270 -0.001479 0.020739 0.005328
# 6 0.001753 0.001917 -0.004566 -0.006681 0.005328 0.024769
#
#
# Mechanical properties :
#
#
# Convention : Reuss Voigt Hill
#
# Bulk Modulus (GPa) = 60.97877 78.85393 69.91635
# Shear Modulus (GPa) = 36.40170 43.44067 39.92119
#
# Velocity S-wave (km/s) = 3.89755 4.25775 4.08163
# Velocity P-wave (km/s) = 6.76032 7.55500 7.16868
#
# Compressibility (1/GPa) = 0.01639915
#
# Stress axis : x y z
#
# Youngs Moduli (GPa) = 115.30683 95.90958 57.45393
#
# Poissons Ratio (x) = 0.34901 0.18730
# Poissons Ratio (y) = 0.41960 0.18118
# Poissons Ratio (z) = 0.37591 0.30245
#
# Static dielectric constant tensor:
#      x y z
#    x 1.959390 0.053650 -0.027140 
#    y 0.053650 2.016150 0.045950 
#    z -0.027140 0.045950 2.042270 
# 
# From -- ./inp_files/280055.got.cif
#   From: 2010.05.17/outbox.cif.g08.bks.cpg/sg2_141_cif.got.tgz:280055.got - 2010.06.03 11:33:40.
