data_PCOD9062960
_publ_section_title
;
Structure prediction by ZEFSAII (Michael W. Deem and Ramdas Pophale) SiO2 
 PCOD9062960
Probable space group: P -1
;
_chemical_formula_sum "Si O2"
_cell_formula_units_Z 13
_cell_length_a 6.209024
_cell_length_b 13.837105
_cell_length_c 9.000515
_cell_angle_alpha 103.086064
_cell_angle_beta 129.032239
_cell_angle_gamma 70.697758
_cell_volume 566.735514
_symmetry_space_group_name_H-M "P -1"
_symmetry_group_IT_number 2
_symmetry_cell_setting 'triclinic'
loop_
_space_group_symop_operation_xyz
x,y,z
-x,-y,-z
loop_
_atom_site_type_symbol
_atom_site_label
_atom_site_fract_x
_atom_site_fract_y
_atom_site_fract_z
Si Si1 0.379351 0.593167 0.176867
Si Si2 0.500000 0.500000 0.500000
Si Si3 0.107417 0.777843 0.306522
Si Si4 0.897751 0.251157 0.369837
Si Si5 0.437826 0.115586 0.077413
Si Si6 0.552031 0.896561 0.577998
Si Si7 0.916752 0.442464 0.250159
O O1 0.351339 0.523051 0.280017
O O2 0.313341 0.705843 0.254745
O O3 0.683759 0.549352 0.214917
O O4 0.138107 0.591961 0.950317
O O5 0.764845 0.549786 0.577315
O O6 0.117620 0.722376 0.451531
O O7 0.244747 0.870930 0.435846
O O8 0.804717 0.817144 0.110825
O O9 0.687124 0.177388 0.214983
O O10 0.835095 0.357110 0.291105
O O11 0.209489 0.187060 0.434156
O O12 0.350851 0.105460 0.208715
O O13 0.500000 0.000000 0.000000
O O14 0.500000 0.000000 0.500000
#
# Coordination Sequence:
#
# PCOD9062960 Si02
#       7
#     2   1   2   2   2   2   2
#     4  11  25  44  67  98 135 177 224 276 337 400
#     4  12  24  44  68  94 132 174 222 276 332 392
#     4  11  25  44  68  99 135 178 225 277 335 401
#     4  11  25  45  68  99 137 177 225 277 336 401
#     4  11  25  44  69 101 136 177 225 278 335 400
#     4  11  24  43  68 100 136 174 223 279 338 402
#     4  11  26  45  68  99 135 178 225 278 335 400
#
# _framework density 22.938389999999998
#
# number of rings (size 3 to 8) (size 9 to 14) (size 15 to 20)
#    0.000    0.923    0.000    5.538    0.000   17.231 
#    0.000    0.000    0.000    0.000    0.000    0.000 
#    0.000    0.000    0.000    0.000    0.000    0.000 
#
# Total GULP energy -72508.335995 kJ/mol
# GULP energy per Si atom -5577.564307 kJ/mol
# Density = 2.288618 g / cm^3
# Si number density = 22.938390 Si / 1000 Ang^3
#
#
#
# Elastic Constant Matrix: (Units=GPa)
#
#
# Indices 1 2 3 4 5 6 
#
# 1 63.4410 30.5534 55.0622 16.2665 3.5461 15.4933
# 2 30.5534 87.4902 41.8157 9.2906 6.7513 2.2629
# 3 55.0622 41.8157 181.8941 5.8139 -10.1414 16.6259
# 4 16.2665 9.2906 5.8139 33.4965 -1.8525 -7.9683
# 5 3.5461 6.7513 -10.1414 -1.8525 46.3391 -1.4459
# 6 15.4933 2.2629 16.6259 -7.9683 -1.4459 45.4054
#
#
#
# Elastic Compliance Matrix: (Units=1/GPa)
#
#
# Indices 1 2 3 4 5 6 
#
# 1 0.031049 -0.005328 -0.006951 -0.015132 -0.004056 -0.010569
# 2 -0.005328 0.014425 -0.001941 -0.000812 -0.002101 0.001600
# 3 -0.006951 -0.001941 0.008108 0.002668 0.002697 0.000054
# 4 -0.015132 -0.000812 0.002668 0.039874 0.003808 0.011346
# 5 -0.004056 -0.002101 0.002697 0.003808 0.022998 0.001902
# 6 -0.010569 0.001600 0.000054 0.011346 0.001902 0.027582
#
#
# Mechanical properties :
#
#
# Convention : Reuss Voigt Hill
#
# Bulk Modulus (GPa) = 39.77134 65.29867 52.53500
# Shear Modulus (GPa) = 27.64621 38.74113 33.19367
#
# Velocity S-wave (km/s) = 3.47542 4.11411 3.80818
# Velocity P-wave (km/s) = 5.78625 7.14819 6.50297
#
# Compressibility (1/GPa) = 0.02514374
#
# Stress axis : x y z
#
# Youngs Moduli (GPa) = 32.20729 69.32396 123.33253
#
# Poissons Ratio (x) = 0.36934 0.85724
# Poissons Ratio (y) = 0.17159 0.23937
# Poissons Ratio (z) = 0.22386 0.13455
#
# Static dielectric constant tensor:
#      x y z
#    x 1.885770 -0.065950 -0.010270 
#    y -0.065950 1.899720 0.015700 
#    z -0.010270 0.015700 1.828480 
# 
# From -- ./inp_files/34887.got.cif
#   From: 2010.05.17/outbox.cif.g08.bks.cpg/sg2_18_cif.got.tgz:34887.got - 2010.06.03 11:33:40.
