data_PCOD9062816
_publ_section_title
;
Structure prediction by ZEFSAII (Michael W. Deem and Ramdas Pophale) SiO2 
 PCOD9062816
Probable space group: P -1
;
_chemical_formula_sum "Si O2"
_cell_formula_units_Z 14
_cell_length_a 10.575230
_cell_length_b 5.792452
_cell_length_c 11.132023
_cell_angle_alpha 117.216742
_cell_angle_beta 104.266484
_cell_angle_gamma 99.136023
_cell_volume 557.788622
_symmetry_space_group_name_H-M "P -1"
_symmetry_group_IT_number 2
_symmetry_cell_setting 'triclinic'
loop_
_space_group_symop_operation_xyz
x,y,z
-x,-y,-z
loop_
_atom_site_type_symbol
_atom_site_label
_atom_site_fract_x
_atom_site_fract_y
_atom_site_fract_z
Si Si1 0.540764 0.236683 0.911978
Si Si2 0.197953 0.267892 0.198659
Si Si3 0.583730 0.906110 0.651583
Si Si4 0.085484 0.120430 0.887403
Si Si5 0.711040 0.197900 0.517390
Si Si6 0.137663 0.161361 0.640116
Si Si7 0.723602 0.243796 0.174687
O O1 0.573061 0.191557 0.771628
O O2 0.411840 0.971911 0.851316
O O3 0.500000 0.500000 0.000000
O O4 0.669752 0.257614 0.030460
O O5 0.338709 0.214706 0.258979
O O6 0.190318 0.523731 0.337003
O O7 0.171250 0.301758 0.059374
O O8 0.073015 0.999797 0.142316
O O9 0.426440 0.743328 0.545837
O O10 0.666944 0.982463 0.566072
O O11 0.100485 0.229156 0.781859
O O12 0.150904 0.874913 0.833055
O O13 0.775144 0.049199 0.398035
O O14 0.227138 0.457675 0.682626
O O15 0.000000 0.000000 0.500000
#
# Coordination Sequence:
#
# PCOD9062816 Si02
#       7
#     2   2   2   2   2   2   2
#     4  11  24  42  72 106 140 182 237 294 357 421
#     4  11  25  45  71 103 140 191 236 298 356 418
#     4  11  24  44  68 102 142 184 233 294 360 424
#     4  11  25  45  72 104 138 187 247 291 354 427
#     4  11  26  43  70 104 146 187 235 289 358 429
#     4  12  27  48  71 106 146 194 240 293 355 433
#     4  11  24  43  72 103 140 184 238 295 352 419
#
# _framework density 25.099117
#
# number of rings (size 3 to 8) (size 9 to 14) (size 15 to 20)
#    0.000    0.857    1.429    4.714    4.000    8.000 
#    0.000    3.571    0.000    0.000    0.000    0.000 
#    0.000    0.000    0.000    0.000    0.000    0.000 
#
# Total GULP energy -78395.913212 kJ/mol
# GULP energy per Si atom -5599.708087 kJ/mol
# Density = 2.504199 g / cm^3
# Si number density = 25.099117 Si / 1000 Ang^3
#
#
#
# Elastic Constant Matrix: (Units=GPa)
#
#
# Indices 1 2 3 4 5 6 
#
# 1 72.4426 10.5287 39.0619 4.5151 20.3477 3.6644
# 2 10.5287 50.7365 39.6656 14.5179 21.7124 13.4952
# 3 39.0619 39.6656 168.0671 18.5656 21.3905 21.9005
# 4 4.5151 14.5179 18.5656 49.8861 -0.4803 -4.9346
# 5 20.3477 21.7124 21.3905 -0.4803 55.5989 -7.6357
# 6 3.6644 13.4952 21.9005 -4.9346 -7.6357 31.2392
#
#
#
# Elastic Compliance Matrix: (Units=1/GPa)
#
#
# Indices 1 2 3 4 5 6 
#
# 1 0.017272 0.003099 -0.003349 -0.001569 -0.006654 -0.002891
# 2 0.003099 0.038510 -0.003440 -0.012448 -0.017829 -0.020912
# 3 -0.003349 -0.003440 0.008629 -0.002406 -0.001445 -0.004904
# 4 -0.001569 -0.012448 -0.002406 0.026116 0.008432 0.013435
# 5 -0.006654 -0.017829 -0.001445 0.008432 0.030524 0.018289
# 6 -0.002891 -0.020912 -0.004904 0.013435 0.018289 0.051415
#
#
# Mechanical properties :
#
#
# Convention : Reuss Voigt Hill
#
# Bulk Modulus (GPa) = 17.53389 52.19540 34.86464
# Shear Modulus (GPa) = 25.14389 40.81085 32.97737
#
# Velocity S-wave (km/s) = 3.16853 4.03673 3.62869
# Velocity P-wave (km/s) = 4.51521 6.52440 5.61048
#
# Compressibility (1/GPa) = 0.05703242
#
# Stress axis : x y z
#
# Youngs Moduli (GPa) = 57.89607 25.96731 115.88931
#
# Poissons Ratio (x) = -0.08048 0.38811
# Poissons Ratio (y) = -0.17944 0.39863
# Poissons Ratio (z) = 0.19389 0.08932
#
# Static dielectric constant tensor:
#      x y z
#    x 1.973990 0.006960 -0.022070 
#    y 0.006960 2.097850 -0.038810 
#    z -0.022070 -0.038810 1.952930 
# 
# From -- ./inp_files/411337.got.cif
#   From: 2010.05.17/outbox.cif.g08.bks.cpg/sg2_206_cif.got.tgz:411337.got - 2010.06.03 11:33:40.
