data_PCOD9062881
_publ_section_title
;
Structure prediction by ZEFSAII (Michael W. Deem and Ramdas Pophale) SiO2 
 PCOD9062881
Probable space group: P -1
;
_chemical_formula_sum "Si O2"
_cell_formula_units_Z 16
_cell_length_a 16.257516
_cell_length_b 12.279793
_cell_length_c 8.370321
_cell_angle_alpha 139.065050
_cell_angle_beta 138.651566
_cell_angle_gamma 43.016934
_cell_volume 669.364412
_symmetry_space_group_name_H-M "P -1"
_symmetry_group_IT_number 2
_symmetry_cell_setting 'triclinic'
loop_
_space_group_symop_operation_xyz
x,y,z
-x,-y,-z
loop_
_atom_site_type_symbol
_atom_site_label
_atom_site_fract_x
_atom_site_fract_y
_atom_site_fract_z
Si Si1 0.023998 0.919569 0.121250
Si Si2 0.793993 0.169718 0.241241
Si Si3 0.947725 0.586045 0.688764
Si Si4 0.706956 0.585627 0.520152
Si Si5 0.463756 0.338371 0.193499
Si Si6 0.202123 0.320070 0.922406
Si Si7 0.270824 0.921402 0.603181
Si Si8 0.467477 0.819798 0.240343
O O1 0.183811 0.828288 0.280376
O O2 0.946507 0.084112 0.309771
O O3 0.956142 0.779383 0.908797
O O4 0.000000 0.000000 0.000000
O O5 0.744113 0.384664 0.414615
O O6 0.774305 0.088453 0.290630
O O7 0.691648 0.132975 0.927536
O O8 0.801969 0.586205 0.511838
O O9 0.000000 0.500000 0.500000
O O10 0.053335 0.462513 0.835292
O O11 0.749589 0.690436 0.836676
O O12 0.554403 0.684009 0.351664
O O13 0.500000 0.500000 0.500000
O O14 0.310237 0.373396 0.042727
O O15 0.568846 0.170531 0.260358
O O16 0.493166 0.281219 0.986993
O O17 0.220423 0.120247 0.680305
O O18 0.500000 0.000000 0.500000
#
# Coordination Sequence:
#
# PCOD9062881 Si02
#       8
#     2   2   2   2   2   2   2   2
#     4  12  25  42  65  94 126 166 212 268 327 387
#     4  11  24  43  64  93 130 171 214 265 325 390
#     4  12  25  44  65  94 130 170 220 274 328 395
#     4  12  24  42  68  98 130 173 220 273 330 391
#     4  11  24  44  68  99 134 174 220 275 332 394
#     4  12  24  42  68  98 130 173 220 273 330 391
#     4  11  24  43  64  93 130 171 214 265 325 390
#     4  11  24  44  68  99 134 174 220 275 332 394
#
# _framework density 23.903271
#
# number of rings (size 3 to 8) (size 9 to 14) (size 15 to 20)
#    0.000    0.500    0.000   10.500    0.000    3.000 
#    0.000    0.000    0.000    0.000    0.000    0.000 
#    0.000    0.000    0.000    0.000    0.000    0.000 
#
# Total GULP energy -89579.101328 kJ/mol
# GULP energy per Si atom -5598.693833 kJ/mol
# Density = 2.384887 g / cm^3
# Si number density = 23.903271 Si / 1000 Ang^3
#
#
#
# Elastic Constant Matrix: (Units=GPa)
#
#
# Indices 1 2 3 4 5 6 
#
# 1 40.6962 -10.5869 8.3274 4.9383 -0.0744 4.1678
# 2 -10.5869 112.4575 18.2161 -3.2365 7.8517 6.1431
# 3 8.3274 18.2161 80.4037 -0.9154 8.0158 0.7171
# 4 4.9383 -3.2365 -0.9154 56.4762 4.7979 7.7095
# 5 -0.0744 7.8517 8.0158 4.7979 42.7892 0.1123
# 6 4.1678 6.1431 0.7171 7.7095 0.1123 27.7725
#
#
#
# Elastic Compliance Matrix: (Units=1/GPa)
#
#
# Indices 1 2 3 4 5 6 
#
# 1 0.026769 0.003250 -0.003521 -0.001667 0.000308 -0.004184
# 2 0.003250 0.009861 -0.002394 0.000747 -0.001432 -0.002809
# 3 -0.003521 -0.002394 0.013561 0.000495 -0.002164 0.000579
# 4 -0.001667 0.000747 0.000495 0.018802 -0.002328 -0.005138
# 5 0.000308 -0.001432 -0.002164 -0.002328 0.024298 0.000874
# 6 -0.004184 -0.002809 0.000579 -0.005138 0.000874 0.038664
#
#
# Mechanical properties :
#
#
# Convention : Reuss Voigt Hill
#
# Bulk Modulus (GPa) = 22.29195 29.49672 25.89434
# Shear Modulus (GPa) = 32.84301 39.91430 36.37866
#
# Velocity S-wave (km/s) = 3.71077 4.09078 3.90540
# Velocity P-wave (km/s) = 5.26364 5.88893 5.58504
#
# Compressibility (1/GPa) = 0.04485924
#
# Stress axis : x y z
#
# Youngs Moduli (GPa) = 37.35605 101.41071 73.74307
#
# Poissons Ratio (x) = -0.32954 0.25965
# Poissons Ratio (y) = -0.12139 0.17657
# Poissons Ratio (z) = 0.13153 0.24281
#
# Static dielectric constant tensor:
#      x y z
#    x 1.894940 -0.022530 -0.024690 
#    y -0.022530 1.703060 -0.136870 
#    z -0.024690 -0.136870 1.813290 
# 
# From -- ./inp_files/333960.got.cif
#   From: 2010.05.17/outbox.cif.g08.bks.cpg/sg2_167_cif.got.tgz:333960.got - 2010.06.03 11:33:40.
