data_PCOD9062387
_publ_section_title
;
Structure prediction by ZEFSAII (Michael W. Deem and Ramdas Pophale) SiO2 
 PCOD9062387
Probable space group: P -1
;
_chemical_formula_sum "Si O2"
_cell_formula_units_Z 16
_cell_length_a 14.768641
_cell_length_b 12.315062
_cell_length_c 12.769540
_cell_angle_alpha 88.808472
_cell_angle_beta 18.767629
_cell_angle_gamma 85.720841
_cell_volume 736.080203
_symmetry_space_group_name_H-M "P -1"
_symmetry_group_IT_number 2
_symmetry_cell_setting 'triclinic'
loop_
_space_group_symop_operation_xyz
x,y,z
-x,-y,-z
loop_
_atom_site_type_symbol
_atom_site_label
_atom_site_fract_x
_atom_site_fract_y
_atom_site_fract_z
Si Si1 0.626017 0.953537 0.252743
Si Si2 0.803468 0.667518 0.203380
Si Si3 0.908898 0.295316 0.804899
Si Si4 0.422731 0.181008 0.376399
Si Si5 0.794133 0.192460 0.355600
Si Si6 0.827413 0.624089 0.689626
Si Si7 0.790387 0.347946 0.548855
Si Si8 0.077033 0.502032 0.086248
O O1 0.489342 0.846889 0.373690
O O2 0.500000 0.000000 0.500000
O O3 0.529267 0.052108 0.275615
O O4 0.963103 0.915827 0.896177
O O5 0.586363 0.760483 0.499916
O O6 0.906948 0.577897 0.181620
O O7 0.062838 0.727247 0.879000
O O8 0.724235 0.597153 0.191635
O O9 0.112259 0.217299 0.664950
O O10 0.096585 0.318570 0.500532
O O11 0.792159 0.412469 0.986765
O O12 0.646317 0.236758 0.064548
O O13 0.754810 0.252701 0.508482
O O14 0.000000 0.500000 0.500000
O O15 0.950391 0.681078 0.653535
O O16 0.497615 0.621304 0.070556
O O17 0.868694 0.446902 0.389952
#
# Coordination Sequence:
#
# PCOD9062387 Si02
#       8
#     2   2   2   2   2   2   2   2
#     4  12  24  41  67  94 127 165 214 263 308 366
#     4   9  20  36  58  90 132 170 201 240 305 386
#     4  11  24  40  63  91 126 165 207 258 314 368
#     4  11  24  40  63  91 126 165 207 258 314 368
#     4  11  24  42  65  94 129 169 208 258 317 372
#     4  12  24  41  67  94 127 165 214 263 308 366
#     4  11  24  42  65  94 129 169 208 258 317 372
#     4   9  20  36  58  90 132 170 201 240 305 386
#
# _framework density 21.736763
#
# number of rings (size 3 to 8) (size 9 to 14) (size 15 to 20)
#    0.000    1.250    2.500    3.000    7.000    0.500 
#    0.000    0.000    0.000   15.000    0.000    0.000 
#    0.000    0.000    0.000    0.000    0.000    0.000 
#
# Total GULP energy -89513.994708 kJ/mol
# GULP energy per Si atom -5594.624669 kJ/mol
# Density = 2.168729 g / cm^3
# Si number density = 21.736763 Si / 1000 Ang^3
#
#
#
# Elastic Constant Matrix: (Units=GPa)
#
#
# Indices 1 2 3 4 5 6 
#
# 1 70.1764 14.1378 5.9032 -8.9619 9.7636 2.4289
# 2 14.1378 72.1910 4.2686 -6.4080 10.8948 -6.7967
# 3 5.9032 4.2686 73.4041 -2.7290 3.3261 -10.2293
# 4 -8.9619 -6.4080 -2.7290 25.0485 -1.1797 -4.0545
# 5 9.7636 10.8948 3.3261 -1.1797 36.9981 -2.2309
# 6 2.4289 -6.7967 -10.2293 -4.0545 -2.2309 30.3360
#
#
#
# Elastic Compliance Matrix: (Units=1/GPa)
#
#
# Indices 1 2 3 4 5 6 
#
# 1 0.015918 -0.002309 -0.001074 0.004537 -0.003388 -0.001797
# 2 -0.002309 0.015535 0.000129 0.003627 -0.003624 0.003927
# 3 -0.001074 0.000129 0.014540 0.002049 -0.000680 0.005241
# 4 0.004537 0.003627 0.002049 0.043791 -0.000634 0.006946
# 5 -0.003388 -0.003624 -0.000680 -0.000634 0.029108 0.001286
# 6 -0.001797 0.003927 0.005241 0.006946 0.001286 0.036778
#
#
# Mechanical properties :
#
#
# Convention : Reuss Voigt Hill
#
# Bulk Modulus (GPa) = 25.32657 29.37675 27.35166
# Shear Modulus (GPa) = 28.51579 31.24066 29.87823
#
# Velocity S-wave (km/s) = 3.62590 3.79519 3.71151
# Velocity P-wave (km/s) = 5.40429 5.72265 5.56575
#
# Compressibility (1/GPa) = 0.03948423
#
# Stress axis : x y z
#
# Youngs Moduli (GPa) = 62.82084 64.36900 68.77795
#
# Poissons Ratio (x) = 0.14863 0.07387
# Poissons Ratio (y) = 0.14506 -0.00885
# Poissons Ratio (z) = 0.06748 -0.00828
#
# Static dielectric constant tensor:
#      x y z
#    x 1.810280 0.007820 -0.008460 
#    y 0.007820 1.807480 -0.001840 
#    z -0.008460 -0.001840 1.799590 
# 
# From -- ./inp_files/452324.got.cif
#   From: 2010.05.17/outbox.cif.g08.bks.cpg/sg2_227_cif.got.tgz:452324.got - 2010.06.03 11:33:40.
