data_PCOD9062925
_publ_section_title
;
Structure prediction by ZEFSAII (Michael W. Deem and Ramdas Pophale) SiO2 
 PCOD9062925
Probable space group: P -1
;
_chemical_formula_sum "Si O2"
_cell_formula_units_Z 16
_cell_length_a 18.549355
_cell_length_b 24.381678
_cell_length_c 5.225252
_cell_angle_alpha 66.694673
_cell_angle_beta 104.261527
_cell_angle_gamma 161.913884
_cell_volume 599.992835
_symmetry_space_group_name_H-M "P -1"
_symmetry_group_IT_number 2
_symmetry_cell_setting 'triclinic'
loop_
_space_group_symop_operation_xyz
x,y,z
-x,-y,-z
loop_
_atom_site_type_symbol
_atom_site_label
_atom_site_fract_x
_atom_site_fract_y
_atom_site_fract_z
Si Si1 0.819270 0.814709 0.835216
Si Si2 0.399774 0.135890 0.634783
Si Si3 0.049464 0.265865 0.687842
Si Si4 0.610923 0.182196 0.455674
Si Si5 0.790080 0.723238 0.461255
Si Si6 0.078554 0.727367 0.770772
Si Si7 0.586245 0.405066 0.212599
Si Si8 0.138735 0.546186 0.213008
O O1 0.778123 0.733655 0.725706
O O2 0.558155 0.652609 0.951088
O O3 0.924336 0.870528 0.093999
O O4 0.000000 0.000000 0.500000
O O5 0.492874 0.154023 0.500681
O O6 0.397668 0.202082 0.413727
O O7 0.640858 0.322418 0.699674
O O8 0.136715 0.911031 0.949292
O O9 0.912538 0.221106 0.559866
O O10 0.079577 0.240719 0.535318
O O11 0.326920 0.499199 0.617714
O O12 0.877007 0.361682 0.478804
O O13 0.375721 0.955279 0.699347
O O14 0.717419 0.284516 0.081239
O O15 0.500000 0.500000 0.500000
O O16 0.968067 0.578815 0.872429
O O17 0.861218 0.592246 0.002154
#
# Coordination Sequence:
#
# PCOD9062925 Si02
#       8
#     2   2   2   2   2   2   2   2
#     4  12  28  49  74 109 146 191 245 298 363 434
#     4  12  24  45  66 104 132 185 230 282 354 418
#     4  12  26  43  73  99 142 183 231 293 354 425
#     4  11  24  43  67 100 138 181 225 289 349 421
#     4  12  26  48  74 105 145 192 239 294 367 428
#     4  12  24  44  69 102 135 181 236 282 356 419
#     4  12  26  44  72 100 142 181 231 299 349 422
#     4  11  24  43  67  99 141 177 227 290 349 415
#
# _framework density 26.666983999999999
#
# number of rings (size 3 to 8) (size 9 to 14) (size 15 to 20)
#    0.000    0.250    6.250    3.000    1.750    2.000 
#    0.000    1.250    0.000    0.000    0.000    0.000 
#    0.000    0.000    0.000    0.000    0.000    0.000 
#
# Total GULP energy -89592.722512 kJ/mol
# GULP energy per Si atom -5599.545157 kJ/mol
# Density = 2.660629 g / cm^3
# Si number density = 26.666984 Si / 1000 Ang^3
#
#
#
# Elastic Constant Matrix: (Units=GPa)
#
#
# Indices 1 2 3 4 5 6 
#
# 1 141.4345 1.0497 18.3614 2.0505 -18.6808 -19.1942
# 2 1.0497 64.0256 8.0161 -4.0500 -3.1367 7.9134
# 3 18.3614 8.0161 106.6546 -17.5384 -4.6266 -8.4978
# 4 2.0505 -4.0500 -17.5384 46.7527 5.6034 17.3188
# 5 -18.6808 -3.1367 -4.6266 5.6034 44.0672 9.0927
# 6 -19.1942 7.9134 -8.4978 17.3188 9.0927 71.9261
#
#
#
# Elastic Compliance Matrix: (Units=1/GPa)
#
#
# Indices 1 2 3 4 5 6 
#
# 1 0.007967 -0.000193 -0.001392 -0.002026 0.003045 0.002086
# 2 -0.000193 0.016245 -0.001037 0.001824 0.001262 -0.002560
# 3 -0.001392 -0.001037 0.010325 0.003836 -0.000078 0.000049
# 4 -0.002026 0.001824 0.003836 0.025637 -0.002313 -0.006169
# 5 0.003045 0.001262 -0.000078 -0.002313 0.024753 -0.001908
# 6 0.002086 -0.002560 0.000049 -0.006169 -0.001908 0.016474
#
#
# Mechanical properties :
#
#
# Convention : Reuss Voigt Hill
#
# Bulk Modulus (GPa) = 34.13773 40.77434 37.45604
# Shear Modulus (GPa) = 42.95170 51.52838 47.24004
#
# Velocity S-wave (km/s) = 4.01767 4.40055 4.21346
# Velocity P-wave (km/s) = 5.86102 6.41430 6.14389
#
# Compressibility (1/GPa) = 0.02929310
#
# Stress axis : x y z
#
# Youngs Moduli (GPa) = 125.51550 61.55598 96.85326
#
# Poissons Ratio (x) = 0.01189 0.13482
# Poissons Ratio (y) = 0.02424 0.10044
# Poissons Ratio (z) = 0.17471 0.06384
#
# Static dielectric constant tensor:
#      x y z
#    x 2.074740 -0.011800 -0.027230 
#    y -0.011800 2.160720 -0.006710 
#    z -0.027230 -0.006710 2.174130 
# 
# From -- ./inp_files/47191.got.cif
#   From: 2010.05.17/outbox.cif.g08.bks.cpg/sg2_24_cif.got.tgz:47191.got - 2010.06.03 11:33:40.
