data_PCOD9062356
_publ_section_title
;
Structure prediction by ZEFSAII (Michael W. Deem and Ramdas Pophale) SiO2 
 PCOD9062356
Probable space group: P -1
;
_chemical_formula_sum "Si O2"
_cell_formula_units_Z 14
_cell_length_a 8.701664
_cell_length_b 18.699000
_cell_length_c 7.388327
_cell_angle_alpha 73.703725
_cell_angle_beta 121.682353
_cell_angle_gamma 142.220882
_cell_volume 605.498763
_symmetry_space_group_name_H-M "P -1"
_symmetry_group_IT_number 2
_symmetry_cell_setting 'triclinic'
loop_
_space_group_symop_operation_xyz
x,y,z
-x,-y,-z
loop_
_atom_site_type_symbol
_atom_site_label
_atom_site_fract_x
_atom_site_fract_y
_atom_site_fract_z
Si Si1 0.669482 0.730466 0.835351
Si Si2 0.910452 0.832680 0.550179
Si Si3 0.005679 0.930937 0.181784
Si Si4 0.581243 0.445517 0.670781
Si Si5 0.678044 0.143184 0.388857
Si Si6 0.809877 0.650490 0.186638
Si Si7 0.903393 0.375935 0.388817
O O1 0.853089 0.832056 0.722049
O O2 0.330307 0.641205 0.670595
O O3 0.778403 0.801248 0.039546
O O4 0.756489 0.671258 0.944924
O O5 0.639225 0.689525 0.438671
O O6 0.194062 0.872669 0.666374
O O7 0.923871 0.903270 0.363048
O O8 0.347450 0.019872 0.322039
O O9 0.000000 0.000000 0.000000
O O10 0.500000 0.500000 0.500000
O O11 0.490436 0.426850 0.836819
O O12 0.896189 0.531386 0.718557
O O13 0.725033 0.245547 0.293665
O O14 0.907227 0.215797 0.646108
O O15 0.903770 0.597878 0.345735
#
# Coordination Sequence:
#
# PCOD9062356 Si02
#       7
#     2   2   2   2   2   2   2
#     4  12  23  39  63  96 125 157 212 255 306 365
#     4  11  24  39  64  96 119 160 213 254 303 374
#     4  12  22  43  63  86 128 167 202 257 307 365
#     4   9  16  39  69  83 125 166 197 256 311 358
#     4   9  19  40  65  82 123 165 201 248 311 358
#     4   8  18  38  60  88 123 158 202 249 302 365
#     4   9  19  38  66  89 122 166 204 251 306 372
#
# _framework density 23.121434000000001
#
# number of rings (size 3 to 8) (size 9 to 14) (size 15 to 20)
#    0.857    1.143    5.714    0.429    0.000    2.286 
#    2.571    2.857    0.000    0.000    0.000    0.000 
#    0.000    0.000    0.000    0.000    0.000    0.000 
#
# Total GULP energy -77957.909238 kJ/mol
# GULP energy per Si atom -5568.422088 kJ/mol
# Density = 2.306881 g / cm^3
# Si number density = 23.121434 Si / 1000 Ang^3
#
#
#
# Elastic Constant Matrix: (Units=GPa)
#
#
# Indices 1 2 3 4 5 6 
#
# 1 52.6056 22.4190 45.7367 -3.6624 13.1691 21.0209
# 2 22.4190 116.7798 38.8573 -17.2904 8.9144 23.7488
# 3 45.7367 38.8573 121.6756 -25.6610 16.0900 22.1210
# 4 -3.6624 -17.2904 -25.6610 41.4840 5.1027 -0.8330
# 5 13.1691 8.9144 16.0900 5.1027 31.6988 -1.1092
# 6 21.0209 23.7488 22.1210 -0.8330 -1.1092 44.5203
#
#
#
# Elastic Compliance Matrix: (Units=1/GPa)
#
#
# Indices 1 2 3 4 5 6 
#
# 1 0.034688 -0.000697 -0.010123 -0.002602 -0.009052 -0.011251
# 2 -0.000697 0.010898 -0.001039 0.004118 -0.003085 -0.004968
# 3 -0.010123 -0.001039 0.015178 0.008592 -0.004665 -0.002163
# 4 -0.002602 0.004118 0.008592 0.032010 -0.009762 -0.004881
# 5 -0.009052 -0.003085 -0.004665 -0.009762 0.040431 0.009062
# 6 -0.011251 -0.004968 -0.002163 -0.004881 0.009062 0.031633
#
#
# Mechanical properties :
#
#
# Convention : Reuss Voigt Hill
#
# Bulk Modulus (GPa) = 26.99326 56.12079 41.55702
# Shear Modulus (GPa) = 24.88744 35.81047 30.34896
#
# Velocity S-wave (km/s) = 3.28438 3.93975 3.62690
# Velocity P-wave (km/s) = 5.10713 6.70972 5.96252
#
# Compressibility (1/GPa) = 0.03704629
#
# Stress axis : x y z
#
# Youngs Moduli (GPa) = 28.82839 91.75947 65.88671
#
# Poissons Ratio (x) = 0.06400 0.66695
# Poissons Ratio (y) = 0.02011 0.06843
# Poissons Ratio (z) = 0.29182 0.09530
#
# Static dielectric constant tensor:
#      x y z
#    x 1.930040 -0.051070 0.019530 
#    y -0.051070 1.885930 -0.052140 
#    z 0.019530 -0.052140 1.926860 
# 
# From -- ./inp_files/285322.got.cif
#   From: 2010.05.17/outbox.cif.g08.bks.cpg/sg2_143_cif.got.tgz:285322.got - 2010.06.03 11:33:40.
