data_PCOD9062880
_publ_section_title
;
Structure prediction by ZEFSAII (Michael W. Deem and Ramdas Pophale) SiO2 
 PCOD9062880
Probable space group: P -1
;
_chemical_formula_sum "Si O2"
_cell_formula_units_Z 16
_cell_length_a 9.553554
_cell_length_b 5.885282
_cell_length_c 18.063892
_cell_angle_alpha 110.078719
_cell_angle_beta 133.712335
_cell_angle_gamma 77.101805
_cell_volume 689.363512
_symmetry_space_group_name_H-M "P -1"
_symmetry_group_IT_number 2
_symmetry_cell_setting 'triclinic'
loop_
_space_group_symop_operation_xyz
x,y,z
-x,-y,-z
loop_
_atom_site_type_symbol
_atom_site_label
_atom_site_fract_x
_atom_site_fract_y
_atom_site_fract_z
Si Si1 0.794128 0.080315 0.406527
Si Si2 0.782120 0.926363 0.825524
Si Si3 0.500420 0.293823 0.042269
Si Si4 0.643308 0.456672 0.636000
Si Si5 0.204705 0.474303 0.447005
Si Si6 0.234147 0.698372 0.723950
Si Si7 0.130021 0.270896 0.005328
Si Si8 0.489675 0.716716 0.284196
O O1 0.786135 0.353820 0.459863
O O2 0.747195 0.074860 0.301313
O O3 0.645303 0.925314 0.382823
O O4 0.000000 0.000000 0.500000
O O5 0.697575 0.737255 0.711699
O O6 0.784772 0.798582 0.891430
O O7 0.643699 0.154870 0.809573
O O8 0.994878 0.044370 0.902786
O O9 0.688729 0.315350 0.166215
O O10 0.302609 0.332741 0.019857
O O11 0.500000 0.500000 0.000000
O O12 0.500000 0.000000 0.000000
O O13 0.424809 0.377177 0.519824
O O14 0.787853 0.395185 0.615865
O O15 0.651028 0.330566 0.703781
O O16 0.997997 0.343211 0.363918
O O17 0.377508 0.499580 0.718065
O O18 0.000000 0.500000 0.000000
#
# Coordination Sequence:
#
# PCOD9062880 Si02
#       8
#     2   2   2   2   2   2   2   2
#     4  12  23  42  71 104 141 193 253 297 366 457
#     4  11  24  43  78 104 139 190 256 304 380 456
#     4  12  32  52  80 118 160 200 261 334 404 460
#     4  11  24  43  64 104 150 180 234 298 372 443
#     4  11  24  44  66 103 145 188 234 300 369 450
#     4  12  26  47  75 101 149 195 252 310 381 460
#     4  11  26  49  80 104 143 199 262 318 387 469
#     4  12  22  42  73 100 140 190 241 306 368 454
#
# _framework density 23.209814999999999
#
# number of rings (size 3 to 8) (size 9 to 14) (size 15 to 20)
#    0.000    0.500    3.750    4.125    8.750    1.500 
#    2.250    0.000    0.000    0.000    0.000    0.000 
#    0.000    0.000    0.000    0.000    0.000    0.000 
#
# Total GULP energy -89129.164527 kJ/mol
# GULP energy per Si atom -5570.572783 kJ/mol
# Density = 2.315699 g / cm^3
# Si number density = 23.209815 Si / 1000 Ang^3
#
#
#
# Elastic Constant Matrix: (Units=GPa)
#
#
# Indices 1 2 3 4 5 6 
#
# 1 99.2729 28.1834 16.0796 -5.5925 10.6905 22.6419
# 2 28.1834 80.3713 39.3330 -22.8473 -9.4159 14.8912
# 3 16.0796 39.3330 100.5451 5.2458 0.4416 9.3319
# 4 -5.5925 -22.8473 5.2458 40.2819 12.0283 7.8868
# 5 10.6905 -9.4159 0.4416 12.0283 32.8959 -1.0397
# 6 22.6419 14.8912 9.3319 7.8868 -1.0397 36.1636
#
#
#
# Elastic Compliance Matrix: (Units=1/GPa)
#
#
# Indices 1 2 3 4 5 6 
#
# 1 0.013879 -0.002556 -0.000615 0.004369 -0.007105 -0.008636
# 2 -0.002556 0.024237 -0.009031 0.015889 0.001781 -0.009463
# 3 -0.000615 -0.009031 0.013764 -0.007502 0.000243 0.002195
# 4 0.004369 0.015889 -0.007502 0.042597 -0.012884 -0.017003
# 5 -0.007105 0.001781 0.000243 -0.012884 0.038164 0.007559
# 6 -0.008636 -0.009463 0.002195 -0.017003 0.007559 0.040315
#
#
# Mechanical properties :
#
#
# Convention : Reuss Voigt Hill
#
# Bulk Modulus (GPa) = 36.39602 49.70902 43.05252
# Shear Modulus (GPa) = 24.21075 34.97450 29.59263
#
# Velocity S-wave (km/s) = 3.23325 3.88607 3.57459
# Velocity P-wave (km/s) = 5.44554 6.44974 5.96879
#
# Compressibility (1/GPa) = 0.02747553
#
# Stress axis : x y z
#
# Youngs Moduli (GPa) = 72.04915 41.25855 72.65469
#
# Poissons Ratio (x) = 0.10547 0.04467
# Poissons Ratio (y) = 0.18418 0.65616
# Poissons Ratio (z) = 0.04430 0.37262
#
# Static dielectric constant tensor:
#      x y z
#    x 1.861860 0.005710 -0.024600 
#    y 0.005710 1.973550 0.042210 
#    z -0.024600 0.042210 2.008650 
# 
# From -- ./inp_files/553667.got.cif
#   From: 2010.05.17/outbox.cif.g08.bks.cpg/sg2_277_cif.got.tgz:553667.got - 2010.06.03 11:33:40.
