data_PCOD9062432
_publ_section_title
;
Structure prediction by ZEFSAII (Michael W. Deem and Ramdas Pophale) SiO2 
 PCOD9062432
Probable space group: P -1
;
_chemical_formula_sum "Si O2"
_cell_formula_units_Z 16
_cell_length_a 9.676648
_cell_length_b 9.059490
_cell_length_c 8.654652
_cell_angle_alpha 62.203591
_cell_angle_beta 113.237937
_cell_angle_gamma 99.769325
_cell_volume 616.622047
_symmetry_space_group_name_H-M "P -1"
_symmetry_group_IT_number 2
_symmetry_cell_setting 'triclinic'
loop_
_space_group_symop_operation_xyz
x,y,z
-x,-y,-z
loop_
_atom_site_type_symbol
_atom_site_label
_atom_site_fract_x
_atom_site_fract_y
_atom_site_fract_z
Si Si1 0.508461 0.066980 0.145356
Si Si2 0.776892 0.698318 0.075683
Si Si3 0.701292 0.861427 0.534060
Si Si4 0.911998 0.186554 0.991797
Si Si5 0.513613 0.567285 0.645549
Si Si6 0.700748 0.363715 0.041321
Si Si7 0.085358 0.163797 0.645148
Si Si8 0.763673 0.186386 0.589487
O O1 0.551457 0.910239 0.346163
O O2 0.367207 0.678444 0.560758
O O3 0.650111 0.187765 0.173377
O O4 0.500000 0.000000 0.000000
O O5 0.739971 0.513276 0.097060
O O6 0.637705 0.826055 0.929892
O O7 0.817923 0.712190 0.268250
O O8 0.923138 0.762189 0.016101
O O9 0.661140 0.682423 0.669777
O O10 0.840770 0.854174 0.480882
O O11 0.720707 0.005634 0.595488
O O12 0.835326 0.321998 0.003547
O O13 0.812330 0.176769 0.796330
O O14 0.913484 0.011605 0.172144
O O15 0.500000 0.500000 0.500000
O O16 0.551605 0.419354 0.851866
O O17 0.914954 0.228766 0.541193
#
# Coordination Sequence:
#
# PCOD9062432 Si02
#       8
#     2   2   2   2   2   2   2   2
#     4  12  24  46  75 101 144 184 247 288 340 422
#     4  11  24  40  71 108 135 182 239 287 351 403
#     4  12  26  46  74 106 137 190 235 297 345 416
#     4  11  24  46  74 102 144 189 237 289 341 434
#     4  12  27  45  71 101 151 182 226 295 367 410
#     4  12  25  47  70 105 143 187 231 294 351 428
#     4  11  25  46  74 103 143 188 239 293 335 432
#     4  11  25  46  70 106 140 187 234 284 357 415
#
# _framework density 25.947821999999999
#
# number of rings (size 3 to 8) (size 9 to 14) (size 15 to 20)
#    0.000    0.500    3.750    4.500    7.000    0.000 
#    0.000    1.875    0.000    0.000    0.000    0.000 
#    0.000    0.000    0.000    0.000    0.000    0.000 
#
# Total GULP energy -89903.053427 kJ/mol
# GULP energy per Si atom -5618.940839 kJ/mol
# Density = 2.588876 g / cm^3
# Si number density = 25.947822 Si / 1000 Ang^3
#
#
#
# Elastic Constant Matrix: (Units=GPa)
#
#
# Indices 1 2 3 4 5 6 
#
# 1 160.0113 33.1715 20.1968 -5.0351 -15.2905 -31.1060
# 2 33.1715 146.3831 22.5347 26.2455 -14.3338 -25.0179
# 3 20.1968 22.5347 75.9172 -3.0093 -10.1764 -5.0233
# 4 -5.0351 26.2455 -3.0093 40.5323 -2.7439 -3.7571
# 5 -15.2905 -14.3338 -10.1764 -2.7439 35.2092 5.2193
# 6 -31.1060 -25.0179 -5.0233 -3.7571 5.2193 47.2094
#
#
#
# Elastic Compliance Matrix: (Units=1/GPa)
#
#
# Indices 1 2 3 4 5 6 
#
# 1 0.007713 -0.000994 -0.001099 0.002070 0.002141 0.004366
# 2 -0.000994 0.009178 -0.002241 -0.005809 0.001712 0.003319
# 3 -0.001099 -0.002241 0.014615 0.002564 0.003108 -0.000496
# 4 0.002070 -0.005809 0.002564 0.029044 0.001433 0.000711
# 5 0.002141 0.001712 0.003108 0.001433 0.031139 -0.000680
# 6 0.004366 0.003319 -0.000496 0.000711 -0.000680 0.025897
#
#
# Mechanical properties :
#
#
# Convention : Reuss Voigt Hill
#
# Bulk Modulus (GPa) = 43.78557 59.34640 51.56599
# Shear Modulus (GPa) = 37.35060 45.01740 41.18400
#
# Velocity S-wave (km/s) = 3.79812 4.16976 3.98827
# Velocity P-wave (km/s) = 6.01211 6.78996 6.41284
#
# Compressibility (1/GPa) = 0.02283857
#
# Stress axis : x y z
#
# Youngs Moduli (GPa) = 129.65376 108.95563 68.42162
#
# Poissons Ratio (x) = 0.10828 0.07519
# Poissons Ratio (y) = 0.12885 0.15334
# Poissons Ratio (z) = 0.14248 0.24418
#
# Static dielectric constant tensor:
#      x y z
#    x 2.024490 0.045660 -0.004790 
#    y 0.045660 1.953270 0.031110 
#    z -0.004790 0.031110 2.020600 
# 
# From -- ./inp_files/294578.got.cif
#   From: 2010.05.17/outbox.cif.g08.bks.cpg/sg2_148_cif.got.tgz:294578.got - 2010.06.03 11:33:40.
