data_PCOD9062464
_publ_section_title
;
Structure prediction by ZEFSAII (Michael W. Deem and Ramdas Pophale) SiO2 
 PCOD9062464
Probable space group: P -1
;
_chemical_formula_sum "Si O2"
_cell_formula_units_Z 14
_cell_length_a 5.422173
_cell_length_b 23.491199
_cell_length_c 8.148047
_cell_angle_alpha 36.926623
_cell_angle_beta 104.571306
_cell_angle_gamma 115.379752
_cell_volume 555.366999
_symmetry_space_group_name_H-M "P -1"
_symmetry_group_IT_number 2
_symmetry_cell_setting 'triclinic'
loop_
_space_group_symop_operation_xyz
x,y,z
-x,-y,-z
loop_
_atom_site_type_symbol
_atom_site_label
_atom_site_fract_x
_atom_site_fract_y
_atom_site_fract_z
Si Si1 0.904932 0.734103 0.960614
Si Si2 0.906997 0.154631 0.770643
Si Si3 0.648669 0.645848 0.436584
Si Si4 0.600281 0.785519 0.517080
Si Si5 0.310478 0.553261 0.001059
Si Si6 0.191154 0.609404 0.210750
Si Si7 0.777465 0.051314 0.320597
O O1 0.695346 0.773607 0.743559
O O2 0.110348 0.833549 0.855575
O O3 0.784698 0.645850 0.280270
O O4 0.034523 0.683075 0.967047
O O5 0.644972 0.174945 0.615172
O O6 0.118305 0.258906 0.655149
O O7 0.120648 0.143778 0.696876
O O8 0.776658 0.065940 0.089813
O O9 0.571125 0.536731 0.764230
O O10 0.386548 0.663162 0.276696
O O11 0.473718 0.667976 0.690980
O O12 0.301179 0.581846 0.124376
O O13 0.000000 0.500000 0.000000
O O14 0.000000 0.500000 0.500000
O O15 0.500000 0.000000 0.500000
O O16 0.000000 0.000000 0.500000
#
# Coordination Sequence:
#
# PCOD9062464 Si02
#       7
#     2   2   2   2   2   2   2
#     4  11  26  45  74  99 149 190 244 303 362 430
#     4  11  27  45  74 104 146 183 238 304 370 428
#     4  11  24  41  63  98 144 200 248 299 340 424
#     4  12  25  46  67 109 149 196 237 298 365 427
#     4  12  24  41  62 105 151 203 255 291 350 421
#     4  12  24  41  67 101 143 201 252 294 349 425
#     4  11  27  52  82 112 137 184 245 303 377 449
#
# _framework density 25.208555
#
# number of rings (size 3 to 8) (size 9 to 14) (size 15 to 20)
#    0.000    0.571    4.286    3.000   10.000    0.571 
#    0.000    4.286    0.000    0.000    0.000    0.000 
#    0.000    0.000    0.000    0.000    0.000    0.000 
#
# Total GULP energy -78209.836559 kJ/mol
# GULP energy per Si atom -5586.416897 kJ/mol
# Density = 2.515118 g / cm^3
# Si number density = 25.208555 Si / 1000 Ang^3
#
#
#
# Elastic Constant Matrix: (Units=GPa)
#
#
# Indices 1 2 3 4 5 6 
#
# 1 127.4506 0.3643 58.3696 5.7027 -13.7352 17.1890
# 2 0.3643 43.4853 1.1029 8.4103 -2.3015 13.1727
# 3 58.3696 1.1029 142.8233 14.9080 -22.0751 8.8477
# 4 5.7027 8.4103 14.9080 35.0329 -1.2747 9.5904
# 5 -13.7352 -2.3015 -22.0751 -1.2747 55.1851 5.3605
# 6 17.1890 13.1727 8.8477 9.5904 5.3605 33.7516
#
#
#
# Elastic Compliance Matrix: (Units=1/GPa)
#
#
# Indices 1 2 3 4 5 6 
#
# 1 0.010461 0.001559 -0.003796 0.001114 0.001713 -0.005529
# 2 0.001559 0.027179 0.000669 -0.003984 0.002754 -0.010882
# 3 -0.003796 0.000669 0.009341 -0.003344 0.002768 -0.000266
# 4 0.001114 -0.003984 -0.003344 0.032805 0.000260 -0.007499
# 5 0.001713 0.002754 0.002768 0.000260 0.020356 -0.005980
# 6 -0.005529 -0.010882 -0.000266 -0.007499 -0.005980 0.039841
#
#
# Mechanical properties :
#
#
# Convention : Reuss Voigt Hill
#
# Bulk Modulus (GPa) = 22.80837 48.15922 35.48379
# Shear Modulus (GPa) = 31.69858 41.72207 36.71033
#
# Velocity S-wave (km/s) = 3.54991 4.07268 3.82024
# Velocity P-wave (km/s) = 5.08625 6.42350 5.79359
#
# Compressibility (1/GPa) = 0.04384355
#
# Stress axis : x y z
#
# Youngs Moduli (GPa) = 95.59522 36.79319 107.05065
#
# Poissons Ratio (x) = -0.05735 0.40639
# Poissons Ratio (y) = -0.14901 -0.07159
# Poissons Ratio (z) = 0.36290 -0.02460
#
# Static dielectric constant tensor:
#      x y z
#    x 2.159070 0.024520 -0.085560 
#    y 0.024520 1.963470 -0.000330 
#    z -0.085560 -0.000330 1.987100 
# 
# From -- ./inp_files/35921.got.cif
#   From: 2010.05.17/outbox.cif.g08.bks.cpg/sg2_18_cif.got.tgz:35921.got - 2010.06.03 11:33:40.
