data_PCOD9062195
_publ_section_title
;
Structure prediction by ZEFSAII (Michael W. Deem and Ramdas Pophale) SiO2 
 PCOD9062195
Probable space group: P -1
;
_chemical_formula_sum "Si O2"
_cell_formula_units_Z 16
_cell_length_a 9.161217
_cell_length_b 11.953535
_cell_length_c 17.530332
_cell_angle_alpha 32.650759
_cell_angle_beta 48.011313
_cell_angle_gamma 62.084493
_cell_volume 747.870560
_symmetry_space_group_name_H-M "P -1"
_symmetry_group_IT_number 2
_symmetry_cell_setting 'triclinic'
loop_
_space_group_symop_operation_xyz
x,y,z
-x,-y,-z
loop_
_atom_site_type_symbol
_atom_site_label
_atom_site_fract_x
_atom_site_fract_y
_atom_site_fract_z
Si Si1 0.225687 0.977959 0.452416
Si Si2 0.769392 0.865207 0.472906
Si Si3 0.592659 0.292430 0.085076
Si Si4 0.990571 0.485590 0.421073
Si Si5 0.517786 0.336697 0.656527
Si Si6 0.816206 0.109465 0.980927
Si Si7 0.590508 0.361393 0.357776
Si Si8 0.188345 0.685009 0.843634
O O1 0.251035 0.738163 0.593119
O O2 0.303348 0.087811 0.443900
O O3 0.393969 0.096247 0.266896
O O4 0.000000 0.000000 0.500000
O O5 0.878542 0.678270 0.555006
O O6 0.624679 0.803152 0.485328
O O7 0.884695 0.101948 0.273842
O O8 0.739599 0.255254 0.987473
O O9 0.721208 0.301397 0.112208
O O10 0.500000 0.500000 0.000000
O O11 0.000000 0.500000 0.500000
O O12 0.758588 0.368587 0.552533
O O13 0.088024 0.718385 0.217307
O O14 0.500000 0.500000 0.500000
O O15 0.449059 0.437667 0.700083
O O16 0.376299 0.096597 0.841982
O O17 0.000000 0.000000 0.000000
O O18 0.656415 0.367614 0.243138
O O19 0.000000 0.500000 0.000000
#
# Coordination Sequence:
#
# PCOD9062195 Si02
#       8
#     2   2   2   2   2   2   2   2
#     4  11  24  41  74 105 140 193 247 310 382 457
#     4  11  23  48  71 103 150 194 254 314 389 454
#     4  12  27  46  73 110 154 187 254 327 387 454
#     4  12  28  49  77 110 150 206 259 321 389 464
#     4  12  27  47  79 109 156 210 256 318 393 473
#     4  12  30  50  78 117 158 206 265 324 395 475
#     4  11  23  48  70 101 142 197 254 304 382 460
#     4  11  26  43  74 105 143 198 246 318 385 462
#
# _framework density 21.394075999999998
#
# number of rings (size 3 to 8) (size 9 to 14) (size 15 to 20)
#    0.000    0.500    5.000    2.250   10.500    0.500 
#    0.000    0.000    0.000    0.000    0.000    0.000 
#    0.000    0.000    0.000    0.000    0.000    0.000 
#
# Total GULP energy -89198.176483 kJ/mol
# GULP energy per Si atom -5574.886030 kJ/mol
# Density = 2.134538 g / cm^3
# Si number density = 21.394076 Si / 1000 Ang^3
#
#
#
# Elastic Constant Matrix: (Units=GPa)
#
#
# Indices 1 2 3 4 5 6 
#
# 1 96.3324 18.8603 55.5127 -0.8472 -4.0427 -12.5541
# 2 18.8603 112.0379 43.5176 -11.2803 13.0030 0.4737
# 3 55.5127 43.5176 157.1369 -7.2360 -3.1428 6.2727
# 4 -0.8472 -11.2803 -7.2360 32.8868 1.2536 3.1077
# 5 -4.0427 13.0030 -3.1428 1.2536 37.0162 -2.5278
# 6 -12.5541 0.4737 6.2727 3.1077 -2.5278 34.9969
#
#
#
# Elastic Compliance Matrix: (Units=1/GPa)
#
#
# Indices 1 2 3 4 5 6 
#
# 1 0.014418 -0.000851 -0.005154 -0.001733 0.001932 0.006401
# 2 -0.000851 0.010934 -0.002635 0.003369 -0.004312 -0.000591
# 3 -0.005154 -0.002635 0.009130 0.001270 0.000856 -0.003501
# 4 -0.001733 0.003369 0.001270 0.032271 -0.002628 -0.003950
# 5 0.001932 -0.004312 0.000856 -0.002628 0.029103 0.002933
# 6 0.006401 -0.000591 -0.003501 -0.003950 0.002933 0.032068
#
#
# Mechanical properties :
#
#
# Convention : Reuss Voigt Hill
#
# Bulk Modulus (GPa) = 58.13478 66.80981 62.47230
# Shear Modulus (GPa) = 33.12603 37.48775 35.30689
#
# Velocity S-wave (km/s) = 3.93921 4.19053 4.06681
# Velocity P-wave (km/s) = 6.92258 7.39662 7.16352
#
# Compressibility (1/GPa) = 0.01720141
#
# Stress axis : x y z
#
# Youngs Moduli (GPa) = 69.35995 91.45377 109.52936
#
# Poissons Ratio (x) = 0.07780 0.56456
# Poissons Ratio (y) = 0.05900 0.28863
# Poissons Ratio (z) = 0.35751 0.24100
#
# Static dielectric constant tensor:
#      x y z
#    x 1.820840 0.089380 -0.003980 
#    y 0.089380 1.603380 -0.027690 
#    z -0.003980 -0.027690 1.803110 
# 
# From -- ./inp_files/559510.got.cif
#   From: 2010.05.17/outbox.cif.g08.bks.cpg/sg2_280_cif.got.tgz:559510.got - 2010.06.03 11:33:40.
