data_PCOD9062063
_publ_section_title
;
Structure prediction by ZEFSAII (Michael W. Deem and Ramdas Pophale) SiO2 
 PCOD9062063
Probable space group: P -1
;
_chemical_formula_sum "Si O2"
_cell_formula_units_Z 14
_cell_length_a 7.936316
_cell_length_b 6.083234
_cell_length_c 17.069481
_cell_angle_alpha 65.291246
_cell_angle_beta 126.937037
_cell_angle_gamma 116.209543
_cell_volume 577.432421
_symmetry_space_group_name_H-M "P -1"
_symmetry_group_IT_number 2
_symmetry_cell_setting 'triclinic'
loop_
_space_group_symop_operation_xyz
x,y,z
-x,-y,-z
loop_
_atom_site_type_symbol
_atom_site_label
_atom_site_fract_x
_atom_site_fract_y
_atom_site_fract_z
Si Si1 0.331519 0.991938 0.120328
Si Si2 0.047872 0.213895 0.550298
Si Si3 0.500059 0.562885 0.289801
Si Si4 0.972997 0.064226 0.819476
Si Si5 0.189512 0.700450 0.976415
Si Si6 0.299367 0.034823 0.385377
Si Si7 0.606087 0.500045 0.148918
O O1 0.343587 0.729616 0.197771
O O2 0.283796 0.935466 0.025503
O O3 0.146326 0.043268 0.116723
O O4 0.551886 0.208158 0.157861
O O5 0.303947 0.282007 0.626322
O O6 0.000000 0.500000 0.500000
O O7 0.000000 0.000000 0.500000
O O8 0.910525 0.062059 0.605333
O O9 0.376688 0.320012 0.337729
O O10 0.593775 0.509938 0.238953
O O11 0.164299 0.319828 0.839719
O O12 0.786247 0.097219 0.701980
O O13 0.083367 0.838466 0.859269
O O14 0.396372 0.583601 0.041463
O O15 0.000000 0.500000 0.000000
O O16 0.500000 0.000000 0.500000
#
# Coordination Sequence:
#
# PCOD9062063 Si02
#       7
#     2   2   2   2   2   2   2
#     4  11  25  44  73 105 146 194 240 307 376 454
#     4  12  29  50  79 110 151 199 262 322 382 451
#     4  11  25  47  71 106 146 194 243 310 379 451
#     4  12  24  44  74 105 145 191 248 304 377 447
#     4  11  23  47  71 103 148 190 239 308 374 454
#     4  12  26  48  78 107 149 198 251 310 385 449
#     4  11  24  45  72 104 150 186 245 303 375 458
#
# _framework density 24.245262
#
# number of rings (size 3 to 8) (size 9 to 14) (size 15 to 20)
#    0.000    0.571    5.714    1.714    4.000    3.429 
#    5.143    0.000    0.000    0.000    0.000    0.000 
#    0.000    0.000    0.000    0.000    0.000    0.000 
#
# Total GULP energy -78153.602546 kJ/mol
# GULP energy per Si atom -5582.400182 kJ/mol
# Density = 2.419008 g / cm^3
# Si number density = 24.245262 Si / 1000 Ang^3
#
#
#
# Elastic Constant Matrix: (Units=GPa)
#
#
# Indices 1 2 3 4 5 6 
#
# 1 68.9440 37.7235 0.5414 -6.3141 -10.8667 20.5900
# 2 37.7235 152.7422 39.8538 4.2537 -8.1013 37.3817
# 3 0.5414 39.8538 105.6256 -7.8679 8.7262 0.4785
# 4 -6.3141 4.2537 -7.8679 45.9725 9.9149 -8.5069
# 5 -10.8667 -8.1013 8.7262 9.9149 36.1666 7.1902
# 6 20.5900 37.3817 0.4785 -8.5069 7.1902 53.0814
#
#
#
# Elastic Compliance Matrix: (Units=1/GPa)
#
#
# Indices 1 2 3 4 5 6 
#
# 1 0.018929 -0.003147 0.000690 0.000688 0.005782 -0.005806
# 2 -0.003147 0.011042 -0.004960 -0.005032 0.005713 -0.008091
# 3 0.000690 -0.004960 0.012178 0.004827 -0.006103 0.004716
# 4 0.000688 -0.005032 0.004827 0.027286 -0.011384 0.009148
# 5 0.005782 0.005713 -0.006103 -0.011384 0.037878 -0.013166
# 6 -0.005806 -0.008091 0.004716 0.009148 -0.013166 0.029996
#
#
# Mechanical properties :
#
#
# Convention : Reuss Voigt Hill
#
# Bulk Modulus (GPa) = 36.61000 53.72768 45.16884
# Shear Modulus (GPa) = 31.00847 43.65695 37.33271
#
# Velocity S-wave (km/s) = 3.58012 4.24800 3.92828
# Velocity P-wave (km/s) = 5.67647 6.80212 6.26463
#
# Compressibility (1/GPa) = 0.02731494
#
# Stress axis : x y z
#
# Youngs Moduli (GPa) = 52.82906 90.56669 82.11724
#
# Poissons Ratio (x) = 0.28499 -0.05667
# Poissons Ratio (y) = 0.16624 0.40731
# Poissons Ratio (z) = -0.03646 0.44922
#
# Static dielectric constant tensor:
#      x y z
#    x 1.969990 -0.118030 -0.005910 
#    y -0.118030 2.073450 0.093000 
#    z -0.005910 0.093000 2.065230 
# 
# From -- ./inp_files/49126.got.cif
#   From: 2010.05.17/outbox.cif.g08.bks.cpg/sg2_25_cif.got.tgz:49126.got - 2010.06.03 11:33:40.
