data_PCOD9062340
_publ_section_title
;
Structure prediction by ZEFSAII (Michael W. Deem and Ramdas Pophale) SiO2 
 PCOD9062340
Probable space group: P -1
;
_chemical_formula_sum "Si O2"
_cell_formula_units_Z 14
_cell_length_a 21.078384
_cell_length_b 9.829159
_cell_length_c 27.137284
_cell_angle_alpha 154.949869
_cell_angle_beta 161.318149
_cell_angle_gamma 35.626594
_cell_volume 718.587330
_symmetry_space_group_name_H-M "P -1"
_symmetry_group_IT_number 2
_symmetry_cell_setting 'triclinic'
loop_
_space_group_symop_operation_xyz
x,y,z
-x,-y,-z
loop_
_atom_site_type_symbol
_atom_site_label
_atom_site_fract_x
_atom_site_fract_y
_atom_site_fract_z
Si Si1 0.984063 0.840264 0.160911
Si Si2 0.644444 0.278399 0.660568
Si Si3 0.652289 0.675643 0.624731
Si Si4 0.084797 0.532987 0.908341
Si Si5 0.140861 0.360673 0.786374
Si Si6 0.272594 0.735533 0.915664
Si Si7 0.276749 0.004596 0.687514
O O1 0.944164 0.692066 0.137865
O O2 0.213609 0.868715 0.319250
O O3 0.924067 0.179282 0.221678
O O4 0.813640 0.573656 0.912666
O O5 0.490422 0.405757 0.555478
O O6 0.500000 0.000000 0.500000
O O7 0.500000 0.500000 0.500000
O O8 0.856388 0.560035 0.736957
O O9 0.751917 0.087365 0.837910
O O10 0.158356 0.387334 0.865805
O O11 0.266276 0.699487 0.958761
O O12 0.211014 0.066919 0.715129
O O13 0.902408 0.284153 0.566897
O O14 0.276434 0.362875 0.779900
O O15 0.491258 0.004933 0.147736
#
# Coordination Sequence:
#
# PCOD9062340 Si02
#       7
#     2   2   2   2   2   2   2
#     4  11  24  38  57  92 119 150 198 244 291 346
#     4  11  24  41  58  82 123 159 193 238 290 353
#     4  11  24  41  58  82 123 159 193 238 290 353
#     4  11  24  38  57  92 119 150 198 244 291 346
#     4   9  19  36  61  81 115 147 199 238 282 350
#     4   9  19  36  61  81 115 147 199 238 282 350
#     4   8  18  38  58  88 108 152 200 234 286 348
#
# _framework density 19.482671
#
# number of rings (size 3 to 8) (size 9 to 14) (size 15 to 20)
#    0.857    1.143    2.857    0.000    6.000    0.000 
#    0.000    1.429    0.000    0.000    0.000    0.000 
#    0.000    0.000    0.000    0.000    0.000    0.000 
#
# Total GULP energy -78018.947290 kJ/mol
# GULP energy per Si atom -5572.781949 kJ/mol
# Density = 1.943833 g / cm^3
# Si number density = 19.482671 Si / 1000 Ang^3
#
#
#
# Elastic Constant Matrix: (Units=GPa)
#
#
# Indices 1 2 3 4 5 6 
#
# 1 119.4967 27.8165 27.5252 -5.0796 4.2938 25.0891
# 2 27.8165 69.5539 6.0787 -10.4404 0.2127 12.9955
# 3 27.5252 6.0787 67.4832 -13.1514 14.6029 2.0340
# 4 -5.0796 -10.4404 -13.1514 23.3571 4.7323 1.5893
# 5 4.2938 0.2127 14.6029 4.7323 32.2120 -1.1461
# 6 25.0891 12.9955 2.0340 1.5893 -1.1461 30.7642
#
#
#
# Elastic Compliance Matrix: (Units=1/GPa)
#
#
# Indices 1 2 3 4 5 6 
#
# 1 0.011713 -0.002928 -0.004509 -0.000827 0.000340 -0.007962
# 2 -0.002928 0.017879 0.002077 0.009381 -0.002257 -0.005871
# 3 -0.004509 0.002077 0.021756 0.014494 -0.011398 0.000188
# 4 -0.000827 0.009381 0.014494 0.058646 -0.015418 -0.007851
# 5 0.000340 -0.002257 -0.011398 -0.015418 0.038577 0.003663
# 6 -0.007962 -0.005871 0.000188 -0.007851 0.003663 0.042008
#
#
# Mechanical properties :
#
#
# Convention : Reuss Voigt Hill
#
# Bulk Modulus (GPa) = 24.61291 42.15273 33.38282
# Shear Modulus (GPa) = 23.27323 30.27422 26.77373
#
# Velocity S-wave (km/s) = 3.45999 3.94624 3.71109
# Velocity P-wave (km/s) = 5.35002 6.51511 5.96110
#
# Compressibility (1/GPa) = 0.04062908
#
# Stress axis : x y z
#
# Youngs Moduli (GPa) = 85.37717 55.93260 45.96444
#
# Poissons Ratio (x) = 0.16376 0.20723
# Poissons Ratio (y) = 0.24997 -0.09548
# Poissons Ratio (z) = 0.38493 -0.11619
#
# Static dielectric constant tensor:
#      x y z
#    x 1.695720 -0.033890 0.018320 
#    y -0.033890 1.693250 0.019690 
#    z 0.018320 0.019690 1.709630 
# 
# From -- ./inp_files/620641.got.cif
#   From: 2010.05.17/outbox.cif.g08.bks.cpg/sg2_311_cif.got.tgz:620641.got - 2010.06.03 11:33:40.
