data_PCOD9062461
_publ_section_title
;
Structure prediction by ZEFSAII (Michael W. Deem and Ramdas Pophale) SiO2 
 PCOD9062461
Probable space group: P -1
;
_chemical_formula_sum "Si O2"
_cell_formula_units_Z 14
_cell_length_a 11.351701
_cell_length_b 9.040289
_cell_length_c 6.971661
_cell_angle_alpha 73.731383
_cell_angle_beta 81.954161
_cell_angle_gamma 62.337415
_cell_volume 608.258010
_symmetry_space_group_name_H-M "P -1"
_symmetry_group_IT_number 2
_symmetry_cell_setting 'triclinic'
loop_
_space_group_symop_operation_xyz
x,y,z
-x,-y,-z
loop_
_atom_site_type_symbol
_atom_site_label
_atom_site_fract_x
_atom_site_fract_y
_atom_site_fract_z
Si Si1 0.371427 0.680825 0.482567
Si Si2 0.637364 0.771598 0.067836
Si Si3 0.902226 0.449388 0.162812
Si Si4 0.184039 0.541429 0.425952
Si Si5 0.556312 0.798175 0.522431
Si Si6 0.886425 0.188273 0.001622
Si Si7 0.348925 0.883375 0.024902
O O1 0.500000 0.500000 0.500000
O O2 0.254273 0.626580 0.521645
O O3 0.427866 0.763878 0.597784
O O4 0.344918 0.796730 0.258742
O O5 0.755196 0.585790 0.079010
O O6 0.587962 0.782460 0.292972
O O7 0.505679 0.811631 0.958732
O O8 0.689588 0.916809 0.994979
O O9 0.910889 0.475871 0.381000
O O10 0.923666 0.263141 0.154340
O O11 0.000000 0.500000 0.000000
O O12 0.301109 0.357935 0.387245
O O13 0.127343 0.675810 0.215422
O O14 0.500000 0.000000 0.500000
O O15 0.752234 0.162776 0.056481
O O16 0.000000 0.000000 0.000000
#
# Coordination Sequence:
#
# PCOD9062461 Si02
#       7
#     2   2   2   2   2   2   2
#     4   8  15  31  52  78 117 155 188 239 305 362
#     4   9  19  36  58  89 125 158 197 254 314 366
#     4  11  24  42  63  88 123 164 208 259 314 369
#     4   9  21  40  60  87 123 161 204 257 309 362
#     4   9  17  31  56  90 124 158 196 245 313 379
#     4  11  24  41  63  90 121 166 218 254 301 374
#     4   9  18  35  59  86 119 153 198 254 304 366
#
# _framework density 23.016551
#
# number of rings (size 3 to 8) (size 9 to 14) (size 15 to 20)
#    0.000    2.571    0.000    1.714    0.000    6.286 
#    0.000    0.000    0.000    0.000    0.000    0.000 
#    0.000    0.000    0.000    0.000    0.000    0.000 
#
# Total GULP energy -77970.173643 kJ/mol
# GULP energy per Si atom -5569.298117 kJ/mol
# Density = 2.296416 g / cm^3
# Si number density = 23.016551 Si / 1000 Ang^3
#
#
#
# Elastic Constant Matrix: (Units=GPa)
#
#
# Indices 1 2 3 4 5 6 
#
# 1 65.1857 24.4950 23.5371 10.9018 -0.2233 13.3053
# 2 24.4950 153.1282 32.6391 2.0069 -4.0376 -2.0307
# 3 23.5371 32.6391 97.4670 -2.8642 -10.4298 -11.6558
# 4 10.9018 2.0069 -2.8642 39.6533 0.1888 -2.6707
# 5 -0.2233 -4.0376 -10.4298 0.1888 31.7575 -1.6085
# 6 13.3053 -2.0307 -11.6558 -2.6707 -1.6085 39.0308
#
#
#
# Elastic Compliance Matrix: (Units=1/GPa)
#
#
# Indices 1 2 3 4 5 6 
#
# 1 0.021556 -0.002254 -0.006112 -0.006906 -0.002601 -0.009871
# 2 -0.002254 0.007285 -0.001775 0.000164 0.000359 0.000643
# 3 -0.006112 -0.001775 0.013684 0.003174 0.004535 0.006482
# 4 -0.006906 0.000164 0.003174 0.027687 0.001116 0.005251
# 5 -0.002601 0.000359 0.004535 0.001116 0.033186 0.003704
# 6 -0.009871 0.000643 0.006482 0.005251 0.003704 0.031467
#
#
# Mechanical properties :
#
#
# Convention : Reuss Voigt Hill
#
# Bulk Modulus (GPa) = 44.96037 53.01369 48.98703
# Shear Modulus (GPa) = 30.75758 37.76229 34.25993
#
# Velocity S-wave (km/s) = 3.65954 4.05490 3.86228
# Velocity P-wave (km/s) = 6.11823 6.70864 6.42022
#
# Compressibility (1/GPa) = 0.02224181
#
# Stress axis : x y z
#
# Youngs Moduli (GPa) = 46.39148 137.26319 73.07805
#
# Poissons Ratio (x) = 0.30943 0.44667
# Poissons Ratio (y) = 0.10458 0.12972
# Poissons Ratio (z) = 0.28356 0.24365
#
# Static dielectric constant tensor:
#      x y z
#    x 2.091900 0.117020 -0.098990 
#    y 0.117020 1.892450 -0.070870 
#    z -0.098990 -0.070870 1.980110 
# 
# From -- ./inp_files/234116.got.cif
#   From: 2010.05.17/outbox.cif.g08.bks.cpg/sg2_118_cif.got.tgz:234116.got - 2010.06.03 11:33:40.
