data_PCOD9062379
_publ_section_title
;
Structure prediction by ZEFSAII (Michael W. Deem and Ramdas Pophale) SiO2 
 PCOD9062379
Probable space group: P -1
;
_chemical_formula_sum "Si O2"
_cell_formula_units_Z 16
_cell_length_a 16.010740
_cell_length_b 8.319088
_cell_length_c 13.047744
_cell_angle_alpha 76.510627
_cell_angle_beta 27.015462
_cell_angle_gamma 75.974092
_cell_volume 765.275007
_symmetry_space_group_name_H-M "P -1"
_symmetry_group_IT_number 2
_symmetry_cell_setting 'triclinic'
loop_
_space_group_symop_operation_xyz
x,y,z
-x,-y,-z
loop_
_atom_site_type_symbol
_atom_site_label
_atom_site_fract_x
_atom_site_fract_y
_atom_site_fract_z
Si Si1 0.847427 0.376560 0.969604
Si Si2 0.471981 0.338831 0.675797
Si Si3 0.226338 0.131681 0.321826
Si Si4 0.473873 0.810385 0.582247
Si Si5 0.432718 0.023794 0.905159
Si Si6 0.153207 0.769582 0.228580
Si Si7 0.708144 0.506993 0.734060
Si Si8 0.259770 0.429994 0.551236
O O1 0.702007 0.534470 0.122768
O O2 0.735897 0.224517 0.155139
O O3 0.878659 0.341494 0.819747
O O4 0.043838 0.401793 0.802720
O O5 0.477610 0.298159 0.556146
O O6 0.452351 0.168131 0.782001
O O7 0.655651 0.423425 0.498526
O O8 0.225292 0.327796 0.313213
O O9 0.018611 0.098471 0.580963
O O10 0.369276 0.038082 0.256958
O O11 0.305896 0.090056 0.129408
O O12 0.613305 0.733743 0.528652
O O13 0.500000 0.000000 0.500000
O O14 0.333160 0.866865 0.996827
O O15 0.185056 0.655857 0.311132
O O16 0.713546 0.523893 0.603756
O O17 0.500000 0.500000 0.000000
#
# Coordination Sequence:
#
# PCOD9062379 Si02
#       8
#     2   2   2   2   2   2   2   2
#     4  11  24  44  71 101 130 173 224 273 328 394
#     4  11  26  44  70  96 131 175 220 276 333 387
#     4  11  24  40  61  96 135 176 222 263 330 389
#     4  11  26  48  72  96 132 169 216 278 341 393
#     4  11  25  42  63  97 139 176 220 272 327 393
#     4  12  24  40  67  97 136 177 221 270 325 394
#     4  12  22  40  67  93 136 179 220 270 321 392
#     4  11  25  43  69  99 129 171 225 271 324 396
#
# _framework density 20.907516999999999
#
# number of rings (size 3 to 8) (size 9 to 14) (size 15 to 20)
#    0.000    0.750    2.500    6.000    5.250    3.500 
#    0.000    0.000    0.000    0.000    0.000    0.000 
#    0.000    0.000    0.000    0.000    0.000    0.000 
#
# Total GULP energy -89501.364613 kJ/mol
# GULP energy per Si atom -5593.835288 kJ/mol
# Density = 2.085993 g / cm^3
# Si number density = 20.907517 Si / 1000 Ang^3
#
#
#
# Elastic Constant Matrix: (Units=GPa)
#
#
# Indices 1 2 3 4 5 6 
#
# 1 117.6004 49.8015 68.1530 1.8761 -17.1922 -2.2369
# 2 49.8015 98.5277 37.0520 -18.5042 0.6257 -7.2781
# 3 68.1530 37.0520 127.0601 5.4787 -10.5647 -21.3359
# 4 1.8761 -18.5042 5.4787 37.3609 3.5491 7.1138
# 5 -17.1922 0.6257 -10.5647 3.5491 19.6755 2.8220
# 6 -2.2369 -7.2781 -21.3359 7.1138 2.8220 25.4909
#
#
#
# Elastic Compliance Matrix: (Units=1/GPa)
#
#
# Indices 1 2 3 4 5 6 
#
# 1 0.017826 -0.007536 -0.007302 -0.003468 0.013558 -0.007232
# 2 -0.007536 0.016620 -0.001902 0.009668 -0.010008 0.000902
# 3 -0.007302 -0.001902 0.014726 -0.005186 0.000729 0.012508
# 4 -0.003468 0.009668 -0.005186 0.035551 -0.011016 -0.010586
# 5 0.013558 -0.010008 0.000729 -0.011016 0.066129 -0.005304
# 6 -0.007232 0.000902 0.012508 -0.010586 -0.005304 0.052864
#
#
# Mechanical properties :
#
#
# Convention : Reuss Voigt Hill
#
# Bulk Modulus (GPa) = 63.72342 72.57791 68.15067
# Shear Modulus (GPa) = 20.62492 29.05088 24.83790
#
# Velocity S-wave (km/s) = 3.14424 3.73164 3.45046
# Velocity P-wave (km/s) = 6.61261 7.30452 6.96716
#
# Compressibility (1/GPa) = 0.01569282
#
# Stress axis : x y z
#
# Youngs Moduli (GPa) = 56.09751 60.16984 67.90778
#
# Poissons Ratio (x) = 0.45345 0.49583
# Poissons Ratio (y) = 0.42276 0.12914
# Poissons Ratio (z) = 0.40960 0.11442
#
# Static dielectric constant tensor:
#      x y z
#    x 1.757700 0.023840 -0.030900 
#    y 0.023840 1.753370 -0.026710 
#    z -0.030900 -0.026710 1.825590 
# 
# From -- ./inp_files/447033.got.cif
#   From: 2010.05.17/outbox.cif.g08.bks.cpg/sg2_224_cif.got.tgz:447033.got - 2010.06.03 11:33:40.
