data_PCOD9062693
_publ_section_title
;
Structure prediction by ZEFSAII (Michael W. Deem and Ramdas Pophale) SiO2 
 PCOD9062693
Probable space group: P -1
;
_chemical_formula_sum "Si O2"
_cell_formula_units_Z 16
_cell_length_a 12.486128
_cell_length_b 6.765817
_cell_length_c 15.082852
_cell_angle_alpha 80.811059
_cell_angle_beta 138.525565
_cell_angle_gamma 113.951462
_cell_volume 748.912741
_symmetry_space_group_name_H-M "P -1"
_symmetry_group_IT_number 2
_symmetry_cell_setting 'triclinic'
loop_
_space_group_symop_operation_xyz
x,y,z
-x,-y,-z
loop_
_atom_site_type_symbol
_atom_site_label
_atom_site_fract_x
_atom_site_fract_y
_atom_site_fract_z
Si Si1 0.627187 0.969697 0.154914
Si Si2 0.537162 0.357907 0.608434
Si Si3 0.876539 0.807025 0.005257
Si Si4 0.910951 0.456233 0.780958
Si Si5 0.746367 0.098619 0.549077
Si Si6 0.521036 0.553930 0.239606
Si Si7 0.786482 0.349453 0.373751
Si Si8 0.938226 0.040269 0.215972
O O1 0.520143 0.753888 0.165253
O O2 0.719922 0.187200 0.259277
O O3 0.784114 0.941602 0.200636
O O4 0.500000 0.000000 0.000000
O O5 0.500000 0.500000 0.500000
O O6 0.750517 0.447699 0.744479
O O7 0.447409 0.371171 0.644168
O O8 0.446546 0.103306 0.539919
O O9 0.965015 0.636842 0.086390
O O10 0.879736 0.918228 0.094268
O O11 0.668926 0.664994 0.861965
O O12 0.000000 0.000000 0.000000
O O13 0.815199 0.289564 0.652016
O O14 0.015431 0.702708 0.789755
O O15 0.740486 0.199858 0.443694
O O16 0.887796 0.991692 0.645158
O O17 0.675969 0.494940 0.302240
O O18 0.000000 0.500000 0.500000
#
# Coordination Sequence:
#
# PCOD9062693 Si02
#       8
#     2   2   2   2   2   2   2   2
#     4  12  27  47  73 100 143 192 242 297 355 420
#     4  12  24  43  72 102 143 183 229 293 359 421
#     4  11  27  45  70 104 143 187 236 291 356 431
#     4  11  24  43  70  99 138 185 231 288 355 426
#     4  11  24  42  68 105 135 180 233 288 356 423
#     4  12  28  47  70 107 144 183 243 295 353 428
#     4  12  27  45  73 105 144 188 240 299 358 420
#     4  11  24  45  71  98 137 183 236 286 354 420
#
# _framework density 21.364304000000001
#
# number of rings (size 3 to 8) (size 9 to 14) (size 15 to 20)
#    0.000    0.500    2.500    4.875    5.250    8.000 
#    0.000    0.000    0.000    0.000    0.000    0.000 
#    0.000    0.000    0.000    0.000    0.000    0.000 
#
# Total GULP energy -89589.030789 kJ/mol
# GULP energy per Si atom -5599.314424 kJ/mol
# Density = 2.131568 g / cm^3
# Si number density = 21.364304 Si / 1000 Ang^3
#
#
#
# Elastic Constant Matrix: (Units=GPa)
#
#
# Indices 1 2 3 4 5 6 
#
# 1 108.6978 27.8845 29.7145 0.7871 -3.6120 -2.4585
# 2 27.8845 124.9026 38.5603 -8.1301 -2.3293 14.4447
# 3 29.7145 38.5603 107.6562 5.6559 -3.7403 -5.9570
# 4 0.7871 -8.1301 5.6559 34.6623 8.1899 2.6295
# 5 -3.6120 -2.3293 -3.7403 8.1899 37.8614 3.2909
# 6 -2.4585 14.4447 -5.9570 2.6295 3.2909 32.4285
#
#
#
# Elastic Compliance Matrix: (Units=1/GPa)
#
#
# Indices 1 2 3 4 5 6 
#
# 1 0.010286 -0.001820 -0.002067 -0.000575 0.000686 0.001188
# 2 -0.001820 0.010471 -0.003762 0.003590 -0.000177 -0.005767
# 3 -0.002067 -0.003762 0.011628 -0.003282 0.001099 0.003810
# 4 -0.000575 0.003590 -0.003282 0.032152 -0.006751 -0.004168
# 5 0.000686 -0.000177 0.001099 -0.006751 0.028208 -0.001983
# 6 0.001188 -0.005767 0.003810 -0.004168 -0.001983 0.034735
#
#
# Mechanical properties :
#
#
# Convention : Reuss Voigt Hill
#
# Bulk Modulus (GPa) = 58.52600 59.28612 58.90606
# Shear Modulus (GPa) = 33.67594 37.33027 35.50310
#
# Velocity S-wave (km/s) = 3.97454 4.18463 4.08094
# Velocity P-wave (km/s) = 6.96537 7.15252 7.05956
#
# Compressibility (1/GPa) = 0.01708642
#
# Stress axis : x y z
#
# Youngs Moduli (GPa) = 97.22248 95.49894 85.99706
#
# Poissons Ratio (x) = 0.17382 0.17778
# Poissons Ratio (y) = 0.17695 0.32353
# Poissons Ratio (z) = 0.20098 0.35928
#
# Static dielectric constant tensor:
#      x y z
#    x 1.779890 -0.018070 0.023470 
#    y -0.018070 1.747670 0.028830 
#    z 0.023470 0.028830 1.787740 
# 
# From -- ./inp_files/85437.got.cif
#   From: 2010.05.17/outbox.cif.g08.bks.cpg/sg2_43_cif.got.tgz:85437.got - 2010.06.03 11:33:40.
