data_PCOD9062879
_publ_section_title
;
Structure prediction by ZEFSAII (Michael W. Deem and Ramdas Pophale) SiO2 
 PCOD9062879
Probable space group: P -1
;
_chemical_formula_sum "Si O2"
_cell_formula_units_Z 14
_cell_length_a 11.219456
_cell_length_b 6.006205
_cell_length_c 13.487171
_cell_angle_alpha 65.788589
_cell_angle_beta 50.495872
_cell_angle_gamma 90.177993
_cell_volume 592.859070
_symmetry_space_group_name_H-M "P -1"
_symmetry_group_IT_number 2
_symmetry_cell_setting 'triclinic'
loop_
_space_group_symop_operation_xyz
x,y,z
-x,-y,-z
loop_
_atom_site_type_symbol
_atom_site_label
_atom_site_fract_x
_atom_site_fract_y
_atom_site_fract_z
Si Si1 0.058801 0.142428 0.782087
Si Si2 0.098016 0.202392 0.268626
Si Si3 0.267555 0.757555 0.000075
Si Si4 0.824143 0.269751 0.147918
Si Si5 0.482553 0.730987 0.313862
Si Si6 0.359472 0.634184 0.595192
Si Si7 0.866560 0.266358 0.551380
O O1 0.222238 0.407504 0.643524
O O2 0.130853 0.983551 0.847675
O O3 0.988477 0.957026 0.756640
O O4 0.906503 0.211088 0.889588
O O5 0.955432 0.239343 0.406562
O O6 0.168638 0.008325 0.323399
O O7 0.242117 0.491623 0.122788
O O8 0.279981 0.675975 0.894957
O O9 0.401799 0.056462 0.865570
O O10 0.744660 0.255047 0.299071
O O11 0.000000 0.500000 0.000000
O O12 0.472322 0.829824 0.416090
O O13 0.545544 0.498119 0.356563
O O14 0.299439 0.672570 0.379142
O O15 0.000000 0.500000 0.500000
#
# Coordination Sequence:
#
# PCOD9062879 Si02
#       7
#     2   2   2   2   2   2   2
#     4  12  21  42  70  98 140 179 222 270 326 409
#     4  11  25  44  76  98 124 183 232 269 340 400
#     4  12  24  40  65 106 140 174 220 281 330 403
#     4  12  21  37  66 101 140 184 222 259 336 402
#     4  11  25  44  65  99 142 175 219 285 341 385
#     4  11  24  43  64 104 141 182 220 272 333 406
#     4  11  25  53  72  95 129 177 231 286 331 401
#
# _framework density 23.614384000000001
#
# number of rings (size 3 to 8) (size 9 to 14) (size 15 to 20)
#    0.000    0.571    4.286    4.714    0.000    1.143 
#   10.286    2.857    0.000    0.000    0.000    0.000 
#    0.000    0.000    0.000    0.000    0.000    0.000 
#
# Total GULP energy -78043.274644 kJ/mol
# GULP energy per Si atom -5574.519617 kJ/mol
# Density = 2.356064 g / cm^3
# Si number density = 23.614384 Si / 1000 Ang^3
#
#
#
# Elastic Constant Matrix: (Units=GPa)
#
#
# Indices 1 2 3 4 5 6 
#
# 1 101.2190 29.2608 38.8740 -14.1498 -9.9753 -17.0980
# 2 29.2608 74.8815 47.3930 -5.5415 1.3264 -7.9748
# 3 38.8740 47.3930 142.8057 -29.2016 5.6904 -20.8730
# 4 -14.1498 -5.5415 -29.2016 50.8497 -3.8383 13.1553
# 5 -9.9753 1.3264 5.6904 -3.8383 38.3350 -2.1294
# 6 -17.0980 -7.9748 -20.8730 13.1553 -2.1294 38.5586
#
#
#
# Elastic Compliance Matrix: (Units=1/GPa)
#
#
# Indices 1 2 3 4 5 6 
#
# 1 0.012767 -0.003538 -0.001590 0.001590 0.004048 0.003751
# 2 -0.003538 0.018027 -0.005443 -0.002195 -0.000961 -0.000091
# 3 -0.001590 -0.005443 0.010511 0.004307 -0.001225 0.002322
# 4 0.001590 -0.002195 0.004307 0.023903 0.001940 -0.005465
# 5 0.004048 -0.000961 -0.001225 0.001940 0.027648 0.001798
# 6 0.003751 -0.000091 0.002322 -0.005465 0.001798 0.030800
#
#
# Mechanical properties :
#
#
# Convention : Reuss Voigt Hill
#
# Bulk Modulus (GPa) = 49.59373 61.10684 55.35028
# Shear Modulus (GPa) = 32.99932 39.10725 36.05328
#
# Velocity S-wave (km/s) = 3.74227 4.07391 3.91161
# Velocity P-wave (km/s) = 6.30237 6.93268 6.62503
#
# Compressibility (1/GPa) = 0.02016384
#
# Stress axis : x y z
#
# Youngs Moduli (GPa) = 78.32431 55.47280 95.14109
#
# Poissons Ratio (x) = 0.19624 0.15123
# Poissons Ratio (y) = 0.27708 0.51789
# Poissons Ratio (z) = 0.12450 0.30196
#
# Static dielectric constant tensor:
#      x y z
#    x 1.956390 0.016080 -0.004140 
#    y 0.016080 1.944360 -0.057880 
#    z -0.004140 -0.057880 2.013630 
# 
# From -- ./inp_files/510165.got.cif
#   From: 2010.05.17/outbox.cif.g08.bks.cpg/sg2_256_cif.got.tgz:510165.got - 2010.06.03 11:33:40.
