data_PCOD9062003
_publ_section_title
;
Structure prediction by ZEFSAII (Michael W. Deem and Ramdas Pophale) SiO2 
 PCOD9062003
Probable space group: P -1
;
_chemical_formula_sum "Si O2"
_cell_formula_units_Z 16
_cell_length_a 24.466157
_cell_length_b 17.797624
_cell_length_c 14.132780
_cell_angle_alpha 20.830181
_cell_angle_beta 150.421850
_cell_angle_gamma 162.026479
_cell_volume 664.698882
_symmetry_space_group_name_H-M "P -1"
_symmetry_group_IT_number 2
_symmetry_cell_setting 'triclinic'
loop_
_space_group_symop_operation_xyz
x,y,z
-x,-y,-z
loop_
_atom_site_type_symbol
_atom_site_label
_atom_site_fract_x
_atom_site_fract_y
_atom_site_fract_z
Si Si1 0.429825 0.367836 0.943707
Si Si2 0.104926 0.497727 0.094503
Si Si3 0.579241 0.264706 0.643676
Si Si4 0.980518 0.334725 0.568062
Si Si5 0.278711 0.477409 0.067990
Si Si6 0.986219 0.250992 0.003155
Si Si7 0.409060 0.237126 0.587610
Si Si8 0.738743 0.556469 0.129821
O O1 0.472290 0.638537 0.625701
O O2 0.500000 0.500000 0.000000
O O3 0.534061 0.315921 0.124332
O O4 0.214401 0.037986 0.999716
O O5 0.212865 0.493657 0.326699
O O6 0.000000 0.500000 0.000000
O O7 0.986121 0.245503 0.123209
O O8 0.263401 0.860975 0.852148
O O9 0.545205 0.317111 0.632676
O O10 0.447577 0.866477 0.901487
O O11 0.919691 0.404070 0.312134
O O12 0.156402 0.476056 0.623075
O O13 0.000000 0.500000 0.500000
O O14 0.846674 0.938782 0.854926
O O15 0.322351 0.298964 0.327524
O O16 0.237936 0.491930 0.884612
O O17 0.110652 0.250685 0.151371
O O18 0.500000 0.500000 0.500000
#
# Coordination Sequence:
#
# PCOD9062003 Si02
#       8
#     2   2   2   2   2   2   2   2
#     4  12  30  49  72 113 158 197 248 313 386 444
#     4  12  29  48  75 116 154 196 248 311 387 445
#     4  12  27  52  76 108 152 200 256 309 371 452
#     4  11  23  46  78 105 144 192 258 312 363 443
#     4  12  24  46  79 106 144 196 253 310 361 452
#     4  12  27  47  73 111 154 195 245 319 377 439
#     4  12  24  47  80 109 146 199 258 301 371 453
#     4  11  25  44  77 107 139 200 252 297 376 450
#
# _framework density 24.071048999999999
#
# number of rings (size 3 to 8) (size 9 to 14) (size 15 to 20)
#    0.000    0.250    5.000    3.375    8.750    2.000 
#    0.000    0.000    0.000    0.000    0.000    0.000 
#    0.000    0.000    0.000    0.000    0.000    0.000 
#
# Total GULP energy -89531.090631 kJ/mol
# GULP energy per Si atom -5595.693164 kJ/mol
# Density = 2.401626 g / cm^3
# Si number density = 24.071049 Si / 1000 Ang^3
#
#
#
# Elastic Constant Matrix: (Units=GPa)
#
#
# Indices 1 2 3 4 5 6 
#
# 1 148.5572 53.9932 3.6571 8.7678 21.5809 -0.9532
# 2 53.9932 128.2460 18.9028 7.6751 17.0488 0.0388
# 3 3.6571 18.9028 76.4861 7.0309 14.9582 5.2319
# 4 8.7678 7.6751 7.0309 47.6509 1.1055 10.6123
# 5 21.5809 17.0488 14.9582 1.1055 38.0469 5.9798
# 6 -0.9532 0.0388 5.2319 10.6123 5.9798 50.2327
#
#
#
# Elastic Compliance Matrix: (Units=1/GPa)
#
#
# Indices 1 2 3 4 5 6 
#
# 1 0.008509 -0.003154 0.001218 -0.001321 -0.003977 0.000790
# 2 -0.003154 0.009694 -0.001839 -0.000780 -0.001890 0.000514
# 3 0.001218 -0.001839 0.014758 -0.001875 -0.005543 -0.000457
# 4 -0.001321 -0.000780 -0.001875 0.022666 0.001940 -0.004849
# 5 -0.003977 -0.001890 -0.005543 0.001940 0.032095 -0.003727
# 6 0.000790 0.000514 -0.000457 -0.004849 -0.003727 0.021438
#
#
# Mechanical properties :
#
#
# Convention : Reuss Voigt Hill
#
# Bulk Modulus (GPa) = 39.35320 56.26619 47.80969
# Shear Modulus (GPa) = 39.94241 45.63518 42.78879
#
# Velocity S-wave (km/s) = 4.07794 4.35886 4.22074
# Velocity P-wave (km/s) = 6.20943 6.98274 6.60741
#
# Compressibility (1/GPa) = 0.02541090
#
# Stress axis : x y z
#
# Youngs Moduli (GPa) = 117.52731 103.15312 67.75946
#
# Poissons Ratio (x) = 0.32537 -0.08253
# Poissons Ratio (y) = 0.37071 0.12460
# Poissons Ratio (z) = -0.14314 0.18968
#
# Static dielectric constant tensor:
#      x y z
#    x 1.889930 -0.027470 -0.050270 
#    y -0.027470 2.095860 0.084280 
#    z -0.050270 0.084280 2.016360 
# 
# From -- ./inp_files/543124.got.cif
#   From: 2010.05.17/outbox.cif.g08.bks.cpg/sg2_272_cif.got.tgz:543124.got - 2010.06.03 11:33:40.
