data_PCOD9062963
_publ_section_title
;
Structure prediction by ZEFSAII (Michael W. Deem and Ramdas Pophale) SiO2 
 PCOD9062963
Probable space group: P -1
;
_chemical_formula_sum "Si O2"
_cell_formula_units_Z 16
_cell_length_a 5.063176
_cell_length_b 11.793101
_cell_length_c 24.928402
_cell_angle_alpha 151.834172
_cell_angle_beta 61.637661
_cell_angle_gamma 119.505689
_cell_volume 608.449289
_symmetry_space_group_name_H-M "P -1"
_symmetry_group_IT_number 2
_symmetry_cell_setting 'triclinic'
loop_
_space_group_symop_operation_xyz
x,y,z
-x,-y,-z
loop_
_atom_site_type_symbol
_atom_site_label
_atom_site_fract_x
_atom_site_fract_y
_atom_site_fract_z
Si Si1 0.713775 0.623600 0.077899
Si Si2 0.038972 0.945995 0.036256
Si Si3 0.422120 0.755471 0.261744
Si Si4 0.150863 0.387111 0.561634
Si Si5 0.555923 0.750802 0.420185
Si Si6 0.556145 0.399577 0.184504
Si Si7 0.394135 0.946962 0.788969
Si Si8 0.923088 0.967662 0.667335
O O1 0.543448 0.590714 0.136372
O O2 0.786887 0.908747 0.174879
O O3 0.500000 0.500000 0.000000
O O4 0.000000 0.500000 0.000000
O O5 0.303649 0.161313 0.122746
O O6 0.184550 0.699276 0.916945
O O7 0.729060 0.962977 0.105370
O O8 0.000000 0.000000 0.000000
O O9 0.386059 0.588356 0.247448
O O10 0.152837 0.852536 0.297717
O O11 0.715701 0.971698 0.333253
O O12 0.248317 0.222317 0.532561
O O13 0.310025 0.658384 0.672846
O O14 0.206815 0.288090 0.455576
O O15 0.790451 0.378780 0.590715
O O16 0.685199 0.557242 0.289206
O O17 0.500000 0.000000 0.500000
O O18 0.731651 0.009083 0.755765
#
# Coordination Sequence:
#
# PCOD9062963 Si02
#       8
#     2   2   2   2   2   2   2   2
#     4  11  24  43  68 100 136 184 237 295 353 417
#     4  11  25  45  69 102 143 192 235 299 363 433
#     4  11  25  45  71 102 139 188 240 296 363 424
#     4  12  25  46  72 108 144 189 244 298 369 427
#     4  12  26  46  75 109 147 193 242 301 362 439
#     4  11  25  44  71 103 145 188 243 296 362 438
#     4  11  25  46  73 106 147 187 247 296 364 440
#     4  11  25  47  73 106 143 188 238 305 360 427
#
# _framework density 26.296361000000001
#
# number of rings (size 3 to 8) (size 9 to 14) (size 15 to 20)
#    0.000    0.750    1.250    6.000    3.500    3.000 
#    9.000    4.375    0.000    0.000    0.000    0.000 
#    0.000    0.000    0.000    0.000    0.000    0.000 
#
# Total GULP energy -89569.088738 kJ/mol
# GULP energy per Si atom -5598.068046 kJ/mol
# Density = 2.623651 g / cm^3
# Si number density = 26.296361 Si / 1000 Ang^3
#
#
#
# Elastic Constant Matrix: (Units=GPa)
#
#
# Indices 1 2 3 4 5 6 
#
# 1 125.2524 20.9423 26.3591 -16.7080 6.8974 -9.7123
# 2 20.9423 84.5283 33.8889 -10.5160 -0.1504 3.0272
# 3 26.3591 33.8889 161.8807 -19.8473 8.8391 5.2350
# 4 -16.7080 -10.5160 -19.8473 51.8278 -4.0116 -3.3356
# 5 6.8974 -0.1504 8.8391 -4.0116 39.9652 -8.7966
# 6 -9.7123 3.0272 5.2350 -3.3356 -8.7966 26.3569
#
#
#
# Elastic Compliance Matrix: (Units=1/GPa)
#
#
# Indices 1 2 3 4 5 6 
#
# 1 0.009120 -0.001719 -0.000937 0.002469 -0.000251 0.003973
# 2 -0.001719 0.013409 -0.002373 0.001228 0.000707 -0.001311
# 3 -0.000937 -0.002373 0.007188 0.001722 -0.001669 -0.001840
# 4 0.002469 0.001228 0.001722 0.021418 0.002200 0.003871
# 5 -0.000251 0.000707 -0.001669 0.002200 0.027796 0.009713
# 6 0.003973 -0.001311 -0.001840 0.003871 0.009713 0.043652
#
#
# Mechanical properties :
#
#
# Convention : Reuss Voigt Hill
#
# Bulk Modulus (GPa) = 50.86899 59.33801 55.10350
# Shear Modulus (GPa) = 35.92103 42.99473 39.45788
#
# Velocity S-wave (km/s) = 3.69996 4.04791 3.87784
# Velocity P-wave (km/s) = 6.13510 6.66795 6.40707
#
# Compressibility (1/GPa) = 0.01965834
#
# Stress axis : x y z
#
# Youngs Moduli (GPa) = 109.65216 74.57916 139.11281
#
# Poissons Ratio (x) = 0.12823 0.13037
# Poissons Ratio (y) = 0.18853 0.33007
# Poissons Ratio (z) = 0.10276 0.17695
#
# Static dielectric constant tensor:
#      x y z
#    x 2.029820 -0.121300 -0.025010 
#    y -0.121300 2.766440 0.115380 
#    z -0.025010 0.115380 2.124810 
# 
# From -- ./inp_files/604472.got.cif
#   From: 2010.05.17/outbox.cif.g08.bks.cpg/sg2_303_cif.got.tgz:604472.got - 2010.06.03 11:33:40.
