data_PCOD9062084
_publ_section_title
;
Structure prediction by ZEFSAII (Michael W. Deem and Ramdas Pophale) SiO2 
 PCOD9062084
Probable space group: P -1
;
_chemical_formula_sum "Si O2"
_cell_formula_units_Z 15
_cell_length_a 12.779187
_cell_length_b 9.525886
_cell_length_c 15.998323
_cell_angle_alpha 47.340368
_cell_angle_beta 26.953684
_cell_angle_gamma 56.688618
_cell_volume 640.324269
_symmetry_space_group_name_H-M "P -1"
_symmetry_group_IT_number 2
_symmetry_cell_setting 'triclinic'
loop_
_space_group_symop_operation_xyz
x,y,z
-x,-y,-z
loop_
_atom_site_type_symbol
_atom_site_label
_atom_site_fract_x
_atom_site_fract_y
_atom_site_fract_z
Si Si1 0.773802 0.341943 0.238416
Si Si2 0.807899 0.135438 0.072287
Si Si3 0.500000 0.000000 0.500000
Si Si4 0.052224 0.567499 0.746476
Si Si5 0.450454 0.628701 0.301515
Si Si6 0.196476 0.188121 0.284950
Si Si7 0.075568 0.700763 0.411084
Si Si8 0.308401 0.951729 0.001353
O O1 0.746215 0.131183 0.304514
O O2 0.567569 0.435746 0.302232
O O3 0.782761 0.342031 0.332013
O O4 0.000000 0.500000 0.000000
O O5 0.585495 0.047538 0.322007
O O6 0.762220 0.129141 0.007815
O O7 0.921709 0.349062 0.936021
O O8 0.000000 0.000000 0.000000
O O9 0.854387 0.688876 0.809242
O O10 0.230577 0.579584 0.538714
O O11 0.323159 0.688736 0.285311
O O12 0.630807 0.814622 0.130306
O O13 0.447119 0.126220 0.126533
O O14 0.127966 0.282441 0.382810
O O15 0.000000 0.000000 0.500000
O O16 0.000000 0.500000 0.500000
O O17 0.127968 0.867679 0.236573
#
# Coordination Sequence:
#
# PCOD9062084 Si02
#       8
#     2   2   1   2   2   2   2   2
#     4  12  26  46  72 108 144 193 247 309 374 445
#     4  12  27  48  72 109 146 193 248 307 375 450
#     4  12  28  48  72 108 144 196 248 304 378 448
#     4  11  23  47  72 102 150 193 240 311 369 437
#     4  11  24  46  71 107 144 193 249 306 378 447
#     4  11  25  46  73 109 146 194 255 301 374 451
#     4  11  26  46  71 111 149 195 247 314 372 448
#     4  12  25  45  78 103 146 201 242 313 376 447
#
# _framework density 23.425629000000001
#
# number of rings (size 3 to 8) (size 9 to 14) (size 15 to 20)
#    0.000    0.533    4.000    4.800    1.867    4.267 
#    0.000    0.000    0.000    0.000    0.000    0.000 
#    0.000    0.000    0.000    0.000    0.000    0.000 
#
# Total GULP energy -83634.633740 kJ/mol
# GULP energy per Si atom -5575.642249 kJ/mol
# Density = 2.337231 g / cm^3
# Si number density = 23.425629 Si / 1000 Ang^3
#
#
#
# Elastic Constant Matrix: (Units=GPa)
#
#
# Indices 1 2 3 4 5 6 
#
# 1 107.8753 15.5748 13.4954 -5.1010 5.8681 8.3771
# 2 15.5748 44.1525 -14.6189 1.7381 -1.9836 -0.6530
# 3 13.4954 -14.6189 88.9547 -17.2933 14.0702 4.4820
# 4 -5.1010 1.7381 -17.2933 24.4925 5.5622 -7.9841
# 5 5.8681 -1.9836 14.0702 5.5622 41.1131 -4.5177
# 6 8.3771 -0.6530 4.4820 -7.9841 -4.5177 50.0705
#
#
#
# Elastic Compliance Matrix: (Units=1/GPa)
#
#
# Indices 1 2 3 4 5 6 
#
# 1 0.010374 -0.004381 -0.001801 0.000994 -0.001386 -0.001598
# 2 -0.004381 0.025845 0.005068 0.001073 0.000080 0.000795
# 3 -0.001801 0.005068 0.015660 0.011874 -0.006433 0.000279
# 4 0.000994 0.001073 0.011874 0.053870 -0.010738 0.006406
# 5 -0.001386 0.000080 -0.006433 -0.010738 0.028361 0.001655
# 6 -0.001598 0.000795 0.000279 0.006406 0.001655 0.021396
#
#
# Mechanical properties :
#
#
# Convention : Reuss Voigt Hill
#
# Bulk Modulus (GPa) = 20.14046 29.98722 25.06384
# Shear Modulus (GPa) = 28.68877 38.23730 33.46303
#
# Velocity S-wave (km/s) = 3.50333 4.04454 3.78362
# Velocity P-wave (km/s) = 4.99807 5.88556 5.45988
#
# Compressibility (1/GPa) = 0.04965129
#
# Stress axis : x y z
#
# Youngs Moduli (GPa) = 96.39264 38.69188 63.85837
#
# Poissons Ratio (x) = 0.16950 0.11500
# Poissons Ratio (y) = 0.42228 -0.32362
# Poissons Ratio (z) = 0.17360 -0.19608
#
# Static dielectric constant tensor:
#      x y z
#    x 2.540120 -0.299140 -0.072420 
#    y -0.299140 2.223850 0.113090 
#    z -0.072420 0.113090 1.922140 
# 
# From -- ./inp_files/425160.got.cif
#   From: 2010.05.17/outbox.cif.g08.bks.cpg/sg2_213_cif.got.tgz:425160.got - 2010.06.03 11:33:40.
