data_PCOD9062121
_publ_section_title
;
Structure prediction by ZEFSAII (Michael W. Deem and Ramdas Pophale) SiO2 
 PCOD9062121
Probable space group: P -1
;
_chemical_formula_sum "Si O2"
_cell_formula_units_Z 13
_cell_length_a 9.120816
_cell_length_b 8.869856
_cell_length_c 11.842027
_cell_angle_alpha 143.624934
_cell_angle_beta 64.759704
_cell_angle_gamma 117.702921
_cell_volume 500.560618
_symmetry_space_group_name_H-M "P -1"
_symmetry_group_IT_number 2
_symmetry_cell_setting 'triclinic'
loop_
_space_group_symop_operation_xyz
x,y,z
-x,-y,-z
loop_
_atom_site_type_symbol
_atom_site_label
_atom_site_fract_x
_atom_site_fract_y
_atom_site_fract_z
Si Si1 0.810671 0.903092 0.463492
Si Si2 0.825488 0.597372 0.610764
Si Si3 0.500000 0.500000 0.500000
Si Si4 0.776018 0.344929 0.123761
Si Si5 0.252946 0.139698 0.991451
Si Si6 0.407770 0.892611 0.179448
Si Si7 0.953045 0.870098 0.161779
O O1 0.733322 0.602161 0.348739
O O2 0.824305 0.863169 0.300974
O O3 0.705736 0.091571 0.665017
O O4 0.000000 0.000000 0.500000
O O5 0.660439 0.457074 0.513268
O O6 0.000000 0.500000 0.500000
O O7 0.774844 0.635994 0.780167
O O8 0.894019 0.889183 0.712565
O O9 0.545758 0.809131 0.698946
O O10 0.750770 0.106570 0.074298
O O11 0.675118 0.275104 0.000636
O O12 0.968702 0.377549 0.042659
O O13 0.427239 0.205421 0.910139
O O14 0.117728 0.065394 0.894687
#
# Coordination Sequence:
#
# PCOD9062121 Si02
#       7
#     2   2   1   2   2   2   2
#     4  12  26  45  74 104 143 194 249 292 363 453
#     4  11  24  45  72 113 147 189 247 315 368 436
#     4  12  22  42  76 110 142 190 252 300 366 436
#     4  11  23  47  74 101 142 187 246 300 357 441
#     4  11  25  46  72 107 148 186 242 313 372 424
#     4  12  25  43  71 107 144 189 244 300 363 437
#     4  11  24  47  71 103 146 194 235 303 374 429
#
# _framework density 25.970880999999999
#
# number of rings (size 3 to 8) (size 9 to 14) (size 15 to 20)
#    0.000    0.615    4.615    4.615    2.154    4.308 
#    0.000    0.769    0.000    0.000    0.000    0.000 
#    0.000    0.000    0.000    0.000    0.000    0.000 
#
# Total GULP energy -72526.896371 kJ/mol
# GULP energy per Si atom -5578.992029 kJ/mol
# Density = 2.591177 g / cm^3
# Si number density = 25.970881 Si / 1000 Ang^3
#
#
#
# Elastic Constant Matrix: (Units=GPa)
#
#
# Indices 1 2 3 4 5 6 
#
# 1 163.9246 10.5820 78.6313 -17.4891 5.5094 15.2950
# 2 10.5820 44.3201 18.1380 -15.0329 12.6940 -2.7106
# 3 78.6313 18.1380 178.8331 -29.3986 0.1718 5.3017
# 4 -17.4891 -15.0329 -29.3986 48.2518 11.5161 7.6500
# 5 5.5094 12.6940 0.1718 11.5161 62.7952 -8.9783
# 6 15.2950 -2.7106 5.3017 7.6500 -8.9783 17.1566
#
#
#
# Elastic Compliance Matrix: (Units=1/GPa)
#
#
# Indices 1 2 3 4 5 6 
#
# 1 0.009041 0.000742 -0.003071 0.004053 -0.003174 -0.010462
# 2 0.000742 0.028982 -0.001198 0.011542 -0.008820 -0.005475
# 3 -0.003071 -0.001198 0.007696 0.003553 -0.000393 -0.001620
# 4 0.004053 0.011542 0.003553 0.034971 -0.012705 -0.025130
# 5 -0.003174 -0.008820 -0.000393 -0.012705 0.023077 0.019299
# 6 -0.010462 -0.005475 -0.001620 -0.025130 0.019299 0.088554
#
#
# Mechanical properties :
#
#
# Convention : Reuss Voigt Hill
#
# Bulk Modulus (GPa) = 25.86233 66.86450 46.36342
# Shear Modulus (GPa) = 23.55581 44.28915 33.92248
#
# Velocity S-wave (km/s) = 3.01493 4.13405 3.61802
# Velocity P-wave (km/s) = 4.70101 6.97058 5.94511
#
# Compressibility (1/GPa) = 0.03866627
#
# Stress axis : x y z
#
# Youngs Moduli (GPa) = 110.61005 34.50388 129.93667
#
# Poissons Ratio (x) = -0.02561 0.39902
# Poissons Ratio (y) = -0.08210 0.15563
# Poissons Ratio (z) = 0.33967 0.04133
#
# Static dielectric constant tensor:
#      x y z
#    x 1.931680 -0.102360 -0.048280 
#    y -0.102360 2.012600 0.085460 
#    z -0.048280 0.085460 2.021930 
# 
# From -- ./inp_files/380770.got.cif
#   From: 2010.05.17/outbox.cif.g08.bks.cpg/sg2_191_cif.got.tgz:380770.got - 2010.06.03 11:33:40.
