data_PCOD9062862
_publ_section_title
;
Structure prediction by ZEFSAII (Michael W. Deem and Ramdas Pophale) SiO2 
 PCOD9062862
Probable space group: P -1
;
_chemical_formula_sum "Si O2"
_cell_formula_units_Z 16
_cell_length_a 9.494381
_cell_length_b 17.629180
_cell_length_c 11.972033
_cell_angle_alpha 137.253584
_cell_angle_beta 52.266553
_cell_angle_gamma 94.292523
_cell_volume 770.515746
_symmetry_space_group_name_H-M "P -1"
_symmetry_group_IT_number 2
_symmetry_cell_setting 'triclinic'
loop_
_space_group_symop_operation_xyz
x,y,z
-x,-y,-z
loop_
_atom_site_type_symbol
_atom_site_label
_atom_site_fract_x
_atom_site_fract_y
_atom_site_fract_z
Si Si1 0.361140 0.062345 0.318169
Si Si2 0.051287 0.435462 0.280098
Si Si3 0.698148 0.915763 0.214488
Si Si4 0.144469 0.820236 0.264047
Si Si5 0.096853 0.939017 0.762073
Si Si6 0.603244 0.112201 0.088482
Si Si7 0.492241 0.376988 0.333205
Si Si8 0.482089 0.638925 0.126193
O O1 0.406532 0.145216 0.302956
O O2 0.079605 0.170502 0.611187
O O3 0.547444 0.990025 0.252255
O O4 0.428728 0.925910 0.060003
O O5 0.000000 0.500000 0.500000
O O6 0.785866 0.543795 0.467428
O O7 0.155081 0.264049 0.049977
O O8 0.252469 0.425258 0.108318
O O9 0.500000 0.000000 0.500000
O O10 0.860395 0.955951 0.193979
O O11 0.300127 0.746056 0.223982
O O12 0.338390 0.711697 0.954389
O O13 0.000000 0.000000 0.500000
O O14 0.353876 0.761029 0.423676
O O15 0.000000 0.000000 0.000000
O O16 0.880968 0.962512 0.832092
O O17 0.593654 0.248639 0.238102
O O18 0.500000 0.500000 0.500000
O O19 0.500000 0.500000 0.000000
#
# Coordination Sequence:
#
# PCOD9062862 Si02
#       8
#     2   2   2   2   2   2   2   2
#     4  11  24  42  75 101 133 182 244 291 340 422
#     4  12  26  46  70 102 145 190 235 294 363 433
#     4  12  26  45  74 105 140 187 248 296 357 426
#     4  12  24  48  73 101 137 191 248 287 344 443
#     4  12  25  46  71 104 142 186 240 306 355 429
#     4  11  24  45  71 103 137 184 241 283 353 433
#     4  12  27  44  70 105 144 183 228 300 365 417
#     4  12  28  46  71 109 148 191 236 303 373 432
#
# _framework density 20.765312999999999
#
# number of rings (size 3 to 8) (size 9 to 14) (size 15 to 20)
#    0.000    0.250    6.250    2.250    7.000    1.000 
#    0.000    0.625    0.000    0.000    0.000    0.000 
#    0.000    0.000    0.000    0.000    0.000    0.000 
#
# Total GULP energy -89467.423180 kJ/mol
# GULP energy per Si atom -5591.713949 kJ/mol
# Density = 2.071805 g / cm^3
# Si number density = 20.765313 Si / 1000 Ang^3
#
#
#
# Elastic Constant Matrix: (Units=GPa)
#
#
# Indices 1 2 3 4 5 6 
#
# 1 82.1606 21.4417 35.3503 -5.0418 -17.0998 9.1632
# 2 21.4417 123.3934 66.5279 -12.6629 4.1600 29.2628
# 3 35.3503 66.5279 157.2301 -15.3692 1.9013 15.6310
# 4 -5.0418 -12.6629 -15.3692 36.5768 11.9311 -5.9473
# 5 -17.0998 4.1600 1.9013 11.9311 48.0189 -3.9506
# 6 9.1632 29.2628 15.6310 -5.9473 -3.9506 39.9214
#
#
#
# Elastic Compliance Matrix: (Units=1/GPa)
#
#
# Indices 1 2 3 4 5 6 
#
# 1 0.015008 -0.001067 -0.003045 -0.001684 0.005882 -0.001139
# 2 -0.001067 0.012516 -0.004103 0.002069 -0.002413 -0.007253
# 3 -0.003045 -0.004103 0.009013 0.002562 -0.001690 0.000392
# 4 -0.001684 0.002069 0.002562 0.032024 -0.008691 0.001777
# 5 0.005882 -0.002413 -0.001690 -0.008691 0.025546 0.002313
# 6 -0.001139 -0.007253 0.000392 0.001777 0.002313 0.030967
#
#
# Mechanical properties :
#
#
# Convention : Reuss Voigt Hill
#
# Bulk Modulus (GPa) = 49.73823 67.71376 58.72600
# Shear Modulus (GPa) = 33.73669 40.86769 37.30219
#
# Velocity S-wave (km/s) = 4.03509 4.44111 4.24296
# Velocity P-wave (km/s) = 6.76120 7.67970 7.23504
#
# Compressibility (1/GPa) = 0.02010526
#
# Stress axis : x y z
#
# Youngs Moduli (GPa) = 66.63138 79.90027 110.95289
#
# Poissons Ratio (x) = 0.08525 0.33789
# Poissons Ratio (y) = 0.07110 0.45527
# Poissons Ratio (z) = 0.20291 0.32785
#
# Static dielectric constant tensor:
#      x y z
#    x 1.873390 0.033710 -0.058770 
#    y 0.033710 1.735000 0.020680 
#    z -0.058770 0.020680 1.767520 
# 
# From -- ./inp_files/263386.got.cif
#   From: 2010.05.17/outbox.cif.g08.bks.cpg/sg2_132_cif.got.tgz:263386.got - 2010.06.03 11:33:40.
