data_PCOD9062962
_publ_section_title
;
Structure prediction by ZEFSAII (Michael W. Deem and Ramdas Pophale) SiO2 
 PCOD9062962
Probable space group: P -1
;
_chemical_formula_sum "Si O2"
_cell_formula_units_Z 14
_cell_length_a 8.846263
_cell_length_b 14.563026
_cell_length_c 9.066377
_cell_angle_alpha 97.102190
_cell_angle_beta 43.989288
_cell_angle_gamma 120.089757
_cell_volume 644.962615
_symmetry_space_group_name_H-M "P -1"
_symmetry_group_IT_number 2
_symmetry_cell_setting 'triclinic'
loop_
_space_group_symop_operation_xyz
x,y,z
-x,-y,-z
loop_
_atom_site_type_symbol
_atom_site_label
_atom_site_fract_x
_atom_site_fract_y
_atom_site_fract_z
Si Si1 0.703211 0.464654 0.180357
Si Si2 0.756265 0.686626 0.281953
Si Si3 0.885458 0.174214 0.419450
Si Si4 0.495076 0.389268 0.995118
Si Si5 0.513648 0.247773 0.743774
Si Si6 0.972868 0.969307 0.839773
Si Si7 0.822578 0.104847 0.790577
O O1 0.737831 0.584906 0.188071
O O2 0.479333 0.380191 0.442345
O O3 0.601832 0.398804 0.084482
O O4 0.000000 0.500000 0.000000
O O5 0.673757 0.748566 0.243104
O O6 0.046669 0.781833 0.173952
O O7 0.693966 0.213859 0.539094
O O8 0.888749 0.148124 0.584710
O O9 0.181088 0.282261 0.184382
O O10 0.830417 0.065005 0.348977
O O11 0.500000 0.500000 0.000000
O O12 0.652258 0.367426 0.759373
O O13 0.334878 0.147891 0.970319
O O14 0.977292 0.053732 0.737303
O O15 0.000000 0.000000 0.000000
O O16 0.500000 0.000000 0.000000
#
# Coordination Sequence:
#
# PCOD9062962 Si02
#       7
#     2   2   2   2   2   2   2
#     4  11  26  44  70 103 138 184 227 286 355 408
#     4  11  25  46  67 102 143 175 234 291 339 418
#     4  11  26  44  69 101 137 185 226 287 354 403
#     4  11  24  44  68 102 141 176 231 287 342 417
#     4  11  24  43  68 100 136 181 231 281 348 411
#     4  11  24  45  66  99 138 174 232 285 335 415
#     4  12  24  47  71  99 142 189 229 287 346 413
#
# _framework density 21.706686000000001
#
# number of rings (size 3 to 8) (size 9 to 14) (size 15 to 20)
#    0.000    0.857    5.714    0.429    4.000    1.143 
#    2.571    0.000    0.000    0.000    0.000    0.000 
#    0.000    0.000    0.000    0.000    0.000    0.000 
#
# Total GULP energy -78132.879381 kJ/mol
# GULP energy per Si atom -5580.919956 kJ/mol
# Density = 2.165728 g / cm^3
# Si number density = 21.706686 Si / 1000 Ang^3
#
#
#
# Elastic Constant Matrix: (Units=GPa)
#
#
# Indices 1 2 3 4 5 6 
#
# 1 87.6544 30.6423 28.0920 18.9947 10.7774 -10.6585
# 2 30.6423 109.2163 28.8863 17.0675 0.2193 -4.7588
# 3 28.0920 28.8863 50.5720 10.6381 -11.2308 1.6932
# 4 18.9947 17.0675 10.6381 48.6670 -2.4114 4.9073
# 5 10.7774 0.2193 -11.2308 -2.4114 32.9184 4.1560
# 6 -10.6585 -4.7588 1.6932 4.9073 4.1560 38.2050
#
#
#
# Elastic Compliance Matrix: (Units=1/GPa)
#
#
# Indices 1 2 3 4 5 6 
#
# 1 0.019168 -0.000998 -0.011680 -0.005940 -0.011670 0.007773
# 2 -0.000998 0.011543 -0.006051 -0.002651 -0.002263 0.002014
# 3 -0.011680 -0.006051 0.033378 0.000934 0.016252 -0.007379
# 4 -0.005940 -0.002651 0.000934 0.024402 0.004786 -0.005684
# 5 -0.011670 -0.002263 0.016252 0.004786 0.041291 -0.009364
# 6 0.007773 0.002014 -0.007379 -0.005684 -0.009364 0.030670
#
#
# Mechanical properties :
#
#
# Convention : Reuss Voigt Hill
#
# Bulk Modulus (GPa) = 37.55073 46.96487 42.25780
# Shear Modulus (GPa) = 24.17940 34.61289 29.39614
#
# Velocity S-wave (km/s) = 3.34116 3.99754 3.68400
# Velocity P-wave (km/s) = 5.67637 6.55669 6.13235
#
# Compressibility (1/GPa) = 0.02663064
#
# Stress axis : x y z
#
# Youngs Moduli (GPa) = 52.17051 86.63036 29.96007
#
# Poissons Ratio (x) = 0.08649 0.34992
# Poissons Ratio (y) = 0.05208 0.18129
# Poissons Ratio (z) = 0.60933 0.52422
#
# Static dielectric constant tensor:
#      x y z
#    x 1.729790 0.015880 0.030350 
#    y 0.015880 1.943860 0.029670 
#    z 0.030350 0.029670 1.779600 
# 
# From -- ./inp_files/40037.got.cif
#   From: 2010.05.17/outbox.cif.g08.bks.cpg/sg2_21_cif.got.tgz:40037.got - 2010.06.03 11:33:40.
