data_PCOD9062226
_publ_section_title
;
Structure prediction by ZEFSAII (Michael W. Deem and Ramdas Pophale) SiO2 
 PCOD9062226
Probable space group: P -1
;
_chemical_formula_sum "Si O2"
_cell_formula_units_Z 16
_cell_length_a 19.012274
_cell_length_b 8.115011
_cell_length_c 9.374855
_cell_angle_alpha 113.963182
_cell_angle_beta 65.940348
_cell_angle_gamma 146.907243
_cell_volume 715.039184
_symmetry_space_group_name_H-M "P -1"
_symmetry_group_IT_number 2
_symmetry_cell_setting 'triclinic'
loop_
_space_group_symop_operation_xyz
x,y,z
-x,-y,-z
loop_
_atom_site_type_symbol
_atom_site_label
_atom_site_fract_x
_atom_site_fract_y
_atom_site_fract_z
Si Si1 0.510383 0.091863 0.182859
Si Si2 0.689216 0.676318 0.099477
Si Si3 0.456468 0.089281 0.661054
Si Si4 0.028102 0.711302 0.173317
Si Si5 0.207895 0.824941 0.639513
Si Si6 0.092052 0.175466 0.119910
Si Si7 0.258986 0.806048 0.289420
Si Si8 0.668089 0.766864 0.839763
O O1 0.589148 0.424033 0.213464
O O2 0.577460 0.068337 0.215547
O O3 0.368206 0.872828 0.279912
O O4 0.500000 0.000000 0.000000
O O5 0.790275 0.986372 0.209910
O O6 0.769221 0.656333 0.970784
O O7 0.633533 0.676414 0.006243
O O8 0.575439 0.452418 0.721276
O O9 0.500000 0.000000 0.500000
O O10 0.333045 0.955484 0.647157
O O11 0.927135 0.512622 0.316154
O O12 0.021706 0.902042 0.185566
O O13 0.176965 0.977371 0.194292
O O14 0.000000 0.500000 0.000000
O O15 0.225391 0.870888 0.472282
O O16 0.131997 0.451060 0.230360
O O17 0.000000 0.000000 0.000000
O O18 0.326904 0.034913 0.180280
#
# Coordination Sequence:
#
# PCOD9062226 Si02
#       8
#     2   2   2   2   2   2   2   2
#     4  12  23  43  72 102 137 181 244 293 348 426
#     4  11  25  44  73 102 139 187 239 292 356 428
#     4  12  27  47  71 106 149 188 238 304 368 418
#     4  11  23  48  74 103 142 187 240 295 354 434
#     4  12  28  46  72 108 147 187 236 299 367 423
#     4  11  24  44  71 103 140 186 241 290 349 432
#     4  12  27  45  70 107 146 184 238 299 358 425
#     4  11  25  47  73 100 144 193 240 289 357 431
#
# _framework density 22.376396
#
# number of rings (size 3 to 8) (size 9 to 14) (size 15 to 20)
#    0.000    0.500    6.250    2.250    5.250    3.000 
#    0.000    0.000    0.000    0.000    0.000    0.000 
#    0.000    0.000    0.000    0.000    0.000    0.000 
#
# Total GULP energy -89310.114509 kJ/mol
# GULP energy per Si atom -5581.882157 kJ/mol
# Density = 2.232547 g / cm^3
# Si number density = 22.376396 Si / 1000 Ang^3
#
#
#
# Elastic Constant Matrix: (Units=GPa)
#
#
# Indices 1 2 3 4 5 6 
#
# 1 67.1775 20.6417 4.5319 6.3291 22.7516 -8.7087
# 2 20.6417 133.2384 20.3921 6.8681 8.9412 -10.9091
# 3 4.5319 20.3921 88.3803 8.9583 4.8606 -9.5431
# 4 6.3291 6.8681 8.9583 27.9993 -1.4204 -4.6600
# 5 22.7516 8.9412 4.8606 -1.4204 28.4929 -4.0936
# 6 -8.7087 -10.9091 -9.5431 -4.6600 -4.0936 38.5165
#
#
#
# Elastic Compliance Matrix: (Units=1/GPa)
#
#
# Indices 1 2 3 4 5 6 
#
# 1 0.021987 -0.001965 0.001043 -0.005319 -0.017065 0.002216
# 2 -0.001965 0.008241 -0.001532 -0.000895 -0.000608 0.001337
# 3 0.001043 -0.001532 0.012339 -0.003562 -0.002321 0.002181
# 4 -0.005319 -0.000895 -0.003562 0.039193 0.007550 0.003205
# 5 -0.017065 -0.000608 -0.002321 0.007550 0.049918 0.001613
# 6 0.002216 0.001337 0.002181 0.003205 0.001613 0.027942
#
#
# Mechanical properties :
#
#
# Convention : Reuss Voigt Hill
#
# Bulk Modulus (GPa) = 26.55457 42.21418 34.38437
# Shear Modulus (GPa) = 28.23553 35.21711 31.72632
#
# Velocity S-wave (km/s) = 3.55610 3.97148 3.76952
# Velocity P-wave (km/s) = 5.36229 6.31955 5.86049
#
# Compressibility (1/GPa) = 0.03765831
#
# Stress axis : x y z
#
# Youngs Moduli (GPa) = 45.48084 121.34880 81.04363
#
# Poissons Ratio (x) = 0.23847 -0.08452
# Poissons Ratio (y) = 0.08938 0.12416
# Poissons Ratio (z) = -0.04743 0.18591
#
# Static dielectric constant tensor:
#      x y z
#    x 1.916510 -0.040280 0.029140 
#    y -0.040280 2.037170 -0.042250 
#    z 0.029140 -0.042250 1.851620 
# 
# From -- ./inp_files/327411.got.cif
#   From: 2010.05.17/outbox.cif.g08.bks.cpg/sg2_164_cif.got.tgz:327411.got - 2010.06.03 11:33:40.
