data_PCOD9062279
_publ_section_title
;
Structure prediction by ZEFSAII (Michael W. Deem and Ramdas Pophale) SiO2 
 PCOD9062279
Probable space group: P -1
;
_chemical_formula_sum "Si O2"
_cell_formula_units_Z 14
_cell_length_a 17.427265
_cell_length_b 15.100453
_cell_length_c 9.161425
_cell_angle_alpha 50.911654
_cell_angle_beta 38.654871
_cell_angle_gamma 23.106664
_cell_volume 551.822764
_symmetry_space_group_name_H-M "P -1"
_symmetry_group_IT_number 2
_symmetry_cell_setting 'triclinic'
loop_
_space_group_symop_operation_xyz
x,y,z
-x,-y,-z
loop_
_atom_site_type_symbol
_atom_site_label
_atom_site_fract_x
_atom_site_fract_y
_atom_site_fract_z
Si Si1 0.048810 0.334681 0.661159
Si Si2 0.627036 0.637435 0.200481
Si Si3 0.764399 0.517777 0.615358
Si Si4 0.307204 0.746261 0.115989
Si Si5 0.194074 0.743965 0.601063
Si Si6 0.840457 0.875393 0.797233
Si Si7 0.358205 0.204916 0.708896
O O1 0.000000 0.500000 0.500000
O O2 0.901588 0.383031 0.704698
O O3 0.350517 0.063208 0.490852
O O4 0.899153 0.435578 0.926220
O O5 0.625659 0.709223 0.279580
O O6 0.604977 0.518102 0.370519
O O7 0.411283 0.867154 0.175409
O O8 0.775239 0.633554 0.404475
O O9 0.929848 0.311627 0.468272
O O10 0.465321 0.730910 0.855952
O O11 0.310407 0.711241 0.319711
O O12 0.995784 0.019614 0.264247
O O13 0.500000 0.500000 0.000000
O O14 0.964622 0.849746 0.764900
O O15 0.770332 0.803957 0.025288
#
# Coordination Sequence:
#
# PCOD9062279 Si02
#       7
#     2   2   2   2   2   2   2
#     4  12  26  42  65 104 144 180 229 281 334 418
#     4  12  24  45  68 105 143 183 233 280 346 416
#     4  12  25  45  73 102 139 188 230 285 350 403
#     4  11  23  49  73  99 134 179 240 292 341 406
#     4  11  26  45  74  99 134 184 233 291 345 404
#     4  12  23  42  71 102 144 184 226 280 347 414
#     4  12  25  43  70 103 147 188 225 277 349 419
#
# _framework density 25.370463999999998
#
# number of rings (size 3 to 8) (size 9 to 14) (size 15 to 20)
#    0.000    0.286    5.714    3.429    2.000    0.571 
#    0.000    8.571    0.000    0.000    0.000    0.000 
#    0.000    0.000    0.000    0.000    0.000    0.000 
#
# Total GULP energy -78350.365074 kJ/mol
# GULP energy per Si atom -5596.454648 kJ/mol
# Density = 2.531272 g / cm^3
# Si number density = 25.370464 Si / 1000 Ang^3
#
#
#
# Elastic Constant Matrix: (Units=GPa)
#
#
# Indices 1 2 3 4 5 6 
#
# 1 38.5912 4.0126 3.5108 -3.0278 11.7648 12.4065
# 2 4.0126 134.3685 49.3253 0.1278 13.8284 5.7706
# 3 3.5108 49.3253 174.1778 19.2893 -3.5257 19.5669
# 4 -3.0278 0.1278 19.2893 71.9698 15.2239 0.9513
# 5 11.7648 13.8284 -3.5257 15.2239 31.2093 -3.5819
# 6 12.4065 5.7706 19.5669 0.9513 -3.5819 45.4025
#
#
#
# Elastic Compliance Matrix: (Units=1/GPa)
#
#
# Indices 1 2 3 4 5 6 
#
# 1 0.035384 0.001634 -0.000942 0.005741 -0.018235 -0.011030
# 2 0.001634 0.009114 -0.002873 0.002129 -0.006120 -0.000894
# 3 -0.000942 -0.002873 0.007181 -0.002670 0.003496 -0.002140
# 4 0.005741 0.002129 -0.002670 0.017445 -0.012150 -0.002013
# 5 -0.018235 -0.006120 0.003496 -0.012150 0.048910 0.008367
# 6 -0.011030 -0.000894 -0.002140 -0.002013 0.008367 0.026777
#
#
# Mechanical properties :
#
#
# Convention : Reuss Voigt Hill
#
# Bulk Modulus (GPa) = 21.13412 51.20389 36.16901
# Shear Modulus (GPa) = 30.31301 49.06889 39.69095
#
# Velocity S-wave (km/s) = 3.46036 4.40261 3.95961
# Velocity P-wave (km/s) = 4.93090 6.78750 5.93228
#
# Compressibility (1/GPa) = 0.04731685
#
# Stress axis : x y z
#
# Youngs Moduli (GPa) = 28.26147 109.71663 139.25867
#
# Poissons Ratio (x) = -0.17927 0.13116
# Poissons Ratio (y) = -0.04618 0.40013
# Poissons Ratio (z) = 0.02662 0.31524
#
# Static dielectric constant tensor:
#      x y z
#    x 2.196140 0.070850 -0.015500 
#    y 0.070850 2.097450 -0.001000 
#    z -0.015500 -0.001000 1.902060 
# 
# From -- ./inp_files/337437.got.cif
#   From: 2010.05.17/outbox.cif.g08.bks.cpg/sg2_169_cif.got.tgz:337437.got - 2010.06.03 11:33:40.
