data_PCOD9062906
_publ_section_title
;
Structure prediction by ZEFSAII (Michael W. Deem and Ramdas Pophale) SiO2 
 PCOD9062906
Probable space group: P -1
;
_chemical_formula_sum "Si O2"
_cell_formula_units_Z 16
_cell_length_a 12.435896
_cell_length_b 6.661043
_cell_length_c 11.683466
_cell_angle_alpha 109.074275
_cell_angle_beta 112.468083
_cell_angle_gamma 61.789491
_cell_volume 775.319758
_symmetry_space_group_name_H-M "P -1"
_symmetry_group_IT_number 2
_symmetry_cell_setting 'triclinic'
loop_
_space_group_symop_operation_xyz
x,y,z
-x,-y,-z
loop_
_atom_site_type_symbol
_atom_site_label
_atom_site_fract_x
_atom_site_fract_y
_atom_site_fract_z
Si Si1 0.476970 0.754294 0.582439
Si Si2 0.911274 0.935418 0.298095
Si Si3 0.701276 0.852052 0.583564
Si Si4 0.910375 0.386410 0.496672
Si Si5 0.443730 0.771754 0.048179
Si Si6 0.201230 0.927971 0.142101
Si Si7 0.370516 0.984002 0.806486
Si Si8 0.993370 0.254731 0.946907
O O1 0.500000 0.500000 0.500000
O O2 0.598815 0.811318 0.615752
O O3 0.438918 0.781677 0.704839
O O4 0.366825 0.955141 0.504116
O O5 0.951072 0.878100 0.172845
O O6 0.020129 0.757877 0.389635
O O7 0.892126 0.196073 0.372171
O O8 0.778751 0.910069 0.259809
O O9 0.782984 0.603493 0.516687
O O10 0.782539 0.954019 0.712627
O O11 0.000000 0.500000 0.500000
O O12 0.330413 0.847067 0.107856
O O13 0.557108 0.845595 0.145880
O O14 0.500000 0.500000 0.000000
O O15 0.390065 0.895513 0.928308
O O16 0.085380 0.113279 0.059280
O O17 0.150635 0.725632 0.100004
O O18 0.000000 0.500000 0.000000
#
# Coordination Sequence:
#
# PCOD9062906 Si02
#       8
#     2   2   2   2   2   2   2   2
#     4  11  25  42  69  99 134 180 218 277 332 398
#     4  11  24  43  66 104 133 175 229 274 337 399
#     4  11  24  44  66 100 135 173 227 274 336 397
#     4  11  24  43  69  96 136 179 221 281 335 398
#     4  11  26  43  70  96 134 182 218 279 333 397
#     4  11  24  46  65 101 134 169 230 270 336 400
#     4  11  24  45  67 100 136 171 231 269 334 402
#     4  11  25  42  70  98 133 178 218 280 333 396
#
# _framework density 20.636645999999999
#
# number of rings (size 3 to 8) (size 9 to 14) (size 15 to 20)
#    0.000    1.000    2.500    3.000    3.500    7.000 
#    0.000    0.000    0.000    0.000    0.000    0.000 
#    0.000    0.000    0.000    0.000    0.000    0.000 
#
# Total GULP energy -89490.382729 kJ/mol
# GULP energy per Si atom -5593.148921 kJ/mol
# Density = 2.058968 g / cm^3
# Si number density = 20.636646 Si / 1000 Ang^3
#
#
#
# Elastic Constant Matrix: (Units=GPa)
#
#
# Indices 1 2 3 4 5 6 
#
# 1 117.2945 32.9846 37.9364 14.3216 11.2765 5.8116
# 2 32.9846 102.8879 28.1967 30.2244 17.1957 -2.5405
# 3 37.9364 28.1967 97.1986 26.8242 13.9211 1.8171
# 4 14.3216 30.2244 26.8242 25.4433 4.2290 3.9604
# 5 11.2765 17.1957 13.9211 4.2290 35.4091 6.9220
# 6 5.8116 -2.5405 1.8171 3.9604 6.9220 32.5326
#
#
#
# Elastic Compliance Matrix: (Units=1/GPa)
#
#
# Indices 1 2 3 4 5 6 
#
# 1 0.010422 -0.002844 -0.003630 0.001707 -0.000319 -0.002021
# 2 -0.002844 0.017786 0.003119 -0.022519 -0.007451 0.006050
# 3 -0.003630 0.003119 0.016728 -0.018940 -0.005338 0.003399
# 4 0.001707 -0.022519 -0.018940 0.085467 0.010289 -0.013599
# 5 -0.000319 -0.007451 -0.005338 0.010289 0.034558 -0.008832
# 6 -0.002021 0.006050 0.003399 -0.013599 -0.008832 0.034917
#
#
# Mechanical properties :
#
#
# Convention : Reuss Voigt Hill
#
# Bulk Modulus (GPa) = 26.16061 57.29073 41.72567
# Shear Modulus (GPa) = 22.79671 33.22790 28.01230
#
# Velocity S-wave (km/s) = 3.32726 4.01701 3.68830
# Velocity P-wave (km/s) = 5.24073 7.02403 6.19687
#
# Compressibility (1/GPa) = 0.03822541
#
# Stress axis : x y z
#
# Youngs Moduli (GPa) = 95.95195 56.22325 59.77995
#
# Poissons Ratio (x) = 0.15992 0.21701
# Poissons Ratio (y) = 0.27292 -0.18647
# Poissons Ratio (z) = 0.34832 -0.17537
#
# Static dielectric constant tensor:
#      x y z
#    x 1.755660 0.016040 -0.000720 
#    y 0.016040 1.711790 -0.010270 
#    z -0.000720 -0.010270 1.716010 
# 
# From -- ./inp_files/410476.got.cif
#   From: 2010.05.17/outbox.cif.g08.bks.cpg/sg2_206_cif.got.tgz:410476.got - 2010.06.03 11:33:40.
