data_PCOD9062005
_publ_section_title
;
Structure prediction by ZEFSAII (Michael W. Deem and Ramdas Pophale) SiO2 
 PCOD9062005
Probable space group: P -1
;
_chemical_formula_sum "Si O2"
_cell_formula_units_Z 14
_cell_length_a 18.470805
_cell_length_b 10.369867
_cell_length_c 11.969762
_cell_angle_alpha 64.560678
_cell_angle_beta 149.870389
_cell_angle_gamma 137.761530
_cell_volume 604.118405
_symmetry_space_group_name_H-M "P -1"
_symmetry_group_IT_number 2
_symmetry_cell_setting 'triclinic'
loop_
_space_group_symop_operation_xyz
x,y,z
-x,-y,-z
loop_
_atom_site_type_symbol
_atom_site_label
_atom_site_fract_x
_atom_site_fract_y
_atom_site_fract_z
Si Si1 0.602929 0.933019 0.701600
Si Si2 0.605927 0.512886 0.468163
Si Si3 0.193121 0.936743 0.826415
Si Si4 0.253383 0.727355 0.825228
Si Si5 0.847027 0.664473 0.126605
Si Si6 0.152401 0.097990 0.534976
Si Si7 0.002454 0.169828 0.957991
O O1 0.394648 0.642641 0.529645
O O2 0.500000 0.000000 0.500000
O O3 0.811622 0.061990 0.839569
O O4 0.700024 0.005297 0.930339
O O5 0.332415 0.354774 0.147886
O O6 0.754889 0.751749 0.509669
O O7 0.723325 0.579812 0.720155
O O8 0.327390 0.152246 0.835082
O O9 0.175653 0.769914 0.806246
O O10 0.959214 0.853299 0.568295
O O11 0.000000 0.500000 0.500000
O O12 0.306654 0.605491 0.970576
O O13 0.500000 0.000000 0.000000
O O14 0.038958 0.794262 0.232142
O O15 0.970530 0.827275 0.343064
O O16 0.000000 0.000000 0.000000
#
# Coordination Sequence:
#
# PCOD9062005 Si02
#       7
#     2   2   2   2   2   2   2
#     4  12  29  47  69 111 154 205 256 317 400 473
#     4  12  23  44  73 108 145 198 264 312 390 467
#     4  11  24  50  71 108 151 198 252 324 393 469
#     4  12  29  51  75 115 159 203 262 328 409 471
#     4  12  25  45  77 111 147 200 258 325 382 474
#     4  11  23  46  78 107 146 192 263 315 391 459
#     4  12  24  46  72 105 150 192 257 317 381 471
#
# _framework density 23.174265999999999
#
# number of rings (size 3 to 8) (size 9 to 14) (size 15 to 20)
#    0.000    0.286    7.143    1.286    2.000    4.571 
#    0.000    0.000    0.000    0.000    0.000    0.000 
#    0.000    0.000    0.000    0.000    0.000    0.000 
#
# Total GULP energy -78047.616997 kJ/mol
# GULP energy per Si atom -5574.829786 kJ/mol
# Density = 2.312152 g / cm^3
# Si number density = 23.174266 Si / 1000 Ang^3
#
#
#
# Elastic Constant Matrix: (Units=GPa)
#
#
# Indices 1 2 3 4 5 6 
#
# 1 143.5820 51.9784 46.0800 2.6793 -32.2659 -24.2267
# 2 51.9784 172.7081 37.3736 -13.8935 -10.6026 -20.6865
# 3 46.0800 37.3736 76.7310 -13.4307 -15.8558 -17.4667
# 4 2.6793 -13.8935 -13.4307 43.6712 -2.5633 -1.1281
# 5 -32.2659 -10.6026 -15.8558 -2.5633 32.3609 2.6012
# 6 -24.2267 -20.6865 -17.4667 -1.1281 2.6012 44.8838
#
#
#
# Elastic Compliance Matrix: (Units=1/GPa)
#
#
# Indices 1 2 3 4 5 6 
#
# 1 0.011309 -0.001835 -0.003733 -0.001846 0.008437 0.003271
# 2 -0.001835 0.007036 -0.001693 0.001853 -0.000340 0.001660
# 3 -0.003733 -0.001693 0.019288 0.006050 0.005286 0.004556
# 4 -0.001846 0.001853 0.006050 0.025739 0.003556 0.002653
# 5 0.008437 -0.000340 0.005286 0.003556 0.041742 0.004124
# 6 0.003271 0.001660 0.004556 0.002653 0.004124 0.026411
#
#
# Mechanical properties :
#
#
# Convention : Reuss Voigt Hill
#
# Bulk Modulus (GPa) = 43.27087 73.76502 58.51795
# Shear Modulus (GPa) = 32.52032 41.35578 36.93805
#
# Velocity S-wave (km/s) = 3.75012 4.22898 3.99673
# Velocity P-wave (km/s) = 6.12076 7.46629 6.82675
#
# Compressibility (1/GPa) = 0.02311023
#
# Stress axis : x y z
#
# Youngs Moduli (GPa) = 88.42458 142.13334 51.84640
#
# Poissons Ratio (x) = 0.26075 0.19356
# Poissons Ratio (y) = 0.16222 0.08779
# Poissons Ratio (z) = 0.33011 0.24068
#
# Static dielectric constant tensor:
#      x y z
#    x 2.031080 0.092260 0.028400 
#    y 0.092260 1.908580 0.041100 
#    z 0.028400 0.041100 1.986710 
# 
# From -- ./inp_files/70513.got.cif
#   From: 2010.05.17/outbox.cif.g08.bks.cpg/sg2_36_cif.got.tgz:70513.got - 2010.06.03 11:33:40.
