data_PCOD9062390
_publ_section_title
;
Structure prediction by ZEFSAII (Michael W. Deem and Ramdas Pophale) SiO2 
 PCOD9062390
Probable space group: P -1
;
_chemical_formula_sum "Si O2"
_cell_formula_units_Z 14
_cell_length_a 5.496644
_cell_length_b 9.184224
_cell_length_c 12.623576
_cell_angle_alpha 83.402202
_cell_angle_beta 95.640207
_cell_angle_gamma 91.884777
_cell_volume 629.832872
_symmetry_space_group_name_H-M "P -1"
_symmetry_group_IT_number 2
_symmetry_cell_setting 'triclinic'
loop_
_space_group_symop_operation_xyz
x,y,z
-x,-y,-z
loop_
_atom_site_type_symbol
_atom_site_label
_atom_site_fract_x
_atom_site_fract_y
_atom_site_fract_z
Si Si1 0.026179 0.034966 0.730048
Si Si2 0.254487 0.407350 0.028114
Si Si3 0.685899 0.092926 0.423984
Si Si4 0.927587 0.291417 0.590389
Si Si5 0.324577 0.234365 0.255733
Si Si6 0.754408 0.919032 0.045973
Si Si7 0.277180 0.404991 0.454822
O O1 0.218423 0.069144 0.826864
O O2 0.879560 0.184640 0.694302
O O3 0.104940 0.001143 0.614621
O O4 0.862824 0.896684 0.768327
O O5 0.304535 0.354127 0.154741
O O6 0.500000 0.500000 0.000000
O O7 0.243896 0.251843 0.976332
O O8 0.000000 0.500000 0.000000
O O9 0.776119 0.228588 0.488650
O O10 0.574731 0.156099 0.303850
O O11 0.500000 0.000000 0.500000
O O12 0.895044 0.461725 0.596650
O O13 0.202728 0.299786 0.557315
O O14 0.276849 0.306008 0.360755
O O15 0.500000 0.000000 0.000000
O O16 0.000000 0.000000 0.000000
O O17 0.500000 0.500000 0.500000
#
# Coordination Sequence:
#
# PCOD9062390 Si02
#       7
#     2   2   2   2   2   2   2
#     4  12  26  43  76 102 145 194 252 309 386 448
#     4  12  30  53  79 112 155 203 265 332 397 465
#     4  12  23  42  72 108 145 185 246 305 373 461
#     4  11  24  40  64 103 143 185 240 291 360 457
#     4  12  25  45  75  99 144 200 245 306 387 446
#     4  12  27  53  81 114 151 198 269 334 388 460
#     4  11  24  42  63  99 148 188 231 293 364 451
#
# _framework density 22.228121999999999
#
# number of rings (size 3 to 8) (size 9 to 14) (size 15 to 20)
#    0.000    0.286    5.714    3.000    4.000    1.143 
#    0.000    0.000    0.000    0.000    0.000    0.000 
#    0.000    0.000    0.000    0.000    0.000    0.000 
#
# Total GULP energy -78028.845934 kJ/mol
# GULP energy per Si atom -5573.488995 kJ/mol
# Density = 2.217753 g / cm^3
# Si number density = 22.228122 Si / 1000 Ang^3
#
#
#
# Elastic Constant Matrix: (Units=GPa)
#
#
# Indices 1 2 3 4 5 6 
#
# 1 85.1898 44.1254 15.1035 -13.3240 9.8639 8.5593
# 2 44.1254 144.7727 11.0472 -3.1712 2.0309 4.4915
# 3 15.1035 11.0472 84.4322 -9.9535 25.1387 -6.3203
# 4 -13.3240 -3.1712 -9.9535 54.0755 6.4150 -3.8294
# 5 9.8639 2.0309 25.1387 6.4150 34.5927 -3.1409
# 6 8.5593 4.4915 -6.3203 -3.8294 -3.1409 43.3989
#
#
#
# Elastic Compliance Matrix: (Units=1/GPa)
#
#
# Indices 1 2 3 4 5 6 
#
# 1 0.015571 -0.004471 -0.000535 0.003849 -0.004747 -0.002690
# 2 -0.004471 0.008296 -0.000883 -0.000973 0.001603 -0.000075
# 3 -0.000535 -0.000883 0.016417 0.004452 -0.012362 0.002086
# 4 0.003849 -0.000973 0.004452 0.021255 -0.008101 0.001279
# 5 -0.004747 0.001603 -0.012362 -0.008101 0.040762 0.001205
# 6 -0.002690 -0.000075 0.002086 0.001279 0.001205 0.024084
#
#
# Mechanical properties :
#
#
# Convention : Reuss Voigt Hill
#
# Bulk Modulus (GPa) = 35.08083 50.54966 42.81524
# Shear Modulus (GPa) = 33.86039 42.68800 38.27420
#
# Velocity S-wave (km/s) = 3.90720 4.38705 4.15406
# Velocity P-wave (km/s) = 6.01426 6.96077 6.50475
#
# Compressibility (1/GPa) = 0.02850560
#
# Stress axis : x y z
#
# Youngs Moduli (GPa) = 64.22279 120.54085 60.91332
#
# Poissons Ratio (x) = 0.53890 0.03258
# Poissons Ratio (y) = 0.28712 0.05382
# Poissons Ratio (z) = 0.03435 0.10650
#
# Static dielectric constant tensor:
#      x y z
#    x 2.118190 -0.145090 0.167840 
#    y -0.145090 1.877330 -0.210640 
#    z 0.167840 -0.210640 1.790860 
# 
# From -- ./inp_files/28211.got.cif
#   From: 2010.05.17/outbox.cif.g08.bks.cpg/sg2_15_cif.got.tgz:28211.got - 2010.06.03 11:33:40.
