data_PCOD9062136
_publ_section_title
;
Structure prediction by ZEFSAII (Michael W. Deem and Ramdas Pophale) SiO2 
 PCOD9062136
Probable space group: P -1
;
_chemical_formula_sum "Si O2"
_cell_formula_units_Z 15
_cell_length_a 9.970751
_cell_length_b 19.412320
_cell_length_c 5.397944
_cell_angle_alpha 116.137646
_cell_angle_beta 118.630583
_cell_angle_gamma 40.735081
_cell_volume 592.936248
_symmetry_space_group_name_H-M "P -1"
_symmetry_group_IT_number 2
_symmetry_cell_setting 'triclinic'
loop_
_space_group_symop_operation_xyz
x,y,z
-x,-y,-z
loop_
_atom_site_type_symbol
_atom_site_label
_atom_site_fract_x
_atom_site_fract_y
_atom_site_fract_z
Si Si1 0.668148 0.118653 0.344339
Si Si2 0.205904 0.792274 0.019294
Si Si3 0.035471 0.257357 0.046103
Si Si4 0.000000 0.000000 0.000000
Si Si5 0.732797 0.732719 0.100645
Si Si6 0.458121 0.082470 0.407156
Si Si7 0.651421 0.594114 0.884052
Si Si8 0.850315 0.477879 0.370909
O O1 0.736350 0.155874 0.669900
O O2 0.651775 0.042663 0.346519
O O3 0.431878 0.219909 0.199543
O O4 0.826415 0.060296 0.165690
O O5 0.018990 0.896822 0.864397
O O6 0.406275 0.701635 0.882126
O O7 0.141601 0.743289 0.054089
O O8 0.253811 0.143217 0.150792
O O9 0.980861 0.353542 0.304015
O O10 0.082048 0.276032 0.845545
O O11 0.599481 0.823364 0.330063
O O12 0.782939 0.629038 0.058274
O O13 0.500000 0.000000 0.500000
O O14 0.704668 0.538730 0.579754
O O15 0.717916 0.521927 0.067295
O O16 0.000000 0.500000 0.500000
#
# Coordination Sequence:
#
# PCOD9062136 Si02
#       8
#     2   2   2   1   2   2   2   2
#     4  11  24  47  72 104 151 199 253 303 383 461
#     4  12  28  47  73 112 151 198 244 320 381 462
#     4  11  29  45  74 116 149 189 261 314 380 453
#     4  12  26  44  72 106 148 200 252 296 386 460
#     4  11  23  47  75 109 143 201 252 310 376 458
#     4  11  26  46  77 107 150 196 249 320 379 457
#     4  12  25  48  82 104 154 201 255 311 390 456
#     4  12  26  48  80 114 145 204 259 321 376 459
#
# _framework density 25.297827000000002
#
# number of rings (size 3 to 8) (size 9 to 14) (size 15 to 20)
#    0.000    0.533    4.000    2.400    7.467    3.200 
#    0.000    0.000    0.000    0.000    0.000    0.000 
#    0.000    0.000    0.000    0.000    0.000    0.000 
#
# Total GULP energy -83815.356926 kJ/mol
# GULP energy per Si atom -5587.690462 kJ/mol
# Density = 2.524025 g / cm^3
# Si number density = 25.297827 Si / 1000 Ang^3
#
#
#
# Elastic Constant Matrix: (Units=GPa)
#
#
# Indices 1 2 3 4 5 6 
#
# 1 203.5922 53.7607 30.3570 22.5565 -41.1686 15.7124
# 2 53.7607 113.1746 34.5267 10.5223 -14.6697 18.7004
# 3 30.3570 34.5267 58.1993 10.4181 -30.6747 -5.5719
# 4 22.5565 10.5223 10.4181 41.7703 -3.3265 -10.2093
# 5 -41.1686 -14.6697 -30.6747 -3.3265 48.8978 6.5017
# 6 15.7124 18.7004 -5.5719 -10.2093 6.5017 41.5327
#
#
#
# Elastic Compliance Matrix: (Units=1/GPa)
#
#
# Indices 1 2 3 4 5 6 
#
# 1 0.007333 -0.001989 0.001184 -0.004154 0.006538 -0.003764
# 2 -0.001989 0.013266 -0.008219 -0.001969 -0.002124 -0.006475
# 3 0.001184 -0.008219 0.031917 -0.004205 0.017773 0.003719
# 4 -0.004154 -0.001969 -0.004205 0.029727 -0.006053 0.010149
# 5 0.006538 -0.002124 0.017773 -0.006053 0.036907 -0.006398
# 6 -0.003764 -0.006475 0.003719 0.010149 -0.006398 0.032412
#
#
# Mechanical properties :
#
#
# Convention : Reuss Voigt Hill
#
# Bulk Modulus (GPa) = 29.01274 68.02833 48.52053
# Shear Modulus (GPa) = 27.60912 43.52827 35.56869
#
# Velocity S-wave (km/s) = 3.30716 4.15255 3.75373
# Velocity P-wave (km/s) = 5.10651 7.06689 6.16512
#
# Compressibility (1/GPa) = 0.03446761
#
# Stress axis : x y z
#
# Youngs Moduli (GPa) = 136.36511 75.38103 31.33125
#
# Poissons Ratio (x) = 0.14994 -0.03710
# Poissons Ratio (y) = 0.27124 0.25752
# Poissons Ratio (z) = -0.16147 0.61958
#
# Static dielectric constant tensor:
#      x y z
#    x 1.993430 -0.047620 0.028660 
#    y -0.047620 2.190780 -0.178790 
#    z 0.028660 -0.178790 2.095110 
# 
# From -- ./inp_files/45537.got.cif
#   From: 2010.05.17/outbox.cif.g08.bks.cpg/sg2_23_cif.got.tgz:45537.got - 2010.06.03 11:33:40.
