data_PCOD9062172
_publ_section_title
;
Structure prediction by ZEFSAII (Michael W. Deem and Ramdas Pophale) SiO2 
 PCOD9062172
Probable space group: P -1
;
_chemical_formula_sum "Si O2"
_cell_formula_units_Z 13
_cell_length_a 10.830848
_cell_length_b 9.272781
_cell_length_c 13.609722
_cell_angle_alpha 52.623121
_cell_angle_beta 147.121534
_cell_angle_gamma 137.909023
_cell_volume 496.884402
_symmetry_space_group_name_H-M "P -1"
_symmetry_group_IT_number 2
_symmetry_cell_setting 'triclinic'
loop_
_space_group_symop_operation_xyz
x,y,z
-x,-y,-z
loop_
_atom_site_type_symbol
_atom_site_label
_atom_site_fract_x
_atom_site_fract_y
_atom_site_fract_z
Si Si1 0.272375 0.043260 0.868342
Si Si2 0.394532 0.943767 0.617817
Si Si3 0.871717 0.342453 0.696852
Si Si4 0.316087 0.182553 0.640191
Si Si5 0.000000 0.500000 0.500000
Si Si6 0.680610 0.744000 0.983332
Si Si7 0.143765 0.440390 0.207064
O O1 0.989845 0.814230 0.769007
O O2 0.336795 0.217555 0.756732
O O3 0.500000 0.000000 0.000000
O O4 0.290963 0.120416 0.958228
O O5 0.523711 0.796434 0.776468
O O6 0.103236 0.760855 0.461018
O O7 0.563717 0.143044 0.576153
O O8 0.413708 0.054402 0.689662
O O9 0.959567 0.484284 0.599529
O O10 0.921180 0.490083 0.762593
O O11 0.045615 0.233823 0.875808
O O12 0.534274 0.423527 0.650371
O O13 0.000000 0.000000 0.500000
O O14 0.500000 0.500000 0.000000
O O15 0.000000 0.500000 0.000000
#
# Coordination Sequence:
#
# PCOD9062172 Si02
#       7
#     2   2   2   2   1   2   2
#     4  12  22  44  72 101 139 190 245 298 358 428
#     4  11  24  46  68 101 146 189 242 301 358 435
#     4  11  25  45  73 107 144 187 246 297 374 429
#     4  11  26  44  71 104 145 187 243 303 368 438
#     4  12  24  44  68  98 150 192 224 294 372 436
#     4  12  24  44  72 107 142 193 245 304 355 434
#     4  11  23  47  79 104 139 191 247 308 359 436
#
# _framework density 26.163028000000001
#
# number of rings (size 3 to 8) (size 9 to 14) (size 15 to 20)
#    0.000    0.615    4.615    3.692    2.154    0.615 
#    2.769    0.000    0.000    0.000    0.000    0.000 
#    0.000    0.000    0.000    0.000    0.000    0.000 
#
# Total GULP energy -72435.431458 kJ/mol
# GULP energy per Si atom -5571.956266 kJ/mol
# Density = 2.610348 g / cm^3
# Si number density = 26.163028 Si / 1000 Ang^3
#
#
#
# Elastic Constant Matrix: (Units=GPa)
#
#
# Indices 1 2 3 4 5 6 
#
# 1 125.6759 31.4618 39.3681 8.4088 -10.5783 8.5858
# 2 31.4618 149.8880 -3.3019 24.6583 2.1612 24.5427
# 3 39.3681 -3.3019 48.9795 -12.2762 -7.8634 13.4113
# 4 8.4088 24.6583 -12.2762 35.3881 2.8401 -11.0936
# 5 -10.5783 2.1612 -7.8634 2.8401 54.2443 6.4958
# 6 8.5858 24.5427 13.4113 -11.0936 6.4958 55.2501
#
#
#
# Elastic Compliance Matrix: (Units=1/GPa)
#
#
# Indices 1 2 3 4 5 6 
#
# 1 0.012511 -0.002099 -0.011543 -0.005419 0.001065 0.000576
# 2 -0.002099 0.009267 0.002235 -0.007057 0.000612 -0.005822
# 3 -0.011543 0.002235 0.034656 0.011201 0.002779 -0.005689
# 4 -0.005419 -0.007057 0.011201 0.041661 -0.002521 0.009920
# 5 0.001065 0.000612 0.002779 -0.002521 0.019623 -0.003925
# 6 0.000576 -0.005822 -0.005689 0.009920 -0.003925 0.024430
#
#
# Mechanical properties :
#
#
# Convention : Reuss Voigt Hill
#
# Bulk Modulus (GPa) = 29.74260 51.06658 40.40459
# Shear Modulus (GPa) = 28.38200 46.11084 37.24642
#
# Velocity S-wave (km/s) = 3.29722 4.20270 3.77719
# Velocity P-wave (km/s) = 5.08807 6.56591 5.87366
#
# Compressibility (1/GPa) = 0.03362181
#
# Stress axis : x y z
#
# Youngs Moduli (GPa) = 79.93041 107.91181 28.85487
#
# Poissons Ratio (x) = 0.22645 0.33306
# Poissons Ratio (y) = 0.16773 -0.06449
# Poissons Ratio (z) = 0.92260 -0.24118
#
# Static dielectric constant tensor:
#      x y z
#    x 2.383070 -0.154650 0.700520 
#    y -0.154650 2.105690 -0.031450 
#    z 0.700520 -0.031450 3.047750 
# 
# From -- ./inp_files/378495.got.cif
#   From: 2010.05.17/outbox.cif.g08.bks.cpg/sg2_190_cif.got.tgz:378495.got - 2010.06.03 11:33:40.
