data_PCOD9062199
_publ_section_title
;
Structure prediction by ZEFSAII (Michael W. Deem and Ramdas Pophale) SiO2 
 PCOD9062199
Probable space group: P -1
;
_chemical_formula_sum "Si O2"
_cell_formula_units_Z 16
_cell_length_a 17.807894
_cell_length_b 13.399153
_cell_length_c 9.668021
_cell_angle_alpha 36.342090
_cell_angle_beta 68.750869
_cell_angle_gamma 42.784390
_cell_volume 764.073090
_symmetry_space_group_name_H-M "P -1"
_symmetry_group_IT_number 2
_symmetry_cell_setting 'triclinic'
loop_
_space_group_symop_operation_xyz
x,y,z
-x,-y,-z
loop_
_atom_site_type_symbol
_atom_site_label
_atom_site_fract_x
_atom_site_fract_y
_atom_site_fract_z
Si Si1 0.743506 0.710081 0.128847
Si Si2 0.371461 0.180271 0.213599
Si Si3 0.293519 0.670325 0.798324
Si Si4 0.366130 0.613966 0.104792
Si Si5 0.685282 0.663529 0.514242
Si Si6 0.583942 0.306602 0.527821
Si Si7 0.035391 0.327072 0.303028
Si Si8 0.232745 0.183717 0.518923
O O1 0.689751 0.704735 0.304702
O O2 0.903749 0.450194 0.303197
O O3 0.684490 0.735675 0.997787
O O4 0.691711 0.988602 0.854879
O O5 0.323970 0.099372 0.424643
O O6 0.532252 0.933094 0.374708
O O7 0.301417 0.457439 0.022975
O O8 0.348667 0.648229 0.642193
O O9 0.152625 0.997657 0.555745
O O10 0.388415 0.568812 0.975262
O O11 0.275322 0.598226 0.204245
O O12 0.487650 0.389788 0.380616
O O13 0.299315 0.906322 0.851150
O O14 0.771604 0.657165 0.546813
O O15 0.500000 0.500000 0.500000
O O16 0.095808 0.348919 0.355749
O O17 0.000000 0.500000 0.000000
#
# Coordination Sequence:
#
# PCOD9062199 Si02
#       8
#     2   2   2   2   2   2   2   2
#     4  12  25  45  67  99 142 183 217 284 339 400
#     4  12  23  41  70 104 138 172 226 288 339 404
#     4  11  24  41  70  99 132 182 234 271 336 403
#     4  11  24  41  68 101 137 182 217 282 344 401
#     4  12  26  42  67 108 141 171 226 281 355 400
#     4  12  24  40  68 103 140 173 220 279 352 408
#     4  11  23  48  70  94 133 188 233 272 328 404
#     4  11  24  45  71  98 136 181 232 277 332 408
#
# _framework density 20.940405999999999
#
# number of rings (size 3 to 8) (size 9 to 14) (size 15 to 20)
#    0.000    0.500    5.000    4.125    3.500    1.000 
#    0.000    2.500    0.000    0.000    0.000    0.000 
#    0.000    0.000    0.000    0.000    0.000    0.000 
#
# Total GULP energy -89490.729793 kJ/mol
# GULP energy per Si atom -5593.170612 kJ/mol
# Density = 2.089274 g / cm^3
# Si number density = 20.940406 Si / 1000 Ang^3
#
#
#
# Elastic Constant Matrix: (Units=GPa)
#
#
# Indices 1 2 3 4 5 6 
#
# 1 87.5763 16.8198 40.9834 -12.2062 -6.1195 10.9148
# 2 16.8198 82.4095 38.1591 6.0095 3.3378 7.1251
# 3 40.9834 38.1591 111.3068 4.3091 -14.4350 -2.2792
# 4 -12.2062 6.0095 4.3091 34.4140 -3.8709 -4.4872
# 5 -6.1195 3.3378 -14.4350 -3.8709 44.7336 -1.9662
# 6 10.9148 7.1251 -2.2792 -4.4872 -1.9662 28.3666
#
#
#
# Elastic Compliance Matrix: (Units=1/GPa)
#
#
# Indices 1 2 3 4 5 6 
#
# 1 0.015808 -0.000446 -0.005934 0.005772 0.000539 -0.005497
# 2 -0.000446 0.015643 -0.005635 -0.003231 -0.003545 -0.004967
# 3 -0.005934 -0.005635 0.013802 -0.001757 0.004122 0.004815
# 4 0.005772 -0.003231 -0.001757 0.032785 0.003471 0.003876
# 5 0.000539 -0.003545 0.004122 0.003471 0.024467 0.003259
# 6 -0.005497 -0.004967 0.004815 0.003876 0.003259 0.039841
#
#
# Mechanical properties :
#
#
# Convention : Reuss Voigt Hill
#
# Bulk Modulus (GPa) = 47.11716 52.57968 49.84842
# Shear Modulus (GPa) = 28.82643 33.85819 31.34231
#
# Velocity S-wave (km/s) = 3.71427 4.02541 3.87297
# Velocity P-wave (km/s) = 6.39874 6.83878 6.62242
#
# Compressibility (1/GPa) = 0.02122369
#
# Stress axis : x y z
#
# Youngs Moduli (GPa) = 63.25735 63.92446 72.45298
#
# Poissons Ratio (x) = 0.02853 0.42992
# Poissons Ratio (y) = 0.02824 0.40827
# Poissons Ratio (z) = 0.37536 0.36021
#
# Static dielectric constant tensor:
#      x y z
#    x 1.759960 0.014400 -0.013240 
#    y 0.014400 1.738930 0.002600 
#    z -0.013240 0.002600 1.744950 
# 
# From -- ./inp_files/332733.got.cif
#   From: 2010.05.17/outbox.cif.g08.bks.cpg/sg2_167_cif.got.tgz:332733.got - 2010.06.03 11:33:40.
