data_PCOD9062265
_publ_section_title
;
Structure prediction by ZEFSAII (Michael W. Deem and Ramdas Pophale) SiO2 
 PCOD9062265
Probable space group: P -1
;
_chemical_formula_sum "Si O2"
_cell_formula_units_Z 14
_cell_length_a 11.157513
_cell_length_b 9.743466
_cell_length_c 7.787333
_cell_angle_alpha 119.255046
_cell_angle_beta 85.399604
_cell_angle_gamma 58.816447
_cell_volume 565.409315
_symmetry_space_group_name_H-M "P -1"
_symmetry_group_IT_number 2
_symmetry_cell_setting 'triclinic'
loop_
_space_group_symop_operation_xyz
x,y,z
-x,-y,-z
loop_
_atom_site_type_symbol
_atom_site_label
_atom_site_fract_x
_atom_site_fract_y
_atom_site_fract_z
Si Si1 0.163422 0.639532 0.799489
Si Si2 0.488187 0.327733 0.428755
Si Si3 0.601860 0.077062 0.930977
Si Si4 0.387752 0.057454 0.704016
Si Si5 0.208764 0.836052 0.234141
Si Si6 0.892370 0.281849 0.532374
Si Si7 0.866715 0.667769 0.863805
O O1 0.333880 0.421890 0.614583
O O2 0.133591 0.741349 0.677528
O O3 0.029255 0.623463 0.831554
O O4 0.171016 0.757164 0.024948
O O5 0.500000 0.500000 0.500000
O O6 0.625873 0.119423 0.382346
O O7 0.496871 0.252065 0.190698
O O8 0.496216 0.035987 0.829747
O O9 0.652789 0.165554 0.841270
O O10 0.755063 0.868450 0.874217
O O11 0.500000 0.000000 0.500000
O O12 0.219469 0.267523 0.900598
O O13 0.224029 0.707585 0.315859
O O14 0.063984 0.074397 0.433183
O O15 0.884067 0.477349 0.672805
#
# Coordination Sequence:
#
# PCOD9062265 Si02
#       7
#     2   2   2   2   2   2   2
#     4  12  24  45  75 103 142 185 235 286 356 419
#     4  11  24  44  73 103 138 187 232 284 354 423
#     4  11  23  49  68 101 143 186 234 287 351 428
#     4  11  27  46  70 104 141 184 233 292 352 419
#     4  11  26  42  70 105 142 179 235 292 346 413
#     4  11  25  43  67 106 137 185 232 292 347 407
#     4  11  25  46  74  98 139 189 233 284 358 415
#
# _framework density 24.760822999999998
#
# number of rings (size 3 to 8) (size 9 to 14) (size 15 to 20)
#    0.000    0.857    2.857    4.286    4.000    4.000 
#    0.000    2.143    0.000    0.000    0.000    0.000 
#    0.000    0.000    0.000    0.000    0.000    0.000 
#
# Total GULP energy -78343.315775 kJ/mol
# GULP energy per Si atom -5595.951127 kJ/mol
# Density = 2.470447 g / cm^3
# Si number density = 24.760823 Si / 1000 Ang^3
#
#
#
# Elastic Constant Matrix: (Units=GPa)
#
#
# Indices 1 2 3 4 5 6 
#
# 1 109.5306 39.6449 41.9162 0.6144 -8.0962 33.0310
# 2 39.6449 97.2642 49.3409 -8.7865 13.9498 27.2055
# 3 41.9162 49.3409 156.4982 -6.1169 -5.4348 18.2090
# 4 0.6144 -8.7865 -6.1169 49.4812 7.9612 -11.7938
# 5 -8.0962 13.9498 -5.4348 7.9612 41.9850 -0.3608
# 6 33.0310 27.2055 18.2090 -11.7938 -0.3608 37.6296
#
#
#
# Elastic Compliance Matrix: (Units=1/GPa)
#
#
# Indices 1 2 3 4 5 6 
#
# 1 0.014531 -0.002964 -0.001685 -0.004246 0.004279 -0.011087
# 2 -0.002964 0.016535 -0.003773 0.001968 -0.006987 -0.006977
# 3 -0.001685 -0.003773 0.008061 0.000120 0.001953 0.000362
# 4 -0.004246 0.001968 0.000120 0.023882 -0.005903 0.009675
# 5 0.004279 -0.006987 0.001953 -0.005903 0.028326 -0.001228
# 6 -0.011087 -0.006977 0.000362 0.009675 -0.001228 0.044196
#
#
# Mechanical properties :
#
#
# Convention : Reuss Voigt Hill
#
# Bulk Modulus (GPa) = 44.87865 69.45522 57.16693
# Shear Modulus (GPa) = 31.28843 41.31189 36.30016
#
# Velocity S-wave (km/s) = 3.55861 4.08908 3.83303
# Velocity P-wave (km/s) = 5.92023 7.09968 6.53661
#
# Compressibility (1/GPa) = 0.02228231
#
# Stress axis : x y z
#
# Youngs Moduli (GPa) = 68.81813 60.47804 124.05376
#
# Poissons Ratio (x) = 0.17929 0.20900
# Poissons Ratio (y) = 0.20401 0.46807
# Poissons Ratio (z) = 0.11594 0.22819
#
# Static dielectric constant tensor:
#      x y z
#    x 1.911760 -0.023070 -0.107350 
#    y -0.023070 2.059340 -0.075060 
#    z -0.107350 -0.075060 1.820130 
# 
# From -- ./inp_files/245409.got.cif
#   From: 2010.05.17/outbox.cif.g08.bks.cpg/sg2_123_cif.got.tgz:245409.got - 2010.06.03 11:33:40.
