data_PCOD9062823
_publ_section_title
;
Structure prediction by ZEFSAII (Michael W. Deem and Ramdas Pophale) SiO2 
 PCOD9062823
Probable space group: P -1
;
_chemical_formula_sum "Si O2"
_cell_formula_units_Z 14
_cell_length_a 11.210080
_cell_length_b 20.229069
_cell_length_c 14.121759
_cell_angle_alpha 160.775713
_cell_angle_beta 147.154523
_cell_angle_gamma 33.115398
_cell_volume 554.039732
_symmetry_space_group_name_H-M "P -1"
_symmetry_group_IT_number 2
_symmetry_cell_setting 'triclinic'
loop_
_space_group_symop_operation_xyz
x,y,z
-x,-y,-z
loop_
_atom_site_type_symbol
_atom_site_label
_atom_site_fract_x
_atom_site_fract_y
_atom_site_fract_z
Si Si1 0.215268 0.512248 0.096727
Si Si2 0.535469 0.971237 0.840100
Si Si3 0.422357 0.664789 0.755911
Si Si4 0.659001 0.580855 0.288008
Si Si5 0.115022 0.241769 0.491119
Si Si6 0.101894 0.990702 0.659004
Si Si7 0.081019 0.863405 0.082396
O O1 0.452200 0.403230 0.155012
O O2 0.195783 0.752614 0.421582
O O3 0.181123 0.404539 0.828991
O O4 0.000000 0.500000 0.000000
O O5 0.518214 0.746247 0.490751
O O6 0.330806 0.073450 0.913723
O O7 0.804399 0.930256 0.985910
O O8 0.501579 0.132102 0.949733
O O9 0.500000 0.500000 0.500000
O O10 0.153243 0.708296 0.637702
O O11 0.787247 0.713540 0.485076
O O12 0.500000 0.500000 0.000000
O O13 0.810948 0.383001 0.178922
O O14 0.170090 0.014355 0.272943
O O15 0.900156 0.082875 0.721672
O O16 0.000000 0.000000 0.500000
#
# Coordination Sequence:
#
# PCOD9062823 Si02
#       7
#     2   2   2   2   2   2   2
#     4  12  21  40  69 104 143 183 235 297 366 418
#     4  11  26  47  69 105 146 188 241 298 361 434
#     4  11  24  42  72 107 142 184 239 300 365 427
#     4  12  28  50  71 105 148 195 242 297 364 438
#     4  11  26  47  72 106 147 190 246 301 356 441
#     4  12  24  42  73 107 142 186 240 307 361 427
#     4  11  25  46  75 104 141 190 244 299 367 425
#
# _framework density 25.268944999999999
#
# number of rings (size 3 to 8) (size 9 to 14) (size 15 to 20)
#    0.000    0.571    2.857    5.143    6.000    2.857 
#    5.143    0.000    0.000    0.000    0.000    0.000 
#    0.000    0.000    0.000    0.000    0.000    0.000 
#
# Total GULP energy -78287.963529 kJ/mol
# GULP energy per Si atom -5591.997395 kJ/mol
# Density = 2.521143 g / cm^3
# Si number density = 25.268945 Si / 1000 Ang^3
#
#
#
# Elastic Constant Matrix: (Units=GPa)
#
#
# Indices 1 2 3 4 5 6 
#
# 1 123.0270 9.0975 7.2740 19.5449 16.3984 -12.1256
# 2 9.0975 106.5735 14.3385 11.6048 7.8317 9.9390
# 3 7.2740 14.3385 75.9779 14.0909 5.3111 -10.5441
# 4 19.5449 11.6048 14.0909 55.0779 0.1119 -2.4811
# 5 16.3984 7.8317 5.3111 0.1119 40.2732 -1.3135
# 6 -12.1256 9.9390 -10.5441 -2.4811 -1.3135 22.3920
#
#
#
# Elastic Compliance Matrix: (Units=1/GPa)
#
#
# Indices 1 2 3 4 5 6 
#
# 1 0.009681 -0.000822 0.000839 -0.003225 -0.003707 0.005427
# 2 -0.000822 0.010697 -0.002442 -0.001632 -0.001635 -0.006620
# 3 0.000839 -0.002442 0.015435 -0.003353 -0.001621 0.008339
# 4 -0.003225 -0.001632 -0.003353 0.020488 0.002009 -0.000212
# 5 -0.003707 -0.001635 -0.001621 0.002009 0.026858 -0.000247
# 6 0.005427 -0.006620 0.008339 -0.000212 -0.000247 0.054425
#
#
# Mechanical properties :
#
#
# Convention : Reuss Voigt Hill
#
# Bulk Modulus (GPa) = 32.29695 40.77760 36.53727
# Shear Modulus (GPa) = 32.73232 41.87318 37.30275
#
# Velocity S-wave (km/s) = 3.60301 4.07517 3.84634
# Velocity P-wave (km/s) = 5.48798 6.18992 5.84949
#
# Compressibility (1/GPa) = 0.03096268
#
# Stress axis : x y z
#
# Youngs Moduli (GPa) = 103.29784 93.48326 64.78925
#
# Poissons Ratio (x) = 0.07683 -0.05433
# Poissons Ratio (y) = 0.08489 0.15820
# Poissons Ratio (z) = -0.08663 0.22826
#
# Static dielectric constant tensor:
#      x y z
#    x 2.055600 0.041790 -0.004650 
#    y 0.041790 1.962510 -0.078620 
#    z -0.004650 -0.078620 2.026690 
# 
# From -- ./inp_files/457591.got.cif
#   From: 2010.05.17/outbox.cif.g08.bks.cpg/sg2_229_cif.got.tgz:457591.got - 2010.06.03 11:33:40.
