data_PCOD9062412
_publ_section_title
;
Structure prediction by ZEFSAII (Michael W. Deem and Ramdas Pophale) SiO2 
 PCOD9062412
Probable space group: P -1
;
_chemical_formula_sum "Si O2"
_cell_formula_units_Z 16
_cell_length_a 24.752671
_cell_length_b 6.176203
_cell_length_c 11.076096
_cell_angle_alpha 109.116532
_cell_angle_beta 32.524418
_cell_angle_gamma 123.701601
_cell_volume 719.153728
_symmetry_space_group_name_H-M "P -1"
_symmetry_group_IT_number 2
_symmetry_cell_setting 'triclinic'
loop_
_space_group_symop_operation_xyz
x,y,z
-x,-y,-z
loop_
_atom_site_type_symbol
_atom_site_label
_atom_site_fract_x
_atom_site_fract_y
_atom_site_fract_z
Si Si1 0.390989 0.043304 0.206084
Si Si2 0.160467 0.376548 0.189631
Si Si3 0.361697 0.319182 0.685947
Si Si4 0.295466 0.786290 0.585467
Si Si5 0.080862 0.103978 0.547200
Si Si6 0.455561 0.585799 0.309236
Si Si7 0.947749 0.697925 0.108346
Si Si8 0.716430 0.019963 0.864867
O O1 0.440028 0.356551 0.204790
O O2 0.298297 0.883278 0.460743
O O3 0.328821 0.954508 0.177137
O O4 0.500000 0.000000 0.000000
O O5 0.110398 0.280949 0.402210
O O6 0.218997 0.699036 0.131967
O O7 0.267258 0.333459 0.949210
O O8 0.046671 0.182531 0.284068
O O9 0.500000 0.500000 0.500000
O O10 0.372327 0.445970 0.556679
O O11 0.315782 0.007473 0.685953
O O12 0.408730 0.760211 0.372757
O O13 0.171731 0.500300 0.779808
O O14 0.076565 0.248687 0.700576
O O15 0.188406 0.059399 0.348808
O O16 0.595285 0.782724 0.114506
O O17 0.000000 0.500000 0.000000
O O18 0.000000 0.000000 0.000000
#
# Coordination Sequence:
#
# PCOD9062412 Si02
#       8
#     2   2   2   2   2   2   2   2
#     4  11  24  40  68 102 142 180 234 304 375 449
#     4  11  26  47  71 100 148 194 248 305 371 451
#     4  11  25  45  70 103 147 192 248 307 378 454
#     4  11  25  45  70 101 145 189 247 309 378 452
#     4  11  27  48  73 105 143 194 254 305 375 453
#     4  11  25  41  69 106 138 187 240 304 382 448
#     4  12  30  51  80 112 150 200 256 320 382 451
#     4  12  24  42  72 105 144 188 242 304 378 451
#
# _framework density 22.248372
#
# number of rings (size 3 to 8) (size 9 to 14) (size 15 to 20)
#    0.000    0.750    1.250    4.500   14.000    3.000 
#    0.000    0.000    0.000    0.000    0.000    0.000 
#    0.000    0.000    0.000    0.000    0.000    0.000 
#
# Total GULP energy -89415.257726 kJ/mol
# GULP energy per Si atom -5588.453608 kJ/mol
# Density = 2.219773 g / cm^3
# Si number density = 22.248372 Si / 1000 Ang^3
#
#
#
# Elastic Constant Matrix: (Units=GPa)
#
#
# Indices 1 2 3 4 5 6 
#
# 1 56.5917 11.8565 14.6719 0.5873 -9.9920 4.8072
# 2 11.8565 155.4321 65.0464 -0.0249 -2.5024 18.2357
# 3 14.6719 65.0464 108.5144 3.9595 -11.1859 4.1816
# 4 0.5873 -0.0249 3.9595 46.3107 4.4176 -8.2363
# 5 -9.9920 -2.5024 -11.1859 4.4176 42.2724 -1.9505
# 6 4.8072 18.2357 4.1816 -8.2363 -1.9505 34.6076
#
#
#
# Elastic Compliance Matrix: (Units=1/GPa)
#
#
# Indices 1 2 3 4 5 6 
#
# 1 0.019128 -0.000365 -0.001838 -0.000863 0.004001 -0.002222
# 2 -0.000365 0.009210 -0.005420 -0.000174 -0.001153 -0.004254
# 3 -0.001838 -0.005420 0.012993 -0.001108 0.002865 0.001439
# 4 -0.000863 -0.000174 -0.001108 0.022958 -0.002645 0.005660
# 5 0.004001 -0.001153 0.002865 -0.002645 0.025592 0.000519
# 6 -0.002222 -0.004254 0.001439 0.005660 0.000519 0.032648
#
#
# Mechanical properties :
#
#
# Convention : Reuss Voigt Hill
#
# Bulk Modulus (GPa) = 38.33628 55.96529 47.15079
# Shear Modulus (GPa) = 34.13679 39.90237 37.01958
#
# Velocity S-wave (km/s) = 3.92133 4.23956 4.08355
# Velocity P-wave (km/s) = 6.14580 7.01246 6.59339
#
# Compressibility (1/GPa) = 0.02608495
#
# Stress axis : x y z
#
# Youngs Moduli (GPa) = 52.28067 108.57448 76.96350
#
# Poissons Ratio (x) = 0.03962 0.14145
# Poissons Ratio (y) = 0.01908 0.41716
# Poissons Ratio (z) = 0.09609 0.58849
#
# Static dielectric constant tensor:
#      x y z
#    x 1.907490 -0.041330 0.009780 
#    y -0.041330 1.828830 -0.042850 
#    z 0.009780 -0.042850 1.819100 
# 
# From -- ./inp_files/371054.got.cif
#   From: 2010.05.17/outbox.cif.g08.bks.cpg/sg2_186_cif.got.tgz:371054.got - 2010.06.03 11:33:40.
