data_PCOD9062308
_publ_section_title
;
Structure prediction by ZEFSAII (Michael W. Deem and Ramdas Pophale) SiO2 
 PCOD9062308
Probable space group: P -1
;
_chemical_formula_sum "Si O2"
_cell_formula_units_Z 13
_cell_length_a 5.400293
_cell_length_b 13.435776
_cell_length_c 10.190370
_cell_angle_alpha 58.605828
_cell_angle_beta 110.884467
_cell_angle_gamma 74.268324
_cell_volume 483.347894
_symmetry_space_group_name_H-M "P -1"
_symmetry_group_IT_number 2
_symmetry_cell_setting 'triclinic'
loop_
_space_group_symop_operation_xyz
x,y,z
-x,-y,-z
loop_
_atom_site_type_symbol
_atom_site_label
_atom_site_fract_x
_atom_site_fract_y
_atom_site_fract_z
Si Si1 0.737368 0.201948 0.457144
Si Si2 0.955651 0.736643 0.949673
Si Si3 0.845420 0.374302 0.195853
Si Si4 0.500000 0.000000 0.500000
Si Si5 0.199464 0.466439 0.347960
Si Si6 0.823970 0.854890 0.195939
Si Si7 0.549369 0.289877 0.769189
O O1 0.847182 0.235573 0.319531
O O2 0.491485 0.353369 0.381932
O O3 0.054456 0.128472 0.654836
O O4 0.618035 0.101183 0.492113
O O5 0.003105 0.627845 0.148530
O O6 0.297568 0.717205 0.056066
O O7 0.950888 0.656134 0.875274
O O8 0.680177 0.897670 0.745245
O O9 0.967155 0.414303 0.315769
O O10 0.500000 0.500000 0.000000
O O11 0.346329 0.433472 0.544247
O O12 0.695264 0.755580 0.245826
O O13 0.118572 0.810768 0.182879
O O14 0.500000 0.000000 0.000000
#
# Coordination Sequence:
#
# PCOD9062308 Si02
#       7
#     2   2   2   1   2   2   2
#     4  11  24  45  72 105 144 201 250 311 378 452
#     4  12  26  45  72 115 151 193 254 319 386 445
#     4  12  23  43  76 103 142 198 256 307 378 458
#     4  12  26  44  68 108 156 182 244 326 378 450
#     4  11  23  50  71 104 149 199 254 305 379 461
#     4  11  24  47  76 106 156 204 251 303 390 466
#     4  11  26  46  76 114 149 199 259 320 373 450
#
# _framework density 26.89574
#
# number of rings (size 3 to 8) (size 9 to 14) (size 15 to 20)
#    0.000    0.615    4.615    3.231    0.000    5.538 
#    0.000    3.077    0.000    0.000    0.000    0.000 
#    0.000    0.000    0.000    0.000    0.000    0.000 
#
# Total GULP energy -72381.627569 kJ/mol
# GULP energy per Si atom -5567.817505 kJ/mol
# Density = 2.683452 g / cm^3
# Si number density = 26.895740 Si / 1000 Ang^3
#
#
#
# Elastic Constant Matrix: (Units=GPa)
#
#
# Indices 1 2 3 4 5 6 
#
# 1 101.5519 28.8017 42.5222 -5.2400 15.4079 9.2979
# 2 28.8017 91.5198 78.8415 13.2835 -4.3525 38.2398
# 3 42.5222 78.8415 260.6210 -2.8408 6.9403 12.6896
# 4 -5.2400 13.2835 -2.8408 49.2174 13.7816 -2.0504
# 5 15.4079 -4.3525 6.9403 13.7816 35.5160 2.1571
# 6 9.2979 38.2398 12.6896 -2.0504 2.1571 47.2456
#
#
#
# Elastic Compliance Matrix: (Units=1/GPa)
#
#
# Indices 1 2 3 4 5 6 
#
# 1 0.013205 -0.007281 0.000170 0.006142 -0.009277 0.003939
# 2 -0.007281 0.034686 -0.008683 -0.016494 0.017074 -0.025805
# 3 0.000170 -0.008683 0.006321 0.004178 -0.004339 0.005676
# 4 0.006142 -0.016494 0.004178 0.031392 -0.018487 0.013225
# 5 -0.009277 0.017074 -0.004339 -0.018487 0.043121 -0.013599
# 6 0.003939 -0.025805 0.005676 0.013225 -0.013599 0.040947
#
#
# Mechanical properties :
#
#
# Convention : Reuss Voigt Hill
#
# Bulk Modulus (GPa) = 44.20009 83.78040 63.99024
# Shear Modulus (GPa) = 23.94636 46.63096 35.28866
#
# Velocity S-wave (km/s) = 2.98709 4.16837 3.62616
# Velocity P-wave (km/s) = 5.32602 7.37460 6.43239
#
# Compressibility (1/GPa) = 0.02262439
#
# Stress axis : x y z
#
# Youngs Moduli (GPa) = 75.73097 28.83007 158.21047
#
# Poissons Ratio (x) = 0.20990 -0.02694
# Poissons Ratio (y) = 0.55137 1.37376
# Poissons Ratio (z) = -0.01290 0.25034
#
# Static dielectric constant tensor:
#      x y z
#    x 2.245110 -0.027900 -0.023530 
#    y -0.027900 2.173470 -0.059470 
#    z -0.023530 -0.059470 2.137950 
# 
# From -- ./inp_files/65230.got.cif
#   From: 2010.05.17/outbox.cif.g08.bks.cpg/sg2_33_cif.got.tgz:65230.got - 2010.06.03 11:33:40.
