data_PCOD9062147
_publ_section_title
;
Structure prediction by ZEFSAII (Michael W. Deem and Ramdas Pophale) SiO2 
 PCOD9062147
Probable space group: P -1
;
_chemical_formula_sum "Si O2"
_cell_formula_units_Z 14
_cell_length_a 13.320007
_cell_length_b 9.300023
_cell_length_c 11.172953
_cell_angle_alpha 142.917912
_cell_angle_beta 122.039572
_cell_angle_gamma 42.152972
_cell_volume 553.680884
_symmetry_space_group_name_H-M "P -1"
_symmetry_group_IT_number 2
_symmetry_cell_setting 'triclinic'
loop_
_space_group_symop_operation_xyz
x,y,z
-x,-y,-z
loop_
_atom_site_type_symbol
_atom_site_label
_atom_site_fract_x
_atom_site_fract_y
_atom_site_fract_z
Si Si1 0.503346 0.394119 0.283186
Si Si2 0.300925 0.475911 0.400777
Si Si3 0.321872 0.279386 0.543701
Si Si4 0.600749 0.528338 0.992864
Si Si5 0.155484 0.916156 0.995593
Si Si6 0.964980 0.482243 0.827356
Si Si7 0.734773 0.876659 0.373103
O O1 0.430386 0.293124 0.259145
O O2 0.659462 0.313748 0.375306
O O3 0.487046 0.352669 0.108047
O O4 0.384751 0.762160 0.462987
O O5 0.309223 0.298245 0.405468
O O6 0.145540 0.605845 0.322004
O O7 0.226470 0.223392 0.530451
O O8 0.500000 0.000000 0.500000
O O9 0.654099 0.731420 0.186257
O O10 0.254958 0.614495 0.773284
O O11 0.500000 0.500000 0.000000
O O12 0.753601 0.189496 0.891535
O O13 0.118080 0.192918 0.076293
O O14 0.000000 0.000000 0.000000
O O15 0.120854 0.255287 0.703517
O O16 0.000000 0.500000 0.000000
#
# Coordination Sequence:
#
# PCOD9062147 Si02
#       7
#     2   2   2   2   2   2   2
#     4  11  25  49  70 110 154 195 257 319 375 457
#     4  11  27  45  73 107 149 201 251 306 390 453
#     4  11  23  47  76 110 149 194 254 313 380 455
#     4  11  25  45  78 111 149 197 254 322 378 454
#     4  11  25  47  77 110 150 201 253 313 387 453
#     4  12  28  50  71 110 156 200 253 315 387 457
#     4  11  25  47  76 107 152 198 252 316 376 451
#
# _framework density 25.285323999999999
#
# number of rings (size 3 to 8) (size 9 to 14) (size 15 to 20)
#    0.000    0.857    4.286    2.571    6.000    2.286 
#    0.000    2.143    0.000    0.000    0.000    0.000 
#    0.000    0.000    0.000    0.000    0.000    0.000 
#
# Total GULP energy -78182.126190 kJ/mol
# GULP energy per Si atom -5584.437585 kJ/mol
# Density = 2.522777 g / cm^3
# Si number density = 25.285324 Si / 1000 Ang^3
#
#
#
# Elastic Constant Matrix: (Units=GPa)
#
#
# Indices 1 2 3 4 5 6 
#
# 1 187.3838 50.9128 70.1684 -33.9336 -6.7418 -8.0677
# 2 50.9128 115.4189 60.5367 -10.9072 15.5211 8.3637
# 3 70.1684 60.5367 137.5522 -20.0371 7.3751 -6.1015
# 4 -33.9336 -10.9072 -20.0371 68.3029 6.5402 -0.7412
# 5 -6.7418 15.5211 7.3751 6.5402 35.3092 -12.8640
# 6 -8.0677 8.3637 -6.1015 -0.7412 -12.8640 64.7984
#
#
#
# Elastic Compliance Matrix: (Units=1/GPa)
#
#
# Indices 1 2 3 4 5 6 
#
# 1 0.007536 -0.002285 -0.002595 0.002334 0.003151 0.001641
# 2 -0.002285 0.013181 -0.004399 0.000282 -0.006723 -0.003731
# 3 -0.002595 -0.004399 0.010796 0.001248 -0.000629 0.001151
# 4 0.002334 0.000282 0.001248 0.016499 -0.003009 -0.000037
# 5 0.003151 -0.006723 -0.000629 -0.003009 0.035564 0.008227
# 6 0.001641 -0.003731 0.001151 -0.000037 0.008227 0.017860
#
#
# Mechanical properties :
#
#
# Convention : Reuss Voigt Hill
#
# Bulk Modulus (GPa) = 77.19163 89.28786 83.23975
# Shear Modulus (GPa) = 40.22166 50.93125 45.57646
#
# Velocity S-wave (km/s) = 3.99270 4.49292 4.25018
# Velocity P-wave (km/s) = 7.20070 7.89328 7.55493
#
# Compressibility (1/GPa) = 0.01295477
#
# Stress axis : x y z
#
# Youngs Moduli (GPa) = 132.69917 75.86920 92.62652
#
# Poissons Ratio (x) = 0.17339 0.24032
# Poissons Ratio (y) = 0.30328 0.40745
# Poissons Ratio (z) = 0.34429 0.33374
#
# Static dielectric constant tensor:
#      x y z
#    x 1.987810 0.050600 -0.015680 
#    y 0.050600 2.073560 0.009020 
#    z -0.015680 0.009020 2.075270 
# 
# From -- ./inp_files/420079.got.cif
#   From: 2010.05.17/outbox.cif.g08.bks.cpg/sg2_211_cif.got.tgz:420079.got - 2010.06.03 11:33:40.
