data_PCOD9062481
_publ_section_title
;
Structure prediction by ZEFSAII (Michael W. Deem and Ramdas Pophale) SiO2 
 PCOD9062481
Probable space group: P -1
;
_chemical_formula_sum "Si O2"
_cell_formula_units_Z 14
_cell_length_a 10.771630
_cell_length_b 27.436493
_cell_length_c 12.553327
_cell_angle_alpha 155.003428
_cell_angle_beta 141.162121
_cell_angle_gamma 23.899057
_cell_volume 607.759221
_symmetry_space_group_name_H-M "P -1"
_symmetry_group_IT_number 2
_symmetry_cell_setting 'triclinic'
loop_
_space_group_symop_operation_xyz
x,y,z
-x,-y,-z
loop_
_atom_site_type_symbol
_atom_site_label
_atom_site_fract_x
_atom_site_fract_y
_atom_site_fract_z
Si Si1 0.187149 0.793668 0.733290
Si Si2 0.537994 0.048139 0.729043
Si Si3 0.816319 0.637666 0.348126
Si Si4 0.525943 0.705503 0.966237
Si Si5 0.148933 0.531455 0.585108
Si Si6 0.377304 0.632934 0.082529
Si Si7 0.259716 0.984345 0.532471
O O1 0.482244 0.656099 0.577155
O O2 0.288162 0.725330 0.787829
O O3 0.890433 0.851502 0.615045
O O4 0.000000 0.000000 0.000000
O O5 0.456994 0.213041 0.962088
O O6 0.500000 0.000000 0.500000
O O7 0.293186 0.102242 0.751884
O O8 0.682185 0.567349 0.117442
O O9 0.515628 0.849552 0.528774
O O10 0.941716 0.619710 0.512635
O O11 0.117881 0.505267 0.206270
O O12 0.374184 0.841792 0.234184
O O13 0.000000 0.500000 0.500000
O O14 0.196301 0.632376 0.876451
O O15 0.500000 0.500000 0.000000
O O16 0.115520 0.850374 0.369385
#
# Coordination Sequence:
#
# PCOD9062481 Si02
#       7
#     2   2   2   2   2   2   2
#     4   9  20  36  62  94 123 158 212 271 312 367
#     4   9  19  34  62  90 123 161 214 255 309 375
#     4  11  24  46  64  95 135 165 217 270 323 380
#     4   9  20  40  66  91 125 168 214 265 317 379
#     4  11  25  43  66  97 125 170 221 267 314 385
#     4  12  26  42  70  92 129 176 217 262 322 385
#     4  11  24  41  64  98 130 170 210 266 327 380
#
# _framework density 23.035437000000002
#
# number of rings (size 3 to 8) (size 9 to 14) (size 15 to 20)
#    0.000    1.714    1.429    1.714   14.000    0.571 
#    2.571    1.429    0.000    0.000    0.000    0.000 
#    0.000    0.000    0.000    0.000    0.000    0.000 
#
# Total GULP energy -78012.389559 kJ/mol
# GULP energy per Si atom -5572.313540 kJ/mol
# Density = 2.298301 g / cm^3
# Si number density = 23.035437 Si / 1000 Ang^3
#
#
#
# Elastic Constant Matrix: (Units=GPa)
#
#
# Indices 1 2 3 4 5 6 
#
# 1 19.5751 19.6175 20.8702 -3.8003 -4.5213 -0.6130
# 2 19.6175 150.5323 45.4598 -2.6308 -18.3512 -4.6846
# 3 20.8702 45.4598 99.2570 -1.9871 -22.2302 1.4174
# 4 -3.8003 -2.6308 -1.9871 49.3741 -4.2781 1.4391
# 5 -4.5213 -18.3512 -22.2302 -4.2781 32.8510 7.7623
# 6 -0.6130 -4.6846 1.4174 1.4391 7.7623 34.3437
#
#
#
# Elastic Compliance Matrix: (Units=1/GPa)
#
#
# Indices 1 2 3 4 5 6 
#
# 1 0.070545 -0.005462 -0.012614 0.004459 -0.001582 0.001205
# 2 -0.005462 0.008305 -0.002144 0.000119 0.002311 0.000596
# 3 -0.012614 -0.002144 0.015649 0.000365 0.008432 -0.003085
# 4 0.004459 0.000119 0.000365 0.021021 0.004071 -0.001720
# 5 -0.001582 0.002311 0.008432 0.004071 0.039938 -0.009258
# 6 0.001205 0.000596 -0.003085 -0.001720 -0.009258 0.031512
#
#
# Mechanical properties :
#
#
# Convention : Reuss Voigt Hill
#
# Bulk Modulus (GPa) = 18.49783 49.02882 33.76332
# Shear Modulus (GPa) = 20.37259 35.54155 27.95707
#
# Velocity S-wave (km/s) = 2.97712 3.93225 3.48753
# Velocity P-wave (km/s) = 4.45704 6.47665 5.55933
#
# Compressibility (1/GPa) = 0.05406040
#
# Stress axis : x y z
#
# Youngs Moduli (GPa) = 14.17531 120.41485 63.90258
#
# Poissons Ratio (x) = 0.65766 0.80606
# Poissons Ratio (y) = 0.07742 0.13698
# Poissons Ratio (z) = 0.17881 0.25812
#
# Static dielectric constant tensor:
#      x y z
#    x 2.060390 -0.106530 0.110160 
#    y -0.106530 1.942030 -0.066120 
#    z 0.110160 -0.066120 1.917260 
# 
# From -- ./inp_files/243313.got.cif
#   From: 2010.05.17/outbox.cif.g08.bks.cpg/sg2_122_cif.got.tgz:243313.got - 2010.06.03 11:33:40.
