data_PCOD9062451
_publ_section_title
;
Structure prediction by ZEFSAII (Michael W. Deem and Ramdas Pophale) SiO2 
 PCOD9062451
Probable space group: P -1
;
_chemical_formula_sum "Si O2"
_cell_formula_units_Z 16
_cell_length_a 8.036844
_cell_length_b 15.547725
_cell_length_c 16.774443
_cell_angle_alpha 154.942693
_cell_angle_beta 60.056750
_cell_angle_gamma 105.811964
_cell_volume 670.725229
_symmetry_space_group_name_H-M "P -1"
_symmetry_group_IT_number 2
_symmetry_cell_setting 'triclinic'
loop_
_space_group_symop_operation_xyz
x,y,z
-x,-y,-z
loop_
_atom_site_type_symbol
_atom_site_label
_atom_site_fract_x
_atom_site_fract_y
_atom_site_fract_z
Si Si1 0.769695 0.537805 0.119954
Si Si2 0.878427 0.755299 0.707604
Si Si3 0.559703 0.706974 0.160006
Si Si4 0.548572 0.108937 0.977889
Si Si5 0.782600 0.206496 0.265399
Si Si6 0.713910 0.086632 0.748991
Si Si7 0.956131 0.562988 0.254100
Si Si8 0.673086 0.464391 0.344044
O O1 0.585394 0.731323 0.268984
O O2 0.774328 0.589255 0.254198
O O3 0.776924 0.290470 0.903568
O O4 0.000000 0.500000 0.000000
O O5 0.675780 0.875201 0.921149
O O6 0.000000 0.500000 0.500000
O O7 0.092160 0.789799 0.681739
O O8 0.745813 0.855556 0.742997
O O9 0.392856 0.898472 0.299686
O O10 0.500000 0.500000 0.000000
O O11 0.800905 0.602082 0.974801
O O12 0.606303 0.287308 0.164836
O O13 0.553459 0.148918 0.916598
O O14 0.718236 0.398734 0.371444
O O15 0.533435 0.276168 0.403655
O O16 0.000000 0.000000 0.000000
O O17 0.910954 0.825433 0.496772
O O18 0.895197 0.448435 0.244906
#
# Coordination Sequence:
#
# PCOD9062451 Si02
#       8
#     2   2   2   2   2   2   2   2
#     4   9  20  43  68  92 129 167 212 272 328 391
#     4  11  24  41  63  89 126 179 218 271 331 380
#     4   9  22  43  66  94 129 169 214 268 332 396
#     4  11  24  41  62  94 131 171 225 269 326 395
#     4  11  24  41  63  88 128 176 220 275 324 385
#     4  11  24  41  65  98 132 170 215 271 325 398
#     4  11  24  41  67  97 131 172 215 274 327 392
#     4  11  24  41  62  95 129 170 225 270 327 390
#
# _framework density 23.854775
#
# number of rings (size 3 to 8) (size 9 to 14) (size 15 to 20)
#    0.000    1.500    3.750    0.000    5.250    5.000 
#    0.000    3.750    0.000    0.000    0.000    0.000 
#    0.000    0.000    0.000    0.000    0.000    0.000 
#
# Total GULP energy -89108.555474 kJ/mol
# GULP energy per Si atom -5569.284717 kJ/mol
# Density = 2.380048 g / cm^3
# Si number density = 23.854775 Si / 1000 Ang^3
#
#
#
# Elastic Constant Matrix: (Units=GPa)
#
#
# Indices 1 2 3 4 5 6 
#
# 1 85.4136 12.4856 3.4344 7.4034 -12.6871 3.3467
# 2 12.4856 83.7106 -21.2724 0.4647 -1.8750 0.2070
# 3 3.4344 -21.2724 64.8855 18.7557 -7.7289 5.8925
# 4 7.4034 0.4647 18.7557 26.9743 -1.4458 -3.5182
# 5 -12.6871 -1.8750 -7.7289 -1.4458 40.8071 -1.0297
# 6 3.3467 0.2070 5.8925 -3.5182 -1.0297 40.0100
#
#
#
# Elastic Compliance Matrix: (Units=1/GPa)
#
#
# Indices 1 2 3 4 5 6 
#
# 1 0.012891 -0.001702 0.000436 -0.003784 0.003844 -0.001368
# 2 -0.001702 0.013775 0.006004 -0.004036 0.001069 -0.001141
# 3 0.000436 0.006004 0.023110 -0.016704 0.004075 -0.004835
# 4 -0.003784 -0.004036 -0.016704 0.050595 -0.002552 0.007181
# 5 0.003844 0.001069 0.004075 -0.002552 0.026419 -0.000472
# 6 -0.001368 -0.001141 -0.004835 0.007181 -0.000472 0.026445
#
#
# Mechanical properties :
#
#
# Convention : Reuss Voigt Hill
#
# Bulk Modulus (GPa) = 16.87731 24.81166 20.84449
# Shear Modulus (GPa) = 30.57913 37.51575 34.04744
#
# Velocity S-wave (km/s) = 3.58423 3.97000 3.78203
# Velocity P-wave (km/s) = 4.92131 5.60698 5.27530
#
# Compressibility (1/GPa) = 0.05925115
#
# Stress axis : x y z
#
# Youngs Moduli (GPa) = 77.57063 72.59781 43.27170
#
# Poissons Ratio (x) = 0.12353 -0.01885
# Poissons Ratio (y) = 0.13199 -0.25979
# Poissons Ratio (z) = -0.03380 -0.43585
#
# Static dielectric constant tensor:
#      x y z
#    x 2.037560 -0.118510 0.164350 
#    y -0.118510 1.132050 0.142770 
#    z 0.164350 0.142770 1.948360 
# 
# From -- ./inp_files/561413.got.cif
#   From: 2010.05.17/outbox.cif.g08.bks.cpg/sg2_281_cif.got.tgz:561413.got - 2010.06.03 11:33:40.
