data_PCOD9062763
_publ_section_title
;
Structure prediction by ZEFSAII (Michael W. Deem and Ramdas Pophale) SiO2 
 PCOD9062763
Probable space group: P -1
;
_chemical_formula_sum "Si O2"
_cell_formula_units_Z 12
_cell_length_a 8.577387
_cell_length_b 11.695918
_cell_length_c 5.696096
_cell_angle_alpha 100.566702
_cell_angle_beta 61.041484
_cell_angle_gamma 80.676735
_cell_volume 470.152733
_symmetry_space_group_name_H-M "P -1"
_symmetry_group_IT_number 2
_symmetry_cell_setting 'triclinic'
loop_
_space_group_symop_operation_xyz
x,y,z
-x,-y,-z
loop_
_atom_site_type_symbol
_atom_site_label
_atom_site_fract_x
_atom_site_fract_y
_atom_site_fract_z
Si Si1 0.989773 0.593709 0.835930
Si Si2 0.850824 0.189995 0.733102
Si Si3 0.319626 0.178666 0.756117
Si Si4 0.851352 0.005682 0.305025
Si Si5 0.496549 0.139323 0.110564
Si Si6 0.722862 0.458249 0.765616
O O1 0.832916 0.556753 0.778544
O O2 0.193567 0.576924 0.570616
O O3 0.890052 0.731915 0.030082
O O4 0.000000 0.500000 0.000000
O O5 0.816301 0.332805 0.792213
O O6 0.053437 0.098320 0.609127
O O7 0.802382 0.136928 0.502220
O O8 0.698763 0.158753 0.997310
O O9 0.309400 0.040722 0.703424
O O10 0.391376 0.196597 0.448696
O O11 0.416190 0.197854 0.937480
O O12 0.000000 0.000000 0.000000
O O13 0.500000 0.000000 0.000000
O O14 0.500000 0.500000 0.000000
#
# Coordination Sequence:
#
# PCOD9062763 Si02
#       6
#     2   2   2   2   2   2
#     4  11  27  48  76 104 148 200 252 315 377 448
#     4  11  25  43  72 106 146 188 248 306 371 452
#     4  12  27  46  76 105 150 193 248 304 384 445
#     4  11  24  42  70 104 143 191 239 305 378 449
#     4  12  26  47  73 112 149 194 242 310 378 454
#     4  11  26  49  74 108 147 197 256 311 377 445
#
# _framework density 25.523622
#
# number of rings (size 3 to 8) (size 9 to 14) (size 15 to 20)
#    0.000    0.667    1.667    4.500   14.000    0.667 
#    3.000    0.000    0.000    0.000    0.000    0.000 
#    0.000    0.000    0.000    0.000    0.000    0.000 
#
# Total GULP energy -66998.200989 kJ/mol
# GULP energy per Si atom -5583.183416 kJ/mol
# Density = 2.546553 g / cm^3
# Si number density = 25.523622 Si / 1000 Ang^3
#
#
#
# Elastic Constant Matrix: (Units=GPa)
#
#
# Indices 1 2 3 4 5 6 
#
# 1 93.9989 18.8839 45.3835 2.7859 -9.7650 -12.7386
# 2 18.8839 97.8943 16.8091 15.7108 -5.0779 5.3688
# 3 45.3835 16.8091 199.5796 -9.9156 -23.3716 -9.0783
# 4 2.7859 15.7108 -9.9156 43.6071 5.1611 2.8422
# 5 -9.7650 -5.0779 -23.3716 5.1611 51.9319 -4.8501
# 6 -12.7386 5.3688 -9.0783 2.8422 -4.8501 44.9580
#
#
#
# Elastic Compliance Matrix: (Units=1/GPa)
#
#
# Indices 1 2 3 4 5 6 
#
# 1 0.012926 -0.002013 -0.002475 -0.001086 0.001568 0.003641
# 2 -0.002013 0.011525 -0.000720 -0.004152 0.000673 -0.001757
# 3 -0.002475 -0.000720 0.005984 0.001485 0.002077 0.000723
# 4 -0.001086 -0.004152 0.001485 0.025231 -0.002579 -0.001385
# 5 0.001568 0.000673 0.002077 -0.002579 0.021109 0.003224
# 6 0.003641 -0.001757 0.000723 -0.001385 0.003224 0.024066
#
#
# Mechanical properties :
#
#
# Convention : Reuss Voigt Hill
#
# Bulk Modulus (GPa) = 49.95121 61.51397 55.73259
# Shear Modulus (GPa) = 42.39872 48.79250 45.59561
#
# Velocity S-wave (km/s) = 4.08015 4.37700 4.23118
# Velocity P-wave (km/s) = 6.46606 7.04963 6.76414
#
# Compressibility (1/GPa) = 0.02001953
#
# Stress axis : x y z
#
# Youngs Moduli (GPa) = 77.36353 86.77019 167.11654
#
# Poissons Ratio (x) = 0.17463 0.41353
# Poissons Ratio (y) = 0.15570 0.12039
# Poissons Ratio (z) = 0.19144 0.06251
#
# Static dielectric constant tensor:
#      x y z
#    x 2.315230 -0.049810 0.054850 
#    y -0.049810 1.978410 0.011570 
#    z 0.054850 0.011570 2.090510 
# 
# From -- ./inp_files/28016.got.cif
#   From: 2010.05.17/outbox.cif.g08.bks.cpg/sg2_15_cif.got.tgz:28016.got - 2010.06.03 11:33:40.
