data_PCOD9062644
_publ_section_title
;
Structure prediction by ZEFSAII (Michael W. Deem and Ramdas Pophale) SiO2 
 PCOD9062644
Probable space group: P -1
;
_chemical_formula_sum "Si O2"
_cell_formula_units_Z 16
_cell_length_a 8.724636
_cell_length_b 26.741229
_cell_length_c 11.989406
_cell_angle_alpha 29.828936
_cell_angle_beta 145.316802
_cell_angle_gamma 137.748826
_cell_volume 788.176071
_symmetry_space_group_name_H-M "P -1"
_symmetry_group_IT_number 2
_symmetry_cell_setting 'triclinic'
loop_
_space_group_symop_operation_xyz
x,y,z
-x,-y,-z
loop_
_atom_site_type_symbol
_atom_site_label
_atom_site_fract_x
_atom_site_fract_y
_atom_site_fract_z
Si Si1 0.003471 0.408865 0.765661
Si Si2 0.202448 0.153221 0.761050
Si Si3 0.277763 0.767577 0.206663
Si Si4 0.798112 0.471490 0.762021
Si Si5 0.652484 0.026352 0.652741
Si Si6 0.078113 0.659845 0.702621
Si Si7 0.819305 0.899449 0.622383
Si Si8 0.482630 0.275846 0.333946
O O1 0.805501 0.317693 0.770743
O O2 0.922250 0.441000 0.778078
O O3 0.000000 0.500000 0.500000
O O4 0.295400 0.366665 0.032088
O O5 0.458598 0.164013 0.811750
O O6 0.918317 0.102435 0.641648
O O7 0.146291 0.264528 0.551762
O O8 0.263052 0.076902 0.043195
O O9 0.357161 0.719934 0.462888
O O10 0.020049 0.831833 0.940273
O O11 0.500000 0.500000 0.500000
O O12 0.960749 0.567358 0.733538
O O13 0.810813 0.383271 0.032297
O O14 0.439473 0.072008 0.519338
O O15 0.500000 0.000000 0.500000
O O16 0.314219 0.718809 0.658466
O O17 0.708171 0.828947 0.589290
O O18 0.000000 0.000000 0.500000
#
# Coordination Sequence:
#
# PCOD9062644 Si02
#       8
#     2   2   2   2   2   2   2   2
#     4  11  24  44  66 100 135 172 225 272 331 394
#     4  11  24  44  63 101 133 169 227 267 330 399
#     4  11  25  41  71  98 132 180 220 272 332 390
#     4  11  24  42  68  94 133 174 216 275 327 391
#     4  11  26  43  68  95 134 176 215 275 332 388
#     4  11  24  42  65  99 131 173 221 267 333 392
#     4  11  24  46  65 100 133 171 225 270 331 396
#     4  11  25  43  68  97 133 174 220 275 328 395
#
# _framework density 20.300032000000002
#
# number of rings (size 3 to 8) (size 9 to 14) (size 15 to 20)
#    0.000    1.000    2.500    3.000    3.500    7.500 
#    0.000    0.000    0.000    0.000    0.000    0.000 
#    0.000    0.000    0.000    0.000    0.000    0.000 
#
# Total GULP energy -89446.424583 kJ/mol
# GULP energy per Si atom -5590.401536 kJ/mol
# Density = 2.025383 g / cm^3
# Si number density = 20.300032 Si / 1000 Ang^3
#
#
#
# Elastic Constant Matrix: (Units=GPa)
#
#
# Indices 1 2 3 4 5 6 
#
# 1 41.0022 14.1891 25.7913 12.7971 -13.4378 -7.8291
# 2 14.1891 77.0040 46.2424 7.2626 -16.9924 -2.2631
# 3 25.7913 46.2424 119.8897 13.0270 0.1665 -17.9606
# 4 12.7971 7.2626 13.0270 33.7244 -0.5410 -1.1909
# 5 -13.4378 -16.9924 0.1665 -0.5410 37.4158 3.8028
# 6 -7.8291 -2.2631 -17.9606 -1.1909 3.8028 37.8074
#
#
#
# Elastic Compliance Matrix: (Units=1/GPa)
#
#
# Indices 1 2 3 4 5 6 
#
# 1 0.036600 0.001448 -0.006820 -0.011255 0.013393 0.002724
# 2 0.001448 0.020015 -0.008406 -0.001578 0.009985 -0.003549
# 3 -0.006820 -0.008406 0.013966 -0.000917 -0.006889 0.005383
# 4 -0.011255 -0.001578 -0.000917 0.034503 -0.004118 -0.001360
# 5 0.013393 0.009985 -0.006889 -0.004118 0.036418 -0.003694
# 6 0.002724 -0.003549 0.005383 -0.001360 -0.003694 0.029688
#
#
# Mechanical properties :
#
#
# Convention : Reuss Voigt Hill
#
# Bulk Modulus (GPa) = 23.24136 45.59351 34.41743
# Shear Modulus (GPa) = 23.46467 31.90106 27.68287
#
# Velocity S-wave (km/s) = 3.40353 3.96849 3.69682
# Velocity P-wave (km/s) = 5.18837 6.59599 5.93407
#
# Compressibility (1/GPa) = 0.04302674
#
# Stress axis : x y z
#
# Youngs Moduli (GPa) = 27.32260 49.96185 71.60270
#
# Poissons Ratio (x) = -0.07236 0.48831
# Poissons Ratio (y) = -0.03957 0.60187
# Poissons Ratio (z) = 0.18633 0.41997
#
# Static dielectric constant tensor:
#      x y z
#    x 1.247870 0.095350 -0.182230 
#    y 0.095350 1.720050 0.021590 
#    z -0.182230 0.021590 1.606200 
# 
# From -- ./inp_files/84954.got.cif
#   From: 2010.05.17/outbox.cif.g08.bks.cpg/sg2_43_cif.got.tgz:84954.got - 2010.06.03 11:33:40.
