data_PCOD9062836
_publ_section_title
;
Structure prediction by ZEFSAII (Michael W. Deem and Ramdas Pophale) SiO2 
 PCOD9062836
Probable space group: P -1
;
_chemical_formula_sum "Si O2"
_cell_formula_units_Z 14
_cell_length_a 11.271890
_cell_length_b 12.640943
_cell_length_c 8.181612
_cell_angle_alpha 32.210309
_cell_angle_beta 94.071012
_cell_angle_gamma 84.556828
_cell_volume 592.927011
_symmetry_space_group_name_H-M "P -1"
_symmetry_group_IT_number 2
_symmetry_cell_setting 'triclinic'
loop_
_space_group_symop_operation_xyz
x,y,z
-x,-y,-z
loop_
_atom_site_type_symbol
_atom_site_label
_atom_site_fract_x
_atom_site_fract_y
_atom_site_fract_z
Si Si1 0.925333 0.152352 0.155874
Si Si2 0.535286 0.857978 0.342677
Si Si3 0.754463 0.595593 0.514091
Si Si4 0.037807 0.205529 0.772508
Si Si5 0.633643 0.324882 0.256532
Si Si6 0.720568 0.982908 0.435512
Si Si7 0.790918 0.547819 0.199708
O O1 0.822333 0.033013 0.258204
O O2 0.844174 0.386605 0.873663
O O3 0.021321 0.194045 0.980228
O O4 0.000000 0.000000 0.500000
O O5 0.635845 0.657877 0.537897
O O6 0.406701 0.831903 0.423541
O O7 0.604017 0.950892 0.367534
O O8 0.500000 0.000000 0.000000
O O9 0.733090 0.565078 0.357065
O O10 0.831214 0.764129 0.300472
O O11 0.930749 0.400481 0.434849
O O12 0.000000 0.000000 0.000000
O O13 0.726720 0.426053 0.225983
O O14 0.681118 0.182741 0.289138
O O15 0.500000 0.500000 0.000000
O O16 0.773479 0.771450 0.821926
#
# Coordination Sequence:
#
# PCOD9062836 Si02
#       7
#     2   2   2   2   2   2   2
#     4  11  24  42  73 105 142 183 236 299 358 429
#     4  12  28  44  73 104 144 192 239 298 352 424
#     4  11  25  48  71 108 144 188 243 293 364 428
#     4  11  25  45  74 107 145 186 238 297 363 432
#     4  12  27  48  72 105 143 193 245 288 361 424
#     4  12  26  48  71 108 146 186 244 295 359 428
#     4  11  26  46  77 102 145 195 234 299 363 426
#
# _framework density 23.611675000000002
#
# number of rings (size 3 to 8) (size 9 to 14) (size 15 to 20)
#    0.000    0.571    1.429    6.429   12.000    0.571 
#    0.000    2.857    0.000    0.000    0.000    0.000 
#    0.000    0.000    0.000    0.000    0.000    0.000 
#
# Total GULP energy -78220.119427 kJ/mol
# GULP energy per Si atom -5587.151388 kJ/mol
# Density = 2.355793 g / cm^3
# Si number density = 23.611675 Si / 1000 Ang^3
#
#
#
# Elastic Constant Matrix: (Units=GPa)
#
#
# Indices 1 2 3 4 5 6 
#
# 1 37.7596 1.5306 29.8115 -0.1611 -14.1829 9.3032
# 2 1.5306 115.0289 34.5959 -13.4366 14.4642 20.9372
# 3 29.8115 34.5959 146.8365 -5.1819 3.1393 20.5036
# 4 -0.1611 -13.4366 -5.1819 26.8269 11.3238 -6.2146
# 5 -14.1829 14.4642 3.1393 11.3238 37.0442 7.0660
# 6 9.3032 20.9372 20.5036 -6.2146 7.0660 32.6538
#
#
#
# Elastic Compliance Matrix: (Units=1/GPa)
#
#
# Indices 1 2 3 4 5 6 
#
# 1 0.047735 -0.000477 -0.008361 -0.017308 0.027770 -0.017347
# 2 -0.000477 0.011441 -0.001737 0.007138 -0.006027 -0.003447
# 3 -0.008361 -0.001737 0.009223 0.002212 -0.003779 -0.001057
# 4 -0.017308 0.007138 0.002212 0.057865 -0.030449 0.016567
# 5 0.027770 -0.006027 -0.003779 -0.030449 0.053230 -0.018988
# 6 -0.017347 -0.003447 -0.001057 0.016567 -0.018988 0.045702
#
#
# Mechanical properties :
#
#
# Convention : Reuss Voigt Hill
#
# Bulk Modulus (GPa) = 21.16394 47.94457 34.55425
# Shear Modulus (GPa) = 19.07695 34.88411 26.98053
#
# Velocity S-wave (km/s) = 2.84552 3.84788 3.38402
# Velocity P-wave (km/s) = 4.44733 6.33175 5.47128
#
# Compressibility (1/GPa) = 0.04725019
#
# Stress axis : x y z
#
# Youngs Moduli (GPa) = 20.94905 87.40353 108.41881
#
# Poissons Ratio (x) = 0.04166 0.90652
# Poissons Ratio (y) = 0.00998 0.18830
# Poissons Ratio (z) = 0.17516 0.15180
#
# Static dielectric constant tensor:
#      x y z
#    x 1.738380 -0.004360 -0.002770 
#    y -0.004360 2.070960 -0.000870 
#    z -0.002770 -0.000870 1.841420 
# 
# From -- ./inp_files/271376.got.cif
#   From: 2010.05.17/outbox.cif.g08.bks.cpg/sg2_136_cif.got.tgz:271376.got - 2010.06.03 11:33:40.
