data_PCOD9062594
_publ_section_title
;
Structure prediction by ZEFSAII (Michael W. Deem and Ramdas Pophale) SiO2 
 PCOD9062594
Probable space group: P -1
;
_chemical_formula_sum "Si O2"
_cell_formula_units_Z 16
_cell_length_a 5.248034
_cell_length_b 26.610740
_cell_length_c 11.927639
_cell_angle_alpha 152.074698
_cell_angle_beta 58.140841
_cell_angle_gamma 113.394640
_cell_volume 652.441230
_symmetry_space_group_name_H-M "P -1"
_symmetry_group_IT_number 2
_symmetry_cell_setting 'triclinic'
loop_
_space_group_symop_operation_xyz
x,y,z
-x,-y,-z
loop_
_atom_site_type_symbol
_atom_site_label
_atom_site_fract_x
_atom_site_fract_y
_atom_site_fract_z
Si Si1 0.347137 0.879695 0.430607
Si Si2 0.160392 0.472328 0.026396
Si Si3 0.247399 0.888536 0.716771
Si Si4 0.278535 0.238319 0.474761
Si Si5 0.051977 0.471451 0.578078
Si Si6 0.081304 0.065143 0.719723
Si Si7 0.347931 0.709223 0.718194
Si Si8 0.334670 0.669834 0.894359
O O1 0.610900 0.897224 0.318764
O O2 0.432099 0.889395 0.559002
O O3 0.093855 0.982049 0.656506
O O4 0.267816 0.763788 0.186579
O O5 0.205828 0.342866 0.777455
O O6 0.500000 0.500000 0.000000
O O7 0.000000 0.500000 0.000000
O O8 0.950208 0.531665 0.291707
O O9 0.026611 0.801745 0.572057
O O10 0.475984 0.852099 0.695115
O O11 0.000000 0.000000 0.000000
O O12 0.412353 0.282895 0.418583
O O13 0.067149 0.598530 0.803708
O O14 0.347478 0.412603 0.324604
O O15 0.787021 0.402694 0.479407
O O16 0.000000 0.000000 0.500000
O O17 0.883853 0.178362 0.025155
O O18 0.410314 0.719590 0.855702
#
# Coordination Sequence:
#
# PCOD9062594 Si02
#       8
#     2   2   2   2   2   2   2   2
#     4  11  25  45  70 105 143 186 240 301 367 441
#     4  12  25  47  72 104 146 190 245 299 358 436
#     4  12  29  50  75 109 151 194 249 301 370 438
#     4  12  28  47  78 107 144 204 241 307 366 436
#     4  11  25  44  68 104 140 189 235 299 366 430
#     4  11  24  41  72 103 137 187 233 301 367 425
#     4  12  24  44  73 102 142 177 253 291 366 437
#     4  11  24  44  69 102 143 183 235 302 369 430
#
# _framework density 24.523281999999998
#
# number of rings (size 3 to 8) (size 9 to 14) (size 15 to 20)
#    0.000    0.500    3.750    3.750    5.250    1.000 
#    2.250    0.000    0.000    0.000    0.000    0.000 
#    0.000    0.000    0.000    0.000    0.000    0.000 
#
# Total GULP energy -89412.400669 kJ/mol
# GULP energy per Si atom -5588.275042 kJ/mol
# Density = 2.446747 g / cm^3
# Si number density = 24.523282 Si / 1000 Ang^3
#
#
#
# Elastic Constant Matrix: (Units=GPa)
#
#
# Indices 1 2 3 4 5 6 
#
# 1 76.6875 23.8594 -10.5691 -2.8279 8.4319 0.6966
# 2 23.8594 108.7243 24.7902 -9.8965 9.9930 -4.5260
# 3 -10.5691 24.7902 84.8422 -0.2441 -1.5570 1.3476
# 4 -2.8279 -9.8965 -0.2441 37.6901 -6.9333 15.8272
# 5 8.4319 9.9930 -1.5570 -6.9333 29.2356 2.1921
# 6 0.6966 -4.5260 1.3476 15.8272 2.1921 49.3357
#
#
#
# Elastic Compliance Matrix: (Units=1/GPa)
#
#
# Indices 1 2 3 4 5 6 
#
# 1 0.014904 -0.003699 0.002891 -0.000180 -0.002890 -0.000443
# 2 -0.003699 0.011323 -0.003823 0.001895 -0.002610 0.000703
# 3 0.002891 -0.003823 0.013297 -0.000163 0.001199 -0.000756
# 4 -0.000180 0.001895 -0.000163 0.033014 0.008032 -0.010767
# 5 -0.002890 -0.002610 0.001199 0.008032 0.038237 -0.004507
# 6 -0.000443 0.000703 -0.000756 -0.010767 -0.004507 0.024015
#
#
# Mechanical properties :
#
#
# Convention : Reuss Voigt Hill
#
# Bulk Modulus (GPa) = 33.04424 38.49055 35.76739
# Shear Modulus (GPa) = 32.43797 38.73051 35.58424
#
# Velocity S-wave (km/s) = 3.64090 3.97840 3.81338
# Velocity P-wave (km/s) = 5.58379 6.06903 5.83146
#
# Compressibility (1/GPa) = 0.03026246
#
# Stress axis : x y z
#
# Youngs Moduli (GPa) = 67.09438 88.31825 75.20338
#
# Poissons Ratio (x) = 0.32670 -0.21742
# Poissons Ratio (y) = 0.24819 0.28749
# Poissons Ratio (z) = -0.19397 0.33763
#
# Static dielectric constant tensor:
#      x y z
#    x 2.090650 -0.100500 -0.183450 
#    y -0.100500 2.033130 0.150840 
#    z -0.183450 0.150840 2.134380 
# 
# From -- ./inp_files/68549.got.cif
#   From: 2010.05.17/outbox.cif.g08.bks.cpg/sg2_35_cif.got.tgz:68549.got - 2010.06.03 11:33:40.
