data_PCOD9062631
_publ_section_title
;
Structure prediction by ZEFSAII (Michael W. Deem and Ramdas Pophale) SiO2 
 PCOD9062631
Probable space group: P -1
;
_chemical_formula_sum "Si O2"
_cell_formula_units_Z 16
_cell_length_a 9.381754
_cell_length_b 10.676357
_cell_length_c 15.155151
_cell_angle_alpha 109.021447
_cell_angle_beta 29.757721
_cell_angle_gamma 99.957255
_cell_volume 692.427528
_symmetry_space_group_name_H-M "P -1"
_symmetry_group_IT_number 2
_symmetry_cell_setting 'triclinic'
loop_
_space_group_symop_operation_xyz
x,y,z
-x,-y,-z
loop_
_atom_site_type_symbol
_atom_site_label
_atom_site_fract_x
_atom_site_fract_y
_atom_site_fract_z
Si Si1 0.394361 0.327083 0.435227
Si Si2 0.518841 0.575767 0.142952
Si Si3 0.196552 0.808163 0.659990
Si Si4 0.232681 0.672916 0.937731
Si Si5 0.283951 0.055407 0.383923
Si Si6 0.890772 0.575767 0.771021
Si Si7 0.435088 0.191837 0.708369
Si Si8 0.335738 0.944593 0.996389
O O1 0.654956 0.256710 0.344691
O O2 0.536989 0.359110 0.274040
O O3 0.181673 0.462854 0.617735
O O4 0.212899 0.211224 0.489638
O O5 0.753696 0.462854 0.045712
O O6 0.263952 0.500000 0.236048
O O7 0.420966 0.708453 0.285849
O O8 0.668851 0.611541 0.980897
O O9 0.446538 0.807989 0.453817
O O10 0.991026 0.708453 0.715789
O O11 0.988436 0.957438 0.815727
O O12 0.912724 0.743290 0.087629
O O13 0.316513 0.788776 0.980951
O O14 0.466615 0.957438 0.337548
O O15 0.487961 0.047157 0.186399
O O16 0.000000 0.000000 0.500000
O O17 0.500000 0.000000 0.000000
#
# Coordination Sequence:
#
# PCOD9062631 Si02
#       8
#     2   2   2   2   2   2   2   2
#     4  11  24  42  64  91 125 163 205 254 307 364
#     4  11  24  42  65  92 124 162 205 254 307 366
#     4  12  25  41  64  92 125 164 206 254 306 363
#     4  11  24  42  64  91 125 163 205 254 307 364
#     4  11  24  42  65  93 126 163 204 253 307 364
#     4  11  24  42  65  92 124 162 205 254 307 366
#     4  12  25  41  64  92 125 164 206 254 306 363
#     4  11  24  42  65  93 126 163 204 253 307 364
#
# _framework density 23.107109999999999
#
# number of rings (size 3 to 8) (size 9 to 14) (size 15 to 20)
#    0.000    0.750    0.000    7.500    0.000   13.000 
#    0.000    0.000    0.000    0.000    0.000    0.000 
#    0.000    0.000    0.000    0.000    0.000    0.000 
#
# Total GULP energy -89688.115161 kJ/mol
# GULP energy per Si atom -5605.507198 kJ/mol
# Density = 2.305452 g / cm^3
# Si number density = 23.107110 Si / 1000 Ang^3
#
#
#
# Elastic Constant Matrix: (Units=GPa)
#
#
# Indices 1 2 3 4 5 6 
#
# 1 57.2479 -9.7513 -18.7470 2.2087 -2.3686 5.2811
# 2 -9.7513 82.1930 6.1456 2.3740 11.0132 0.5007
# 3 -18.7470 6.1456 48.1754 4.8213 0.0444 4.9064
# 4 2.2087 2.3740 4.8213 34.2223 1.6534 -5.5930
# 5 -2.3686 11.0132 0.0444 1.6534 39.0250 3.0713
# 6 5.2811 0.5007 4.9064 -5.5930 3.0713 35.5891
#
#
#
# Elastic Compliance Matrix: (Units=1/GPa)
#
#
# Indices 1 2 3 4 5 6 
#
# 1 0.021390 0.001825 0.008980 -0.003675 0.001332 -0.005130
# 2 0.001825 0.012937 -0.000846 -0.000752 -0.003495 -0.000153
# 3 0.008980 -0.000846 0.025457 -0.005117 0.001425 -0.005757
# 4 -0.003675 -0.000752 -0.005117 0.031357 -0.001833 0.006347
# 5 0.001332 -0.003495 0.001425 -0.001833 0.027001 -0.002963
# 6 -0.005130 -0.000153 -0.005757 0.006347 -0.002963 0.030909
#
#
# Mechanical properties :
#
#
# Convention : Reuss Voigt Hill
#
# Bulk Modulus (GPa) = 12.54685 15.87898 14.21292
# Shear Modulus (GPa) = 32.11298 35.76522 33.93910
#
# Velocity S-wave (km/s) = 3.73197 3.93848 3.83662
# Velocity P-wave (km/s) = 4.90018 5.25062 5.07842
#
# Compressibility (1/GPa) = 0.07970127
#
# Stress axis : x y z
#
# Youngs Moduli (GPa) = 46.75183 77.29597 39.28199
#
# Poissons Ratio (x) = -0.14107 -0.35274
# Poissons Ratio (y) = -0.08533 0.03324
# Poissons Ratio (z) = -0.41982 0.06540
#
# Static dielectric constant tensor:
#      x y z
#    x 1.876870 0.044740 -0.051520 
#    y 0.044740 1.819490 -0.002220 
#    z -0.051520 -0.002220 1.785600 
# 
# From -- ./inp_files/216407.got.cif
#   From: 2010.05.17/outbox.cif.g08.bks.cpg/sg2_109_cif.got.tgz:216407.got - 2010.06.03 11:33:40.
