data_PCOD9062224
_publ_section_title
;
Structure prediction by ZEFSAII (Michael W. Deem and Ramdas Pophale) SiO2 
 PCOD9062224
Probable space group: P -1
;
_chemical_formula_sum "Si O2"
_cell_formula_units_Z 16
_cell_length_a 14.893836
_cell_length_b 18.185979
_cell_length_c 5.570978
_cell_angle_alpha 102.974086
_cell_angle_beta 84.372435
_cell_angle_gamma 151.930563
_cell_volume 675.228707
_symmetry_space_group_name_H-M "P -1"
_symmetry_group_IT_number 2
_symmetry_cell_setting 'triclinic'
loop_
_space_group_symop_operation_xyz
x,y,z
-x,-y,-z
loop_
_atom_site_type_symbol
_atom_site_label
_atom_site_fract_x
_atom_site_fract_y
_atom_site_fract_z
Si Si1 0.309541 0.895759 0.369839
Si Si2 0.937075 0.537655 0.469657
Si Si3 0.908630 0.234989 0.078373
Si Si4 0.717537 0.973697 0.298557
Si Si5 0.671340 0.573473 0.422402
Si Si6 0.535603 0.304053 0.219164
Si Si7 0.868116 0.971246 0.606893
Si Si8 0.867775 0.732920 0.008339
O O1 0.350598 0.016298 0.476640
O O2 0.114801 0.711205 0.402054
O O3 0.500000 0.000000 0.500000
O O4 0.267139 0.853829 0.070698
O O5 0.721671 0.390263 0.308768
O O6 0.000000 0.500000 0.500000
O O7 0.940195 0.591720 0.744425
O O8 0.816651 0.108506 0.197038
O O9 0.027851 0.264581 0.909278
O O10 0.867121 0.029479 0.431001
O O11 0.563827 0.810771 0.067525
O O12 0.500000 0.500000 0.500000
O O13 0.616812 0.448353 0.267485
O O14 0.732799 0.655857 0.210684
O O15 0.790446 0.657414 0.707720
O O16 0.361119 0.194324 0.377212
O O17 0.000000 0.000000 0.500000
O O18 0.975117 0.083500 0.896636
#
# Coordination Sequence:
#
# PCOD9062224 Si02
#       8
#     2   2   2   2   2   2   2   2
#     4  11  26  47  77 105 142 203 253 307 388 473
#     4  11  28  46  73 111 151 189 250 318 394 455
#     4  11  23  48  74 101 147 200 252 307 387 464
#     4  11  25  45  74 106 153 195 256 317 383 457
#     4  12  28  47  75 109 152 200 255 322 394 461
#     4  12  27  45  71 109 150 194 251 321 383 449
#     4  12  28  46  76 110 149 201 261 315 380 463
#     4  12  24  49  75 102 153 203 254 307 393 464
#
# _framework density 23.695677
#
# number of rings (size 3 to 8) (size 9 to 14) (size 15 to 20)
#    0.000    0.500    3.750    2.625    8.750    3.000 
#    0.000    0.000    0.000    0.000    0.000    0.000 
#    0.000    0.000    0.000    0.000    0.000    0.000 
#
# Total GULP energy -89134.232310 kJ/mol
# GULP energy per Si atom -5570.889519 kJ/mol
# Density = 2.364174 g / cm^3
# Si number density = 23.695677 Si / 1000 Ang^3
#
#
#
# Elastic Constant Matrix: (Units=GPa)
#
#
# Indices 1 2 3 4 5 6 
#
# 1 128.9731 16.5326 22.3722 29.6759 14.9231 -11.0622
# 2 16.5326 92.4625 31.5865 5.2995 5.8109 2.3233
# 3 22.3722 31.5865 117.4947 41.2306 6.4155 -13.2435
# 4 29.6759 5.2995 41.2306 44.1033 -5.3474 -7.4803
# 5 14.9231 5.8109 6.4155 -5.3474 37.5656 3.9393
# 6 -11.0622 2.3233 -13.2435 -7.4803 3.9393 34.6686
#
#
#
# Elastic Compliance Matrix: (Units=1/GPa)
#
#
# Indices 1 2 3 4 5 6 
#
# 1 0.010734 -0.001926 0.002508 -0.009540 -0.006082 0.003145
# 2 -0.001926 0.012561 -0.004621 0.003738 0.000401 -0.002461
# 3 0.002508 -0.004621 0.015549 -0.015617 -0.005613 0.004318
# 4 -0.009540 0.003738 -0.015617 0.044562 0.012332 -0.001047
# 5 -0.006082 0.000401 -0.005613 0.012332 0.032224 -0.005113
# 6 0.003145 -0.002461 0.004318 -0.001047 -0.005113 0.032017
#
#
# Mechanical properties :
#
#
# Convention : Reuss Voigt Hill
#
# Bulk Modulus (GPa) = 32.50329 53.32368 42.91348
# Shear Modulus (GPa) = 30.12415 41.16345 35.64380
#
# Velocity S-wave (km/s) = 3.56939 4.17246 3.88265
# Velocity P-wave (km/s) = 5.54384 6.76498 6.18462
#
# Compressibility (1/GPa) = 0.03076611
#
# Stress axis : x y z
#
# Youngs Moduli (GPa) = 93.16191 79.61461 64.31253
#
# Poissons Ratio (x) = 0.15335 -0.16132
# Poissons Ratio (y) = 0.17944 0.29718
# Poissons Ratio (z) = -0.23368 0.36789
#
# Static dielectric constant tensor:
#      x y z
#    x 1.971720 0.124110 -0.096570 
#    y 0.124110 2.121430 -0.158870 
#    z -0.096570 -0.158870 2.001080 
# 
# From -- ./inp_files/99827.got.cif
#   From: 2010.05.17/outbox.cif.g08.bks.cpg/sg2_50_cif.got.tgz:99827.got - 2010.06.03 11:33:40.
