data_PCOD9062002
_publ_section_title
;
Structure prediction by ZEFSAII (Michael W. Deem and Ramdas Pophale) SiO2 
 PCOD9062002
Probable space group: P -1
;
_chemical_formula_sum "Si O2"
_cell_formula_units_Z 14
_cell_length_a 14.522631
_cell_length_b 8.814233
_cell_length_c 9.568648
_cell_angle_alpha 116.745136
_cell_angle_beta 82.001187
_cell_angle_gamma 140.761626
_cell_volume 642.590028
_symmetry_space_group_name_H-M "P -1"
_symmetry_group_IT_number 2
_symmetry_cell_setting 'triclinic'
loop_
_space_group_symop_operation_xyz
x,y,z
-x,-y,-z
loop_
_atom_site_type_symbol
_atom_site_label
_atom_site_fract_x
_atom_site_fract_y
_atom_site_fract_z
Si Si1 0.382504 0.562274 0.138023
Si Si2 0.649240 0.607690 0.466382
Si Si3 0.022490 0.686034 0.679488
Si Si4 0.091994 0.490354 0.058190
Si Si5 0.458063 0.999677 0.163793
Si Si6 0.106940 0.130848 0.236484
Si Si7 0.662668 0.741190 0.222500
O O1 0.462274 0.861135 0.225333
O O2 0.221651 0.325106 0.159069
O O3 0.500635 0.604271 0.201980
O O4 0.359838 0.464072 0.943876
O O5 0.500000 0.500000 0.500000
O O6 0.780342 0.769925 0.622578
O O7 0.718925 0.795408 0.389878
O O8 0.573324 0.318479 0.315803
O O9 0.000000 0.500000 0.500000
O O10 0.938717 0.532343 0.780150
O O11 0.967136 0.792879 0.685656
O O12 0.209703 0.972389 0.777037
O O13 0.275131 0.780056 0.109058
O O14 0.000000 0.500000 0.000000
O O15 0.021398 0.202656 0.908775
O O16 0.500000 0.000000 0.000000
#
# Coordination Sequence:
#
# PCOD9062002 Si02
#       7
#     2   2   2   2   2   2   2
#     4  11  23  46  78 100 139 196 242 290 359 439
#     4  12  27  45  72 110 146 183 238 301 361 427
#     4  12  29  47  72 109 147 193 248 301 361 431
#     4  12  28  48  76 106 147 190 243 300 367 435
#     4  12  27  46  74 106 141 187 245 292 355 434
#     4  12  26  50  75 103 148 199 236 299 371 428
#     4  11  25  45  73 105 148 186 240 296 361 435
#
# _framework density 21.786833000000001
#
# number of rings (size 3 to 8) (size 9 to 14) (size 15 to 20)
#    0.000    0.286    5.714    2.143    8.000    1.143 
#    0.000    0.000    0.000    0.000    0.000    0.000 
#    0.000    0.000    0.000    0.000    0.000    0.000 
#
# Total GULP energy -78341.920207 kJ/mol
# GULP energy per Si atom -5595.851443 kJ/mol
# Density = 2.173725 g / cm^3
# Si number density = 21.786833 Si / 1000 Ang^3
#
#
#
# Elastic Constant Matrix: (Units=GPa)
#
#
# Indices 1 2 3 4 5 6 
#
# 1 100.8264 9.4899 43.3728 -14.0311 -3.3499 6.1434
# 2 9.4899 57.5138 -7.5460 -5.4554 7.3892 12.9195
# 3 43.3728 -7.5460 91.5049 -3.0851 9.0804 -4.2235
# 4 -14.0311 -5.4554 -3.0851 38.1813 -11.9872 3.4450
# 5 -3.3499 7.3892 9.0804 -11.9872 34.1789 2.9791
# 6 6.1434 12.9195 -4.2235 3.4450 2.9791 39.0850
#
#
#
# Elastic Compliance Matrix: (Units=1/GPa)
#
#
# Indices 1 2 3 4 5 6 
#
# 1 0.015045 -0.003010 -0.007994 0.006949 0.006981 -0.003378
# 2 -0.003010 0.020290 0.003344 0.001095 -0.004697 -0.005611
# 3 -0.007994 0.003344 0.015710 -0.003702 -0.007216 0.002725
# 4 0.006949 0.001095 -0.003702 0.033416 0.013657 -0.005840
# 5 0.006981 -0.004697 -0.007216 0.013657 0.038050 -0.004428
# 6 -0.003378 -0.005611 0.002725 -0.005840 -0.004428 0.029118
#
#
# Mechanical properties :
#
#
# Convention : Reuss Voigt Hill
#
# Bulk Modulus (GPa) = 27.99105 37.83094 32.91100
# Shear Modulus (GPa) = 27.95519 35.92429 31.93974
#
# Velocity S-wave (km/s) = 3.58596 4.06507 3.83301
# Velocity P-wave (km/s) = 5.47915 6.27972 5.89304
#
# Compressibility (1/GPa) = 0.03572570
#
# Stress axis : x y z
#
# Youngs Moduli (GPa) = 66.46784 49.28475 63.65299
#
# Poissons Ratio (x) = 0.14835 0.50883
# Poissons Ratio (y) = 0.20007 -0.21286
# Poissons Ratio (z) = 0.53133 -0.16481
#
# Static dielectric constant tensor:
#      x y z
#    x 1.987930 -0.140200 -0.030780 
#    y -0.140200 1.854290 0.017750 
#    z -0.030780 0.017750 1.826250 
# 
# From -- ./inp_files/155701.got.cif
#   From: 2010.05.17/outbox.cif.g08.bks.cpg/sg2_78_cif.got.tgz:155701.got - 2010.06.03 11:33:40.
