data_PCOD9062866
_publ_section_title
;
Structure prediction by ZEFSAII (Michael W. Deem and Ramdas Pophale) SiO2 
 PCOD9062866
Probable space group: P -1
;
_chemical_formula_sum "Si O2"
_cell_formula_units_Z 14
_cell_length_a 9.048954
_cell_length_b 9.067490
_cell_length_c 13.381781
_cell_angle_alpha 93.255193
_cell_angle_beta 59.024214
_cell_angle_gamma 51.234462
_cell_volume 604.636056
_symmetry_space_group_name_H-M "P -1"
_symmetry_group_IT_number 2
_symmetry_cell_setting 'triclinic'
loop_
_space_group_symop_operation_xyz
x,y,z
-x,-y,-z
loop_
_atom_site_type_symbol
_atom_site_label
_atom_site_fract_x
_atom_site_fract_y
_atom_site_fract_z
Si Si1 0.178514 0.726086 0.600717
Si Si2 0.832695 0.190985 0.820425
Si Si3 0.610219 0.360591 0.688189
Si Si4 0.929584 0.704759 0.346156
Si Si5 0.723174 0.783464 0.729228
Si Si6 0.474859 0.885661 0.369735
Si Si7 0.690557 0.185074 0.082680
O O1 0.500000 0.500000 0.500000
O O2 0.183765 0.748491 0.479260
O O3 0.941344 0.757586 0.698784
O O4 0.091269 0.915418 0.711844
O O5 0.700052 0.245502 0.761670
O O6 0.897572 0.321582 0.796114
O O7 0.682522 0.253057 0.975952
O O8 0.449496 0.324756 0.703386
O O9 0.463665 0.608306 0.776840
O O10 0.699756 0.778868 0.366598
O O11 0.083742 0.488008 0.353586
O O12 0.798457 0.921387 0.464613
O O13 0.458777 0.876251 0.872390
O O14 0.588259 0.954798 0.688828
O O15 0.000000 0.000000 0.000000
#
# Coordination Sequence:
#
# PCOD9062866 Si02
#       7
#     2   2   2   2   2   2   2
#     4  12  26  45  78 112 145 186 246 310 369 433
#     4  12  24  49  72 103 151 198 238 299 375 441
#     4  12  24  48  75 105 147 196 242 306 375 430
#     4  11  24  42  75 108 149 187 244 302 376 430
#     4  12  26  44  73 111 146 187 247 305 361 435
#     4  11  24  45  71 114 146 187 241 312 366 441
#     4  12  29  49  73 104 150 200 247 298 371 444
#
# _framework density 23.154426000000001
#
# number of rings (size 3 to 8) (size 9 to 14) (size 15 to 20)
#    0.000    0.286    4.286    4.714    4.000    0.571 
#    0.000    2.857    0.000    0.000    0.000    0.000 
#    0.000    0.000    0.000    0.000    0.000    0.000 
#
# Total GULP energy -77970.960416 kJ/mol
# GULP energy per Si atom -5569.354315 kJ/mol
# Density = 2.310173 g / cm^3
# Si number density = 23.154426 Si / 1000 Ang^3
#
#
#
# Elastic Constant Matrix: (Units=GPa)
#
#
# Indices 1 2 3 4 5 6 
#
# 1 108.9467 44.3320 28.3416 -8.3750 -1.5313 -12.9185
# 2 44.3320 84.7206 28.9828 -7.0150 -13.2350 1.0943
# 3 28.3416 28.9828 61.5927 -20.3475 -10.8176 10.2192
# 4 -8.3750 -7.0150 -20.3475 49.6252 7.8188 -2.9140
# 5 -1.5313 -13.2350 -10.8176 7.8188 34.9376 -3.9940
# 6 -12.9185 1.0943 10.2192 -2.9140 -3.9940 45.6735
#
#
#
# Elastic Compliance Matrix: (Units=1/GPa)
#
#
# Indices 1 2 3 4 5 6 
#
# 1 0.013265 -0.005839 -0.004501 0.000244 -0.002542 0.004692
# 2 -0.005839 0.017203 -0.004884 -0.001378 0.004986 -0.000623
# 3 -0.004501 -0.004884 0.024736 0.007844 0.003180 -0.005912
# 4 0.000244 -0.001378 0.007844 0.023730 -0.003444 -0.000440
# 5 -0.002542 0.004986 0.003180 -0.003444 0.032275 0.001053
# 6 0.004692 -0.000623 -0.005912 -0.000440 0.001053 0.024623
#
#
# Mechanical properties :
#
#
# Convention : Reuss Voigt Hill
#
# Bulk Modulus (GPa) = 40.39562 50.95254 45.67408
# Shear Modulus (GPa) = 28.64803 36.28751 32.46777
#
# Velocity S-wave (km/s) = 3.52129 3.96308 3.74870
# Velocity P-wave (km/s) = 5.83238 6.55703 6.20529
#
# Compressibility (1/GPa) = 0.02475516
#
# Stress axis : x y z
#
# Youngs Moduli (GPa) = 75.38643 58.13056 40.42749
#
# Poissons Ratio (x) = 0.33943 0.18195
# Poissons Ratio (y) = 0.44019 0.19746
# Poissons Ratio (z) = 0.33928 0.28393
#
# Static dielectric constant tensor:
#      x y z
#    x 2.019210 -0.028510 -0.018370 
#    y -0.028510 1.958220 0.021780 
#    z -0.018370 0.021780 1.868610 
# 
# From -- ./inp_files/379463.got.cif
#   From: 2010.05.17/outbox.cif.g08.bks.cpg/sg2_190_cif.got.tgz:379463.got - 2010.06.03 11:33:40.
