data_PCOD9062563
_publ_section_title
;
Structure prediction by ZEFSAII (Michael W. Deem and Ramdas Pophale) SiO2 
 PCOD9062563
Probable space group: P -1
;
_chemical_formula_sum "Si O2"
_cell_formula_units_Z 14
_cell_length_a 9.634681
_cell_length_b 11.945485
_cell_length_c 9.596313
_cell_angle_alpha 115.383792
_cell_angle_beta 116.507900
_cell_angle_gamma 113.208324
_cell_volume 615.862401
_symmetry_space_group_name_H-M "P -1"
_symmetry_group_IT_number 2
_symmetry_cell_setting 'triclinic'
loop_
_space_group_symop_operation_xyz
x,y,z
-x,-y,-z
loop_
_atom_site_type_symbol
_atom_site_label
_atom_site_fract_x
_atom_site_fract_y
_atom_site_fract_z
Si Si1 0.204099 0.021081 0.608426
Si Si2 0.221010 0.644064 0.766028
Si Si3 0.248312 0.947220 0.904479
Si Si4 0.689197 0.348092 0.881843
Si Si5 0.927228 0.261386 0.818121
Si Si6 0.514606 0.321350 0.312525
Si Si7 0.138629 0.303117 0.202052
O O1 0.246022 0.000188 0.774803
O O2 0.140576 0.865859 0.404595
O O3 0.430427 0.205290 0.734907
O O4 0.000000 0.000000 0.500000
O O5 0.300445 0.831061 0.875229
O O6 0.382590 0.630485 0.770995
O O7 0.000000 0.500000 0.500000
O O8 0.185168 0.608734 0.893448
O O9 0.995191 0.811025 0.779737
O O10 0.408690 0.123064 0.169959
O O11 0.752684 0.273116 0.766284
O O12 0.818828 0.541921 0.987009
O O13 0.951056 0.208807 0.949223
O O14 0.313486 0.300532 0.230915
O O15 0.714567 0.488304 0.588391
#
# Coordination Sequence:
#
# PCOD9062563 Si02
#       7
#     2   2   2   2   2   2   2
#     4  12  28  45  70 106 143 185 229 284 353 418
#     4  12  22  44  71 103 137 175 236 285 340 412
#     4  12  24  44  72 102 135 182 227 288 339 410
#     4  11  25  47  69 102 139 187 234 283 348 409
#     4  11  25  47  71  99 142 186 230 287 349 413
#     4  11  24  41  70 100 138 176 228 287 346 397
#     4  11  25  45  68 104 137 179 231 284 345 411
#
# _framework density 22.73235
#
# number of rings (size 3 to 8) (size 9 to 14) (size 15 to 20)
#    0.000    0.571    4.286    3.000    0.000    5.143 
#    0.000    0.000    0.000    0.000    0.000    0.000 
#    0.000    0.000    0.000    0.000    0.000    0.000 
#
# Total GULP energy -78234.663278 kJ/mol
# GULP energy per Si atom -5588.190234 kJ/mol
# Density = 2.268061 g / cm^3
# Si number density = 22.732350 Si / 1000 Ang^3
#
#
#
# Elastic Constant Matrix: (Units=GPa)
#
#
# Indices 1 2 3 4 5 6 
#
# 1 156.5623 21.6183 34.9683 7.5923 -10.6967 19.3696
# 2 21.6183 72.6931 26.4533 6.9028 -11.6596 21.0528
# 3 34.9683 26.4533 115.9850 16.1138 -24.0821 1.5795
# 4 7.5923 6.9028 16.1138 36.5566 -0.4524 3.0983
# 5 -10.6967 -11.6596 -24.0821 -0.4524 38.1202 7.0938
# 6 19.3696 21.0528 1.5795 3.0983 7.0938 30.6498
#
#
#
# Elastic Compliance Matrix: (Units=1/GPa)
#
#
# Indices 1 2 3 4 5 6 
#
# 1 0.007567 0.000323 -0.001801 -0.000359 0.002077 -0.005356
# 2 0.000323 0.020606 -0.002842 -0.001271 0.007528 -0.015826
# 3 -0.001801 -0.002842 0.011534 -0.004243 0.005556 0.001639
# 4 -0.000359 -0.001271 -0.004243 0.029598 -0.002620 -0.001067
# 5 0.002077 0.007528 0.005556 -0.002620 0.035329 -0.014681
# 6 -0.005356 -0.015826 0.001639 -0.001067 -0.014681 0.050303
#
#
# Mechanical properties :
#
#
# Convention : Reuss Voigt Hill
#
# Bulk Modulus (GPa) = 32.18844 56.81336 44.50090
# Shear Modulus (GPa) = 28.74688 38.54536 33.64612
#
# Velocity S-wave (km/s) = 3.55995 4.12225 3.85138
# Velocity P-wave (km/s) = 5.57568 6.90680 6.27662
#
# Compressibility (1/GPa) = 0.03106705
#
# Stress axis : x y z
#
# Youngs Moduli (GPa) = 132.15750 48.52964 86.70079
#
# Poissons Ratio (x) = -0.01569 0.15615
# Poissons Ratio (y) = -0.04274 0.24641
# Poissons Ratio (z) = 0.23802 0.13793
#
# Static dielectric constant tensor:
#      x y z
#    x 1.651410 0.794070 -0.571970 
#    y 0.794070 -0.570840 2.009920 
#    z -0.571970 2.009920 0.225860 
# 
# From -- ./inp_files/190288.got.cif
#   From: 2010.05.17/outbox.cif.g08.bks.cpg/sg2_96_cif.got.tgz:190288.got - 2010.06.03 11:33:40.
