data_PCOD9062322
_publ_section_title
;
Structure prediction by ZEFSAII (Michael W. Deem and Ramdas Pophale) SiO2 
 PCOD9062322
Probable space group: P -1
;
_chemical_formula_sum "Si O2"
_cell_formula_units_Z 16
_cell_length_a 13.928974
_cell_length_b 9.277351
_cell_length_c 6.866067
_cell_angle_alpha 122.524880
_cell_angle_beta 94.922536
_cell_angle_gamma 75.049703
_cell_volume 721.252099
_symmetry_space_group_name_H-M "P -1"
_symmetry_group_IT_number 2
_symmetry_cell_setting 'triclinic'
loop_
_space_group_symop_operation_xyz
x,y,z
-x,-y,-z
loop_
_atom_site_type_symbol
_atom_site_label
_atom_site_fract_x
_atom_site_fract_y
_atom_site_fract_z
Si Si1 0.301442 0.800537 0.888268
Si Si2 0.982171 0.115791 0.385408
Si Si3 0.583733 0.382990 0.576017
Si Si4 0.130729 0.109856 0.072293
Si Si5 0.090252 0.497588 0.162680
Si Si6 0.530598 0.074913 0.863286
Si Si7 0.719686 0.456324 0.000492
Si Si8 0.585019 0.772439 0.392991
O O1 0.246815 0.719531 0.989550
O O2 0.245715 0.004748 0.005278
O O3 0.411978 0.778134 0.976752
O O4 0.324323 0.711085 0.616461
O O5 0.934289 0.321859 0.581619
O O6 0.082010 0.109473 0.275943
O O7 0.000000 0.000000 0.500000
O O8 0.918110 0.016650 0.165235
O O9 0.500000 0.500000 0.500000
O O10 0.635802 0.455584 0.819946
O O11 0.518884 0.261319 0.574003
O O12 0.109024 0.312012 0.145791
O O13 0.187858 0.499315 0.056206
O O14 0.000000 0.500000 0.000000
O O15 0.604121 0.919677 0.644194
O O16 0.435883 0.147640 0.766464
O O17 0.500000 0.000000 0.000000
O O18 0.669437 0.596614 0.258752
#
# Coordination Sequence:
#
# PCOD9062322 Si02
#       8
#     2   2   2   2   2   2   2   2
#     4  12  25  44  70 104 146 190 241 300 360 432
#     4  11  23  51  77 101 142 183 238 310 374 432
#     4  12  23  43  72 102 145 192 235 292 358 428
#     4  11  27  45  76 108 139 189 245 299 374 438
#     4  12  27  50  76 106 148 194 243 310 374 436
#     4  11  24  41  65  95 145 185 235 290 361 421
#     4  12  27  45  69 105 146 186 252 294 358 435
#     4  11  24  42  66  99 137 192 235 290 352 433
#
# _framework density 22.183644999999999
#
# number of rings (size 3 to 8) (size 9 to 14) (size 15 to 20)
#    0.000    0.500    5.000    3.000    3.500    1.000 
#    6.750    0.000    0.000    0.000    0.000    0.000 
#    0.000    0.000    0.000    0.000    0.000    0.000 
#
# Total GULP energy -89357.861745 kJ/mol
# GULP energy per Si atom -5584.866359 kJ/mol
# Density = 2.213315 g / cm^3
# Si number density = 22.183645 Si / 1000 Ang^3
#
#
#
# Elastic Constant Matrix: (Units=GPa)
#
#
# Indices 1 2 3 4 5 6 
#
# 1 53.2768 13.0907 8.7396 1.7088 -15.1158 4.3904
# 2 13.0907 142.9094 48.3552 0.5978 -19.4277 -4.5164
# 3 8.7396 48.3552 109.8412 11.3848 -13.6561 0.3014
# 4 1.7088 0.5978 11.3848 50.5095 5.6542 -5.2600
# 5 -15.1158 -19.4277 -13.6561 5.6542 31.2280 -3.0807
# 6 4.3904 -4.5164 0.3014 -5.2600 -3.0807 33.9457
#
#
#
# Elastic Compliance Matrix: (Units=1/GPa)
#
#
# Indices 1 2 3 4 5 6 
#
# 1 0.022169 -0.000696 0.000080 -0.002179 0.010496 -0.002346
# 2 -0.000696 0.008766 -0.003392 0.000444 0.003720 0.001693
# 3 0.000080 -0.003392 0.011315 -0.002962 0.003342 -0.000718
# 4 -0.002179 0.000444 -0.002962 0.021499 -0.005652 0.003186
# 5 0.010496 0.003720 0.003342 -0.005652 0.042105 0.002053
# 6 -0.002346 0.001693 -0.000718 0.003186 0.002053 0.030674
#
#
# Mechanical properties :
#
#
# Convention : Reuss Voigt Hill
#
# Bulk Modulus (GPa) = 29.21051 49.59983 39.40517
# Shear Modulus (GPa) = 32.06039 38.85943 35.45991
#
# Velocity S-wave (km/s) = 3.80574 4.18989 4.00243
# Velocity P-wave (km/s) = 5.70155 6.76862 6.25787
#
# Compressibility (1/GPa) = 0.03423426
#
# Stress axis : x y z
#
# Youngs Moduli (GPa) = 45.10829 114.07352 88.37492
#
# Poissons Ratio (x) = 0.07937 -0.00703
# Poissons Ratio (y) = 0.03139 0.29977
# Poissons Ratio (z) = -0.00359 0.38693
#
# Static dielectric constant tensor:
#      x y z
#    x 1.820500 0.010810 0.047530 
#    y 0.010810 1.915080 0.108400 
#    z 0.047530 0.108400 1.991090 
# 
# From -- ./inp_files/90918.got.cif
#   From: 2010.05.17/outbox.cif.g08.bks.cpg/sg2_46_cif.got.tgz:90918.got - 2010.06.03 11:33:40.
