data_PCOD9062695
_publ_section_title
;
Structure prediction by ZEFSAII (Michael W. Deem and Ramdas Pophale) SiO2 
 PCOD9062695
Probable space group: P -1
;
_chemical_formula_sum "Si O2"
_cell_formula_units_Z 14
_cell_length_a 22.592337
_cell_length_b 5.420512
_cell_length_c 6.588683
_cell_angle_alpha 49.195616
_cell_angle_beta 95.787823
_cell_angle_gamma 102.860186
_cell_volume 594.342801
_symmetry_space_group_name_H-M "P -1"
_symmetry_group_IT_number 2
_symmetry_cell_setting 'triclinic'
loop_
_space_group_symop_operation_xyz
x,y,z
-x,-y,-z
loop_
_atom_site_type_symbol
_atom_site_label
_atom_site_fract_x
_atom_site_fract_y
_atom_site_fract_z
Si Si1 0.819781 0.205281 0.007762
Si Si2 0.340702 0.507578 0.576570
Si Si3 0.255397 0.390956 0.948893
Si Si4 0.895383 0.843171 0.524601
Si Si5 0.642746 0.206314 0.008786
Si Si6 0.458194 0.734351 0.771221
Si Si7 0.987582 0.108315 0.715714
O O1 0.786830 0.443943 0.005903
O O2 0.778608 0.962663 0.961746
O O3 0.846075 0.986364 0.302937
O O4 0.871064 0.452000 0.762601
O O5 0.284111 0.577146 0.651251
O O6 0.353913 0.731838 0.262137
O O7 0.401669 0.567796 0.699770
O O8 0.328648 0.108787 0.746657
O O9 0.317288 0.448955 0.071822
O O10 0.957496 0.979023 0.349858
O O11 0.919664 0.968340 0.688254
O O12 0.575809 0.137419 0.118692
O O13 0.500000 0.000000 0.500000
O O14 0.500000 0.500000 0.000000
O O15 0.000000 0.500000 0.500000
O O16 0.000000 0.000000 0.000000
#
# Coordination Sequence:
#
# PCOD9062695 Si02
#       7
#     2   2   2   2   2   2   2
#     4  12  28  47  78 106 150 185 248 297 358 419
#     4  11  25  46  71 100 144 192 236 291 367 425
#     4  11  28  50  72 109 146 195 238 302 356 432
#     4  11  28  46  70 112 138 191 238 301 354 431
#     4  11  25  46  71 100 144 192 236 291 367 425
#     4  11  24  42  68 106 142 183 240 299 354 427
#     4  11  24  47  74  99 147 186 236 291 368 425
#
# _framework density 23.555427999999999
#
# number of rings (size 3 to 8) (size 9 to 14) (size 15 to 20)
#    0.000    0.857    1.429    3.429    8.000   11.429 
#    0.000    0.000    0.000    0.000    0.000    0.000 
#    0.000    0.000    0.000    0.000    0.000    0.000 
#
# Total GULP energy -78187.184800 kJ/mol
# GULP energy per Si atom -5584.798914 kJ/mol
# Density = 2.350181 g / cm^3
# Si number density = 23.555428 Si / 1000 Ang^3
#
#
#
# Elastic Constant Matrix: (Units=GPa)
#
#
# Indices 1 2 3 4 5 6 
#
# 1 65.9111 28.5285 14.9054 12.3420 -9.3696 2.6908
# 2 28.5285 110.3893 18.0908 -0.6089 -8.4635 18.4361
# 3 14.9054 18.0908 151.4443 4.7730 -4.0914 5.1239
# 4 12.3420 -0.6089 4.7730 31.6825 -3.9858 -9.6247
# 5 -9.3696 -8.4635 -4.0914 -3.9858 38.5011 1.9994
# 6 2.6908 18.4361 5.1239 -9.6247 1.9994 47.8493
#
#
#
# Elastic Compliance Matrix: (Units=1/GPa)
#
#
# Indices 1 2 3 4 5 6 
#
# 1 0.019136 -0.004461 -0.001016 -0.007281 0.002858 -0.000832
# 2 -0.004461 0.011095 -0.000750 0.001113 0.001585 -0.003786
# 3 -0.001016 -0.000750 0.006843 -0.000785 0.000263 -0.000556
# 4 -0.007281 0.001113 -0.000785 0.037029 0.001837 0.007436
# 5 0.002858 0.001585 0.000263 0.001837 0.027317 -0.001572
# 6 -0.000832 -0.003786 -0.000556 0.007436 -0.001572 0.024025
#
#
# Mechanical properties :
#
#
# Convention : Reuss Voigt Hill
#
# Bulk Modulus (GPa) = 40.61770 50.08824 45.35297
# Shear Modulus (GPa) = 34.22165 41.35456 37.78810
#
# Velocity S-wave (km/s) = 3.81571 4.19457 4.00962
# Velocity P-wave (km/s) = 6.05754 6.69099 6.38213
#
# Compressibility (1/GPa) = 0.02461981
#
# Stress axis : x y z
#
# Youngs Moduli (GPa) = 52.25737 90.13343 146.12742
#
# Poissons Ratio (x) = 0.40209 0.14842
# Poissons Ratio (y) = 0.23312 0.10966
# Poissons Ratio (z) = 0.05308 0.06764
#
# Static dielectric constant tensor:
#      x y z
#    x 2.017140 -0.016340 -0.060920 
#    y -0.016340 2.004490 0.034940 
#    z -0.060920 0.034940 1.879770 
# 
# From -- ./inp_files/121374.got.cif
#   From: 2010.05.17/outbox.cif.g08.bks.cpg/sg2_61_cif.got.tgz:121374.got - 2010.06.03 11:33:40.
