data_PCOD9062407
_publ_section_title
;
Structure prediction by ZEFSAII (Michael W. Deem and Ramdas Pophale) SiO2 
 PCOD9062407
Probable space group: P -1
;
_chemical_formula_sum "Si O2"
_cell_formula_units_Z 16
_cell_length_a 11.481502
_cell_length_b 9.418381
_cell_length_c 8.782889
_cell_angle_alpha 133.285174
_cell_angle_beta 88.429878
_cell_angle_gamma 81.975215
_cell_volume 674.545844
_symmetry_space_group_name_H-M "P -1"
_symmetry_group_IT_number 2
_symmetry_cell_setting 'triclinic'
loop_
_space_group_symop_operation_xyz
x,y,z
-x,-y,-z
loop_
_atom_site_type_symbol
_atom_site_label
_atom_site_fract_x
_atom_site_fract_y
_atom_site_fract_z
Si Si1 0.359630 0.251571 0.129648
Si Si2 0.250431 0.276156 0.847960
Si Si3 0.225571 0.668539 0.935796
Si Si4 0.037458 0.324344 0.140495
Si Si5 0.380769 0.795861 0.788742
Si Si6 0.792608 0.058659 0.615310
Si Si7 0.021013 0.221943 0.394441
Si Si8 0.233628 0.688981 0.480472
O O1 0.482512 0.267797 0.216040
O O2 0.262917 0.450936 0.322969
O O3 0.358406 0.259872 0.951555
O O4 0.340892 0.030681 0.002153
O O5 0.240892 0.465047 0.878472
O O6 0.259337 0.090342 0.598173
O O7 0.134192 0.291873 0.976157
O O8 0.084196 0.733571 0.955316
O O9 0.303059 0.659906 0.776067
O O10 0.273853 0.830194 0.155206
O O11 0.078407 0.214962 0.219648
O O12 0.995903 0.557321 0.366278
O O13 0.347061 0.766477 0.593553
O O14 0.800510 0.242599 0.640073
O O15 0.911473 0.927973 0.591785
O O16 0.886438 0.200949 0.350622
#
# Coordination Sequence:
#
# PCOD9062407 Si02
#       8
#     2   2   2   2   2   2   2   2
#     4  11  25  49  75 100 136 186 237 297 342 406
#     4  12  25  45  69  98 148 184 227 290 346 411
#     4  12  26  45  69 105 140 189 230 287 346 416
#     4  11  24  42  69  99 146 193 224 283 351 411
#     4  11  27  47  77 101 134 186 244 286 349 408
#     4  12  27  39  69 106 140 187 232 278 351 420
#     4  11  24  40  67 108 143 186 230 279 343 430
#     4  12  23  46  71 104 140 187 232 286 352 416
#
# _framework density 23.719664000000002
#
# number of rings (size 3 to 8) (size 9 to 14) (size 15 to 20)
#    0.000    0.500    6.250    1.125    5.250    2.000 
#    0.000    0.625    0.000    0.000    0.000    0.000 
#    0.000    0.000    0.000    0.000    0.000    0.000 
#
# Total GULP energy -89396.698385 kJ/mol
# GULP energy per Si atom -5587.293649 kJ/mol
# Density = 2.366568 g / cm^3
# Si number density = 23.719664 Si / 1000 Ang^3
#
#
#
# Elastic Constant Matrix: (Units=GPa)
#
#
# Indices 1 2 3 4 5 6 
#
# 1 60.2468 49.4337 -2.3542 3.1446 19.1854 -23.6446
# 2 49.4337 166.5054 25.3077 -5.1992 -2.2292 -22.3135
# 3 -2.3542 25.3077 87.9615 1.7782 21.5745 -3.1699
# 4 3.1446 -5.1992 1.7782 31.7181 -7.4324 3.3466
# 5 19.1854 -2.2292 21.5745 -7.4324 30.2419 -0.5772
# 6 -23.6446 -22.3135 -3.1699 3.3466 -0.5772 30.0306
#
#
#
# Elastic Compliance Matrix: (Units=1/GPa)
#
#
# Indices 1 2 3 4 5 6 
#
# 1 0.132816 -0.040100 0.053739 -0.064469 -0.139774 0.084948
# 2 -0.040100 0.019253 -0.018829 0.020927 0.045039 -0.020722
# 3 0.053739 -0.018829 0.036882 -0.030160 -0.068550 0.034258
# 4 -0.064469 0.020927 -0.030160 0.066319 0.079412 -0.044258
# 5 -0.139774 0.045039 -0.068550 0.079412 0.191781 -0.088986
# 6 0.084948 -0.020722 0.034258 -0.044258 -0.088986 0.091624
#
#
# Mechanical properties :
#
#
# Convention : Reuss Voigt Hill
#
# Bulk Modulus (GPa) = 5.60004 51.05424 28.32714
# Shear Modulus (GPa) = 8.21590 34.55320 21.38455
#
# Velocity S-wave (km/s) = 1.86313 3.82086 3.00585
# Velocity P-wave (km/s) = 2.64469 6.40594 4.90053
#
# Compressibility (1/GPa) = 0.17857012
#
# Stress axis : x y z
#
# Youngs Moduli (GPa) = 7.52923 51.94130 27.11369
#
# Poissons Ratio (x) = 2.08285 -1.45707
# Poissons Ratio (y) = 0.30192 0.51052
# Poissons Ratio (z) = -0.40461 0.97800
#
# Static dielectric constant tensor:
#      x y z
#    x 1.905310 0.001270 0.023190 
#    y 0.001270 1.921350 0.028430 
#    z 0.023190 0.028430 1.928520 
# 
# From -- ./inp_files/245939.got.cif
#   From: 2010.05.17/outbox.cif.g08.bks.cpg/sg2_123_cif.got.tgz:245939.got - 2010.06.03 11:33:40.
