data_PCOD9062270
_publ_section_title
;
Structure prediction by ZEFSAII (Michael W. Deem and Ramdas Pophale) SiO2 
 PCOD9062270
Probable space group: P -1
;
_chemical_formula_sum "Si O2"
_cell_formula_units_Z 16
_cell_length_a 21.610103
_cell_length_b 9.644666
_cell_length_c 12.129951
_cell_angle_alpha 46.495253
_cell_angle_beta 152.777254
_cell_angle_gamma 139.567969
_cell_volume 749.477702
_symmetry_space_group_name_H-M "P -1"
_symmetry_group_IT_number 2
_symmetry_cell_setting 'triclinic'
loop_
_space_group_symop_operation_xyz
x,y,z
-x,-y,-z
loop_
_atom_site_type_symbol
_atom_site_label
_atom_site_fract_x
_atom_site_fract_y
_atom_site_fract_z
Si Si1 0.863824 0.780702 0.863906
Si Si2 0.532061 0.455091 0.953524
Si Si3 0.093626 0.565124 0.728768
Si Si4 0.144585 0.454945 0.237143
Si Si5 0.399691 0.990043 0.951483
Si Si6 0.475460 0.774190 0.538953
Si Si7 0.650933 0.956495 0.507327
Si Si8 0.818598 0.458063 0.502673
O O1 0.894070 0.728499 0.815504
O O2 0.719644 0.832382 0.609272
O O3 0.854038 0.601504 0.037249
O O4 0.000000 0.000000 0.000000
O O5 0.526125 0.639120 0.772937
O O6 0.500000 0.500000 0.000000
O O7 0.695841 0.459843 0.220230
O O8 0.408026 0.222957 0.845689
O O9 0.000000 0.500000 0.500000
O O10 0.980671 0.576355 0.637032
O O11 0.237579 0.789543 0.809270
O O12 0.294024 0.639820 0.315032
O O13 0.187875 0.446516 0.439377
O O14 0.000000 0.500000 0.000000
O O15 0.501673 0.969491 0.221584
O O16 0.500000 0.000000 0.000000
O O17 0.587292 0.819347 0.589942
O O18 0.500000 0.000000 0.500000
O O19 0.772127 0.204319 0.582927
#
# Coordination Sequence:
#
# PCOD9062270 Si02
#       8
#     2   2   2   2   2   2   2   2
#     4  12  27  45  74 109 144 194 245 307 366 430
#     4  11  24  47  72 101 143 189 240 293 363 432
#     4  12  26  47  73 103 151 192 241 297 371 428
#     4  12  24  45  72 102 150 188 237 297 364 432
#     4  11  27  47  71 102 145 192 239 298 358 437
#     4  12  25  45  77 109 145 188 240 307 366 432
#     4  11  24  45  72 109 145 185 253 302 365 429
#     4  11  23  49  70 105 146 193 236 303 365 441
#
# _framework density 21.348201
#
# number of rings (size 3 to 8) (size 9 to 14) (size 15 to 20)
#    0.000    0.500    5.000    3.000    5.250    1.000 
#    0.000    1.875    0.000    0.000    0.000    0.000 
#    0.000    0.000    0.000    0.000    0.000    0.000 
#
# Total GULP energy -89331.132398 kJ/mol
# GULP energy per Si atom -5583.195775 kJ/mol
# Density = 2.129961 g / cm^3
# Si number density = 21.348201 Si / 1000 Ang^3
#
#
#
# Elastic Constant Matrix: (Units=GPa)
#
#
# Indices 1 2 3 4 5 6 
#
# 1 155.5405 73.2188 23.3826 7.1934 5.2118 -3.9695
# 2 73.2188 141.7445 53.4362 8.5211 -6.4770 3.9667
# 3 23.3826 53.4362 89.2643 -0.6830 1.8760 4.8348
# 4 7.1934 8.5211 -0.6830 48.2793 6.4014 0.9158
# 5 5.2118 -6.4770 1.8760 6.4014 46.5752 1.5855
# 6 -3.9695 3.9667 4.8348 0.9158 1.5855 44.8304
#
#
#
# Elastic Compliance Matrix: (Units=1/GPa)
#
#
# Indices 1 2 3 4 5 6 
#
# 1 0.008704 -0.004804 0.000564 -0.000242 -0.001672 0.001199
# 2 -0.004804 0.012052 -0.005979 -0.001842 0.002738 -0.000906
# 3 0.000564 -0.005979 0.014732 0.001417 -0.001649 -0.000980
# 4 -0.000242 -0.001842 0.001417 0.021529 -0.003234 -0.000337
# 5 -0.001672 0.002738 -0.001649 -0.003234 0.022582 -0.000945
# 6 0.001199 -0.000906 -0.000980 -0.000337 -0.000945 0.022639
#
#
# Mechanical properties :
#
#
# Convention : Reuss Voigt Hill
#
# Bulk Modulus (GPa) = 66.44084 76.29161 71.36622
# Shear Modulus (GPa) = 39.15712 43.70442 41.43077
#
# Velocity S-wave (km/s) = 4.28742 4.52953 4.41013
# Velocity P-wave (km/s) = 7.46319 7.94795 7.70938
#
# Compressibility (1/GPa) = 0.01505098
#
# Stress axis : x y z
#
# Youngs Moduli (GPa) = 114.89438 82.97672 67.87752
#
# Poissons Ratio (x) = 0.39863 -0.03830
# Poissons Ratio (y) = 0.55196 0.40581
# Poissons Ratio (z) = -0.06484 0.49608
#
# Static dielectric constant tensor:
#      x y z
#    x 1.693450 -0.059680 0.052940 
#    y -0.059680 1.712460 0.119320 
#    z 0.052940 0.119320 1.664340 
# 
# From -- ./inp_files/243348.got.cif
#   From: 2010.05.17/outbox.cif.g08.bks.cpg/sg2_122_cif.got.tgz:243348.got - 2010.06.03 11:33:40.
