data_PCOD9062050
_publ_section_title
;
Structure prediction by ZEFSAII (Michael W. Deem and Ramdas Pophale) SiO2 
 PCOD9062050
Probable space group: P -1
;
_chemical_formula_sum "Si O2"
_cell_formula_units_Z 13
_cell_length_a 7.760817
_cell_length_b 16.325476
_cell_length_c 11.619117
_cell_angle_alpha 22.002553
_cell_angle_beta 76.702712
_cell_angle_gamma 79.034992
_cell_volume 535.671114
_symmetry_space_group_name_H-M "P -1"
_symmetry_group_IT_number 2
_symmetry_cell_setting 'triclinic'
loop_
_space_group_symop_operation_xyz
x,y,z
-x,-y,-z
loop_
_atom_site_type_symbol
_atom_site_label
_atom_site_fract_x
_atom_site_fract_y
_atom_site_fract_z
Si Si1 0.671649 0.126710 0.753011
Si Si2 0.606799 0.168344 0.437074
Si Si3 0.247696 0.360242 0.288518
Si Si4 0.156403 0.180489 0.213676
Si Si5 0.176140 0.286183 0.657051
Si Si6 0.191356 0.502679 0.594417
Si Si7 0.000000 0.500000 0.000000
O O1 0.649318 0.145707 0.595075
O O2 0.691083 0.354307 0.520968
O O3 0.500000 0.000000 0.000000
O O4 0.820561 0.964271 0.979396
O O5 0.403315 0.227765 0.382642
O O6 0.665556 0.952087 0.646234
O O7 0.726578 0.383002 0.093144
O O8 0.259429 0.334341 0.456516
O O9 0.047829 0.318950 0.329683
O O10 0.129905 0.283727 0.958083
O O11 0.000000 0.000000 0.500000
O O12 0.132615 0.372232 0.058449
O O13 0.271664 0.432057 0.553369
O O14 0.977513 0.361145 0.584295
#
# Coordination Sequence:
#
# PCOD9062050 Si02
#       7
#     2   2   2   2   2   2   1
#     4  12  25  47  72 106 148 191 244 304 368 438
#     4  11  24  46  71 104 150 189 243 305 370 436
#     4  11  24  46  72 107 147 190 248 307 360 446
#     4  12  24  45  75 108 144 192 245 303 369 444
#     4  11  23  47  70 109 145 190 250 300 370 443
#     4  11  25  43  75 106 147 196 243 305 367 440
#     4  12  24  44  72 102 140 188 240 300 364 428
#
# _framework density 24.268619999999999
#
# number of rings (size 3 to 8) (size 9 to 14) (size 15 to 20)
#    0.000    0.615    6.154    1.385    0.000    1.231 
#    8.308    0.000    0.000    0.000    0.000    0.000 
#    0.000    0.000    0.000    0.000    0.000    0.000 
#
# Total GULP energy -72511.514051 kJ/mol
# GULP energy per Si atom -5577.808773 kJ/mol
# Density = 2.421338 g / cm^3
# Si number density = 24.268620 Si / 1000 Ang^3
#
#
#
# Elastic Constant Matrix: (Units=GPa)
#
#
# Indices 1 2 3 4 5 6 
#
# 1 59.8971 28.0222 39.1314 -4.8638 24.8359 -19.1274
# 2 28.0222 179.1662 47.3951 7.8521 13.2027 -14.1169
# 3 39.1314 47.3951 135.7875 25.6657 25.8894 -4.1604
# 4 -4.8638 7.8521 25.6657 45.8950 -1.6839 12.4756
# 5 24.8359 13.2027 25.8894 -1.6839 47.7379 -9.7264
# 6 -19.1274 -14.1169 -4.1604 12.4756 -9.7264 35.5882
#
#
#
# Elastic Compliance Matrix: (Units=1/GPa)
#
#
# Indices 1 2 3 4 5 6 
#
# 1 0.028996 -0.001493 -0.006548 0.003820 -0.008854 0.010468
# 2 -0.001493 0.006418 -0.001638 -0.000853 0.000251 0.001920
# 3 -0.006548 -0.001638 0.011601 -0.006662 -0.002927 -0.001278
# 4 0.003820 -0.000853 -0.006662 0.028484 0.001083 -0.008753
# 5 -0.008854 0.000251 -0.002927 0.001083 0.027548 0.002148
# 6 0.010468 0.001920 -0.001278 -0.008753 0.002148 0.037993
#
#
# Mechanical properties :
#
#
# Convention : Reuss Voigt Hill
#
# Bulk Modulus (GPa) = 36.15677 67.10535 51.63106
# Shear Modulus (GPa) = 29.47810 43.19770 36.33790
#
# Velocity S-wave (km/s) = 3.48898 4.22356 3.87372
# Velocity P-wave (km/s) = 5.58225 7.17605 6.42873
#
# Compressibility (1/GPa) = 0.02765734
#
# Stress axis : x y z
#
# Youngs Moduli (GPa) = 34.48776 155.80408 86.19755
#
# Poissons Ratio (x) = 0.23262 0.56444
# Poissons Ratio (y) = 0.05149 0.14117
# Poissons Ratio (z) = 0.22583 0.25517
#
# Static dielectric constant tensor:
#      x y z
#    x 2.608790 0.274490 -0.417120 
#    y 0.274490 2.053780 -0.153690 
#    z -0.417120 -0.153690 2.132280 
# 
# From -- ./inp_files/400867.got.cif
#   From: 2010.05.17/outbox.cif.g08.bks.cpg/sg2_201_cif.got.tgz:400867.got - 2010.06.03 11:33:40.
