data_PCOD9062374
_publ_section_title
;
Structure prediction by ZEFSAII (Michael W. Deem and Ramdas Pophale) SiO2 
 PCOD9062374
Probable space group: P -1
;
_chemical_formula_sum "Si O2"
_cell_formula_units_Z 14
_cell_length_a 14.371392
_cell_length_b 10.482521
_cell_length_c 7.365050
_cell_angle_alpha 70.263417
_cell_angle_beta 131.059307
_cell_angle_gamma 137.431171
_cell_volume 542.260744
_symmetry_space_group_name_H-M "P -1"
_symmetry_group_IT_number 2
_symmetry_cell_setting 'triclinic'
loop_
_space_group_symop_operation_xyz
x,y,z
-x,-y,-z
loop_
_atom_site_type_symbol
_atom_site_label
_atom_site_fract_x
_atom_site_fract_y
_atom_site_fract_z
Si Si1 0.203345 0.207807 0.699885
Si Si2 0.874030 0.562563 0.364335
Si Si3 0.666063 0.575925 0.577625
Si Si4 0.690518 0.972888 0.912016
Si Si5 0.318800 0.690742 0.430132
Si Si6 0.314050 0.811099 0.958134
Si Si7 0.976480 0.150034 0.887926
O O1 0.220945 0.369742 0.735301
O O2 0.278610 0.266735 0.567454
O O3 0.304833 0.180534 0.961046
O O4 0.000000 0.000000 0.500000
O O5 0.852492 0.465667 0.580157
O O6 0.027423 0.760032 0.342006
O O7 0.786902 0.378555 0.208262
O O8 0.500000 0.500000 0.500000
O O9 0.612203 0.402562 0.483891
O O10 0.833506 0.663996 0.868461
O O11 0.492742 0.877238 0.675677
O O12 0.770881 0.111654 0.126920
O O13 0.817323 0.078051 0.847161
O O14 0.303898 0.742030 0.185843
O O15 0.500000 0.000000 0.000000
O O16 0.000000 0.000000 0.000000
#
# Coordination Sequence:
#
# PCOD9062374 Si02
#       7
#     2   2   2   2   2   2   2
#     4  11  24  47  72 112 151 190 249 319 375 447
#     4  11  25  48  77 105 153 197 250 313 379 450
#     4  11  24  39  73 104 147 189 246 307 373 438
#     4  12  26  45  78 109 154 199 253 314 378 446
#     4  11  26  47  74 108 146 199 260 306 365 456
#     4  12  27  51  76 109 154 199 259 313 371 453
#     4  12  23  47  69 113 152 192 247 310 379 449
#
# _framework density 25.817837999999998
#
# number of rings (size 3 to 8) (size 9 to 14) (size 15 to 20)
#    0.000    0.571    5.714    1.286    4.000    1.714 
#    0.000    1.429    0.000    0.000    0.000    0.000 
#    0.000    0.000    0.000    0.000    0.000    0.000 
#
# Total GULP energy -77964.318200 kJ/mol
# GULP energy per Si atom -5568.879871 kJ/mol
# Density = 2.575908 g / cm^3
# Si number density = 25.817838 Si / 1000 Ang^3
#
#
#
# Elastic Constant Matrix: (Units=GPa)
#
#
# Indices 1 2 3 4 5 6 
#
# 1 157.2837 54.1418 8.9450 -8.9006 -30.5290 26.1223
# 2 54.1418 127.4301 18.8356 -17.7494 -18.0711 1.3503
# 3 8.9450 18.8356 103.5363 -13.7665 -24.3580 18.7849
# 4 -8.9006 -17.7494 -13.7665 39.7273 8.8058 -20.0228
# 5 -30.5290 -18.0711 -24.3580 8.8058 37.4954 -3.1614
# 6 26.1223 1.3503 18.7849 -20.0228 -3.1614 67.2710
#
#
#
# Elastic Compliance Matrix: (Units=1/GPa)
#
#
# Indices 1 2 3 4 5 6 
#
# 1 0.009620 -0.003652 0.002133 -0.002838 0.007725 -0.004740
# 2 -0.003652 0.010268 -0.001426 0.004765 0.000186 0.003037
# 3 0.002133 -0.001426 0.012534 0.000324 0.008796 -0.003790
# 4 -0.002838 0.004765 0.000324 0.033631 -0.006808 0.010606
# 5 0.007725 0.000186 0.008796 -0.006808 0.039889 -0.005612
# 6 -0.004740 0.003037 -0.003790 0.010606 -0.005612 0.020596
#
#
# Mechanical properties :
#
#
# Convention : Reuss Voigt Hill
#
# Bulk Modulus (GPa) = 37.69192 61.34389 49.51791
# Shear Modulus (GPa) = 35.39271 49.32060 42.35665
#
# Velocity S-wave (km/s) = 3.70653 4.37547 4.05482
# Velocity P-wave (km/s) = 5.74010 7.02412 6.41432
#
# Compressibility (1/GPa) = 0.02653089
#
# Stress axis : x y z
#
# Youngs Moduli (GPa) = 103.95201 97.39237 79.78505
#
# Poissons Ratio (x) = 0.35569 -0.17020
# Poissons Ratio (y) = 0.37965 0.11380
# Poissons Ratio (z) = -0.22176 0.13891
#
# Static dielectric constant tensor:
#      x y z
#    x 2.009760 0.046180 0.003050 
#    y 0.046180 2.175950 -0.011890 
#    z 0.003050 -0.011890 2.111180 
# 
# From -- ./inp_files/243671.got.cif
#   From: 2010.05.17/outbox.cif.g08.bks.cpg/sg2_122_cif.got.tgz:243671.got - 2010.06.03 11:33:40.
