data_PCOD9062410
_publ_section_title
;
Structure prediction by ZEFSAII (Michael W. Deem and Ramdas Pophale) SiO2 
 PCOD9062410
Probable space group: P -1
;
_chemical_formula_sum "Si O2"
_cell_formula_units_Z 14
_cell_length_a 15.225210
_cell_length_b 21.792873
_cell_length_c 5.178310
_cell_angle_alpha 82.925823
_cell_angle_beta 81.703920
_cell_angle_gamma 18.584312
_cell_volume 541.345113
_symmetry_space_group_name_H-M "P -1"
_symmetry_group_IT_number 2
_symmetry_cell_setting 'triclinic'
loop_
_space_group_symop_operation_xyz
x,y,z
-x,-y,-z
loop_
_atom_site_type_symbol
_atom_site_label
_atom_site_fract_x
_atom_site_fract_y
_atom_site_fract_z
Si Si1 0.577542 0.205582 0.917579
Si Si2 0.547512 0.833713 0.734908
Si Si3 0.659664 0.454308 0.553017
Si Si4 0.039828 0.602796 0.681265
Si Si5 0.173344 0.844844 0.305958
Si Si6 0.861927 0.936602 0.570558
Si Si7 0.972125 0.735259 0.136970
O O1 0.712780 0.182630 0.949298
O O2 0.347059 0.373261 0.712573
O O3 0.827520 0.000853 0.798929
O O4 0.432566 0.250176 0.132535
O O5 0.824521 0.688742 0.719589
O O6 0.433475 0.896399 0.464202
O O7 0.297189 0.042142 0.850960
O O8 0.500000 0.500000 0.500000
O O9 0.455341 0.640207 0.439527
O O10 0.946558 0.249043 0.396283
O O11 0.755396 0.402760 0.833769
O O12 0.988619 0.677444 0.407928
O O13 0.984693 0.682092 0.914864
O O14 0.997910 0.896306 0.327845
O O15 0.000000 0.000000 0.500000
#
# Coordination Sequence:
#
# PCOD9062410 Si02
#       7
#     2   2   2   2   2   2   2
#     4  11  24  40  68 100 142 181 232 293 348 416
#     4  11  26  42  67 102 137 187 235 288 346 416
#     4   9  18  41  71 100 139 179 235 284 346 415
#     4  12  27  46  72 103 141 188 233 290 345 414
#     4   9  18  38  66 100 139 179 226 287 352 413
#     4   9  22  40  68  95 142 178 236 285 350 410
#     4  11  26  47  73 101 141 185 235 287 348 414
#
# _framework density 25.861508000000001
#
# number of rings (size 3 to 8) (size 9 to 14) (size 15 to 20)
#    0.000    1.714    1.429    1.286    8.000    1.143 
#    0.000    3.571    0.000    0.000    0.000    0.000 
#    0.000    0.000    0.000    0.000    0.000    0.000 
#
# Total GULP energy -78090.973241 kJ/mol
# GULP energy per Si atom -5577.926660 kJ/mol
# Density = 2.580265 g / cm^3
# Si number density = 25.861508 Si / 1000 Ang^3
#
#
#
# Elastic Constant Matrix: (Units=GPa)
#
#
# Indices 1 2 3 4 5 6 
#
# 1 179.1264 45.2587 42.9619 -20.3116 -5.6391 -29.1437
# 2 45.2587 101.3993 13.4465 -14.6056 -4.5871 15.1706
# 3 42.9619 13.4465 93.6070 -15.3342 1.6409 2.1602
# 4 -20.3116 -14.6056 -15.3342 24.1973 9.1110 5.7986
# 5 -5.6391 -4.5871 1.6409 9.1110 43.0672 -4.0151
# 6 -29.1437 15.1706 2.1602 5.7986 -4.0151 53.3886
#
#
#
# Elastic Compliance Matrix: (Units=1/GPa)
#
#
# Indices 1 2 3 4 5 6 
#
# 1 0.008508 -0.004095 -0.003371 0.000642 0.001227 0.005967
# 2 -0.004095 0.013653 0.001416 0.007975 -0.001490 -0.007151
# 3 -0.003371 0.001416 0.013602 0.008736 -0.003027 -0.003969
# 4 0.000642 0.007975 0.008736 0.059381 -0.012865 -0.009686
# 5 0.001227 -0.001490 -0.003027 -0.012865 0.026488 0.004605
# 6 0.005967 -0.007151 -0.003969 -0.009686 0.004605 0.025579
#
#
# Mechanical properties :
#
#
# Convention : Reuss Voigt Hill
#
# Bulk Modulus (GPa) = 42.25868 64.16300 53.21084
# Shear Modulus (GPa) = 29.90449 42.29501 36.09975
#
# Velocity S-wave (km/s) = 3.40418 4.04845 3.74021
# Velocity P-wave (km/s) = 5.64155 6.83501 6.26675
#
# Compressibility (1/GPa) = 0.02366378
#
# Stress axis : x y z
#
# Youngs Moduli (GPa) = 117.53621 73.24214 73.51693
#
# Poissons Ratio (x) = 0.29995 0.24780
# Poissons Ratio (y) = 0.48134 -0.10409
# Poissons Ratio (z) = 0.39617 -0.10370
#
# Static dielectric constant tensor:
#      x y z
#    x 2.092930 -0.026410 -0.109160 
#    y -0.026410 2.053450 -0.033300 
#    z -0.109160 -0.033300 2.210490 
# 
# From -- ./inp_files/100560.got.cif
#   From: 2010.05.17/outbox.cif.g08.bks.cpg/sg2_51_cif.got.tgz:100560.got - 2010.06.03 11:33:40.
