data_PCOD9062069
_publ_section_title
;
Structure prediction by ZEFSAII (Michael W. Deem and Ramdas Pophale) SiO2 
 PCOD9062069
Probable space group: P -1
;
_chemical_formula_sum "Si O2"
_cell_formula_units_Z 14
_cell_length_a 15.945186
_cell_length_b 8.929348
_cell_length_c 12.817023
_cell_angle_alpha 123.278235
_cell_angle_beta 153.171392
_cell_angle_gamma 49.911559
_cell_volume 628.325864
_symmetry_space_group_name_H-M "P -1"
_symmetry_group_IT_number 2
_symmetry_cell_setting 'triclinic'
loop_
_space_group_symop_operation_xyz
x,y,z
-x,-y,-z
loop_
_atom_site_type_symbol
_atom_site_label
_atom_site_fract_x
_atom_site_fract_y
_atom_site_fract_z
Si Si1 0.327629 0.109085 0.763092
Si Si2 0.584555 0.039745 0.717299
Si Si3 0.385948 0.402254 0.766494
Si Si4 0.019724 0.834036 0.040217
Si Si5 0.012649 0.777702 0.412018
Si Si6 0.582500 0.204204 0.417455
Si Si7 0.891373 0.564896 0.020226
O O1 0.343513 0.258231 0.749203
O O2 0.137184 0.233390 0.668992
O O3 0.320359 0.919018 0.625185
O O4 0.500000 0.000000 0.000000
O O5 0.517356 0.259700 0.765610
O O6 0.500000 0.000000 0.500000
O O7 0.479557 0.943171 0.640814
O O8 0.827221 0.927816 0.938637
O O9 0.217453 0.590509 0.594328
O O10 0.500000 0.500000 0.000000
O O11 0.235766 0.762846 0.311802
O O12 0.008479 0.649253 0.897040
O O13 0.000000 0.000000 0.000000
O O14 0.939597 0.726717 0.199553
O O15 0.000000 0.000000 0.500000
O O16 0.353498 0.372608 0.218835
O O17 0.000000 0.500000 0.000000
#
# Coordination Sequence:
#
# PCOD9062069 Si02
#       7
#     2   2   2   2   2   2   2
#     4  11  24  48  74 104 148 195 248 309 371 454
#     4  11  23  47  71 106 152 187 244 314 369 447
#     4  11  27  45  73 109 145 196 253 310 378 447
#     4  12  26  44  77 110 146 197 246 307 383 446
#     4  12  28  49  76 108 151 204 254 310 380 449
#     4  11  25  45  75 106 150 194 246 304 375 443
#     4  12  27  48  75 109 151 195 252 310 375 448
#
# _framework density 22.281431999999999
#
# number of rings (size 3 to 8) (size 9 to 14) (size 15 to 20)
#    0.000    0.571    4.286    2.571    8.000    1.143 
#    2.571    0.000    0.000    0.000    0.000    0.000 
#    0.000    0.000    0.000    0.000    0.000    0.000 
#
# Total GULP energy -77986.881413 kJ/mol
# GULP energy per Si atom -5570.491530 kJ/mol
# Density = 2.223072 g / cm^3
# Si number density = 22.281432 Si / 1000 Ang^3
#
#
#
# Elastic Constant Matrix: (Units=GPa)
#
#
# Indices 1 2 3 4 5 6 
#
# 1 86.2820 46.1058 33.3339 8.2568 -5.4562 -26.4991
# 2 46.1058 192.1577 69.1051 6.2760 -10.4769 -32.3492
# 3 33.3339 69.1051 134.0059 -1.2832 1.5029 -25.5124
# 4 8.2568 6.2760 -1.2832 40.6093 -6.6675 -1.0755
# 5 -5.4562 -10.4769 1.5029 -6.6675 37.9455 -4.9238
# 6 -26.4991 -32.3492 -25.5124 -1.0755 -4.9238 47.6313
#
#
#
# Elastic Compliance Matrix: (Units=1/GPa)
#
#
# Indices 1 2 3 4 5 6 
#
# 1 0.015667 -0.001796 -0.001735 -0.002410 0.002278 0.006748
# 2 -0.001796 0.007210 -0.002803 -0.000423 0.002107 0.002604
# 3 -0.001735 -0.002803 0.009798 0.001003 -0.000936 0.002305
# 4 -0.002410 -0.000423 0.001003 0.025871 0.004031 -0.000090
# 5 0.002278 0.002107 -0.000936 0.004031 0.028690 0.005254
# 6 0.006748 0.002604 0.002305 -0.000090 0.005254 0.028293
#
#
# Mechanical properties :
#
#
# Convention : Reuss Voigt Hill
#
# Bulk Modulus (GPa) = 49.98208 78.83725 64.40966
# Shear Modulus (GPa) = 37.07312 42.83061 39.95186
#
# Velocity S-wave (km/s) = 4.08347 4.38911 4.23904
# Velocity P-wave (km/s) = 6.68684 7.81953 7.27526
#
# Compressibility (1/GPa) = 0.02000717
#
# Stress axis : x y z
#
# Youngs Moduli (GPa) = 63.82780 138.68964 102.05682
#
# Poissons Ratio (x) = 0.24914 0.17704
# Poissons Ratio (y) = 0.11466 0.28610
# Poissons Ratio (z) = 0.11072 0.38879
#
# Static dielectric constant tensor:
#      x y z
#    x 1.891160 0.000540 -0.017580 
#    y 0.000540 1.792250 0.042320 
#    z -0.017580 0.042320 1.820130 
# 
# From -- ./inp_files/448112.got.cif
#   From: 2010.05.17/outbox.cif.g08.bks.cpg/sg2_225_cif.got.tgz:448112.got - 2010.06.03 11:33:40.
