data_PCOD9062945
_publ_section_title
;
Structure prediction by ZEFSAII (Michael W. Deem and Ramdas Pophale) SiO2 
 PCOD9062945
Probable space group: P -1
;
_chemical_formula_sum "Si O2"
_cell_formula_units_Z 16
_cell_length_a 7.042625
_cell_length_b 18.075004
_cell_length_c 9.223634
_cell_angle_alpha 74.554383
_cell_angle_beta 47.718412
_cell_angle_gamma 59.393365
_cell_volume 742.279159
_symmetry_space_group_name_H-M "P -1"
_symmetry_group_IT_number 2
_symmetry_cell_setting 'triclinic'
loop_
_space_group_symop_operation_xyz
x,y,z
-x,-y,-z
loop_
_atom_site_type_symbol
_atom_site_label
_atom_site_fract_x
_atom_site_fract_y
_atom_site_fract_z
Si Si1 0.587841 0.333353 0.338180
Si Si2 0.746468 0.500535 0.774393
Si Si3 0.683635 0.551201 0.338790
Si Si4 0.159626 0.047826 0.971834
Si Si5 0.679415 0.229346 0.064674
Si Si6 0.265795 0.651916 0.273239
Si Si7 0.841185 0.950550 0.680775
Si Si8 0.079598 0.235415 0.331238
O O1 0.422841 0.422241 0.289354
O O2 0.419984 0.359538 0.562794
O O3 0.603843 0.263980 0.250082
O O4 0.913595 0.299388 0.248814
O O5 0.870409 0.410704 0.669592
O O6 0.990176 0.505704 0.746015
O O7 0.500000 0.500000 0.000000
O O8 0.500000 0.500000 0.500000
O O9 0.581092 0.586801 0.212414
O O10 0.126574 0.047914 0.162763
O O11 0.988953 0.145827 0.952622
O O12 0.500600 0.001507 0.790984
O O13 0.000000 0.000000 0.000000
O O14 0.416489 0.210609 0.163598
O O15 0.697617 0.298255 0.909431
O O16 0.067755 0.715823 0.468524
O O17 0.955801 0.851231 0.623646
O O18 0.000000 0.000000 0.500000
#
# Coordination Sequence:
#
# PCOD9062945 Si02
#       8
#     2   2   2   2   2   2   2   2
#     4  11  24  43  67  95 141 183 226 285 344 400
#     4  12  25  42  67 101 137 184 239 284 344 404
#     4  11  25  44  68  95 137 185 236 288 343 409
#     4  11  25  48  72 105 140 182 226 285 352 421
#     4  12  25  45  72 101 143 181 232 291 347 410
#     4  11  27  42  68 105 137 188 237 287 344 415
#     4  11  26  48  75 105 144 181 227 285 354 425
#     4  11  26  46  69 105 139 180 232 290 348 413
#
# _framework density 21.555230999999999
#
# number of rings (size 3 to 8) (size 9 to 14) (size 15 to 20)
#    0.000    0.750    5.000    1.125    7.000    2.000 
#    4.500    0.000    0.000    0.000    0.000    0.000 
#    0.000    0.000    0.000    0.000    0.000    0.000 
#
# Total GULP energy -89358.689076 kJ/mol
# GULP energy per Si atom -5584.918067 kJ/mol
# Density = 2.150617 g / cm^3
# Si number density = 21.555231 Si / 1000 Ang^3
#
#
#
# Elastic Constant Matrix: (Units=GPa)
#
#
# Indices 1 2 3 4 5 6 
#
# 1 166.5157 57.2845 41.7485 2.1001 -8.6837 -16.8112
# 2 57.2845 120.7437 27.5938 4.3134 -2.7885 -4.1570
# 3 41.7485 27.5938 61.4817 0.9540 -9.3370 -5.7172
# 4 2.1001 4.3134 0.9540 30.3431 3.8953 9.8952
# 5 -8.6837 -2.7885 -9.3370 3.8953 26.5949 2.5925
# 6 -16.8112 -4.1570 -5.7172 9.8952 2.5925 42.7406
#
#
#
# Elastic Compliance Matrix: (Units=1/GPa)
#
#
# Indices 1 2 3 4 5 6 
#
# 1 0.008319 -0.002896 -0.003948 -0.001020 0.000918 0.002643
# 2 -0.002896 0.010300 -0.002763 -0.001016 -0.000664 -0.000231
# 3 -0.003948 -0.002763 0.021186 -0.001053 0.005926 0.000897
# 4 -0.001020 -0.001016 -0.001053 0.036769 -0.005334 -0.008830
# 5 0.000918 -0.000664 0.005926 -0.005334 0.040707 -0.000145
# 6 0.002643 -0.000231 0.000897 -0.008830 -0.000145 0.026587
#
#
# Mechanical properties :
#
#
# Convention : Reuss Voigt Hill
#
# Bulk Modulus (GPa) = 48.56558 66.88829 57.72694
# Shear Modulus (GPa) = 29.42101 34.74334 32.08217
#
# Velocity S-wave (km/s) = 3.69848 4.01911 3.86213
# Velocity P-wave (km/s) = 6.38890 7.25508 6.83572
#
# Compressibility (1/GPa) = 0.02059072
#
# Stress axis : x y z
#
# Youngs Moduli (GPa) = 120.20443 97.08379 47.20139
#
# Poissons Ratio (x) = 0.28115 0.18636
# Poissons Ratio (y) = 0.34810 0.13042
# Poissons Ratio (z) = 0.47460 0.26825
#
# Static dielectric constant tensor:
#      x y z
#    x 1.806900 0.003980 0.013440 
#    y 0.003980 1.809080 0.049370 
#    z 0.013440 0.049370 1.809800 
# 
# From -- ./inp_files/138933.got.cif
#   From: 2010.05.17/outbox.cif.g08.bks.cpg/sg2_70_cif.got.tgz:138933.got - 2010.06.03 11:33:40.
