data_PCOD9062142
_publ_section_title
;
Structure prediction by ZEFSAII (Michael W. Deem and Ramdas Pophale) SiO2 
 PCOD9062142
Probable space group: P -1
;
_chemical_formula_sum "Si O2"
_cell_formula_units_Z 13
_cell_length_a 8.049408
_cell_length_b 8.759038
_cell_length_c 11.846069
_cell_angle_alpha 53.042452
_cell_angle_beta 54.998296
_cell_angle_gamma 79.473940
_cell_volume 529.643394
_symmetry_space_group_name_H-M "P -1"
_symmetry_group_IT_number 2
_symmetry_cell_setting 'triclinic'
loop_
_space_group_symop_operation_xyz
x,y,z
-x,-y,-z
loop_
_atom_site_type_symbol
_atom_site_label
_atom_site_fract_x
_atom_site_fract_y
_atom_site_fract_z
Si Si1 0.489053 0.390630 0.302575
Si Si2 0.621574 0.214426 0.817420
Si Si3 0.500000 0.500000 0.500000
Si Si4 0.867849 0.300316 0.079419
Si Si5 0.881664 0.981447 0.386993
Si Si6 0.802676 0.187276 0.537665
Si Si7 0.984460 0.630938 0.259984
O O1 0.470715 0.609365 0.179062
O O2 0.574446 0.423667 0.382260
O O3 0.632909 0.308872 0.196408
O O4 0.268592 0.233681 0.462986
O O5 0.622075 0.232224 0.670492
O O6 0.859441 0.266011 0.747665
O O7 0.500000 0.000000 0.000000
O O8 0.744614 0.637001 0.362476
O O9 0.913310 0.109627 0.205727
O O10 0.000000 0.500000 0.000000
O O11 0.917542 0.294340 0.931544
O O12 0.100857 0.967818 0.362019
O O13 0.767464 0.097854 0.468075
O O14 0.968299 0.396682 0.373800
#
# Coordination Sequence:
#
# PCOD9062142 Si02
#       7
#     2   2   1   2   2   2   2
#     4  12  26  47  76 108 154 204 253 307 392 451
#     4  12  29  47  77 114 152 202 261 318 378 459
#     4  12  24  44  80 104 154 202 244 314 382 448
#     4  12  26  45  72 116 152 192 254 321 374 456
#     4  11  25  45  78 108 151 204 252 312 385 460
#     4  11  23  47  76 106 150 202 255 309 384 458
#     4  12  25  50  77 110 157 200 254 315 383 455
#
# _framework density 24.544816999999998
#
# number of rings (size 3 to 8) (size 9 to 14) (size 15 to 20)
#    0.000    0.308    6.154    1.846    4.308    1.846 
#    0.000    2.308    0.000    0.000    0.000    0.000 
#    0.000    0.000    0.000    0.000    0.000    0.000 
#
# Total GULP energy -72583.472430 kJ/mol
# GULP energy per Si atom -5583.344033 kJ/mol
# Density = 2.448895 g / cm^3
# Si number density = 24.544817 Si / 1000 Ang^3
#
#
#
# Elastic Constant Matrix: (Units=GPa)
#
#
# Indices 1 2 3 4 5 6 
#
# 1 72.6897 11.0375 17.7935 5.2361 -7.2331 2.6176
# 2 11.0375 88.0218 23.3047 3.9014 10.0444 1.1652
# 3 17.7935 23.3047 125.2012 -0.8472 21.6804 7.7428
# 4 5.2361 3.9014 -0.8472 65.2825 2.7722 0.3993
# 5 -7.2331 10.0444 21.6804 2.7722 41.8704 -3.6030
# 6 2.6176 1.1652 7.7428 0.3993 -3.6030 48.7131
#
#
#
# Elastic Compliance Matrix: (Units=1/GPa)
#
#
# Indices 1 2 3 4 5 6 
#
# 1 0.015196 -0.001659 -0.002634 -0.001344 0.004475 -0.000016
# 2 -0.001659 0.012297 -0.001641 -0.000522 -0.002362 -0.000115
# 3 -0.002634 -0.001641 0.009694 0.000670 -0.005276 -0.001756
# 4 -0.001344 -0.000522 0.000670 0.015531 -0.001504 -0.000260
# 5 0.004475 -0.002362 -0.005276 -0.001504 0.028292 0.002760
# 6 -0.000016 -0.000115 -0.001756 -0.000260 0.002760 0.021017
#
#
# Mechanical properties :
#
#
# Convention : Reuss Voigt Hill
#
# Bulk Modulus (GPa) = 39.49357 43.35378 41.42367
# Shear Modulus (GPa) = 40.87138 46.75833 43.81485
#
# Velocity S-wave (km/s) = 4.08508 4.36939 4.22962
# Velocity P-wave (km/s) = 6.19482 6.56939 6.38485
#
# Compressibility (1/GPa) = 0.02532058
#
# Stress axis : x y z
#
# Youngs Moduli (GPa) = 65.80517 81.31752 103.16095
#
# Poissons Ratio (x) = 0.13491 0.27170
# Poissons Ratio (y) = 0.10917 0.16924
# Poissons Ratio (z) = 0.17332 0.13341
#
# Static dielectric constant tensor:
#      x y z
#    x 1.930410 0.010360 -0.069970 
#    y 0.010360 1.910890 0.071820 
#    z -0.069970 0.071820 1.863250 
# 
# From -- ./inp_files/156143.got.cif
#   From: 2010.05.17/outbox.cif.g08.bks.cpg/sg2_79_cif.got.tgz:156143.got - 2010.06.03 11:33:40.
