data_PCOD9062101
_publ_section_title
;
Structure prediction by ZEFSAII (Michael W. Deem and Ramdas Pophale) SiO2 
 PCOD9062101
Probable space group: P -1
;
_chemical_formula_sum "Si O2"
_cell_formula_units_Z 15
_cell_length_a 15.021512
_cell_length_b 7.775059
_cell_length_c 7.902512
_cell_angle_alpha 68.350559
_cell_angle_beta 115.091516
_cell_angle_gamma 64.574332
_cell_volume 557.905318
_symmetry_space_group_name_H-M "P -1"
_symmetry_group_IT_number 2
_symmetry_cell_setting 'triclinic'
loop_
_space_group_symop_operation_xyz
x,y,z
-x,-y,-z
loop_
_atom_site_type_symbol
_atom_site_label
_atom_site_fract_x
_atom_site_fract_y
_atom_site_fract_z
Si Si1 0.000000 0.000000 0.500000
Si Si2 0.315955 0.468137 0.837503
Si Si3 0.571016 0.782612 0.495323
Si Si4 0.803897 0.366522 0.678202
Si Si5 0.971273 0.720175 0.285185
Si Si6 0.136473 0.993637 0.384813
Si Si7 0.684773 0.971497 0.963174
Si Si8 0.618868 0.099765 0.250984
O O1 0.031311 0.099190 0.660384
O O2 0.003535 0.796386 0.710203
O O3 0.309236 0.496731 0.618109
O O4 0.180865 0.771317 0.652344
O O5 0.305247 0.267288 0.943510
O O6 0.458820 0.363472 0.055221
O O7 0.611718 0.891474 0.357174
O O8 0.500000 0.000000 0.500000
O O9 0.715747 0.490012 0.732207
O O10 0.451524 0.805198 0.330768
O O11 0.904139 0.403999 0.699452
O O12 0.878722 0.081488 0.780988
O O13 0.000000 0.500000 0.500000
O O14 0.821826 0.874654 0.036672
O O15 0.263854 0.961673 0.518310
O O16 0.661628 0.065019 0.103485
#
# Coordination Sequence:
#
# PCOD9062101 Si02
#       8
#     1   2   2   2   2   2   2   2
#     4  10  18  26  44  84 112 134 160 208 268 338
#     4   9  16  27  45  74 105 123 159 207 266 298
#     4  11  22  36  51  73 101 142 187 215 248 315
#     4   9  18  32  46  73 107 130 156 220 262 297
#     4  11  18  30  51  82 113 132 166 219 273 315
#     4   9  17  27  46  77 108 125 161 210 270 312
#     4  11  17  32  55  76 104 135 168 216 271 310
#     4  11  16  29  54  77  98 131 168 216 268 310
#
# _framework density 26.886282999999999
#
# number of rings (size 3 to 8) (size 9 to 14) (size 15 to 20)
#    0.800    1.067    5.333    1.200    0.000    0.000 
#    0.000    1.333    0.000    0.000    0.000    1.867 
#    0.000    0.000    0.000    0.000    0.000    0.000 
#
# Total GULP energy -83510.189786 kJ/mol
# GULP energy per Si atom -5567.345986 kJ/mol
# Density = 2.682509 g / cm^3
# Si number density = 26.886283 Si / 1000 Ang^3
#
#
#
# Elastic Constant Matrix: (Units=GPa)
#
#
# Indices 1 2 3 4 5 6 
#
# 1 117.7507 34.0172 42.0930 -8.3815 39.5025 -15.4342
# 2 34.0172 125.1373 21.8840 8.1495 9.1431 -36.0040
# 3 42.0930 21.8840 96.8952 -8.9615 43.7020 -5.6089
# 4 -8.3815 8.1495 -8.9615 29.0154 0.6599 4.2082
# 5 39.5025 9.1431 43.7020 0.6599 53.1958 -5.2208
# 6 -15.4342 -36.0040 -5.6089 4.2082 -5.2208 45.4153
#
#
#
# Elastic Compliance Matrix: (Units=1/GPa)
#
#
# Indices 1 2 3 4 5 6 
#
# 1 0.012781 -0.002849 -0.000651 0.004393 -0.008460 0.000625
# 2 -0.002849 0.012188 -0.003262 -0.006692 0.003700 0.009337
# 3 -0.000651 -0.003262 0.018316 0.007127 -0.014372 -0.002858
# 4 0.004393 -0.006692 0.007127 0.041157 -0.009243 -0.007808
# 5 -0.008460 0.003700 -0.014372 -0.009243 0.036696 0.003358
# 6 0.000625 0.009337 -0.002858 -0.007808 0.003358 0.030390
#
#
# Mechanical properties :
#
#
# Convention : Reuss Voigt Hill
#
# Bulk Modulus (GPa) = 33.60158 59.53017 46.56588
# Shear Modulus (GPa) = 28.57628 41.64457 35.11042
#
# Velocity S-wave (km/s) = 3.26369 3.93990 3.61763
# Velocity P-wave (km/s) = 5.16982 6.54878 5.89973
#
# Compressibility (1/GPa) = 0.02976050
#
# Stress axis : x y z
#
# Youngs Moduli (GPa) = 78.24282 82.04870 54.59805
#
# Poissons Ratio (x) = 0.23372 0.03554
# Poissons Ratio (y) = 0.22288 0.17812
# Poissons Ratio (z) = 0.05093 0.26768
#
# Static dielectric constant tensor:
#      x y z
#    x 2.225690 0.000400 -0.091170 
#    y 0.000400 2.441670 -0.126300 
#    z -0.091170 -0.126300 2.205440 
# 
# From -- ./inp_files/327740.got.cif
#   From: 2010.05.17/outbox.cif.g08.bks.cpg/sg2_164_cif.got.tgz:327740.got - 2010.06.03 11:33:40.
