data_PCOD9062112
_publ_section_title
;
Structure prediction by ZEFSAII (Michael W. Deem and Ramdas Pophale) SiO2 
 PCOD9062112
Probable space group: P -1
;
_chemical_formula_sum "Si O2"
_cell_formula_units_Z 8
_cell_length_a 10.880233
_cell_length_b 5.809418
_cell_length_c 14.254462
_cell_angle_alpha 53.226562
_cell_angle_beta 149.055645
_cell_angle_gamma 105.828637
_cell_volume 301.151964
_symmetry_space_group_name_H-M "P -1"
_symmetry_group_IT_number 2
_symmetry_cell_setting 'triclinic'
loop_
_space_group_symop_operation_xyz
x,y,z
-x,-y,-z
loop_
_atom_site_type_symbol
_atom_site_label
_atom_site_fract_x
_atom_site_fract_y
_atom_site_fract_z
Si Si1 0.011024 0.838691 0.819079
Si Si2 0.772179 0.871494 0.467418
Si Si3 0.651391 0.847153 0.037161
Si Si4 0.745036 0.976053 0.799147
O O1 0.896241 0.985000 0.603587
O O2 0.752743 0.020344 0.682148
O O3 0.253310 0.899067 0.992770
O O4 0.151022 0.423834 0.014429
O O5 0.044207 0.538005 0.673430
O O6 0.572178 0.786125 0.417362
O O7 0.562535 0.139065 0.184132
O O8 0.500000 0.000000 0.000000
O O9 0.000000 0.000000 0.000000
#
# Coordination Sequence:
#
# PCOD9062112 Si02
#       4
#     2   2   2   2
#     4  11  25  44  77 104 146 185 231 288 368 408
#     4  12  25  49  71 108 141 186 238 293 349 420
#     4  12  29  49  72 103 144 189 243 290 343 419
#     4  11  23  47  73 110 145 180 233 293 357 428
#
# _framework density 26.564665000000002
#
# number of rings (size 3 to 8) (size 9 to 14) (size 15 to 20)
#    0.000    0.500    5.000    1.500    3.500    6.000 
#    0.000    0.000    0.000    0.000    0.000    0.000 
#    0.000    0.000    0.000    0.000    0.000    0.000 
#
# Total GULP energy -44875.309861 kJ/mol
# GULP energy per Si atom -5609.413733 kJ/mol
# Density = 2.650420 g / cm^3
# Si number density = 26.564665 Si / 1000 Ang^3
#
#
#
# Elastic Constant Matrix: (Units=GPa)
#
#
# Indices 1 2 3 4 5 6 
#
# 1 189.2231 0.6776 42.6871 4.2192 30.8177 -47.5444
# 2 0.6776 49.3359 20.0876 21.6434 4.1091 11.4837
# 3 42.6871 20.0876 110.1295 -3.8368 18.8999 -17.6495
# 4 4.2192 21.6434 -3.8368 31.9889 -14.3536 -6.3238
# 5 30.8177 4.1091 18.8999 -14.3536 47.9612 -1.4447
# 6 -47.5444 11.4837 -17.6495 -6.3238 -1.4447 55.4756
#
#
#
# Elastic Compliance Matrix: (Units=1/GPa)
#
#
# Indices 1 2 3 4 5 6 
#
# 1 0.008011 0.001205 -0.001612 -0.003419 -0.005471 0.005571
# 2 0.001205 0.051457 -0.011971 -0.046977 -0.015102 -0.019176
# 3 -0.001612 -0.011971 0.013272 0.011416 0.000448 0.006632
# 4 -0.003419 -0.046977 0.011416 0.080779 0.026510 0.020325
# 5 -0.005471 -0.015102 0.000448 0.026510 0.033492 0.002474
# 6 0.005571 -0.019176 0.006632 0.020325 0.002474 0.031261
#
#
# Mechanical properties :
#
#
# Convention : Reuss Voigt Hill
#
# Bulk Modulus (GPa) = 20.84011 52.84367 36.84189
# Shear Modulus (GPa) = 19.30334 46.10087 32.70211
#
# Velocity S-wave (km/s) = 2.69858 4.17036 3.51242
# Velocity P-wave (km/s) = 4.19188 6.56695 5.50893
#
# Compressibility (1/GPa) = 0.04798439
#
# Stress axis : x y z
#
# Youngs Moduli (GPa) = 124.82367 19.43385 75.34454
#
# Poissons Ratio (x) = -0.02342 0.12149
# Poissons Ratio (y) = -0.15045 0.90193
# Poissons Ratio (z) = 0.20127 0.23264
#
# Static dielectric constant tensor:
#      x y z
#    x 2.091790 -0.005970 -0.010780 
#    y -0.005970 2.045630 -0.018240 
#    z -0.010780 -0.018240 2.051030 
# 
# From -- ./inp_files/1398.got.cif
#   From: 2010.05.17/outbox.cif.g08.bks.cpg/sg2_1_cif.got.tgz:1398.got - 2010.06.03 11:33:40.
