data_PCOD9062048
_publ_section_title
;
Structure prediction by ZEFSAII (Michael W. Deem and Ramdas Pophale) SiO2 
 PCOD9062048
Probable space group: P -1
;
_chemical_formula_sum "Si O2"
_cell_formula_units_Z 16
_cell_length_a 11.024147
_cell_length_b 5.662024
_cell_length_c 21.434871
_cell_angle_alpha 112.295979
_cell_angle_beta 30.956176
_cell_angle_gamma 107.510236
_cell_volume 635.918180
_symmetry_space_group_name_H-M "P -1"
_symmetry_group_IT_number 2
_symmetry_cell_setting 'triclinic'
loop_
_space_group_symop_operation_xyz
x,y,z
-x,-y,-z
loop_
_atom_site_type_symbol
_atom_site_label
_atom_site_fract_x
_atom_site_fract_y
_atom_site_fract_z
Si Si1 0.700076 0.285562 0.907493
Si Si2 0.236718 0.937533 0.269818
Si Si3 0.344846 0.512567 0.798995
Si Si4 0.723962 0.098454 0.622086
Si Si5 0.876520 0.185596 0.957150
Si Si6 0.477305 0.336589 0.397075
Si Si7 0.010779 0.385971 0.344268
Si Si8 0.038702 0.686495 0.774543
O O1 0.653611 0.102295 0.850844
O O2 0.721515 0.241880 0.967870
O O3 0.953219 0.405115 0.795517
O O4 0.500000 0.500000 0.000000
O O5 0.384593 0.980154 0.270992
O O6 0.129873 0.661328 0.309315
O O7 0.081066 0.199053 0.351519
O O8 0.597768 0.373858 0.692733
O O9 0.386611 0.619453 0.722899
O O10 0.130486 0.318360 0.863635
O O11 0.259830 0.703371 0.911147
O O12 0.638363 0.932213 0.586251
O O13 0.000000 0.000000 0.500000
O O14 0.941902 0.883834 0.889278
O O15 0.264876 0.541463 0.519651
O O16 0.682125 0.321443 0.354897
O O17 0.058571 0.237076 0.243078
#
# Coordination Sequence:
#
# PCOD9062048 Si02
#       8
#     2   2   2   2   2   2   2   2
#     4  11  24  46  70 100 142 187 241 307 368 438
#     4  11  25  45  70 107 146 192 243 298 369 433
#     4  11  26  42  72 106 144 194 242 305 370 440
#     4  12  25  45  68 104 149 190 247 300 369 442
#     4  11  23  47  70 104 144 185 249 305 366 445
#     4  12  25  44  72 103 143 196 238 306 368 440
#     4  11  25  46  74 107 146 192 246 304 362 442
#     4  11  24  46  71 106 139 187 247 300 374 441
#
# _framework density 25.16047
#
# number of rings (size 3 to 8) (size 9 to 14) (size 15 to 20)
#    0.000    0.750    5.000    1.875    1.750    4.000 
#    0.000    2.500    0.000    0.000    0.000    0.000 
#    0.000    0.000    0.000    0.000    0.000    0.000 
#
# Total GULP energy -89246.649673 kJ/mol
# GULP energy per Si atom -5577.915605 kJ/mol
# Density = 2.510320 g / cm^3
# Si number density = 25.160470 Si / 1000 Ang^3
#
#
#
# Elastic Constant Matrix: (Units=GPa)
#
#
# Indices 1 2 3 4 5 6 
#
# 1 111.2658 23.0569 10.6174 3.0993 5.4332 -13.5234
# 2 23.0569 71.1486 13.5208 -6.6639 -4.3402 -0.9711
# 3 10.6174 13.5208 83.3396 15.9932 0.1270 7.4450
# 4 3.0993 -6.6639 15.9932 43.1908 3.3858 -3.7050
# 5 5.4332 -4.3402 0.1270 3.3858 52.6630 7.3926
# 6 -13.5234 -0.9711 7.4450 -3.7050 7.3926 45.5618
#
#
#
# Elastic Compliance Matrix: (Units=1/GPa)
#
#
# Indices 1 2 3 4 5 6 
#
# 1 0.010265 -0.003239 -0.000999 -0.000437 -0.001772 0.003393
# 2 -0.003239 0.016085 -0.002895 0.003666 0.001443 -0.000081
# 3 -0.000999 -0.002895 0.014015 -0.005894 0.000664 -0.003235
# 4 -0.000437 0.003666 -0.005894 0.026361 -0.001803 0.003348
# 5 -0.001772 0.001443 0.000664 -0.001803 0.019965 -0.003990
# 6 0.003393 -0.000081 -0.003235 0.003348 -0.003990 0.024402
#
#
# Mechanical properties :
#
#
# Convention : Reuss Voigt Hill
#
# Bulk Modulus (GPa) = 38.31662 40.01604 39.16633
# Shear Modulus (GPa) = 37.29654 42.85370 40.07512
#
# Velocity S-wave (km/s) = 3.85430 4.13148 3.99530
# Velocity P-wave (km/s) = 5.92195 6.22075 6.07319
#
# Compressibility (1/GPa) = 0.02609834
#
# Stress axis : x y z
#
# Youngs Moduli (GPa) = 97.41679 62.16813 71.35078
#
# Poissons Ratio (x) = 0.20139 0.07127
# Poissons Ratio (y) = 0.31558 0.20659
# Poissons Ratio (z) = 0.09730 0.18001
#
# Static dielectric constant tensor:
#      x y z
#    x 1.991370 0.069130 0.000800 
#    y 0.069130 2.085680 -0.021570 
#    z 0.000800 -0.021570 2.025030 
# 
# From -- ./inp_files/71987.got.cif
#   From: 2010.05.17/outbox.cif.g08.bks.cpg/sg2_36_cif.got.tgz:71987.got - 2010.06.03 11:33:40.
