data_PCOD9062453
_publ_section_title
;
Structure prediction by ZEFSAII (Michael W. Deem and Ramdas Pophale) SiO2 
 PCOD9062453
Probable space group: P -1
;
_chemical_formula_sum "Si O2"
_cell_formula_units_Z 12
_cell_length_a 5.379441
_cell_length_b 21.902355
_cell_length_c 6.283327
_cell_angle_alpha 110.477928
_cell_angle_beta 50.107479
_cell_angle_gamma 93.684844
_cell_volume 518.744026
_symmetry_space_group_name_H-M "P -1"
_symmetry_group_IT_number 2
_symmetry_cell_setting 'triclinic'
loop_
_space_group_symop_operation_xyz
x,y,z
-x,-y,-z
loop_
_atom_site_type_symbol
_atom_site_label
_atom_site_fract_x
_atom_site_fract_y
_atom_site_fract_z
Si Si1 0.443737 0.327205 0.695114
Si Si2 0.884226 0.653042 0.680467
Si Si3 0.522773 0.223005 0.172869
Si Si4 0.744794 0.545657 0.352998
Si Si5 0.901978 0.864315 0.510747
Si Si6 0.689772 0.049133 0.337554
O O1 0.511742 0.256789 0.452362
O O2 0.389498 0.387264 0.628070
O O3 0.796870 0.333550 0.603555
O O4 0.142901 0.339345 0.040737
O O5 0.588796 0.713834 0.843939
O O6 0.864870 0.578418 0.537287
O O7 0.248212 0.178506 0.284295
O O8 0.873305 0.180692 0.847457
O O9 0.500000 0.500000 0.500000
O O10 0.000000 0.500000 0.000000
O O11 0.576000 0.909189 0.631566
O O12 0.148727 0.904407 0.537856
O O13 0.500000 0.000000 0.500000
O O14 0.000000 0.000000 0.000000
#
# Coordination Sequence:
#
# PCOD9062453 Si02
#       6
#     2   2   2   2   2   2
#     4  11  24  42  66  93 136 177 222 295 348 407
#     4  11  24  42  66  93 136 177 222 295 348 407
#     4  11  26  43  66 105 136 175 236 290 348 419
#     4  11  24  41  62  95 132 173 234 280 344 427
#     4  12  26  44  76 104 142 190 236 290 348 426
#     4  12  26  48  72 106 146 186 234 288 348 414
#
# _framework density 23.132791999999998
#
# number of rings (size 3 to 8) (size 9 to 14) (size 15 to 20)
#    0.000    0.667    0.000    7.000    7.000    9.333 
#    0.000    0.000    0.000    0.000    0.000    0.000 
#    0.000    0.000    0.000    0.000    0.000    0.000 
#
# Total GULP energy -67096.281635 kJ/mol
# GULP energy per Si atom -5591.356803 kJ/mol
# Density = 2.308014 g / cm^3
# Si number density = 23.132792 Si / 1000 Ang^3
#
#
#
# Elastic Constant Matrix: (Units=GPa)
#
#
# Indices 1 2 3 4 5 6 
#
# 1 83.4441 36.6046 20.1042 10.6776 -4.5871 16.3926
# 2 36.6046 112.2107 46.6406 -1.7122 -7.3289 20.1411
# 3 20.1042 46.6406 169.3463 -1.3785 -19.7303 13.1094
# 4 10.6776 -1.7122 -1.3785 42.7778 4.8787 -5.2592
# 5 -4.5871 -7.3289 -19.7303 4.8787 37.3439 -0.5773
# 6 16.3926 20.1411 13.1094 -5.2592 -0.5773 40.4463
#
#
#
# Elastic Compliance Matrix: (Units=1/GPa)
#
#
# Indices 1 2 3 4 5 6 
#
# 1 0.015455 -0.004073 -0.000203 -0.004790 0.001544 -0.004770
# 2 -0.004073 0.011913 -0.002491 0.000963 0.000344 -0.003344
# 3 -0.000203 -0.002491 0.007065 -0.000310 0.003245 -0.000961
# 4 -0.004790 0.000963 -0.000310 0.025633 -0.003837 0.004840
# 5 0.001544 0.000344 0.003245 -0.003837 0.029221 -0.001931
# 6 -0.004770 -0.003344 -0.000961 0.004840 -0.001931 0.029236
#
#
# Mechanical properties :
#
#
# Convention : Reuss Voigt Hill
#
# Bulk Modulus (GPa) = 47.84788 63.52222 55.68505
# Shear Modulus (GPa) = 35.96515 41.55705 38.76110
#
# Velocity S-wave (km/s) = 3.94728 4.24306 4.09784
# Velocity P-wave (km/s) = 6.44233 7.17803 6.82011
#
# Compressibility (1/GPa) = 0.02089957
#
# Stress axis : x y z
#
# Youngs Moduli (GPa) = 64.70560 83.94010 141.54217
#
# Poissons Ratio (x) = 0.34191 0.02869
# Poissons Ratio (y) = 0.26356 0.35254
# Poissons Ratio (z) = 0.01312 0.20907
#
# Static dielectric constant tensor:
#      x y z
#    x 2.055530 -0.040270 0.026980 
#    y -0.040270 1.857420 0.018220 
#    z 0.026980 0.018220 1.799190 
# 
# From -- ./inp_files/7114.got.cif
#   From: 2010.05.17/outbox.cif.g08.bks.cpg/sg2_4_cif.got.tgz:7114.got - 2010.06.03 11:33:40.
