data_PCOD9062180
_publ_section_title
;
Structure prediction by ZEFSAII (Michael W. Deem and Ramdas Pophale) SiO2 
 PCOD9062180
Probable space group: P -1
;
_chemical_formula_sum "Si O2"
_cell_formula_units_Z 14
_cell_length_a 5.044616
_cell_length_b 24.273480
_cell_length_c 5.145301
_cell_angle_alpha 117.572951
_cell_angle_beta 87.174827
_cell_angle_gamma 91.105556
_cell_volume 557.801866
_symmetry_space_group_name_H-M "P -1"
_symmetry_group_IT_number 2
_symmetry_cell_setting 'triclinic'
loop_
_space_group_symop_operation_xyz
x,y,z
-x,-y,-z
loop_
_atom_site_type_symbol
_atom_site_label
_atom_site_fract_x
_atom_site_fract_y
_atom_site_fract_z
Si Si1 0.036957 0.183643 0.872774
Si Si2 0.312592 0.884759 0.631660
Si Si3 0.877498 0.413543 0.549846
Si Si4 0.303813 0.461863 0.239545
Si Si5 0.389394 0.355596 0.641239
Si Si6 0.158198 0.941526 0.260119
Si Si7 0.490896 0.778851 0.749565
O O1 0.929105 0.161668 0.548400
O O2 0.041512 0.116552 0.865275
O O3 0.309953 0.214809 0.001747
O O4 0.800436 0.221170 0.107623
O O5 0.365970 0.917886 0.422726
O O6 0.496064 0.837301 0.679632
O O7 0.262528 0.940526 0.960153
O O8 0.047736 0.433233 0.333143
O O9 0.091822 0.373639 0.612311
O O10 0.790211 0.481098 0.813041
O O11 0.609963 0.373893 0.455687
O O12 0.500000 0.500000 0.500000
O O13 0.444542 0.404078 0.972376
O O14 0.430819 0.283794 0.538286
O O15 0.000000 0.000000 0.500000
#
# Coordination Sequence:
#
# PCOD9062180 Si02
#       7
#     2   2   2   2   2   2   2
#     4   9  23  41  71  94 147 184 243 294 367 415
#     4   9  21  41  70 100 148 190 237 302 363 421
#     4  11  25  44  67 101 133 174 228 294 362 434
#     4  11  25  44  70 101 139 176 229 298 375 431
#     4  12  26  42  72  97 137 185 239 292 366 440
#     4   9  18  40  72 108 142 189 245 299 362 432
#     4  11  23  48  63 104 136 199 241 299 356 448
#
# _framework density 25.098514000000002
#
# number of rings (size 3 to 8) (size 9 to 14) (size 15 to 20)
#    0.857    0.857    1.429    2.143    4.000    3.429 
#    2.571    5.000    0.000    0.000    0.000    0.000 
#    0.000    0.000    0.000    0.000    0.000    0.000 
#
# Total GULP energy -78064.592194 kJ/mol
# GULP energy per Si atom -5576.042300 kJ/mol
# Density = 2.504139 g / cm^3
# Si number density = 25.098514 Si / 1000 Ang^3
#
#
#
# Elastic Constant Matrix: (Units=GPa)
#
#
# Indices 1 2 3 4 5 6 
#
# 1 111.7960 10.9290 27.7488 -8.4617 1.2864 -18.0740
# 2 10.9290 46.4498 38.7712 15.4573 -2.7844 -28.3849
# 3 27.7488 38.7712 126.1430 2.8017 -6.0526 -19.1859
# 4 -8.4617 15.4573 2.8017 43.5483 -11.8122 -5.0703
# 5 1.2864 -2.7844 -6.0526 -11.8122 22.3313 -0.3989
# 6 -18.0740 -28.3849 -19.1859 -5.0703 -0.3989 29.5723
#
#
#
# Elastic Compliance Matrix: (Units=1/GPa)
#
#
# Indices 1 2 3 4 5 6 
#
# 1 0.010849 0.005364 -0.002456 0.001711 0.000470 0.010486
# 2 0.005364 0.080527 -0.015463 -0.019736 -0.003701 0.067106
# 3 -0.002456 -0.015463 0.012131 0.004328 0.003653 -0.007682
# 4 0.001711 -0.019736 0.004328 0.033315 0.016072 -0.009162
# 5 0.000470 -0.003701 0.003653 0.016072 0.053829 0.002587
# 6 0.010486 0.067106 -0.007682 -0.009162 0.002587 0.098116
#
#
# Mechanical properties :
#
#
# Convention : Reuss Voigt Hill
#
# Bulk Modulus (GPa) = 12.75554 48.80964 30.78259
# Shear Modulus (GPa) = 14.70536 32.88636 23.79586
#
# Velocity S-wave (km/s) = 2.42317 3.62372 3.08246
# Velocity P-wave (km/s) = 3.59475 6.08259 4.99601
#
# Compressibility (1/GPa) = 0.07839731
#
# Stress axis : x y z
#
# Youngs Moduli (GPa) = 92.17155 12.41813 82.43092
#
# Poissons Ratio (x) = -0.06661 0.20243
# Poissons Ratio (y) = -0.49438 1.27465
# Poissons Ratio (z) = 0.22636 0.19203
#
# Static dielectric constant tensor:
#      x y z
#    x 2.048330 0.005590 -0.054070 
#    y 0.005590 2.004920 -0.057940 
#    z -0.054070 -0.057940 2.080190 
# 
# From -- ./inp_files/13931.got.cif
#   From: 2010.05.17/outbox.cif.g08.bks.cpg/sg2_7_cif.got.tgz:13931.got - 2010.06.03 11:33:40.
