data_PCOD9062898
_publ_section_title
;
Structure prediction by ZEFSAII (Michael W. Deem and Ramdas Pophale) SiO2 
 PCOD9062898
Probable space group: P -1
;
_chemical_formula_sum "Si O2"
_cell_formula_units_Z 16
_cell_length_a 8.018342
_cell_length_b 10.400479
_cell_length_c 25.070308
_cell_angle_alpha 155.377474
_cell_angle_beta 55.288162
_cell_angle_gamma 125.913345
_cell_volume 701.413303
_symmetry_space_group_name_H-M "P -1"
_symmetry_group_IT_number 2
_symmetry_cell_setting 'triclinic'
loop_
_space_group_symop_operation_xyz
x,y,z
-x,-y,-z
loop_
_atom_site_type_symbol
_atom_site_label
_atom_site_fract_x
_atom_site_fract_y
_atom_site_fract_z
Si Si1 0.408084 0.783362 0.386068
Si Si2 0.201792 0.754761 0.835736
Si Si3 0.634074 0.107385 0.363168
Si Si4 0.939047 0.192831 0.001302
Si Si5 0.930977 0.126083 0.806574
Si Si6 0.611609 0.929456 0.881403
Si Si7 0.064420 0.048566 0.566883
Si Si8 0.698141 0.859631 0.643821
O O1 0.455962 0.444757 0.241627
O O2 0.500000 0.000000 0.500000
O O3 0.483252 0.962926 0.385117
O O4 0.174142 0.749485 0.436773
O O5 0.416852 0.986509 0.902536
O O6 0.204357 0.400958 0.681215
O O7 0.074518 0.923086 0.880099
O O8 0.079069 0.705315 0.895532
O O9 0.677134 0.483552 0.504063
O O10 0.508861 0.047742 0.307603
O O11 0.845438 0.974436 0.276768
O O12 0.708859 0.072613 0.973699
O O13 0.037900 0.499821 0.065993
O O14 0.815467 0.016626 0.840692
O O15 0.775405 0.972218 0.730287
O O16 0.879900 0.011042 0.627398
O O17 0.000000 0.000000 0.500000
#
# Coordination Sequence:
#
# PCOD9062898 Si02
#       8
#     2   2   2   2   2   2   2   2
#     4  12  22  40  69 100 137 174 224 280 343 406
#     4  11  25  46  70 100 136 179 233 288 335 402
#     4  11  25  42  68 102 139 180 223 272 350 416
#     4  11  26  47  70  97 136 183 237 281 339 400
#     4  12  25  45  68  98 141 181 226 283 341 401
#     4  12  26  44  72 102 137 182 230 284 339 408
#     4  12  22  41  69 100 138 172 225 281 339 408
#     4  11  24  43  66 100 140 180 217 280 346 407
#
# _framework density 22.811088999999999
#
# number of rings (size 3 to 8) (size 9 to 14) (size 15 to 20)
#    0.000    0.500    3.750    4.875    0.000    2.500 
#    0.000    0.000    0.000    0.000    0.000    0.000 
#    0.000    0.000    0.000    0.000    0.000    0.000 
#
# Total GULP energy -89266.986467 kJ/mol
# GULP energy per Si atom -5579.186654 kJ/mol
# Density = 2.275917 g / cm^3
# Si number density = 22.811089 Si / 1000 Ang^3
#
#
#
# Elastic Constant Matrix: (Units=GPa)
#
#
# Indices 1 2 3 4 5 6 
#
# 1 117.5647 17.7421 30.5655 12.2317 4.7302 -4.6239
# 2 17.7421 57.6616 17.7548 16.1402 -9.0323 -2.5488
# 3 30.5655 17.7548 68.4278 16.7592 -4.1222 -6.5440
# 4 12.2317 16.1402 16.7592 30.2104 -2.3939 2.7643
# 5 4.7302 -9.0323 -4.1222 -2.3939 29.7807 -2.1248
# 6 -4.6239 -2.5488 -6.5440 2.7643 -2.1248 27.9056
#
#
#
# Elastic Compliance Matrix: (Units=1/GPa)
#
#
# Indices 1 2 3 4 5 6 
#
# 1 0.010051 -0.002015 -0.003807 -0.001147 -0.002792 0.000490
# 2 -0.002015 0.022399 -0.001855 -0.009876 0.006258 0.002732
# 3 -0.003807 -0.001855 0.019487 -0.008527 0.002396 0.004797
# 4 -0.001147 -0.009876 -0.008527 0.044185 -0.000980 -0.007543
# 5 -0.002792 0.006258 0.002396 -0.000980 0.036426 0.003542
# 6 0.000490 0.002732 0.004797 -0.007543 0.003542 0.038307
#
#
# Mechanical properties :
#
#
# Convention : Reuss Voigt Hill
#
# Bulk Modulus (GPa) = 27.33455 41.75321 34.54388
# Shear Modulus (GPa) = 25.20113 29.41879 27.30996
#
# Velocity S-wave (km/s) = 3.32742 3.59509 3.46384
# Velocity P-wave (km/s) = 5.17410 5.96461 5.58336
#
# Compressibility (1/GPa) = 0.03658373
#
# Stress axis : x y z
#
# Youngs Moduli (GPa) = 99.49493 44.64460 51.31529
#
# Poissons Ratio (x) = 0.08995 0.19537
# Poissons Ratio (y) = 0.20047 0.09517
# Poissons Ratio (z) = 0.37879 0.08280
#
# Static dielectric constant tensor:
#      x y z
#    x 1.934610 0.008820 0.004750 
#    y 0.008820 1.810550 -0.020630 
#    z 0.004750 -0.020630 1.801050 
# 
# From -- ./inp_files/622483.got.cif
#   From: 2010.05.17/outbox.cif.g08.bks.cpg/sg2_312_cif.got.tgz:622483.got - 2010.06.03 11:33:40.
