data_PCOD9062938
_publ_section_title
;
Structure prediction by ZEFSAII (Michael W. Deem and Ramdas Pophale) SiO2 
 PCOD9062938
Probable space group: P -1
;
_chemical_formula_sum "Si O2"
_cell_formula_units_Z 16
_cell_length_a 21.963455
_cell_length_b 10.869561
_cell_length_c 5.653759
_cell_angle_alpha 112.560677
_cell_angle_beta 124.140198
_cell_angle_gamma 36.704289
_cell_volume 661.673403
_symmetry_space_group_name_H-M "P -1"
_symmetry_group_IT_number 2
_symmetry_cell_setting 'triclinic'
loop_
_space_group_symop_operation_xyz
x,y,z
-x,-y,-z
loop_
_atom_site_type_symbol
_atom_site_label
_atom_site_fract_x
_atom_site_fract_y
_atom_site_fract_z
Si Si1 0.533351 0.339986 0.141046
Si Si2 0.237401 0.961944 0.304598
Si Si3 0.567303 0.914593 0.333774
Si Si4 0.095704 0.719189 0.766055
Si Si5 0.309234 0.029692 0.134427
Si Si6 0.140594 0.869499 0.333668
Si Si7 0.128886 0.365372 0.630958
Si Si8 0.305006 0.531323 0.788827
O O1 0.416913 0.445360 0.079846
O O2 0.592552 0.142717 0.965669
O O3 0.500000 0.500000 0.000000
O O4 0.633819 0.238053 0.464164
O O5 0.160617 0.949693 0.229128
O O6 0.253641 0.971281 0.071038
O O7 0.182211 0.175515 0.443368
O O8 0.633283 0.963137 0.530007
O O9 0.653580 0.671371 0.348101
O O10 0.500000 0.000000 0.500000
O O11 0.500000 0.000000 0.000000
O O12 0.123179 0.525796 0.654746
O O13 0.193467 0.662379 0.798835
O O14 0.106501 0.770438 0.088714
O O15 0.962522 0.933894 0.581373
O O16 0.209753 0.249674 0.952340
O O17 0.260152 0.682322 0.587428
O O18 0.000000 0.500000 0.500000
#
# Coordination Sequence:
#
# PCOD9062938 Si02
#       8
#     2   2   2   2   2   2   2   2
#     4  11  24  43  67 106 145 188 249 306 378 473
#     4  11  24  45  71 102 141 195 245 321 381 467
#     4  12  27  48  78 116 160 206 261 324 396 476
#     4  11  26  45  70 104 143 196 249 318 386 463
#     4  11  26  44  71 106 148 193 258 317 388 466
#     4  11  25  46  68 106 148 185 258 315 385 468
#     4  11  24  48  73 102 145 190 257 316 379 463
#     4  12  25  44  76 100 149 196 244 311 396 451
#
# _framework density 24.181113
#
# number of rings (size 3 to 8) (size 9 to 14) (size 15 to 20)
#    0.000    0.750    3.750    2.625    7.000    2.000 
#    4.500    0.000    0.000    0.000    0.000    0.000 
#    0.000    0.000    0.000    0.000    0.000    0.000 
#
# Total GULP energy -89510.581010 kJ/mol
# GULP energy per Si atom -5594.411313 kJ/mol
# Density = 2.412608 g / cm^3
# Si number density = 24.181113 Si / 1000 Ang^3
#
#
#
# Elastic Constant Matrix: (Units=GPa)
#
#
# Indices 1 2 3 4 5 6 
#
# 1 142.7757 45.1621 6.5432 0.8488 10.8043 -12.1522
# 2 45.1621 138.8677 48.7087 -7.2529 2.9070 11.3242
# 3 6.5432 48.7087 66.8248 3.0499 10.7706 -4.6414
# 4 0.8488 -7.2529 3.0499 38.2401 1.5620 11.4845
# 5 10.8043 2.9070 10.7706 1.5620 36.0514 -3.2627
# 6 -12.1522 11.3242 -4.6414 11.4845 -3.2627 39.3757
#
#
#
# Elastic Compliance Matrix: (Units=1/GPa)
#
#
# Indices 1 2 3 4 5 6 
#
# 1 0.008961 -0.004607 0.003402 -0.002753 -0.002753 0.005066
# 2 -0.004607 0.013245 -0.010411 0.005724 0.002458 -0.007924
# 3 0.003402 -0.010411 0.024094 -0.006160 -0.006374 0.008152
# 4 -0.002753 0.005724 -0.006160 0.031538 -0.000289 -0.012444
# 5 -0.002753 0.002458 -0.006374 -0.000289 0.030308 0.000288
# 6 0.005066 -0.007924 0.008152 -0.012444 0.000288 0.033853
#
#
# Mechanical properties :
#
#
# Convention : Reuss Voigt Hill
#
# Bulk Modulus (GPa) = 43.34898 61.03290 52.19094
# Shear Modulus (GPa) = 28.91514 39.27039 34.09277
#
# Velocity S-wave (km/s) = 3.46175 4.03427 3.75893
# Velocity P-wave (km/s) = 5.82615 6.85530 6.36157
#
# Compressibility (1/GPa) = 0.02306859
#
# Stress axis : x y z
#
# Youngs Moduli (GPa) = 111.59244 75.50274 41.50345
#
# Poissons Ratio (x) = 0.34782 -0.14118
# Poissons Ratio (y) = 0.51408 0.43208
# Poissons Ratio (z) = -0.37960 0.78603
#
# Static dielectric constant tensor:
#      x y z
#    x 2.004630 -0.012640 -0.036420 
#    y -0.012640 1.897630 0.029910 
#    z -0.036420 0.029910 1.987050 
# 
# From -- ./inp_files/70056.got.cif
#   From: 2010.05.17/outbox.cif.g08.bks.cpg/sg2_36_cif.got.tgz:70056.got - 2010.06.03 11:33:40.
