data_PCOD9062780
_publ_section_title
;
Structure prediction by ZEFSAII (Michael W. Deem and Ramdas Pophale) SiO2 
 PCOD9062780
Probable space group: P -1
;
_chemical_formula_sum "Si O2"
_cell_formula_units_Z 14
_cell_length_a 19.272104
_cell_length_b 16.644882
_cell_length_c 6.391476
_cell_angle_alpha 42.387215
_cell_angle_beta 47.123193
_cell_angle_gamma 25.199406
_cell_volume 587.959763
_symmetry_space_group_name_H-M "P -1"
_symmetry_group_IT_number 2
_symmetry_cell_setting 'triclinic'
loop_
_space_group_symop_operation_xyz
x,y,z
-x,-y,-z
loop_
_atom_site_type_symbol
_atom_site_label
_atom_site_fract_x
_atom_site_fract_y
_atom_site_fract_z
Si Si1 0.755150 0.817723 0.349218
Si Si2 0.472338 0.905413 0.364240
Si Si3 0.610747 0.446066 0.691835
Si Si4 0.215347 0.585340 0.290827
Si Si5 0.174513 0.831667 0.577260
Si Si6 0.968461 0.444073 0.364113
Si Si7 0.309363 0.909578 0.361851
O O1 0.807018 0.653947 0.415177
O O2 0.891947 0.689169 0.494391
O O3 0.590383 0.987879 0.489066
O O4 0.750235 0.936248 0.982937
O O5 0.628796 0.660937 0.533539
O O6 0.339390 0.956653 0.419464
O O7 0.500000 0.000000 0.000000
O O8 0.763096 0.351036 0.677738
O O9 0.688471 0.286834 0.656396
O O10 0.489756 0.668864 0.415950
O O11 0.500000 0.500000 0.000000
O O12 0.060474 0.658301 0.463611
O O13 0.215460 0.666194 0.928732
O O14 0.192906 0.914936 0.556176
O O15 0.000000 0.000000 0.500000
O O16 0.000000 0.500000 0.000000
#
# Coordination Sequence:
#
# PCOD9062780 Si02
#       7
#     2   2   2   2   2   2   2
#     4  11  24  42  70  98 140 180 229 285 349 405
#     4  11  25  44  70 105 133 179 238 287 343 413
#     4  11  25  46  70  99 141 184 233 286 345 413
#     4  11  25  45  72  98 142 181 229 292 341 418
#     4  12  27  45  70 105 141 185 237 284 356 420
#     4  11  25  46  69 100 143 185 230 286 352 412
#     4  11  24  42  72  98 138 183 230 286 348 419
#
# _framework density 23.811153000000001
#
# number of rings (size 3 to 8) (size 9 to 14) (size 15 to 20)
#    0.000    0.857    1.429    4.714    4.000    9.714 
#    2.571    0.000    0.000    0.000    0.000    0.000 
#    0.000    0.000    0.000    0.000    0.000    0.000 
#
# Total GULP energy -78304.956354 kJ/mol
# GULP energy per Si atom -5593.211168 kJ/mol
# Density = 2.375696 g / cm^3
# Si number density = 23.811153 Si / 1000 Ang^3
#
#
#
# Elastic Constant Matrix: (Units=GPa)
#
#
# Indices 1 2 3 4 5 6 
#
# 1 195.1458 21.9633 40.5627 4.5622 3.6464 2.0064
# 2 21.9633 76.7789 7.5217 -1.4488 8.0814 23.3232
# 3 40.5627 7.5217 118.3335 -21.4237 10.1462 0.6452
# 4 4.5622 -1.4488 -21.4237 33.8424 -9.4995 7.4623
# 5 3.6464 8.0814 10.1462 -9.4995 37.7430 -7.4793
# 6 2.0064 23.3232 0.6452 7.4623 -7.4793 34.3084
#
#
#
# Elastic Compliance Matrix: (Units=1/GPa)
#
#
# Indices 1 2 3 4 5 6 
#
# 1 0.005899 -0.002044 -0.002413 -0.002743 0.000167 0.001723
# 2 -0.002044 0.018669 0.000658 0.002988 -0.006111 -0.014567
# 3 -0.002413 0.000658 0.010683 0.007242 -0.001431 -0.002395
# 4 -0.002743 0.002988 0.007242 0.038180 0.005481 -0.009117
# 5 0.000167 -0.006111 -0.001431 0.005481 0.031503 0.009847
# 6 0.001723 -0.014567 -0.002395 -0.009117 0.009847 0.043124
#
#
# Mechanical properties :
#
#
# Convention : Reuss Voigt Hill
#
# Bulk Modulus (GPa) = 36.16000 58.92818 47.54409
# Shear Modulus (GPa) = 30.32645 42.52611 36.42628
#
# Velocity S-wave (km/s) = 3.57266 4.23066 3.91551
# Velocity P-wave (km/s) = 5.67782 6.97614 6.36020
#
# Compressibility (1/GPa) = 0.02765487
#
# Stress axis : x y z
#
# Youngs Moduli (GPa) = 169.51538 53.56434 93.60828
#
# Poissons Ratio (x) = 0.10948 0.22584
# Poissons Ratio (y) = 0.34648 -0.06163
# Poissons Ratio (z) = 0.40897 -0.03526
#
# Static dielectric constant tensor:
#      x y z
#    x 1.935920 -0.001070 -0.028720 
#    y -0.001070 1.941040 -0.005180 
#    z -0.028720 -0.005180 1.832440 
# 
# From -- ./inp_files/101247.got.cif
#   From: 2010.05.17/outbox.cif.g08.bks.cpg/sg2_51_cif.got.tgz:101247.got - 2010.06.03 11:33:40.
