data_PCOD9062073
_publ_section_title
;
Structure prediction by ZEFSAII (Michael W. Deem and Ramdas Pophale) SiO2 
 PCOD9062073
Probable space group: P -1
;
_chemical_formula_sum "Si O2"
_cell_formula_units_Z 16
_cell_length_a 12.534331
_cell_length_b 15.438202
_cell_length_c 8.787725
_cell_angle_alpha 94.301393
_cell_angle_beta 98.135675
_cell_angle_gamma 27.252533
_cell_volume 765.983682
_symmetry_space_group_name_H-M "P -1"
_symmetry_group_IT_number 2
_symmetry_cell_setting 'triclinic'
loop_
_space_group_symop_operation_xyz
x,y,z
-x,-y,-z
loop_
_atom_site_type_symbol
_atom_site_label
_atom_site_fract_x
_atom_site_fract_y
_atom_site_fract_z
Si Si1 0.528610 0.971161 0.223979
Si Si2 0.484207 0.699471 0.219134
Si Si3 0.945024 0.958995 0.596704
Si Si4 0.390783 0.893180 0.664289
Si Si5 0.272329 0.320546 0.570619
Si Si6 0.385724 0.411211 0.117016
Si Si7 0.544407 0.464079 0.322965
Si Si8 0.891933 0.674117 0.999345
O O1 0.594760 0.860800 0.362465
O O2 0.680078 0.821477 0.098169
O O3 0.626418 0.998573 0.259754
O O4 0.251374 0.184417 0.156663
O O5 0.670835 0.640576 0.298209
O O6 0.530159 0.571604 0.276962
O O7 0.241179 0.897256 0.284589
O O8 0.498526 0.677519 0.038482
O O9 0.192364 0.755425 0.686314
O O10 0.838039 0.965010 0.461258
O O11 0.000000 0.000000 0.500000
O O12 0.606178 0.740256 0.569574
O O13 0.459987 0.767625 0.777156
O O14 0.000000 0.500000 0.500000
O O15 0.389612 0.502769 0.210098
O O16 0.114303 0.574499 0.072111
O O17 0.500000 0.500000 0.500000
O O18 0.000000 0.500000 0.000000
#
# Coordination Sequence:
#
# PCOD9062073 Si02
#       8
#     2   2   2   2   2   2   2   2
#     4  11  25  42  72 101 140 193 232 284 361 413
#     4  11  27  45  69 104 141 181 239 290 352 424
#     4  11  23  47  71  99 140 180 235 298 344 425
#     4  11  24  43  69 104 138 186 234 282 361 421
#     4  11  25  45  71 104 143 187 238 294 345 428
#     4  12  25  45  72 104 144 185 235 296 354 421
#     4  12  25  47  74 100 136 187 236 290 361 413
#     4  11  24  44  68 104 147 183 233 293 351 425
#
# _framework density 20.888173999999999
#
# number of rings (size 3 to 8) (size 9 to 14) (size 15 to 20)
#    0.000    0.750    3.750    3.000    7.000    2.500 
#    0.000    0.000    0.000    0.000    0.000    0.000 
#    0.000    0.000    0.000    0.000    0.000    0.000 
#
# Total GULP energy -89349.165601 kJ/mol
# GULP energy per Si atom -5584.322850 kJ/mol
# Density = 2.084063 g / cm^3
# Si number density = 20.888174 Si / 1000 Ang^3
#
#
#
# Elastic Constant Matrix: (Units=GPa)
#
#
# Indices 1 2 3 4 5 6 
#
# 1 97.9469 39.8101 5.9262 -13.7685 19.7171 3.0106
# 2 39.8101 83.0099 29.2021 -13.2121 18.8370 5.3259
# 3 5.9262 29.2021 71.4015 4.9887 -14.9214 -1.2926
# 4 -13.7685 -13.2121 4.9887 39.2647 -1.9268 2.1668
# 5 19.7171 18.8370 -14.9214 -1.9268 44.3761 -6.2147
# 6 3.0106 5.3259 -1.2926 2.1668 -6.2147 43.8471
#
#
#
# Elastic Compliance Matrix: (Units=1/GPa)
#
#
# Indices 1 2 3 4 5 6 
#
# 1 0.013482 -0.005006 -0.000113 0.002922 -0.003920 -0.001021
# 2 -0.005006 0.022778 -0.011956 0.007113 -0.011829 -0.004804
# 3 -0.000113 -0.011956 0.022126 -0.006477 0.012881 0.004258
# 4 0.002922 0.007113 -0.006477 0.029624 -0.005703 -0.003528
# 5 -0.003920 -0.011829 0.012881 -0.005703 0.034395 0.007243
# 6 -0.001021 -0.004804 0.004258 -0.003528 0.007243 0.024786
#
#
# Mechanical properties :
#
#
# Convention : Reuss Voigt Hill
#
# Bulk Modulus (GPa) = 41.26243 44.69278 42.97760
# Shear Modulus (GPa) = 26.39608 37.32560 31.86084
#
# Velocity S-wave (km/s) = 3.55869 4.23179 3.90975
# Velocity P-wave (km/s) = 6.05661 6.73202 6.40323
#
# Compressibility (1/GPa) = 0.02423512
#
# Stress axis : x y z
#
# Youngs Moduli (GPa) = 74.17161 43.90149 45.19544
#
# Poissons Ratio (x) = 0.21977 0.00512
# Poissons Ratio (y) = 0.37130 0.54038
# Poissons Ratio (z) = 0.00841 0.52490
#
# Static dielectric constant tensor:
#      x y z
#    x 1.787620 -0.009630 0.018040 
#    y -0.009630 1.749270 -0.007880 
#    z 0.018040 -0.007880 1.839020 
# 
# From -- ./inp_files/272905.got.cif
#   From: 2010.05.17/outbox.cif.g08.bks.cpg/sg2_137_cif.got.tgz:272905.got - 2010.06.03 11:33:40.
