data_PCOD9062326
_publ_section_title
;
Structure prediction by ZEFSAII (Michael W. Deem and Ramdas Pophale) SiO2 
 PCOD9062326
Probable space group: P -1
;
_chemical_formula_sum "Si O2"
_cell_formula_units_Z 16
_cell_length_a 16.320802
_cell_length_b 7.268286
_cell_length_c 12.746901
_cell_angle_alpha 96.862768
_cell_angle_beta 28.664570
_cell_angle_gamma 80.084413
_cell_volume 585.737967
_symmetry_space_group_name_H-M "P -1"
_symmetry_group_IT_number 2
_symmetry_cell_setting 'triclinic'
loop_
_space_group_symop_operation_xyz
x,y,z
-x,-y,-z
loop_
_atom_site_type_symbol
_atom_site_label
_atom_site_fract_x
_atom_site_fract_y
_atom_site_fract_z
Si Si1 0.738945 0.348453 0.766441
Si Si2 0.666324 0.151277 0.284137
Si Si3 0.748648 0.664335 0.944661
Si Si4 0.428800 0.845597 0.917570
Si Si5 0.221671 0.257227 0.724744
Si Si6 0.845698 0.722245 0.443808
Si Si7 0.967359 0.052167 0.301954
Si Si8 0.396969 0.624991 0.427874
O O1 0.900185 0.230225 0.482706
O O2 0.500000 0.500000 0.000000
O O3 0.778307 0.504782 0.802982
O O4 0.734697 0.164484 0.828786
O O5 0.811489 0.091656 0.015972
O O6 0.435740 0.223186 0.517868
O O7 0.655370 0.331641 0.387986
O O8 0.777330 0.925176 0.216452
O O9 0.571049 0.673383 0.214079
O O10 0.669064 0.912353 0.010939
O O11 0.957709 0.533348 0.771433
O O12 0.635498 0.790196 0.742983
O O13 0.522085 0.619964 0.725431
O O14 0.225554 0.221248 0.593365
O O15 0.000000 0.500000 0.000000
O O16 0.925135 0.877437 0.387105
O O17 0.801806 0.196966 0.406035
#
# Coordination Sequence:
#
# PCOD9062326 Si02
#       8
#     2   2   2   2   2   2   2   2
#     4  11  24  51  84 122 166 222 285 349 420 495
#     4  11  26  50  84 125 168 221 275 345 432 502
#     4  11  25  52  84 120 167 220 284 349 424 497
#     4  11  25  51  85 115 168 221 281 354 414 497
#     4  11  26  49  82 123 170 218 281 346 417 511
#     4  12  27  49  78 122 167 217 277 351 421 497
#     4  12  25  51  82 121 171 218 278 348 420 506
#     4  11  23  52  82 119 164 219 275 346 423 501
#
# _framework density 27.31597
#
# number of rings (size 3 to 8) (size 9 to 14) (size 15 to 20)
#    0.000    0.750    5.000    1.125    1.750    5.500 
#    4.500    5.625    0.000    3.000    0.000    0.000 
#    0.000    0.000    0.000    0.000    0.000    0.000 
#
# Total GULP energy -89855.742068 kJ/mol
# GULP energy per Si atom -5615.983879 kJ/mol
# Density = 2.725380 g / cm^3
# Si number density = 27.315970 Si / 1000 Ang^3
#
#
#
# Elastic Constant Matrix: (Units=GPa)
#
#
# Indices 1 2 3 4 5 6 
#
# 1 123.4025 33.6248 77.8868 7.7448 14.3665 9.1615
# 2 33.6248 196.7345 67.6421 18.5804 0.8429 9.6281
# 3 77.8868 67.6421 184.2188 -5.8544 -11.0989 1.4599
# 4 7.7448 18.5804 -5.8544 47.2281 -16.5575 -16.4520
# 5 14.3665 0.8429 -11.0989 -16.5575 78.0369 10.5865
# 6 9.1615 9.6281 1.4599 -16.4520 10.5865 16.4448
#
#
#
# Elastic Compliance Matrix: (Units=1/GPa)
#
#
# Indices 1 2 3 4 5 6 
#
# 1 0.014806 0.002068 -0.007485 -0.011851 -0.003863 -0.018164
# 2 0.002068 0.007560 -0.003890 -0.008832 -0.001075 -0.013377
# 3 -0.007485 -0.003890 0.010418 0.009784 0.003178 0.013264
# 4 -0.011851 -0.008832 0.009784 0.049783 0.006569 0.056481
# 5 -0.003863 -0.001075 0.003178 0.006569 0.015507 -0.000911
# 6 -0.018164 -0.013377 0.013264 0.056481 -0.000911 0.134675
#
#
# Mechanical properties :
#
#
# Convention : Reuss Voigt Hill
#
# Bulk Modulus (GPa) = 70.56398 95.85148 83.20773
# Shear Modulus (GPa) = 19.52458 50.02211 34.77334
#
# Velocity S-wave (km/s) = 2.67642 4.28394 3.57179
# Velocity P-wave (km/s) = 5.95311 7.72241 6.89475
#
# Compressibility (1/GPa) = 0.01417154
#
# Stress axis : x y z
#
# Youngs Moduli (GPa) = 67.53945 132.26735 95.98534
#
# Poissons Ratio (x) = -0.27347 0.71841
# Poissons Ratio (y) = -0.13964 0.37335
# Poissons Ratio (z) = 0.50550 0.51447
#
# Static dielectric constant tensor:
#      x y z
#    x 2.136240 0.006860 0.003310 
#    y 0.006860 2.161890 -0.021250 
#    z 0.003310 -0.021250 2.144880 
# 
# From -- ./inp_files/312990.got.cif
#   From: 2010.05.17/outbox.cif.g08.bks.cpg/sg2_157_cif.got.tgz:312990.got - 2010.06.03 11:33:40.
