data_PCOD9062601
_publ_section_title
;
Structure prediction by ZEFSAII (Michael W. Deem and Ramdas Pophale) SiO2 
 PCOD9062601
Probable space group: P -1
;
_chemical_formula_sum "Si O2"
_cell_formula_units_Z 14
_cell_length_a 10.147940
_cell_length_b 13.555539
_cell_length_c 4.978840
_cell_angle_alpha 60.714941
_cell_angle_beta 101.541592
_cell_angle_gamma 75.724918
_cell_volume 535.632981
_symmetry_space_group_name_H-M "P -1"
_symmetry_group_IT_number 2
_symmetry_cell_setting 'triclinic'
loop_
_space_group_symop_operation_xyz
x,y,z
-x,-y,-z
loop_
_atom_site_type_symbol
_atom_site_label
_atom_site_fract_x
_atom_site_fract_y
_atom_site_fract_z
Si Si1 0.329725 0.886930 0.345237
Si Si2 0.522134 0.678980 0.363974
Si Si3 0.631324 0.814156 0.837909
Si Si4 0.192226 0.038439 0.551701
Si Si5 0.029092 0.723663 0.590897
Si Si6 0.079968 0.367973 0.836837
Si Si7 0.638783 0.423834 0.975120
O O1 0.404555 0.746531 0.458305
O O2 0.476206 0.886705 0.541026
O O3 0.205467 0.939034 0.455645
O O4 0.275605 0.968016 0.946660
O O5 0.643282 0.541717 0.652382
O O6 0.417681 0.658431 0.125707
O O7 0.589401 0.777520 0.163824
O O8 0.727096 0.886113 0.672194
O O9 0.745315 0.675437 0.989267
O O10 0.042668 0.141762 0.474247
O O11 0.952440 0.719969 0.281993
O O12 0.203859 0.658062 0.728251
O O13 0.986959 0.641355 0.895079
O O14 0.000000 0.500000 0.500000
O O15 0.500000 0.500000 0.000000
#
# Coordination Sequence:
#
# PCOD9062601 Si02
#       7
#     2   2   2   2   2   2   2
#     4  12  24  43  71 108 149 185 238 282 353 426
#     4  11  26  44  74 106 137 186 247 295 347 411
#     4  11  24  41  72 107 148 183 234 281 359 423
#     4  11  25  43  69 109 148 191 222 292 357 431
#     4  11  26  47  70  99 145 186 233 288 364 415
#     4  11  25  41  69 106 144 184 227 292 363 426
#     4  11  27  50  75 100 140 188 248 299 350 414
#
# _framework density 26.137301000000001
#
# number of rings (size 3 to 8) (size 9 to 14) (size 15 to 20)
#    0.000    0.857    1.429    4.714   14.000    0.000 
#    0.000    1.429    0.000    0.000    0.000    0.000 
#    0.000    0.000    0.000    0.000    0.000    0.000 
#
# Total GULP energy -78168.084291 kJ/mol
# GULP energy per Si atom -5583.434592 kJ/mol
# Density = 2.607781 g / cm^3
# Si number density = 26.137301 Si / 1000 Ang^3
#
#
#
# Elastic Constant Matrix: (Units=GPa)
#
#
# Indices 1 2 3 4 5 6 
#
# 1 114.7833 33.3539 42.5433 -10.1997 3.0003 -22.6062
# 2 33.3539 155.6351 29.7477 2.4516 16.5748 -25.9419
# 3 42.5433 29.7477 148.7850 -19.0393 9.2008 -15.0250
# 4 -10.1997 2.4516 -19.0393 55.0296 -9.6448 4.7522
# 5 3.0003 16.5748 9.2008 -9.6448 32.7356 -10.8097
# 6 -22.6062 -25.9419 -15.0250 4.7522 -10.8097 28.5244
#
#
#
# Elastic Compliance Matrix: (Units=1/GPa)
#
#
# Indices 1 2 3 4 5 6 
#
# 1 0.011450 -0.001050 -0.002302 0.001235 0.003093 0.007873
# 2 -0.001050 0.007990 -0.000826 -0.001730 -0.002458 0.005356
# 3 -0.002302 -0.000826 0.007964 0.002166 -0.000635 0.001018
# 4 0.001235 -0.001730 0.002166 0.020320 0.005947 -0.000585
# 5 0.003093 -0.002458 -0.000635 0.005947 0.037804 0.013217
# 6 0.007873 0.005356 0.001018 -0.000585 0.013217 0.051810
#
#
# Mechanical properties :
#
#
# Convention : Reuss Voigt Hill
#
# Bulk Modulus (GPa) = 52.50090 70.05480 61.27785
# Shear Modulus (GPa) = 32.88526 44.16181 38.52353
#
# Velocity S-wave (km/s) = 3.55092 4.11494 3.84329
# Velocity P-wave (km/s) = 6.07801 7.03120 6.57191
#
# Compressibility (1/GPa) = 0.01904729
#
# Stress axis : x y z
#
# Youngs Moduli (GPa) = 87.33644 125.15695 125.56942
#
# Poissons Ratio (x) = 0.13146 0.28909
# Poissons Ratio (y) = 0.09173 0.10367
# Poissons Ratio (z) = 0.20107 0.10333
#
# Static dielectric constant tensor:
#      x y z
#    x 2.159240 0.098900 -0.087500 
#    y 0.098900 2.245610 -0.019160 
#    z -0.087500 -0.019160 2.055070 
# 
# From -- ./inp_files/74060.got.cif
#   From: 2010.05.17/outbox.cif.g08.bks.cpg/sg2_38_cif.got.tgz:74060.got - 2010.06.03 11:33:40.
