data_PCOD9062809
_publ_section_title
;
Structure prediction by ZEFSAII (Michael W. Deem and Ramdas Pophale) SiO2 
 PCOD9062809
Probable space group: P -1
;
_chemical_formula_sum "Si O2"
_cell_formula_units_Z 12
_cell_length_a 9.301842
_cell_length_b 6.766312
_cell_length_c 17.768194
_cell_angle_alpha 106.363914
_cell_angle_beta 35.074982
_cell_angle_gamma 122.173732
_cell_volume 515.950111
_symmetry_space_group_name_H-M "P -1"
_symmetry_group_IT_number 2
_symmetry_cell_setting 'triclinic'
loop_
_space_group_symop_operation_xyz
x,y,z
-x,-y,-z
loop_
_atom_site_type_symbol
_atom_site_label
_atom_site_fract_x
_atom_site_fract_y
_atom_site_fract_z
Si Si1 0.755587 0.538274 0.949135
Si Si2 0.867523 0.210942 0.764168
Si Si3 0.245514 0.998344 0.561108
Si Si4 0.357381 0.680638 0.877582
Si Si5 0.855338 0.446202 0.640408
Si Si6 0.579188 0.088774 0.275699
O O1 0.840532 0.351724 0.860622
O O2 0.075022 0.792002 0.839590
O O3 0.500000 0.500000 0.000000
O O4 0.619621 0.479428 0.084380
O O5 0.954426 0.366097 0.665313
O O6 0.544090 0.955887 0.863032
O O7 0.120311 0.153998 0.663387
O O8 0.956190 0.722296 0.647106
O O9 0.500000 0.000000 0.500000
O O10 0.392423 0.085247 0.425748
O O11 0.460193 0.754669 0.755347
O O12 0.000000 0.500000 0.000000
O O13 0.000000 0.500000 0.500000
O O14 0.547096 0.187249 0.728065
#
# Coordination Sequence:
#
# PCOD9062809 Si02
#       6
#     2   2   2   2   2   2
#     4  11  24  43  71  99 136 184 234 280 340 406
#     4  11  24  43  69 100 142 175 228 288 340 409
#     4  11  24  42  72 105 137 179 226 286 352 403
#     4   9  21  44  66  98 132 181 227 278 336 405
#     4   9  21  42  66 100 133 178 224 274 343 415
#     4   9  21  44  69  98 135 178 229 280 342 406
#
# _framework density 23.258061999999999
#
# number of rings (size 3 to 8) (size 9 to 14) (size 15 to 20)
#    0.000    2.000    0.000    1.500    4.667    8.667 
#    3.000    9.167    0.000    0.000    0.000    0.000 
#    0.000    0.000    0.000    0.000    0.000    0.000 
#
# Total GULP energy -66830.674757 kJ/mol
# GULP energy per Si atom -5569.222896 kJ/mol
# Density = 2.320513 g / cm^3
# Si number density = 23.258062 Si / 1000 Ang^3
#
#
#
# Elastic Constant Matrix: (Units=GPa)
#
#
# Indices 1 2 3 4 5 6 
#
# 1 121.0664 13.9999 63.2194 -1.6826 -2.6021 -3.2090
# 2 13.9999 71.5849 56.9469 3.3983 -8.6871 3.1407
# 3 63.2194 56.9469 144.1098 -12.2273 -7.9741 -6.1881
# 4 -1.6826 3.3983 -12.2273 39.6416 5.8631 -1.9693
# 5 -2.6021 -8.6871 -7.9741 5.8631 25.0121 -14.1458
# 6 -3.2090 3.1407 -6.1881 -1.9693 -14.1458 30.8645
#
#
#
# Elastic Compliance Matrix: (Units=1/GPa)
#
#
# Indices 1 2 3 4 5 6 
#
# 1 0.011114 0.002861 -0.006142 -0.001748 0.000447 -0.000274
# 2 0.002861 0.022829 -0.010604 -0.005953 0.004966 -0.002255
# 3 -0.006142 -0.010604 0.014537 0.005113 0.001614 0.004421
# 4 -0.001748 -0.005953 0.005113 0.028316 -0.007310 -0.000095
# 5 0.000447 0.004966 0.001614 -0.007310 0.058910 0.026398
# 6 -0.000274 -0.002255 0.004421 -0.000095 0.026398 0.045580
#
#
# Mechanical properties :
#
#
# Convention : Reuss Voigt Hill
#
# Bulk Modulus (GPa) = 48.28065 67.23261 57.75663
# Shear Modulus (GPa) = 23.15264 32.60998 27.88131
#
# Velocity S-wave (km/s) = 3.15853 3.74852 3.46610
# Velocity P-wave (km/s) = 5.83999 6.90689 6.39572
#
# Compressibility (1/GPa) = 0.02071223
#
# Stress axis : x y z
#
# Youngs Moduli (GPa) = 89.97470 43.80303 68.79147
#
# Poissons Ratio (x) = -0.12534 0.42250
# Poissons Ratio (y) = -0.25746 0.72945
# Poissons Ratio (z) = 0.55260 0.46448
#
# Static dielectric constant tensor:
#      x y z
#    x 0.609680 0.824870 0.719060 
#    y 0.824870 1.282910 -0.498980 
#    z 0.719060 -0.498980 1.449620 
# 
# From -- ./inp_files/553588.got.cif
#   From: 2010.05.17/outbox.cif.g08.bks.cpg/sg2_277_cif.got.tgz:553588.got - 2010.06.03 11:33:40.
