data_PCOD9062622
_publ_section_title
;
Structure prediction by ZEFSAII (Michael W. Deem and Ramdas Pophale) SiO2 
 PCOD9062622
Probable space group: P -1
;
_chemical_formula_sum "Si O2"
_cell_formula_units_Z 14
_cell_length_a 6.886427
_cell_length_b 11.675905
_cell_length_c 13.386076
_cell_angle_alpha 124.373705
_cell_angle_beta 47.797152
_cell_angle_gamma 117.885988
_cell_volume 651.147802
_symmetry_space_group_name_H-M "P -1"
_symmetry_group_IT_number 2
_symmetry_cell_setting 'triclinic'
loop_
_space_group_symop_operation_xyz
x,y,z
-x,-y,-z
loop_
_atom_site_type_symbol
_atom_site_label
_atom_site_fract_x
_atom_site_fract_y
_atom_site_fract_z
Si Si1 0.418432 0.709921 0.175584
Si Si2 0.118739 0.452845 0.035859
Si Si3 0.718219 0.877334 0.763517
Si Si4 0.727720 0.128612 0.503531
Si Si5 0.649891 0.390477 0.293100
Si Si6 0.263428 0.595684 0.497528
Si Si7 0.277394 0.079567 0.986008
O O1 0.206323 0.589413 0.141267
O O2 0.301283 0.805471 0.344540
O O3 0.583620 0.800323 0.076551
O O4 0.631887 0.624389 0.110223
O O5 0.886102 0.354459 0.124901
O O6 0.000000 0.500000 0.000000
O O7 0.601150 0.728349 0.685047
O O8 0.993878 0.926371 0.638253
O O9 0.494567 0.974734 0.870627
O O10 0.764587 0.865636 0.860590
O O11 0.714223 0.254739 0.490867
O O12 0.500000 0.000000 0.500000
O O13 0.533223 0.526159 0.358255
O O14 0.756015 0.401139 0.374048
O O15 0.000000 0.500000 0.500000
O O16 0.000000 0.000000 0.000000
#
# Coordination Sequence:
#
# PCOD9062622 Si02
#       7
#     2   2   2   2   2   2   2
#     4  11  26  44  69 101 142 185 231 294 359 416
#     4  11  24  44  71 102 139 182 240 296 353 419
#     4  11  26  44  70 105 135 187 241 289 353 434
#     4  12  27  46  70 107 152 189 232 302 367 423
#     4  11  24  41  74  99 130 190 240 288 350 412
#     4  11  24  44  68 102 143 177 238 293 346 425
#     4  11  25  46  70  98 140 185 238 288 353 434
#
# _framework density 21.500495000000001
#
# number of rings (size 3 to 8) (size 9 to 14) (size 15 to 20)
#    0.000    0.857    1.429    4.286    8.000    7.429 
#    0.000    0.000    0.000    0.000    0.000    0.000 
#    0.000    0.000    0.000    0.000    0.000    0.000 
#
# Total GULP energy -78332.914706 kJ/mol
# GULP energy per Si atom -5595.208193 kJ/mol
# Density = 2.145156 g / cm^3
# Si number density = 21.500495 Si / 1000 Ang^3
#
#
#
# Elastic Constant Matrix: (Units=GPa)
#
#
# Indices 1 2 3 4 5 6 
#
# 1 139.5135 34.3289 43.0096 -12.2486 5.4994 5.2865
# 2 34.3289 92.3809 0.8307 -9.9175 -2.6718 8.8310
# 3 43.0096 0.8307 114.2570 -12.7742 -3.7816 5.3974
# 4 -12.2486 -9.9175 -12.7742 27.2945 2.2491 -8.6433
# 5 5.4994 -2.6718 -3.7816 2.2491 28.1576 -8.7304
# 6 5.2865 8.8310 5.3974 -8.6433 -8.7304 31.5710
#
#
#
# Elastic Compliance Matrix: (Units=1/GPa)
#
#
# Indices 1 2 3 4 5 6 
#
# 1 0.009278 -0.003299 -0.003376 0.001482 -0.002831 -0.000431
# 2 -0.003299 0.012602 0.001635 0.003109 0.001167 -0.002078
# 3 -0.003376 0.001635 0.010504 0.003800 0.001882 -0.000127
# 4 0.001482 0.003109 0.003800 0.043416 0.000203 0.010175
# 5 -0.002831 0.001167 0.001882 0.000203 0.039789 0.010884
# 6 -0.000431 -0.002078 -0.000127 0.010175 0.010884 0.038145
#
#
# Mechanical properties :
#
#
# Convention : Reuss Voigt Hill
#
# Bulk Modulus (GPa) = 44.83615 55.83218 50.33416
# Shear Modulus (GPa) = 29.19684 35.27008 32.23346
#
# Velocity S-wave (km/s) = 3.68905 4.05462 3.87615
# Velocity P-wave (km/s) = 6.24854 6.92417 6.59501
#
# Compressibility (1/GPa) = 0.02230343
#
# Stress axis : x y z
#
# Youngs Moduli (GPa) = 107.77709 79.35105 95.19827
#
# Poissons Ratio (x) = 0.26179 0.32142
# Poissons Ratio (y) = 0.35557 -0.15562
# Poissons Ratio (z) = 0.36389 -0.12972
#
# Static dielectric constant tensor:
#      x y z
#    x 1.747810 -0.015260 -0.024010 
#    y -0.015260 1.766470 0.022350 
#    z -0.024010 0.022350 1.801030 
# 
# From -- ./inp_files/76956.got.cif
#   From: 2010.05.17/outbox.cif.g08.bks.cpg/sg2_39_cif.got.tgz:76956.got - 2010.06.03 11:33:40.
