data_PCOD9062848
_publ_section_title
;
Structure prediction by ZEFSAII (Michael W. Deem and Ramdas Pophale) SiO2 
 PCOD9062848
Probable space group: P -1
;
_chemical_formula_sum "Si O2"
_cell_formula_units_Z 11
_cell_length_a 9.762041
_cell_length_b 11.327292
_cell_length_c 9.147267
_cell_angle_alpha 94.751475
_cell_angle_beta 150.643039
_cell_angle_gamma 75.918392
_cell_volume 462.875894
_symmetry_space_group_name_H-M "P -1"
_symmetry_group_IT_number 2
_symmetry_cell_setting 'triclinic'
loop_
_space_group_symop_operation_xyz
x,y,z
-x,-y,-z
loop_
_atom_site_type_symbol
_atom_site_label
_atom_site_fract_x
_atom_site_fract_y
_atom_site_fract_z
Si Si1 0.116381 0.857265 0.284055
Si Si2 0.562864 0.621055 0.130166
Si Si3 0.953623 0.683735 0.715909
Si Si4 0.608557 0.084098 0.725546
Si Si5 0.000000 0.500000 0.000000
Si Si6 0.304804 0.283764 0.041935
O O1 0.224145 0.844532 0.214324
O O2 0.413743 0.832636 0.650137
O O3 0.985877 0.753556 0.210095
O O4 0.850540 0.992176 0.050015
O O5 0.835067 0.593918 0.493065
O O6 0.500000 0.500000 0.000000
O O7 0.633309 0.691337 0.064080
O O8 0.258052 0.693055 0.940907
O O9 0.686562 0.817317 0.471835
O O10 0.972975 0.624102 0.887625
O O11 0.500000 0.000000 0.500000
O O12 0.249288 0.407563 0.103827
#
# Coordination Sequence:
#
# PCOD9062848 Si02
#       6
#     2   2   2   2   1   2
#     4  11  24  42  73  99 141 180 238 298 355 403
#     4  12  28  50  69 104 162 190 233 289 380 434
#     4  12  28  46  76 110 140 199 238 298 366 435
#     4  11  24  46  75 108 145 182 245 312 355 412
#     4  12  26  42  78 108 142 178 264 288 362 420
#     4  12  26  45  71 107 140 193 233 305 348 436
#
# _framework density 23.764468999999998
#
# number of rings (size 3 to 8) (size 9 to 14) (size 15 to 20)
#    0.000    0.364    5.455    1.636   10.182    1.455 
#    0.000    5.455    0.000    0.000    0.000    0.000 
#    0.000    0.000    0.000    0.000    0.000    0.000 
#
# Total GULP energy -61340.109800 kJ/mol
# GULP energy per Si atom -5576.373618 kJ/mol
# Density = 2.371038 g / cm^3
# Si number density = 23.764469 Si / 1000 Ang^3
#
#
#
# Elastic Constant Matrix: (Units=GPa)
#
#
# Indices 1 2 3 4 5 6 
#
# 1 159.4542 19.6869 47.5213 -8.2681 10.4038 13.5595
# 2 19.6869 47.3429 16.2939 -1.4645 -0.3520 -1.7904
# 3 47.5213 16.2939 89.8217 -4.6374 26.1784 7.0268
# 4 -8.2681 -1.4645 -4.6374 43.9675 -0.9718 8.3326
# 5 10.4038 -0.3520 26.1784 -0.9718 35.4598 -5.2741
# 6 13.5595 -1.7904 7.0268 8.3326 -5.2741 30.2458
#
#
#
# Elastic Compliance Matrix: (Units=1/GPa)
#
#
# Indices 1 2 3 4 5 6 
#
# 1 0.007948 -0.002237 -0.003336 0.001715 -0.000358 -0.003456
# 2 -0.002237 0.024029 -0.005181 -0.000964 0.005413 0.004839
# 3 -0.003336 -0.005181 0.018318 0.001963 -0.013427 -0.005949
# 4 0.001715 -0.000964 0.001963 0.024808 -0.002556 -0.008562
# 5 -0.000358 0.005413 -0.013427 -0.002556 0.039877 0.011258
# 6 -0.003456 0.004839 -0.005949 -0.008562 0.011258 0.040602
#
#
# Mechanical properties :
#
#
# Convention : Reuss Voigt Hill
#
# Bulk Modulus (GPa) = 34.73845 51.51365 43.12605
# Shear Modulus (GPa) = 26.78288 36.14241 31.46265
#
# Velocity S-wave (km/s) = 3.36074 3.90405 3.64254
# Velocity P-wave (km/s) = 5.45060 6.48429 5.98978
#
# Compressibility (1/GPa) = 0.02878655
#
# Stress axis : x y z
#
# Youngs Moduli (GPa) = 125.81889 41.61553 54.59120
#
# Poissons Ratio (x) = 0.09311 0.18210
# Poissons Ratio (y) = 0.28149 0.28286
# Poissons Ratio (z) = 0.41970 0.21563
#
# Static dielectric constant tensor:
#      x y z
#    x 1.858000 -0.037510 -0.010530 
#    y -0.037510 1.979510 0.042410 
#    z -0.010530 0.042410 1.899240 
# 
# From -- ./inp_files/133737.got.cif
#   From: 2010.05.17/outbox.cif.g08.bks.cpg/sg2_67_cif.got.tgz:133737.got - 2010.06.03 11:33:40.
