data_PCOD9062494
_publ_section_title
;
Structure prediction by ZEFSAII (Michael W. Deem and Ramdas Pophale) SiO2 
 PCOD9062494
Probable space group: P -1
;
_chemical_formula_sum "Si O2"
_cell_formula_units_Z 16
_cell_length_a 9.472298
_cell_length_b 19.790593
_cell_length_c 5.293499
_cell_angle_alpha 64.944343
_cell_angle_beta 76.950302
_cell_angle_gamma 57.857809
_cell_volume 761.168474
_symmetry_space_group_name_H-M "P -1"
_symmetry_group_IT_number 2
_symmetry_cell_setting 'triclinic'
loop_
_space_group_symop_operation_xyz
x,y,z
-x,-y,-z
loop_
_atom_site_type_symbol
_atom_site_label
_atom_site_fract_x
_atom_site_fract_y
_atom_site_fract_z
Si Si1 0.036397 0.443183 0.325195
Si Si2 0.754569 0.276771 0.253811
Si Si3 0.016245 0.082707 0.425535
Si Si4 0.413221 0.288486 0.390550
Si Si5 0.806172 0.849144 0.085169
Si Si6 0.103177 0.683699 0.378081
Si Si7 0.563068 0.814236 0.958210
Si Si8 0.646715 0.992440 0.276118
O O1 0.229150 0.369399 0.344345
O O2 0.000000 0.500000 0.500000
O O3 0.923877 0.397477 0.465863
O O4 0.000000 0.500000 0.000000
O O5 0.560006 0.310074 0.248969
O O6 0.792101 0.313282 0.433513
O O7 0.850715 0.172222 0.416368
O O8 0.825916 0.302763 0.938749
O O9 0.168793 0.053246 0.605942
O O10 0.081115 0.111371 0.111978
O O11 0.000000 0.000000 0.500000
O O12 0.442403 0.244021 0.722549
O O13 0.430157 0.224205 0.258366
O O14 0.730218 0.820035 0.935015
O O15 0.656081 0.927959 0.158699
O O16 0.918185 0.766979 0.338277
O O17 0.407296 0.909300 0.909838
O O18 0.500000 0.000000 0.500000
#
# Coordination Sequence:
#
# PCOD9062494 Si02
#       8
#     2   2   2   2   2   2   2   2
#     4  12  27  49  81 115 138 174 234 301 365 441
#     4  11  25  47  70 104 144 203 231 286 356 431
#     4  11  25  40  60  92 145 191 251 290 341 393
#     4  12  27  48  75 107 146 180 239 292 367 428
#     4  11  24  41  65  97 140 189 246 295 341 413
#     4  11  24  47  76 101 146 189 236 285 368 424
#     4  12  25  40  72 101 142 192 237 305 342 402
#     4  12  24  39  62  98 136 187 255 291 337 392
#
# _framework density 21.020313000000002
#
# number of rings (size 3 to 8) (size 9 to 14) (size 15 to 20)
#    0.000    0.500    3.750    4.125    7.000    1.500 
#    0.000    3.750    0.000    0.000    0.000    0.000 
#    0.000    0.000    0.000    0.000    0.000    0.000 
#
# Total GULP energy -89467.213109 kJ/mol
# GULP energy per Si atom -5591.700819 kJ/mol
# Density = 2.097247 g / cm^3
# Si number density = 21.020313 Si / 1000 Ang^3
#
#
#
# Elastic Constant Matrix: (Units=GPa)
#
#
# Indices 1 2 3 4 5 6 
#
# 1 113.9232 39.8742 24.3239 1.6128 -6.4370 20.5879
# 2 39.8742 100.9457 38.1877 3.7062 -2.9290 21.5329
# 3 24.3239 38.1877 110.2768 -12.0996 -7.1238 6.4001
# 4 1.6128 3.7062 -12.0996 34.9312 9.3785 3.1489
# 5 -6.4370 -2.9290 -7.1238 9.3785 32.1324 -2.6495
# 6 20.5879 21.5329 6.4001 3.1489 -2.6495 43.0708
#
#
#
# Elastic Compliance Matrix: (Units=1/GPa)
#
#
# Indices 1 2 3 4 5 6 
#
# 1 0.010782 -0.003068 -0.001097 -0.000673 0.001560 -0.003312
# 2 -0.003068 0.013725 -0.004060 -0.002312 0.000030 -0.004621
# 3 -0.001097 -0.004060 0.011176 0.004095 0.000746 0.000640
# 4 -0.000673 -0.002312 0.004095 0.032994 -0.009242 -0.002112
# 5 0.001560 0.000030 0.000746 -0.009242 0.034458 0.001923
# 6 -0.003312 -0.004621 0.000640 -0.002112 0.001923 0.027289
#
#
# Mechanical properties :
#
#
# Convention : Reuss Voigt Hill
#
# Bulk Modulus (GPa) = 51.98797 58.87970 55.43383
# Shear Modulus (GPa) = 32.61909 36.87755 34.74832
#
# Velocity S-wave (km/s) = 3.94355 4.19307 4.07022
# Velocity P-wave (km/s) = 6.74695 7.17733 6.96547
#
# Compressibility (1/GPa) = 0.01923522
#
# Stress axis : x y z
#
# Youngs Moduli (GPa) = 92.74792 72.85714 89.47569
#
# Poissons Ratio (x) = 0.22350 0.09813
# Poissons Ratio (y) = 0.28451 0.36326
# Poissons Ratio (z) = 0.10172 0.29579
#
# Static dielectric constant tensor:
#      x y z
#    x 1.770810 -0.001340 0.004350 
#    y -0.001340 1.855090 -0.016400 
#    z 0.004350 -0.016400 1.789350 
# 
# From -- ./inp_files/46670.got.cif
#   From: 2010.05.17/outbox.cif.g08.bks.cpg/sg2_24_cif.got.tgz:46670.got - 2010.06.03 11:33:40.
