data_PCOD9062733
_publ_section_title
;
Structure prediction by ZEFSAII (Michael W. Deem and Ramdas Pophale) SiO2 
 PCOD9062733
Probable space group: P -1
;
_chemical_formula_sum "Si O2"
_cell_formula_units_Z 16
_cell_length_a 6.732903
_cell_length_b 18.144935
_cell_length_c 9.872607
_cell_angle_alpha 80.657406
_cell_angle_beta 43.606188
_cell_angle_gamma 88.102543
_cell_volume 814.479873
_symmetry_space_group_name_H-M "P -1"
_symmetry_group_IT_number 2
_symmetry_cell_setting 'triclinic'
loop_
_space_group_symop_operation_xyz
x,y,z
-x,-y,-z
loop_
_atom_site_type_symbol
_atom_site_label
_atom_site_fract_x
_atom_site_fract_y
_atom_site_fract_z
Si Si1 0.772401 0.949534 0.034051
Si Si2 0.572338 0.304005 0.827436
Si Si3 0.765110 0.955603 0.725752
Si Si4 0.199750 0.212358 0.819646
Si Si5 0.520158 0.209323 0.150965
Si Si6 0.310199 0.453402 0.995044
Si Si7 0.357223 0.549536 0.667383
Si Si8 0.245594 0.297182 0.495908
O O1 0.712762 0.868006 0.156676
O O2 0.490325 0.992039 0.155200
O O3 0.872000 0.943443 0.830372
O O4 0.000000 0.000000 0.000000
O O5 0.395955 0.274717 0.790873
O O6 0.449082 0.377915 0.919094
O O7 0.917809 0.315749 0.630052
O O8 0.514861 0.241817 0.992214
O O9 0.640191 0.875173 0.748675
O O10 0.000000 0.000000 0.500000
O O11 0.235836 0.234674 0.638182
O O12 0.858490 0.210772 0.021995
O O13 0.371598 0.262545 0.310362
O O14 0.332458 0.502253 0.832583
O O15 0.500000 0.500000 0.000000
O O16 0.972798 0.438099 0.209511
O O17 0.500000 0.500000 0.500000
O O18 0.554110 0.628248 0.575012
#
# Coordination Sequence:
#
# PCOD9062733 Si02
#       8
#     2   2   2   2   2   2   2   2
#     4  11  24  45  66  91 130 169 212 264 319 374
#     4  11  24  43  64  93 128 171 210 258 324 376
#     4  11  26  41  67  95 127 166 216 266 314 379
#     4  11  24  43  64  91 129 173 207 262 322 376
#     4  11  24  43  61  94 133 164 212 267 316 375
#     4  11  24  42  69  93 129 171 210 260 320 376
#     4  11  24  44  65  98 131 165 214 266 311 376
#     4  11  26  40  66  97 130 165 215 265 312 381
#
# _framework density 19.644438999999998
#
# number of rings (size 3 to 8) (size 9 to 14) (size 15 to 20)
#    0.000    1.000    2.500    3.000    3.500   11.500 
#    0.000    0.000    0.000    0.000    0.000    0.000 
#    0.000    0.000    0.000    0.000    0.000    0.000 
#
# Total GULP energy -89482.695734 kJ/mol
# GULP energy per Si atom -5592.668483 kJ/mol
# Density = 1.959973 g / cm^3
# Si number density = 19.644439 Si / 1000 Ang^3
#
#
#
# Elastic Constant Matrix: (Units=GPa)
#
#
# Indices 1 2 3 4 5 6 
#
# 1 98.3775 12.4758 29.9928 0.7370 -14.5471 15.4183
# 2 12.4758 83.0757 26.4307 -1.1157 -18.6407 4.7369
# 3 29.9928 26.4307 105.6704 0.0514 -15.7501 17.0888
# 4 0.7370 -1.1157 0.0514 36.2663 2.9749 2.5954
# 5 -14.5471 -18.6407 -15.7501 2.9749 26.0172 -3.4447
# 6 15.4183 4.7369 17.0888 2.5954 -3.4447 40.0692
#
#
#
# Elastic Compliance Matrix: (Units=1/GPa)
#
#
# Indices 1 2 3 4 5 6 
#
# 1 0.012089 0.000231 -0.002182 -0.000429 0.005220 -0.003272
# 2 0.000231 0.014859 -0.002385 -0.000312 0.009366 -0.000003
# 3 -0.002182 -0.002385 0.011821 -0.000098 0.003763 -0.003590
# 4 -0.000429 -0.000312 -0.000098 0.028037 -0.003982 -0.001915
# 5 0.005220 0.009366 0.003763 -0.003982 0.050786 -0.000097
# 6 -0.003272 -0.000003 -0.003590 -0.001915 -0.000097 0.027863
#
#
# Mechanical properties :
#
#
# Convention : Reuss Voigt Hill
#
# Bulk Modulus (GPa) = 33.22718 47.21359 40.22039
# Shear Modulus (GPa) = 30.45831 35.01881 32.73856
#
# Velocity S-wave (km/s) = 3.94189 4.22670 4.08678
# Velocity P-wave (km/s) = 6.13750 6.92144 6.54122
#
# Compressibility (1/GPa) = 0.03009584
#
# Stress axis : x y z
#
# Youngs Moduli (GPa) = 82.72250 67.29866 84.59714
#
# Poissons Ratio (x) = -0.01552 0.18455
# Poissons Ratio (y) = -0.01908 0.20180
# Poissons Ratio (z) = 0.18046 0.16054
#
# Static dielectric constant tensor:
#      x y z
#    x 1.681290 0.003260 0.007710 
#    y 0.003260 1.680550 -0.008230 
#    z 0.007710 -0.008230 1.667470 
# 
# From -- ./inp_files/11355.got.cif
#   From: 2010.05.17/outbox.cif.g08.bks.cpg/sg2_6_cif.got.tgz:11355.got - 2010.06.03 11:33:40.
