data_PCOD9062896
_publ_section_title
;
Structure prediction by ZEFSAII (Michael W. Deem and Ramdas Pophale) SiO2 
 PCOD9062896
Probable space group: P -1
;
_chemical_formula_sum "Si O2"
_cell_formula_units_Z 14
_cell_length_a 18.343036
_cell_length_b 5.428410
_cell_length_c 9.263684
_cell_angle_alpha 127.567556
_cell_angle_beta 66.620931
_cell_angle_gamma 122.523807
_cell_volume 613.179120
_symmetry_space_group_name_H-M "P -1"
_symmetry_group_IT_number 2
_symmetry_cell_setting 'triclinic'
loop_
_space_group_symop_operation_xyz
x,y,z
-x,-y,-z
loop_
_atom_site_type_symbol
_atom_site_label
_atom_site_fract_x
_atom_site_fract_y
_atom_site_fract_z
Si Si1 0.410920 0.169829 0.927848
Si Si2 0.020681 0.670757 0.887843
Si Si3 0.651987 0.163458 0.442348
Si Si4 0.841680 0.322524 0.411485
Si Si5 0.689013 0.892158 0.740673
Si Si6 0.468818 0.136874 0.320657
Si Si7 0.877321 0.109266 0.611719
O O1 0.377926 0.080572 0.758533
O O2 0.447475 0.881229 0.824338
O O3 0.500000 0.500000 0.000000
O O4 0.338260 0.178142 0.095722
O O5 0.119505 0.761415 0.794694
O O6 0.960188 0.383007 0.722279
O O7 0.000000 0.500000 0.000000
O O8 0.000000 0.000000 0.000000
O O9 0.737050 0.141685 0.436838
O O10 0.683264 0.565448 0.534450
O O11 0.573558 0.098183 0.591647
O O12 0.880580 0.191302 0.468204
O O13 0.867154 0.730508 0.529933
O O14 0.611231 0.969592 0.763598
O O15 0.788944 0.145686 0.743923
O O16 0.500000 0.500000 0.500000
#
# Coordination Sequence:
#
# PCOD9062896 Si02
#       7
#     2   2   2   2   2   2   2
#     4  12  24  41  67  94 136 184 232 293 350 408
#     4  12  26  46  74 112 146 175 226 291 350 422
#     4  11  24  44  65  97 140 177 234 290 350 412
#     4  11  24  47  75 100 139 191 229 281 355 420
#     4  11  24  43  66 100 134 181 236 289 348 412
#     4  12  22  43  65  92 134 180 232 286 347 409
#     4  11  24  47  74 102 140 187 235 278 348 434
#
# _framework density 22.831827000000001
#
# number of rings (size 3 to 8) (size 9 to 14) (size 15 to 20)
#    0.000    0.571    4.286    4.286    2.000    0.000 
#    5.143    0.000    0.000    0.000    0.000    0.000 
#    0.000    0.000    0.000    0.000    0.000    0.000 
#
# Total GULP energy -78190.267766 kJ/mol
# GULP energy per Si atom -5585.019126 kJ/mol
# Density = 2.277986 g / cm^3
# Si number density = 22.831827 Si / 1000 Ang^3
#
#
#
# Elastic Constant Matrix: (Units=GPa)
#
#
# Indices 1 2 3 4 5 6 
#
# 1 66.4749 2.7369 7.4787 -2.8001 7.5779 2.2069
# 2 2.7369 72.4293 20.7836 -10.9010 -1.2505 -4.6711
# 3 7.4787 20.7836 102.6822 -10.2153 4.4899 0.8897
# 4 -2.8001 -10.9010 -10.2153 42.4690 -1.6883 -2.0975
# 5 7.5779 -1.2505 4.4899 -1.6883 41.1725 -9.1745
# 6 2.2069 -4.6711 0.8897 -2.0975 -9.1745 34.7537
#
#
#
# Elastic Compliance Matrix: (Units=1/GPa)
#
#
# Indices 1 2 3 4 5 6 
#
# 1 0.015601 -0.000447 -0.000841 0.000494 -0.003183 -0.001840
# 2 -0.000447 0.015361 -0.002830 0.003436 0.001623 0.002801
# 3 -0.000841 -0.002830 0.010600 0.001680 -0.001199 -0.000814
# 4 0.000494 0.003436 0.001680 0.025031 0.001360 0.002257
# 5 -0.003183 0.001623 -0.001199 0.001360 0.026805 0.007609
# 6 -0.001840 0.002801 -0.000814 0.002257 0.007609 0.031433
#
#
# Mechanical properties :
#
#
# Convention : Reuss Voigt Hill
#
# Bulk Modulus (GPa) = 30.00828 33.73166 31.86997
# Shear Modulus (GPa) = 34.67971 37.71818 36.19894
#
# Velocity S-wave (km/s) = 3.90156 4.06889 3.98610
# Velocity P-wave (km/s) = 5.78515 6.07293 5.93079
#
# Compressibility (1/GPa) = 0.03332414
#
# Stress axis : x y z
#
# Youngs Moduli (GPa) = 64.09804 65.09866 94.34395
#
# Poissons Ratio (x) = 0.02912 0.07939
# Poissons Ratio (y) = 0.02867 0.26700
# Poissons Ratio (z) = 0.05394 0.18424
#
# Static dielectric constant tensor:
#      x y z
#    x 1.909370 -0.036610 -0.020340 
#    y -0.036610 1.958130 -0.003120 
#    z -0.020340 -0.003120 1.891640 
# 
# From -- ./inp_files/6890.got.cif
#   From: 2010.05.17/outbox.cif.g08.bks.cpg/sg2_4_cif.got.tgz:6890.got - 2010.06.03 11:33:40.
