data_PCOD9062134
_publ_section_title
;
Structure prediction by ZEFSAII (Michael W. Deem and Ramdas Pophale) SiO2 
 PCOD9062134
Probable space group: P -1
;
_chemical_formula_sum "Si O2"
_cell_formula_units_Z 14
_cell_length_a 9.067568
_cell_length_b 9.434858
_cell_length_c 14.518072
_cell_angle_alpha 134.169641
_cell_angle_beta 42.061666
_cell_angle_gamma 133.108883
_cell_volume 560.054863
_symmetry_space_group_name_H-M "P -1"
_symmetry_group_IT_number 2
_symmetry_cell_setting 'triclinic'
loop_
_space_group_symop_operation_xyz
x,y,z
-x,-y,-z
loop_
_atom_site_type_symbol
_atom_site_label
_atom_site_fract_x
_atom_site_fract_y
_atom_site_fract_z
Si Si1 0.494370 0.715888 0.555698
Si Si2 0.143379 0.847807 0.445485
Si Si3 0.044866 0.959789 0.227307
Si Si4 0.376656 0.283781 0.097476
Si Si5 0.476790 0.287123 0.677379
Si Si6 0.851513 0.362794 0.836460
Si Si7 0.966056 0.220630 0.132055
O O1 0.500000 0.500000 0.500000
O O2 0.462496 0.692399 0.449622
O O3 0.288685 0.785628 0.724918
O O4 0.730570 0.918086 0.548067
O O5 0.341402 0.789073 0.384084
O O6 0.063412 0.693205 0.326617
O O7 0.958828 0.868284 0.615561
O O8 0.785993 0.881325 0.267216
O O9 0.069031 0.759981 0.176969
O O10 0.259600 0.069121 0.110028
O O11 0.504084 0.483371 0.192100
O O12 0.156268 0.320474 0.168829
O O13 0.569033 0.279037 0.931746
O O14 0.952154 0.613351 0.913775
O O15 0.000000 0.000000 0.000000
#
# Coordination Sequence:
#
# PCOD9062134 Si02
#       7
#     2   2   2   2   2   2   2
#     4  11  25  45  76 113 146 190 249 312 368 435
#     4  11  23  47  75 102 146 189 250 303 362 447
#     4  11  26  47  73 106 147 194 240 312 375 424
#     4  12  27  45  75 106 150 196 246 300 371 446
#     4  11  25  47  75 105 148 190 251 302 361 448
#     4  12  27  47  71 109 148 193 248 305 368 445
#     4  12  26  46  77 106 149 200 247 300 377 440
#
# _framework density 24.997551000000001
#
# number of rings (size 3 to 8) (size 9 to 14) (size 15 to 20)
#    0.000    0.571    1.429    7.286    8.000    1.714 
#    5.143    0.000    0.000    0.000    0.000    0.000 
#    0.000    0.000    0.000    0.000    0.000    0.000 
#
# Total GULP energy -78516.948044 kJ/mol
# GULP energy per Si atom -5608.353432 kJ/mol
# Density = 2.494066 g / cm^3
# Si number density = 24.997551 Si / 1000 Ang^3
#
#
#
# Elastic Constant Matrix: (Units=GPa)
#
#
# Indices 1 2 3 4 5 6 
#
# 1 50.5248 22.6893 18.6682 13.2308 -7.6669 -13.4110
# 2 22.6893 130.9110 58.2559 12.6491 -0.8004 -14.9909
# 3 18.6682 58.2559 113.0373 -1.1295 -9.5476 -3.2693
# 4 13.2308 12.6491 -1.1295 46.2245 0.6552 -8.1375
# 5 -7.6669 -0.8004 -9.5476 0.6552 36.9999 6.0514
# 6 -13.4110 -14.9909 -3.2693 -8.1375 6.0514 36.1479
#
#
#
# Elastic Compliance Matrix: (Units=1/GPa)
#
#
# Indices 1 2 3 4 5 6 
#
# 1 0.025434 -0.001822 -0.002831 -0.005749 0.003533 0.006539
# 2 -0.001822 0.010923 -0.005426 -0.001998 -0.002038 0.003254
# 3 -0.002831 -0.005426 0.012305 0.002175 0.002787 -0.002165
# 4 -0.005749 -0.001998 0.002175 0.024430 -0.001597 0.003002
# 5 0.003533 -0.002038 0.002787 -0.001597 0.029203 -0.004531
# 6 0.006539 0.003254 -0.002165 0.003002 -0.004531 0.032678
#
#
# Mechanical properties :
#
#
# Convention : Reuss Voigt Hill
#
# Bulk Modulus (GPa) = 35.08502 54.85555 44.97029
# Shear Modulus (GPa) = 30.37042 36.86511 33.61776
#
# Velocity S-wave (km/s) = 3.48937 3.84441 3.67119
# Velocity P-wave (km/s) = 5.50456 6.45740 5.99992
#
# Compressibility (1/GPa) = 0.02850219
#
# Stress axis : x y z
#
# Youngs Moduli (GPa) = 39.31748 91.55361 81.26632
#
# Poissons Ratio (x) = 0.16685 0.23008
# Poissons Ratio (y) = 0.07165 0.44097
# Poissons Ratio (z) = 0.11132 0.49679
#
# Static dielectric constant tensor:
#      x y z
#    x 1.998720 -0.000590 0.025210 
#    y -0.000590 1.977110 0.023690 
#    z 0.025210 0.023690 1.985300 
# 
# From -- ./inp_files/293834.got.cif
#   From: 2010.05.17/outbox.cif.g08.bks.cpg/sg2_147_cif.got.tgz:293834.got - 2010.06.03 11:33:40.
