data_PCOD9062496
_publ_section_title
;
Structure prediction by ZEFSAII (Michael W. Deem and Ramdas Pophale) SiO2 
 PCOD9062496
Probable space group: P -1
;
_chemical_formula_sum "Si O2"
_cell_formula_units_Z 16
_cell_length_a 10.433942
_cell_length_b 14.029356
_cell_length_c 16.453936
_cell_angle_alpha 156.966783
_cell_angle_beta 125.151945
_cell_angle_gamma 53.018462
_cell_volume 750.909720
_symmetry_space_group_name_H-M "P -1"
_symmetry_group_IT_number 2
_symmetry_cell_setting 'triclinic'
loop_
_space_group_symop_operation_xyz
x,y,z
-x,-y,-z
loop_
_atom_site_type_symbol
_atom_site_label
_atom_site_fract_x
_atom_site_fract_y
_atom_site_fract_z
Si Si1 0.144157 0.284689 0.598962
Si Si2 0.052733 0.700677 0.617488
Si Si3 0.358796 0.375991 0.381836
Si Si4 0.152129 0.387765 0.024547
Si Si5 0.546340 0.933651 0.213490
Si Si6 0.108935 0.221078 0.055202
Si Si7 0.720989 0.145670 0.585664
Si Si8 0.526780 0.553793 0.145684
O O1 0.325162 0.318629 0.688621
O O2 0.140302 0.078450 0.504952
O O3 0.500000 0.500000 0.000000
O O4 0.032793 0.550684 0.789873
O O5 0.217904 0.567826 0.528422
O O6 0.917293 0.782378 0.562981
O O7 0.000000 0.500000 0.500000
O O8 0.079350 0.956567 0.866207
O O9 0.500000 0.500000 0.500000
O O10 0.271740 0.268145 0.191207
O O11 0.441125 0.157234 0.300419
O O12 0.114726 0.244754 0.978495
O O13 0.218743 0.633739 0.265081
O O14 0.289395 0.199147 0.876609
O O15 0.000000 0.500000 0.000000
O O16 0.602622 0.033449 0.397048
O O17 0.448023 0.718438 0.018565
O O18 0.627408 0.275785 0.733151
#
# Coordination Sequence:
#
# PCOD9062496 Si02
#       8
#     2   2   2   2   2   2   2   2
#     4  11  25  42  68  98 138 177 222 279 344 411
#     4  11  28  44  70 100 135 186 235 286 348 406
#     4  11  26  46  70 100 138 183 238 285 343 410
#     4  11  24  42  68  98 135 174 224 277 344 408
#     4  11  25  41  67  99 131 176 227 279 338 406
#     4  11  26  46  69  98 140 183 226 287 342 403
#     4  11  24  41  66 100 132 174 220 281 340 409
#     4  11  25  40  66 101 135 175 222 276 344 407
#
# _framework density 21.307486999999998
#
# number of rings (size 3 to 8) (size 9 to 14) (size 15 to 20)
#    0.000    1.000    1.250    3.375    8.750    8.000 
#    0.000    0.000    0.000    0.000    0.000    0.000 
#    0.000    0.000    0.000    0.000    0.000    0.000 
#
# Total GULP energy -89522.941554 kJ/mol
# GULP energy per Si atom -5595.183847 kJ/mol
# Density = 2.125899 g / cm^3
# Si number density = 21.307487 Si / 1000 Ang^3
#
#
#
# Elastic Constant Matrix: (Units=GPa)
#
#
# Indices 1 2 3 4 5 6 
#
# 1 50.0477 -1.2013 14.9292 -0.8049 16.5985 2.6102
# 2 -1.2013 115.4513 25.1308 9.9564 6.3037 -2.8402
# 3 14.9292 25.1308 111.2452 14.2205 14.2555 2.3363
# 4 -0.8049 9.9564 14.2205 33.3578 6.4178 4.9482
# 5 16.5985 6.3037 14.2555 6.4178 29.4333 1.6978
# 6 2.6102 -2.8402 2.3363 4.9482 1.6978 31.6594
#
#
#
# Elastic Compliance Matrix: (Units=1/GPa)
#
#
# Indices 1 2 3 4 5 6 
#
# 1 0.025654 0.001155 -0.002373 0.004315 -0.014406 -0.001738
# 2 0.001155 0.009351 -0.001873 -0.001879 -0.001409 0.001251
# 3 -0.002373 -0.001873 0.010507 -0.003469 -0.002589 -0.000067
# 4 0.004315 -0.001879 -0.003469 0.034349 -0.007538 -0.005233
# 5 -0.014406 -0.001409 -0.002589 -0.007538 0.045299 0.000001
# 6 -0.001738 0.001251 -0.000067 -0.005233 0.000001 0.032664
#
#
# Mechanical properties :
#
#
# Convention : Reuss Voigt Hill
#
# Bulk Modulus (GPa) = 25.42472 39.38460 32.40466
# Shear Modulus (GPa) = 28.22993 34.74914 31.48954
#
# Velocity S-wave (km/s) = 3.64384 4.04275 3.84847
# Velocity P-wave (km/s) = 5.44625 6.34947 5.91513
#
# Compressibility (1/GPa) = 0.03933179
#
# Stress axis : x y z
#
# Youngs Moduli (GPa) = 38.97957 106.93849 95.17075
#
# Poissons Ratio (x) = -0.12353 0.22582
# Poissons Ratio (y) = -0.04503 0.17825
# Poissons Ratio (z) = 0.09249 0.20029
#
# Static dielectric constant tensor:
#      x y z
#    x 0.522880 -0.723370 -0.481010 
#    y -0.723370 1.299810 -0.285590 
#    z -0.481010 -0.285590 1.591750 
# 
# From -- ./inp_files/569889.got.cif
#   From: 2010.05.17/outbox.cif.g08.bks.cpg/sg2_285_cif.got.tgz:569889.got - 2010.06.03 11:33:40.
