data_PCOD9062888
_publ_section_title
;
Structure prediction by ZEFSAII (Michael W. Deem and Ramdas Pophale) SiO2 
 PCOD9062888
Probable space group: P -1
;
_chemical_formula_sum "Si O2"
_cell_formula_units_Z 16
_cell_length_a 17.375712
_cell_length_b 11.661831
_cell_length_c 9.337259
_cell_angle_alpha 86.255016
_cell_angle_beta 127.734680
_cell_angle_gamma 136.377343
_cell_volume 744.958010
_symmetry_space_group_name_H-M "P -1"
_symmetry_group_IT_number 2
_symmetry_cell_setting 'triclinic'
loop_
_space_group_symop_operation_xyz
x,y,z
-x,-y,-z
loop_
_atom_site_type_symbol
_atom_site_label
_atom_site_fract_x
_atom_site_fract_y
_atom_site_fract_z
Si Si1 0.691486 0.188762 0.606744
Si Si2 0.573034 0.966420 0.181903
Si Si3 0.604272 0.639803 0.961053
Si Si4 0.133969 0.876033 0.697917
Si Si5 0.994158 0.156478 0.916345
Si Si6 0.780976 0.570319 0.119462
Si Si7 0.967971 0.311297 0.098750
Si Si8 0.324999 0.342351 0.422777
O O1 0.805437 0.423733 0.685405
O O2 0.500000 0.000000 0.500000
O O3 0.651003 0.089613 0.414729
O O4 0.837023 0.265884 0.865940
O O5 0.735704 0.063582 0.269334
O O6 0.397107 0.697977 0.035632
O O7 0.500000 0.000000 0.000000
O O8 0.433838 0.504918 0.669976
O O9 0.500000 0.500000 0.000000
O O10 0.707301 0.627562 0.024221
O O11 0.751787 0.894053 0.137458
O O12 0.086593 0.751550 0.793276
O O13 0.935038 0.712742 0.410515
O O14 0.100387 0.336892 0.898623
O O15 0.164038 0.249384 0.162851
O O16 0.803201 0.899087 0.656136
O O17 0.925882 0.151290 0.980607
O O18 0.500000 0.500000 0.500000
#
# Coordination Sequence:
#
# PCOD9062888 Si02
#       8
#     2   2   2   2   2   2   2   2
#     4  11  25  47  72 100 135 175 233 285 342 406
#     4  12  27  47  73 101 138 183 230 290 348 410
#     4  12  25  44  70 100 145 185 229 278 345 415
#     4  12  27  45  69 105 143 182 230 285 346 413
#     4  11  25  42  70 101 138 183 225 281 341 402
#     4  12  26  45  70 102 139 188 229 283 345 410
#     4  11  26  43  70 103 135 179 227 286 341 407
#     4  11  24  43  65 100 139 180 228 276 333 407
#
# _framework density 21.477720000000001
#
# number of rings (size 3 to 8) (size 9 to 14) (size 15 to 20)
#    0.000    0.500    2.500    4.875    5.250    8.000 
#    0.000    0.000    0.000    0.000    0.000    0.000 
#    0.000    0.000    0.000    0.000    0.000    0.000 
#
# Total GULP energy -89468.135060 kJ/mol
# GULP energy per Si atom -5591.758441 kJ/mol
# Density = 2.142884 g / cm^3
# Si number density = 21.477720 Si / 1000 Ang^3
#
#
#
# Elastic Constant Matrix: (Units=GPa)
#
#
# Indices 1 2 3 4 5 6 
#
# 1 54.4250 14.4786 12.0036 -9.5264 -5.0621 13.4905
# 2 14.4786 92.3142 37.3843 -9.4936 -7.2579 19.1869
# 3 12.0036 37.3843 125.9215 -0.8738 -17.4052 3.7954
# 4 -9.5264 -9.4936 -0.8738 29.2937 4.3534 -8.4110
# 5 -5.0621 -7.2579 -17.4052 4.3534 40.1310 -4.1182
# 6 13.4905 19.1869 3.7954 -8.4110 -4.1182 42.5005
#
#
#
# Elastic Compliance Matrix: (Units=1/GPa)
#
#
# Indices 1 2 3 4 5 6 
#
# 1 0.021164 -0.001148 -0.001378 0.004905 0.000816 -0.005027
# 2 -0.001148 0.013882 -0.003856 0.002574 -0.000105 -0.005059
# 3 -0.001378 -0.003856 0.009668 -0.001559 0.003630 0.001358
# 4 0.004905 0.002574 -0.001559 0.038353 -0.003271 0.004694
# 5 0.000816 -0.000105 0.003630 -0.003271 0.027080 0.001441
# 6 -0.005027 -0.005059 0.001358 0.004694 0.001441 0.028356
#
#
# Mechanical properties :
#
#
# Convention : Reuss Voigt Hill
#
# Bulk Modulus (GPa) = 31.29982 44.48819 37.89401
# Shear Modulus (GPa) = 30.88006 36.30464 33.59235
#
# Velocity S-wave (km/s) = 3.79591 4.11583 3.95910
# Velocity P-wave (km/s) = 5.81521 6.58372 6.21136
#
# Compressibility (1/GPa) = 0.03194906
#
# Stress axis : x y z
#
# Youngs Moduli (GPa) = 47.25074 72.03492 103.43720
#
# Poissons Ratio (x) = 0.08268 0.14257
# Poissons Ratio (y) = 0.05423 0.39887
# Poissons Ratio (z) = 0.06513 0.27778
#
# Static dielectric constant tensor:
#      x y z
#    x 1.936030 0.043840 -0.219680 
#    y 0.043840 1.846740 -0.124510 
#    z -0.219680 -0.124510 2.054560 
# 
# From -- ./inp_files/333284.got.cif
#   From: 2010.05.17/outbox.cif.g08.bks.cpg/sg2_167_cif.got.tgz:333284.got - 2010.06.03 11:33:40.
