data_PCOD9062436
_publ_section_title
;
Structure prediction by ZEFSAII (Michael W. Deem and Ramdas Pophale) SiO2 
 PCOD9062436
Probable space group: P -1
;
_chemical_formula_sum "Si O2"
_cell_formula_units_Z 11
_cell_length_a 7.931388
_cell_length_b 11.415641
_cell_length_c 8.921630
_cell_angle_alpha 64.950253
_cell_angle_beta 32.640257
_cell_angle_gamma 58.770308
_cell_volume 372.401728
_symmetry_space_group_name_H-M "P -1"
_symmetry_group_IT_number 2
_symmetry_cell_setting 'triclinic'
loop_
_space_group_symop_operation_xyz
x,y,z
-x,-y,-z
loop_
_atom_site_type_symbol
_atom_site_label
_atom_site_fract_x
_atom_site_fract_y
_atom_site_fract_z
Si Si1 0.453627 0.820095 0.762044
Si Si2 0.088267 0.024464 0.683340
Si Si3 0.359318 0.657384 0.327966
Si Si4 0.807347 0.396462 0.015707
Si Si5 0.859608 0.797574 0.879000
Si Si6 0.000000 0.500000 0.500000
O O1 0.365731 0.894932 0.625957
O O2 0.724175 0.884090 0.588134
O O3 0.495468 0.658462 0.789780
O O4 0.130989 0.883249 0.071046
O O5 0.880559 0.948563 0.787481
O O6 0.145001 0.621837 0.378522
O O7 0.157375 0.709768 0.599182
O O8 0.655071 0.512937 0.189618
O O9 0.531228 0.767743 0.092128
O O10 0.948731 0.461552 0.741506
O O11 0.066403 0.267748 0.973083
#
# Coordination Sequence:
#
# PCOD9062436 Si02
#       6
#     2   2   2   2   2   1
#     4   9  19  34  62  89 132 152 213 250 322 370
#     4   9  18  36  58  98 120 164 194 272 313 371
#     4  12  25  44  63  98 129 173 209 272 316 387
#     4  11  25  41  68 100 127 174 209 270 314 384
#     4  11  24  40  72  96 134 156 220 265 328 368
#     4  12  28  44  62  92 138 176 216 248 330 382
#
# _framework density 29.537994999999999
#
# number of rings (size 3 to 8) (size 9 to 14) (size 15 to 20)
#    0.000    1.455    1.818    2.727    5.091    2.909 
#    0.000    0.000    0.000    6.545    0.000    0.000 
#    0.000    0.000    0.000    0.000    0.000    0.000 
#
# Total GULP energy -61608.413748 kJ/mol
# GULP energy per Si atom -5600.764886 kJ/mol
# Density = 2.947077 g / cm^3
# Si number density = 29.537995 Si / 1000 Ang^3
#
#
#
# Elastic Constant Matrix: (Units=GPa)
#
#
# Indices 1 2 3 4 5 6 
#
# 1 99.9698 57.2078 36.7454 -16.9142 -21.8106 19.5650
# 2 57.2078 233.5342 81.0775 -28.9499 7.8094 36.4492
# 3 36.7454 81.0775 223.3879 -14.4194 0.0841 26.7241
# 4 -16.9142 -28.9499 -14.4194 58.6936 25.5364 5.3552
# 5 -21.8106 7.8094 0.0841 25.5364 53.6287 -24.7201
# 6 19.5650 36.4492 26.7241 5.3552 -24.7201 69.0113
#
#
#
# Elastic Compliance Matrix: (Units=1/GPa)
#
#
# Indices 1 2 3 4 5 6 
#
# 1 0.013557 -0.003493 -0.001188 -0.001338 0.007186 0.001139
# 2 -0.003493 0.007601 -0.000987 0.006853 -0.008686 -0.006286
# 3 -0.001188 -0.000987 0.005383 0.001582 -0.002064 -0.002089
# 4 -0.001338 0.006853 0.001582 0.032053 -0.023632 -0.014805
# 5 0.007186 -0.008686 -0.002064 -0.023632 0.043694 0.020835
# 6 0.001139 -0.006286 -0.002089 -0.014805 0.020835 0.026908
#
#
# Mechanical properties :
#
#
# Convention : Reuss Voigt Hill
#
# Bulk Modulus (GPa) = 65.76089 100.77260 83.26675
# Shear Modulus (GPa) = 34.34078 61.72413 48.03246
#
# Velocity S-wave (km/s) = 3.41339 4.57623 4.03690
# Velocity P-wave (km/s) = 6.15195 7.88117 7.06963
#
# Compressibility (1/GPa) = 0.01520661
#
# Stress axis : x y z
#
# Youngs Moduli (GPa) = 73.76443 131.55761 185.77848
#
# Poissons Ratio (x) = 0.45948 0.22065
# Poissons Ratio (y) = 0.25763 0.18331
# Poissons Ratio (z) = 0.08761 0.12981
#
# Static dielectric constant tensor:
#      x y z
#    x 2.120960 0.100890 0.000460 
#    y 0.100890 2.166480 -0.064610 
#    z 0.000460 -0.064610 2.096390 
# 
# From -- ./inp_files/129889.got.cif
#   From: 2010.05.17/outbox.cif.g08.bks.cpg/sg2_65_cif.got.tgz:129889.got - 2010.06.03 11:33:40.
