data_PCOD9062865
_publ_section_title
;
Structure prediction by ZEFSAII (Michael W. Deem and Ramdas Pophale) SiO2 
 PCOD9062865
Probable space group: P -1
;
_chemical_formula_sum "Si O2"
_cell_formula_units_Z 15
_cell_length_a 9.173180
_cell_length_b 9.412048
_cell_length_c 11.737191
_cell_angle_alpha 61.325186
_cell_angle_beta 67.392078
_cell_angle_gamma 45.864108
_cell_volume 636.051911
_symmetry_space_group_name_H-M "P -1"
_symmetry_group_IT_number 2
_symmetry_cell_setting 'triclinic'
loop_
_space_group_symop_operation_xyz
x,y,z
-x,-y,-z
loop_
_atom_site_type_symbol
_atom_site_label
_atom_site_fract_x
_atom_site_fract_y
_atom_site_fract_z
Si Si1 0.695820 0.469828 0.993439
Si Si2 0.069375 0.631417 0.270121
Si Si3 0.313965 0.162308 0.411053
Si Si4 0.960016 0.247888 0.210363
Si Si5 0.956991 0.150622 0.590907
Si Si6 0.500000 0.500000 0.500000
Si Si7 0.283635 0.332004 0.737579
Si Si8 0.612588 0.892253 0.861415
O O1 0.850747 0.382047 0.874831
O O2 0.625707 0.695520 0.962439
O O3 0.500000 0.500000 0.000000
O O4 0.807346 0.318130 0.125225
O O5 0.227652 0.399147 0.364941
O O6 0.059424 0.791330 0.292705
O O7 0.852743 0.682362 0.303858
O O8 0.375813 0.112976 0.279215
O O9 0.129631 0.157797 0.488657
O O10 0.500000 0.000000 0.500000
O O11 0.873854 0.457615 0.223864
O O12 0.185917 0.147045 0.141905
O O13 0.971805 0.080453 0.347627
O O14 0.737107 0.322938 0.537903
O O15 0.439074 0.357569 0.624648
O O16 0.409591 0.124304 0.857187
#
# Coordination Sequence:
#
# PCOD9062865 Si02
#       8
#     2   2   2   2   2   1   2   2
#     4  11  28  50  75 105 147 193 257 318 364 434
#     4  11  26  49  70 107 147 196 253 305 373 444
#     4  11  24  42  75 104 153 193 241 305 374 446
#     4  12  27  49  73 108 149 194 250 309 368 441
#     4  12  27  44  75 114 151 194 247 308 374 450
#     4  12  26  44  72 116 156 186 244 298 376 452
#     4  12  26  47  76 109 151 197 243 298 378 451
#     4  11  25  49  73 110 142 200 242 302 379 436
#
# _framework density 23.582981
#
# number of rings (size 3 to 8) (size 9 to 14) (size 15 to 20)
#    0.000    0.533    5.333    1.600   11.200    2.133 
#    0.000    0.000    0.000    0.000    0.000    0.000 
#    0.000    0.000    0.000    0.000    0.000    0.000 
#
# Total GULP energy -83862.093513 kJ/mol
# GULP energy per Si atom -5590.806234 kJ/mol
# Density = 2.352930 g / cm^3
# Si number density = 23.582981 Si / 1000 Ang^3
#
#
#
# Elastic Constant Matrix: (Units=GPa)
#
#
# Indices 1 2 3 4 5 6 
#
# 1 137.2429 17.2213 23.6762 -1.4790 16.9694 -32.2150
# 2 17.2213 101.3151 11.6640 -10.9636 14.5889 -1.7930
# 3 23.6762 11.6640 61.1474 -15.6862 3.8927 -10.4576
# 4 -1.4790 -10.9636 -15.6862 40.1857 -7.4034 8.8224
# 5 16.9694 14.5889 3.8927 -7.4034 42.8130 -7.6875
# 6 -32.2150 -1.7930 -10.4576 8.8224 -7.6875 38.1607
#
#
#
# Elastic Compliance Matrix: (Units=1/GPa)
#
#
# Indices 1 2 3 4 5 6 
#
# 1 0.010085 -0.001233 -0.003016 -0.003331 -0.002460 0.007904
# 2 -0.001233 0.010871 -0.001141 0.002351 -0.003065 -0.002004
# 3 -0.003016 -0.001141 0.019748 0.007216 0.001288 0.001404
# 4 -0.003331 0.002351 0.007216 0.030468 0.003877 -0.006987
# 5 -0.002460 -0.003065 0.001288 0.003877 0.026388 0.002552
# 6 0.007904 -0.002004 0.001404 -0.006987 0.002552 0.035297
#
#
# Mechanical properties :
#
#
# Convention : Reuss Voigt Hill
#
# Bulk Modulus (GPa) = 33.41715 44.98095 39.19905
# Shear Modulus (GPa) = 32.54933 40.70812 36.62873
#
# Velocity S-wave (km/s) = 3.71914 4.15922 3.94532
# Velocity P-wave (km/s) = 5.71345 6.49464 6.11653
#
# Compressibility (1/GPa) = 0.02992476
#
# Stress axis : x y z
#
# Youngs Moduli (GPa) = 99.15880 91.98387 50.63727
#
# Poissons Ratio (x) = 0.11345 0.15271
# Poissons Ratio (y) = 0.12230 0.05777
# Poissons Ratio (z) = 0.29904 0.10493
#
# Static dielectric constant tensor:
#      x y z
#    x 1.815370 0.025910 0.024560 
#    y 0.025910 1.915550 0.054560 
#    z 0.024560 0.054560 1.914450 
# 
# From -- ./inp_files/189610.got.cif
#   From: 2010.05.17/outbox.cif.g08.bks.cpg/sg2_95_cif.got.tgz:189610.got - 2010.06.03 11:33:40.
