data_PCOD9062705
_publ_section_title
;
Structure prediction by ZEFSAII (Michael W. Deem and Ramdas Pophale) SiO2 
 PCOD9062705
Probable space group: P -1
;
_chemical_formula_sum "Si O2"
_cell_formula_units_Z 10
_cell_length_a 11.098572
_cell_length_b 18.602164
_cell_length_c 7.081878
_cell_angle_alpha 122.990961
_cell_angle_beta 97.065850
_cell_angle_gamma 33.086909
_cell_volume 459.195542
_symmetry_space_group_name_H-M "P -1"
_symmetry_group_IT_number 2
_symmetry_cell_setting 'triclinic'
loop_
_space_group_symop_operation_xyz
x,y,z
-x,-y,-z
loop_
_atom_site_type_symbol
_atom_site_label
_atom_site_fract_x
_atom_site_fract_y
_atom_site_fract_z
Si Si1 0.661975 0.303055 0.694752
Si Si2 0.624847 0.968920 0.789625
Si Si3 0.260167 0.260474 0.776068
Si Si4 0.254726 0.925883 0.530565
Si Si5 0.152799 0.760856 0.742086
O O1 0.517663 0.306729 0.741363
O O2 0.728328 0.253602 0.417125
O O3 0.500000 0.500000 0.000000
O O4 0.013692 0.072747 0.522638
O O5 0.783378 0.799717 0.428394
O O6 0.900089 0.856746 0.744070
O O7 0.340507 0.195859 0.923713
O O8 0.500000 0.000000 0.000000
O O9 0.575871 0.095608 0.505849
O O10 0.000000 0.500000 0.000000
O O11 0.035140 0.076597 0.887607
O O12 0.500000 0.500000 0.500000
#
# Coordination Sequence:
#
# PCOD9062705 Si02
#       5
#     2   2   2   2   2
#     4  11  24  42  68  98 138 177 222 279 345 408
#     4  11  25  47  70 100 144 180 233 286 341 414
#     4  11  26  44  72  99 137 189 234 281 344 410
#     4  11  24  43  66 100 137 178 226 283 338 409
#     4  12  24  43  71 104 136 180 224 284 349 406
#
# _framework density 21.777215000000002
#
# number of rings (size 3 to 8) (size 9 to 14) (size 15 to 20)
#    0.000    0.800    6.000    0.600    2.800    2.400 
#    3.600    0.000    0.000    0.000    0.000    0.000 
#    0.000    0.000    0.000    0.000    0.000    0.000 
#
# Total GULP energy -55719.528896 kJ/mol
# GULP energy per Si atom -5571.952890 kJ/mol
# Density = 2.172765 g / cm^3
# Si number density = 21.777215 Si / 1000 Ang^3
#
#
#
# Elastic Constant Matrix: (Units=GPa)
#
#
# Indices 1 2 3 4 5 6 
#
# 1 50.4926 27.5498 2.3276 7.4645 7.5943 12.4834
# 2 27.5498 172.7975 43.4818 -4.4852 5.8010 22.6691
# 3 2.3276 43.4818 65.8737 -0.4074 0.2568 14.8704
# 4 7.4645 -4.4852 -0.4074 30.9484 6.3976 2.5471
# 5 7.5943 5.8010 0.2568 6.3976 34.7348 -7.4715
# 6 12.4834 22.6691 14.8704 2.5471 -7.4715 43.3648
#
#
#
# Elastic Compliance Matrix: (Units=1/GPa)
#
#
# Indices 1 2 3 4 5 6 
#
# 1 0.024997 -0.003821 0.003199 -0.004841 -0.005454 -0.006951
# 2 -0.003821 0.007911 -0.004661 0.002421 -0.001285 -0.001801
# 3 0.003199 -0.004661 0.019335 -0.000531 -0.001101 -0.005273
# 4 -0.004841 0.002421 -0.000531 0.035401 -0.006483 -0.002886
# 5 -0.005454 -0.001285 -0.001101 -0.006483 0.033277 0.008733
# 6 -0.006951 -0.001801 -0.005273 -0.002886 0.008733 0.029485
#
#
# Mechanical properties :
#
#
# Convention : Reuss Voigt Hill
#
# Bulk Modulus (GPa) = 23.99301 48.43137 36.21219
# Shear Modulus (GPa) = 28.59360 36.19656 32.39508
#
# Velocity S-wave (km/s) = 3.62747 4.08135 3.86108
# Velocity P-wave (km/s) = 5.34660 6.67065 6.04499
#
# Compressibility (1/GPa) = 0.04167881
#
# Stress axis : x y z
#
# Youngs Moduli (GPa) = 40.00524 126.40123 51.71890
#
# Poissons Ratio (x) = 0.48299 -0.16547
# Poissons Ratio (y) = 0.15286 0.24104
# Poissons Ratio (z) = -0.12799 0.58910
#
# Static dielectric constant tensor:
#      x y z
#    x 1.934800 0.083780 0.032100 
#    y 0.083780 1.891160 0.035060 
#    z 0.032100 0.035060 1.784650 
# 
# From -- ./inp_files/80938.got.cif
#   From: 2010.05.17/outbox.cif.g08.bks.cpg/sg2_41_cif.got.tgz:80938.got - 2010.06.03 11:33:40.
