data_PCOD9062018
_publ_section_title
;
Structure prediction by ZEFSAII (Michael W. Deem and Ramdas Pophale) SiO2 
 PCOD9062018
Probable space group: P -1
;
_chemical_formula_sum "Si O2"
_cell_formula_units_Z 14
_cell_length_a 11.800088
_cell_length_b 6.378680
_cell_length_c 8.234006
_cell_angle_alpha 77.905210
_cell_angle_beta 97.894498
_cell_angle_gamma 75.801993
_cell_volume 575.733567
_symmetry_space_group_name_H-M "P -1"
_symmetry_group_IT_number 2
_symmetry_cell_setting 'triclinic'
loop_
_space_group_symop_operation_xyz
x,y,z
-x,-y,-z
loop_
_atom_site_type_symbol
_atom_site_label
_atom_site_fract_x
_atom_site_fract_y
_atom_site_fract_z
Si Si1 0.215293 0.422081 0.666745
Si Si2 0.825306 0.111815 0.604805
Si Si3 0.859871 0.326368 0.909614
Si Si4 0.639362 0.864507 0.541349
Si Si5 0.400884 0.515113 0.193621
Si Si6 0.560608 0.743267 0.070709
Si Si7 0.012520 0.336781 0.249702
O O1 0.209877 0.666286 0.549749
O O2 0.280827 0.220486 0.591079
O O3 0.300368 0.349991 0.850955
O O4 0.079642 0.472114 0.694205
O O5 0.874887 0.177347 0.774552
O O6 0.709147 0.021368 0.619028
O O7 0.924735 0.887398 0.603962
O O8 0.724295 0.338664 0.925752
O O9 0.887087 0.555903 0.818150
O O10 0.941407 0.271900 0.093932
O O11 0.636267 0.626846 0.652472
O O12 0.500000 0.000000 0.500000
O O13 0.493651 0.653876 0.217685
O O14 0.463838 0.343326 0.095561
O O15 0.500000 0.000000 0.000000
#
# Coordination Sequence:
#
# PCOD9062018 Si02
#       7
#     2   2   2   2   2   2   2
#     4  12  26  45  70 110 146 184 238 301 347 438
#     4  12  25  45  73 105 142 197 234 291 360 423
#     4  11  24  47  74 101 142 190 239 297 342 436
#     4  12  27  46  73 105 146 193 235 293 365 425
#     4  11  23  47  67 102 138 179 246 292 353 425
#     4  11  26  44  73 100 139 187 238 306 356 415
#     4  11  25  48  72 106 146 188 242 293 361 412
#
# _framework density 24.316801999999999
#
# number of rings (size 3 to 8) (size 9 to 14) (size 15 to 20)
#    0.000    0.571    4.286    2.571    4.000    5.714 
#    2.571    0.000    0.000    0.000    0.000    0.000 
#    0.000    0.000    0.000    0.000    0.000    0.000 
#
# Total GULP energy -78105.550739 kJ/mol
# GULP energy per Si atom -5578.967910 kJ/mol
# Density = 2.426146 g / cm^3
# Si number density = 24.316802 Si / 1000 Ang^3
#
#
#
# Elastic Constant Matrix: (Units=GPa)
#
#
# Indices 1 2 3 4 5 6 
#
# 1 103.7252 20.6987 1.6215 -8.0035 19.1684 -14.2331
# 2 20.6987 73.0636 17.9105 -2.1493 18.0129 -26.8407
# 3 1.6215 17.9105 49.3274 1.5068 6.5172 -8.2545
# 4 -8.0035 -2.1493 1.5068 35.8885 -4.6787 5.6716
# 5 19.1684 18.0129 6.5172 -4.6787 34.3606 -2.8515
# 6 -14.2331 -26.8407 -8.2545 5.6716 -2.8515 38.5486
#
#
#
# Elastic Compliance Matrix: (Units=1/GPa)
#
#
# Indices 1 2 3 4 5 6 
#
# 1 0.011387 -0.000894 0.001208 0.001181 -0.005683 0.003247
# 2 -0.000894 0.022453 -0.004461 -0.002118 -0.009556 0.013953
# 3 0.001208 -0.004461 0.022629 -0.001648 -0.002667 0.002231
# 4 0.001181 -0.002118 -0.001648 0.029489 0.004330 -0.005410
# 5 -0.005683 -0.009556 -0.002667 0.004330 0.037784 -0.007165
# 6 0.003247 0.013953 0.002231 -0.005410 -0.007165 0.037599
#
#
# Mechanical properties :
#
#
# Convention : Reuss Voigt Hill
#
# Bulk Modulus (GPa) = 20.75717 34.06419 27.41068
# Shear Modulus (GPa) = 26.92624 34.15189 30.53907
#
# Velocity S-wave (km/s) = 3.33124 3.75167 3.54769
# Velocity P-wave (km/s) = 4.83227 5.72762 5.29889
#
# Compressibility (1/GPa) = 0.04817614
#
# Stress axis : x y z
#
# Youngs Moduli (GPa) = 87.81825 44.53766 44.19169
#
# Poissons Ratio (x) = 0.03980 -0.05339
# Poissons Ratio (y) = 0.07847 0.19714
# Poissons Ratio (z) = -0.10610 0.19868
#
# Static dielectric constant tensor:
#      x y z
#    x 2.008240 0.035730 -0.035890 
#    y 0.035730 1.995250 -0.023220 
#    z -0.035890 -0.023220 2.153680 
# 
# From -- ./inp_files/77286.got.cif
#   From: 2010.05.17/outbox.cif.g08.bks.cpg/sg2_39_cif.got.tgz:77286.got - 2010.06.03 11:33:40.
