data_PCOD9062602
_publ_section_title
;
Structure prediction by ZEFSAII (Michael W. Deem and Ramdas Pophale) SiO2 
 PCOD9062602
Probable space group: P -1
;
_chemical_formula_sum "Si O2"
_cell_formula_units_Z 12
_cell_length_a 15.800574
_cell_length_b 10.870013
_cell_length_c 14.078983
_cell_angle_alpha 136.138657
_cell_angle_beta 21.525410
_cell_angle_gamma 143.382927
_cell_volume 525.558663
_symmetry_space_group_name_H-M "P -1"
_symmetry_group_IT_number 2
_symmetry_cell_setting 'triclinic'
loop_
_space_group_symop_operation_xyz
x,y,z
-x,-y,-z
loop_
_atom_site_type_symbol
_atom_site_label
_atom_site_fract_x
_atom_site_fract_y
_atom_site_fract_z
Si Si1 0.988266 0.445310 0.592029
Si Si2 0.828906 0.112401 0.713944
Si Si3 0.809408 0.583205 0.342532
Si Si4 0.724542 0.600608 0.087061
Si Si5 0.107563 0.783609 0.966919
Si Si6 0.538149 0.847940 0.306236
O O1 0.932555 0.224276 0.564942
O O2 0.000000 0.500000 0.500000
O O3 0.265531 0.633172 0.450280
O O4 0.759404 0.465659 0.896364
O O5 0.547192 0.537536 0.646912
O O6 0.000000 0.000000 0.500000
O O7 0.943648 0.297637 0.775546
O O8 0.500000 0.000000 0.000000
O O9 0.280110 0.218500 0.864920
O O10 0.767572 0.362643 0.231082
O O11 0.893940 0.726643 0.241729
O O12 0.955802 0.709127 0.984011
O O13 0.329386 0.023166 0.856031
O O14 0.500000 0.000000 0.500000
#
# Coordination Sequence:
#
# PCOD9062602 Si02
#       6
#     2   2   2   2   2   2
#     4  12  29  48  72 108 149 202 253 318 377 460
#     4  12  27  51  76 105 152 206 259 314 381 459
#     4  11  24  45  70 104 145 181 245 307 377 442
#     4  12  21  46  73  97 151 187 242 314 380 442
#     4  11  24  41  72 108 138 185 236 309 377 456
#     4  12  23  45  72 105 145 186 249 303 387 445
#
# _framework density 22.832847000000001
#
# number of rings (size 3 to 8) (size 9 to 14) (size 15 to 20)
#    0.000    0.333    6.667    2.000    2.333    2.000 
#    0.000    0.000    0.000    0.000    0.000    0.000 
#    0.000    0.000    0.000    0.000    0.000    0.000 
#
# Total GULP energy -67064.697281 kJ/mol
# GULP energy per Si atom -5588.724773 kJ/mol
# Density = 2.278088 g / cm^3
# Si number density = 22.832847 Si / 1000 Ang^3
#
#
#
# Elastic Constant Matrix: (Units=GPa)
#
#
# Indices 1 2 3 4 5 6 
#
# 1 125.7409 29.7810 48.1213 -2.3109 27.2589 -31.1542
# 2 29.7810 68.3301 41.7651 -19.3660 1.4356 -26.3965
# 3 48.1213 41.7651 143.5181 -21.7547 26.1477 -24.5461
# 4 -2.3109 -19.3660 -21.7547 45.3772 -6.2895 -0.3563
# 5 27.2589 1.4356 26.1477 -6.2895 45.3719 -7.4866
# 6 -31.1542 -26.3965 -24.5461 -0.3563 -7.4866 48.8716
#
#
#
# Elastic Compliance Matrix: (Units=1/GPa)
#
#
# Indices 1 2 3 4 5 6 
#
# 1 0.011408 -0.002929 -0.001618 -0.002170 -0.005466 0.004025
# 2 -0.002929 0.025214 -0.004267 0.009551 0.006506 0.010674
# 3 -0.001618 -0.004267 0.010056 0.002346 -0.004183 0.001091
# 4 -0.002170 0.009551 0.002346 0.027793 0.004466 0.005840
# 5 -0.005466 0.006506 -0.004183 0.004466 0.028533 0.002332
# 6 0.004025 0.010674 0.001091 0.005840 0.002332 0.029741
#
#
# Mechanical properties :
#
#
# Convention : Reuss Voigt Hill
#
# Bulk Modulus (GPa) = 34.42303 64.10263 49.26283
# Shear Modulus (GPa) = 31.23931 42.45225 36.84578
#
# Velocity S-wave (km/s) = 3.70290 4.31659 4.02147
# Velocity P-wave (km/s) = 5.77847 7.27871 6.57155
#
# Compressibility (1/GPa) = 0.02905032
#
# Stress axis : x y z
#
# Youngs Moduli (GPa) = 87.65998 39.66128 99.43907
#
# Poissons Ratio (x) = 0.11616 0.16085
# Poissons Ratio (y) = 0.25674 0.42434
# Poissons Ratio (z) = 0.14179 0.16925
#
# Static dielectric constant tensor:
#      x y z
#    x 1.886040 -0.059170 -0.009160 
#    y -0.059170 1.943700 -0.023790 
#    z -0.009160 -0.023790 1.917080 
# 
# From -- ./inp_files/495170.got.cif
#   From: 2010.05.17/outbox.cif.g08.bks.cpg/sg2_248_cif.got.tgz:495170.got - 2010.06.03 11:33:40.
