data_PCOD9062015
_publ_section_title
;
Structure prediction by ZEFSAII (Michael W. Deem and Ramdas Pophale) SiO2 
 PCOD9062015
Probable space group: P -1
;
_chemical_formula_sum "Si O2"
_cell_formula_units_Z 14
_cell_length_a 10.845959
_cell_length_b 8.968995
_cell_length_c 8.709862
_cell_angle_alpha 138.847900
_cell_angle_beta 114.720842
_cell_angle_gamma 72.849952
_cell_volume 506.175635
_symmetry_space_group_name_H-M "P -1"
_symmetry_group_IT_number 2
_symmetry_cell_setting 'triclinic'
loop_
_space_group_symop_operation_xyz
x,y,z
-x,-y,-z
loop_
_atom_site_type_symbol
_atom_site_label
_atom_site_fract_x
_atom_site_fract_y
_atom_site_fract_z
Si Si1 0.000000 0.000000 0.000000
Si Si2 0.423962 0.437832 0.753540
Si Si3 0.500000 0.000000 0.000000
Si Si4 0.909295 0.773114 0.295012
Si Si5 0.125580 0.404888 0.186147
Si Si6 0.731021 0.996426 0.619168
Si Si7 0.226093 0.821317 0.891744
Si Si8 0.368013 0.680912 0.437969
O O1 0.075424 0.844947 0.772398
O O2 0.917566 0.771299 0.846407
O O3 0.292186 0.584835 0.781654
O O4 0.524805 0.497286 0.709264
O O5 0.392466 0.168603 0.517671
O O6 0.500000 0.500000 0.000000
O O7 0.347415 0.959425 0.979368
O O8 0.437397 0.885254 0.724054
O O9 0.000205 0.563078 0.215481
O O10 0.803191 0.829866 0.412862
O O11 0.842062 0.715926 0.052262
O O12 0.000000 0.000000 0.500000
O O13 0.259090 0.562131 0.401023
O O14 0.698395 0.214156 0.668707
O O15 0.815894 0.078162 0.877067
#
# Coordination Sequence:
#
# PCOD9062015 Si02
#       8
#     1   2   1   2   2   2   2   2
#     4  12  30  52  78 120 178 226 272 352 438 530
#     4  12  24  46  82 119 153 210 279 351 412 501
#     4  12  30  52  78 116 174 226 272 350 434 514
#     4  11  23  46  85 123 163 214 292 354 422 508
#     4  11  27  50  81 124 169 227 282 353 429 514
#     4  12  24  47  80 119 154 210 279 351 413 502
#     4  12  29  51  79 118 168 219 283 346 430 512
#     4  12  26  49  84 120 164 218 284 354 427 502
#
# _framework density 27.658383000000001
#
# number of rings (size 3 to 8) (size 9 to 14) (size 15 to 20)
#    0.000    0.286    4.286    3.857    6.000    2.857 
#    0.000    5.714    0.000    0.000    0.000    0.000 
#    0.000    0.000    0.000    0.000    0.000    0.000 
#
# Total GULP energy -78162.566461 kJ/mol
# GULP energy per Si atom -5583.040461 kJ/mol
# Density = 2.759543 g / cm^3
# Si number density = 27.658383 Si / 1000 Ang^3
#
#
#
# Elastic Constant Matrix: (Units=GPa)
#
#
# Indices 1 2 3 4 5 6 
#
# 1 207.0123 49.7316 10.8479 14.8055 -22.5927 25.5532
# 2 49.7316 155.5726 25.1733 19.4445 -0.1335 -0.7959
# 3 10.8479 25.1733 93.3745 -26.6266 1.1966 7.0006
# 4 14.8055 19.4445 -26.6266 47.2678 9.1924 -6.6711
# 5 -22.5927 -0.1335 1.1966 9.1924 60.8002 11.3106
# 6 25.5532 -0.7959 7.0006 -6.6711 11.3106 52.7087
#
#
#
# Elastic Compliance Matrix: (Units=1/GPa)
#
#
# Indices 1 2 3 4 5 6 
#
# 1 0.006391 -0.001492 -0.001001 -0.003255 0.003662 -0.004185
# 2 -0.001492 0.008038 -0.003377 -0.004667 0.000109 0.000679
# 3 -0.001001 -0.003377 0.014736 0.010496 -0.002313 0.000302
# 4 -0.003255 -0.004667 0.010496 0.032259 -0.007379 0.005780
# 5 0.003662 0.000109 -0.002313 -0.007379 0.020223 -0.006740
# 6 -0.004185 0.000679 0.000302 0.005780 -0.006740 0.023149
#
#
# Mechanical properties :
#
#
# Convention : Reuss Voigt Hill
#
# Bulk Modulus (GPa) = 57.39105 69.71833 63.55469
# Shear Modulus (GPa) = 40.86793 56.83578 48.85185
#
# Velocity S-wave (km/s) = 3.84812 4.53804 4.20725
# Velocity P-wave (km/s) = 6.36703 7.26086 6.82859
#
# Compressibility (1/GPa) = 0.01742432
#
# Stress axis : x y z
#
# Youngs Moduli (GPa) = 156.47770 124.40682 67.85924
#
# Poissons Ratio (x) = 0.18566 0.06795
# Poissons Ratio (y) = 0.23352 0.22914
# Poissons Ratio (z) = 0.15669 0.42009
#
# Static dielectric constant tensor:
#      x y z
#    x 3.497320 -1.040040 0.238160 
#    y -1.040040 3.117290 -0.289840 
#    z 0.238160 -0.289840 2.356060 
# 
# From -- ./inp_files/241729.got.cif
#   From: 2010.05.17/outbox.cif.g08.bks.cpg/sg2_121_cif.got.tgz:241729.got - 2010.06.03 11:33:40.
