data_PCOD9062429
_publ_section_title
;
Structure prediction by ZEFSAII (Michael W. Deem and Ramdas Pophale) SiO2 
 PCOD9062429
Probable space group: P -1
;
_chemical_formula_sum "Si O2"
_cell_formula_units_Z 10
_cell_length_a 12.024897
_cell_length_b 4.870807
_cell_length_c 8.517001
_cell_angle_alpha 96.397977
_cell_angle_beta 90.044071
_cell_angle_gamma 127.418931
_cell_volume 392.240343
_symmetry_space_group_name_H-M "P -1"
_symmetry_group_IT_number 2
_symmetry_cell_setting 'triclinic'
loop_
_space_group_symop_operation_xyz
x,y,z
-x,-y,-z
loop_
_atom_site_type_symbol
_atom_site_label
_atom_site_fract_x
_atom_site_fract_y
_atom_site_fract_z
Si Si1 0.341671 0.774756 0.049623
Si Si2 0.911011 0.476513 0.354532
Si Si3 0.629042 0.640027 0.741850
Si Si4 0.381293 0.044710 0.551680
Si Si5 0.089888 0.095060 0.850971
O O1 0.322675 0.576887 0.200758
O O2 0.540311 0.655907 0.295057
O O3 0.236047 0.472916 0.910184
O O4 0.500000 0.000000 0.000000
O O5 0.976753 0.836833 0.289525
O O6 0.000000 0.500000 0.500000
O O7 0.756512 0.309421 0.408302
O O8 0.897843 0.202579 0.215611
O O9 0.661245 0.814708 0.581598
O O10 0.500000 0.000000 0.500000
O O11 0.680293 0.941656 0.886668
O O12 0.000000 0.000000 0.000000
#
# Coordination Sequence:
#
# PCOD9062429 Si02
#       5
#     2   2   2   2   2
#     4  12  24  43  71 102 146 190 249 303 379 431
#     4  12  29  50  79 109 150 202 256 303 374 452
#     4  11  24  40  71 104 144 188 242 307 371 432
#     4  11  25  45  75 110 153 188 255 310 375 435
#     4  12  29  50  76 110 155 198 251 310 377 454
#
# _framework density 25.494572999999999
#
# number of rings (size 3 to 8) (size 9 to 14) (size 15 to 20)
#    0.000    0.400    2.000    5.400   11.200    0.000 
#    0.000    0.000    0.000    0.000    0.000    0.000 
#    0.000    0.000    0.000    0.000    0.000    0.000 
#
# Total GULP energy -56038.282225 kJ/mol
# GULP energy per Si atom -5603.828222 kJ/mol
# Density = 2.543655 g / cm^3
# Si number density = 25.494573 Si / 1000 Ang^3
#
#
#
# Elastic Constant Matrix: (Units=GPa)
#
#
# Indices 1 2 3 4 5 6 
#
# 1 108.0736 36.9437 25.4910 -17.5161 -15.7686 -8.8974
# 2 36.9437 75.5731 3.6851 -11.1339 -10.7196 -7.6431
# 3 25.4910 3.6851 109.1765 -27.4897 18.0734 6.1176
# 4 -17.5161 -11.1339 -27.4897 62.0609 -9.0907 -2.2640
# 5 -15.7686 -10.7196 18.0734 -9.0907 35.4788 -5.4154
# 6 -8.8974 -7.6431 6.1176 -2.2640 -5.4154 47.9434
#
#
#
# Elastic Compliance Matrix: (Units=1/GPa)
#
#
# Indices 1 2 3 4 5 6 
#
# 1 0.013547 -0.004637 -0.003825 0.002547 0.007718 0.003255
# 2 -0.004637 0.016604 0.000400 0.002477 0.003734 0.002274
# 3 -0.003825 0.000400 0.012243 0.003221 -0.007433 -0.002896
# 4 0.002547 0.002477 0.003221 0.019592 0.005566 0.002011
# 5 0.007718 0.003734 -0.007433 0.005566 0.039126 0.007658
# 6 0.003255 0.002274 -0.002896 0.002011 0.007658 0.023154
#
#
# Mechanical properties :
#
#
# Convention : Reuss Voigt Hill
#
# Bulk Modulus (GPa) = 38.06585 47.22920 42.64752
# Shear Modulus (GPa) = 33.52425 44.21019 38.86722
#
# Velocity S-wave (km/s) = 3.63017 4.16877 3.90876
# Velocity P-wave (km/s) = 5.70387 6.46042 6.09390
#
# Compressibility (1/GPa) = 0.02627027
#
# Stress axis : x y z
#
# Youngs Moduli (GPa) = 73.81648 60.22655 81.68092
#
# Poissons Ratio (x) = 0.27926 0.31246
# Poissons Ratio (y) = 0.34227 -0.03271
# Poissons Ratio (z) = 0.28238 -0.02412
#
# Static dielectric constant tensor:
#      x y z
#    x 1.971780 0.013100 0.026790 
#    y 0.013100 1.991280 0.029540 
#    z 0.026790 0.029540 2.078130 
# 
# From -- ./inp_files/228951.got.cif
#   From: 2010.05.17/outbox.cif.g08.bks.cpg/sg2_115_cif.got.tgz:228951.got - 2010.06.03 11:33:40.
