data_PCOD9062829
_publ_section_title
;
Structure prediction by ZEFSAII (Michael W. Deem and Ramdas Pophale) SiO2 
 PCOD9062829
Probable space group: P -1
;
_chemical_formula_sum "Si O2"
_cell_formula_units_Z 16
_cell_length_a 14.379513
_cell_length_b 9.436174
_cell_length_c 9.051454
_cell_angle_alpha 100.976063
_cell_angle_beta 38.376404
_cell_angle_gamma 107.242523
_cell_volume 726.384514
_symmetry_space_group_name_H-M "P -1"
_symmetry_group_IT_number 2
_symmetry_cell_setting 'triclinic'
loop_
_space_group_symop_operation_xyz
x,y,z
-x,-y,-z
loop_
_atom_site_type_symbol
_atom_site_label
_atom_site_fract_x
_atom_site_fract_y
_atom_site_fract_z
Si Si1 0.818351 0.003752 0.707609
Si Si2 0.206343 0.028069 0.826624
Si Si3 0.751507 0.305490 0.976475
Si Si4 0.601469 0.780637 0.148393
Si Si5 0.104597 0.126215 0.684458
Si Si6 0.909525 0.551948 0.361934
Si Si7 0.645759 0.494109 0.922990
Si Si8 0.733495 0.282022 0.345690
O O1 0.796854 0.960264 0.554151
O O2 0.790601 0.158375 0.829393
O O3 0.690699 0.877878 0.923702
O O4 0.000000 0.000000 0.500000
O O5 0.217540 0.870890 0.716645
O O6 0.355755 0.113964 0.742638
O O7 0.166122 0.135133 0.775251
O O8 0.067218 0.979665 0.106757
O O9 0.634133 0.355870 0.020387
O O10 0.914902 0.427868 0.801461
O O11 0.705368 0.285803 0.203715
O O12 0.418641 0.726440 0.369971
O O13 0.666465 0.634616 0.034643
O O14 0.101743 0.286297 0.654536
O O15 0.792157 0.511476 0.636820
O O16 0.857963 0.425929 0.276573
O O17 0.500000 0.500000 0.000000
#
# Coordination Sequence:
#
# PCOD9062829 Si02
#       8
#     2   2   2   2   2   2   2   2
#     4  12  21  46  74 102 139 184 240 295 349 425
#     4  11  25  43  70 106 136 183 231 291 356 418
#     4  12  27  45  75 105 138 195 240 290 356 421
#     4  12  24  46  71  95 146 188 231 292 355 423
#     4  11  24  42  73 102 138 179 234 292 352 413
#     4  12  24  47  71 104 141 186 238 296 347 428
#     4  12  28  49  67 106 145 186 242 293 358 420
#     4  12  26  45  68 104 149 180 236 294 354 425
#
# _framework density 22.026900999999999
#
# number of rings (size 3 to 8) (size 9 to 14) (size 15 to 20)
#    0.000    0.250    7.500    1.125    3.500    2.500 
#    0.000    1.250    0.000    0.000    0.000    0.000 
#    0.000    0.000    0.000    0.000    0.000    0.000 
#
# Total GULP energy -89389.979842 kJ/mol
# GULP energy per Si atom -5586.873740 kJ/mol
# Density = 2.197677 g / cm^3
# Si number density = 22.026901 Si / 1000 Ang^3
#
#
#
# Elastic Constant Matrix: (Units=GPa)
#
#
# Indices 1 2 3 4 5 6 
#
# 1 67.7798 26.8590 19.7791 -5.0995 9.5574 -16.9865
# 2 26.8590 105.4709 24.2345 18.2500 12.3876 4.4156
# 3 19.7791 24.2345 82.7672 9.5127 -6.8667 2.5284
# 4 -5.0995 18.2500 9.5127 33.3351 7.4681 1.0271
# 5 9.5574 12.3876 -6.8667 7.4681 20.7759 -5.1965
# 6 -16.9865 4.4156 2.5284 1.0271 -5.1965 30.9021
#
#
#
# Elastic Compliance Matrix: (Units=1/GPa)
#
#
# Indices 1 2 3 4 5 6 
#
# 1 0.024548 -0.005873 -0.006677 0.010888 -0.010732 0.012712
# 2 -0.005873 0.013370 -0.002033 -0.006329 -0.005072 -0.005615
# 3 -0.006677 -0.002033 0.016108 -0.007001 0.011491 -0.002533
# 4 0.010888 -0.006329 -0.007001 0.040945 -0.017477 0.003163
# 5 -0.010732 -0.005072 0.011491 -0.017477 0.067634 0.005840
# 6 0.012712 -0.005615 -0.002533 0.003163 0.005840 0.041235
#
#
# Mechanical properties :
#
#
# Convention : Reuss Voigt Hill
#
# Bulk Modulus (GPa) = 40.22488 44.19592 42.21040
# Shear Modulus (GPa) = 20.72182 29.34562 25.03372
#
# Velocity S-wave (km/s) = 3.07049 3.65398 3.37487
# Velocity P-wave (km/s) = 5.55625 6.15712 5.86439
#
# Compressibility (1/GPa) = 0.02486024
#
# Stress axis : x y z
#
# Youngs Moduli (GPa) = 40.73710 74.79539 62.07962
#
# Poissons Ratio (x) = 0.43927 0.41449
# Poissons Ratio (y) = 0.23925 0.12621
# Poissons Ratio (z) = 0.27199 0.15207
#
# Static dielectric constant tensor:
#      x y z
#    x 1.862350 0.021020 0.010590 
#    y 0.021020 1.780770 0.018440 
#    z 0.010590 0.018440 1.818990 
# 
# From -- ./inp_files/261840.got.cif
#   From: 2010.05.17/outbox.cif.g08.bks.cpg/sg2_131_cif.got.tgz:261840.got - 2010.06.03 11:33:40.
