data_PCOD9062517
_publ_section_title
;
Structure prediction by ZEFSAII (Michael W. Deem and Ramdas Pophale) SiO2 
 PCOD9062517
Probable space group: P -1
;
_chemical_formula_sum "Si O2"
_cell_formula_units_Z 14
_cell_length_a 9.163630
_cell_length_b 20.776010
_cell_length_c 13.645771
_cell_angle_alpha 25.975748
_cell_angle_beta 136.191081
_cell_angle_gamma 149.966089
_cell_volume 550.194161
_symmetry_space_group_name_H-M "P -1"
_symmetry_group_IT_number 2
_symmetry_cell_setting 'triclinic'
loop_
_space_group_symop_operation_xyz
x,y,z
-x,-y,-z
loop_
_atom_site_type_symbol
_atom_site_label
_atom_site_fract_x
_atom_site_fract_y
_atom_site_fract_z
Si Si1 0.446522 0.383618 0.917131
Si Si2 0.496121 0.856210 0.043977
Si Si3 0.021961 0.816783 0.663752
Si Si4 0.692392 0.933105 0.342276
Si Si5 0.698025 0.658082 0.469808
Si Si6 0.094766 0.473219 0.687009
Si Si7 0.628730 0.971528 0.720523
O O1 0.525280 0.510891 0.681314
O O2 0.174879 0.340930 0.891819
O O3 0.757769 0.564251 0.880158
O O4 0.388507 0.188820 0.127172
O O5 0.704449 0.838614 0.218216
O O6 0.163620 0.630772 0.216900
O O7 0.472754 0.009818 0.864492
O O8 0.586307 0.911560 0.898416
O O9 0.109731 0.899883 0.703535
O O10 0.329782 0.916186 0.628417
O O11 0.891386 0.901578 0.437317
O O12 0.405441 0.699884 0.562915
O O13 0.500000 0.500000 0.500000
O O14 0.048662 0.788385 0.461008
O O15 0.000000 0.500000 0.500000
#
# Coordination Sequence:
#
# PCOD9062517 Si02
#       7
#     2   2   2   2   2   2   2
#     4  11  24  43  66 102 136 175 223 279 333 394
#     4  11  24  41  71 100 129 179 218 271 343 403
#     4   9  21  45  66  96 134 178 230 272 322 397
#     4   9  22  43  67  96 138 175 223 275 332 394
#     4  12  26  42  67 104 137 174 225 273 342 404
#     4  11  24  41  67 102 139 171 217 281 333 401
#     4  11  25  43  72  95 136 182 221 276 333 398
#
# _framework density 25.445561000000001
#
# number of rings (size 3 to 8) (size 9 to 14) (size 15 to 20)
#    0.000    1.429    2.857    0.857    6.000    3.429 
#    0.000   23.571    0.000    0.000    0.000    0.000 
#    0.000    0.000    0.000    0.000    0.000    0.000 
#
# Total GULP energy -78355.704729 kJ/mol
# GULP energy per Si atom -5596.836052 kJ/mol
# Density = 2.538765 g / cm^3
# Si number density = 25.445561 Si / 1000 Ang^3
#
#
#
# Elastic Constant Matrix: (Units=GPa)
#
#
# Indices 1 2 3 4 5 6 
#
# 1 110.3139 41.3093 25.5441 -12.1868 6.9898 21.1338
# 2 41.3093 109.5671 12.9445 -21.3034 7.7400 0.0620
# 3 25.5441 12.9445 68.6613 6.1939 19.9485 -1.6607
# 4 -12.1868 -21.3034 6.1939 37.2270 1.7566 -0.9958
# 5 6.9898 7.7400 19.9485 1.7566 54.0452 7.1731
# 6 21.1338 0.0620 -1.6607 -0.9958 7.1731 55.1549
#
#
#
# Elastic Compliance Matrix: (Units=1/GPa)
#
#
# Indices 1 2 3 4 5 6 
#
# 1 0.012803 -0.003848 -0.004760 0.002584 0.001253 -0.005161
# 2 -0.003848 0.011907 -0.000924 0.005814 -0.001282 0.001705
# 3 -0.004760 -0.000924 0.018908 -0.004842 -0.006492 0.003151
# 4 0.002584 0.005814 -0.004842 0.031843 -0.000345 -0.000523
# 5 0.001253 -0.001282 -0.006492 -0.000345 0.021392 -0.003462
# 6 -0.005161 0.001705 0.003151 -0.000523 -0.003462 0.020642
#
#
# Mechanical properties :
#
#
# Convention : Reuss Voigt Hill
#
# Bulk Modulus (GPa) = 40.72507 49.79313 45.25910
# Shear Modulus (GPa) = 34.54401 43.20172 38.87287
#
# Velocity S-wave (km/s) = 3.68851 4.12492 3.91280
# Velocity P-wave (km/s) = 5.84634 6.50366 6.18374
#
# Compressibility (1/GPa) = 0.02455490
#
# Stress axis : x y z
#
# Youngs Moduli (GPa) = 78.10744 83.98628 52.88656
#
# Poissons Ratio (x) = 0.32317 0.25172
# Poissons Ratio (y) = 0.30055 0.04887
# Poissons Ratio (z) = 0.37176 0.07761
#
# Static dielectric constant tensor:
#      x y z
#    x 2.001210 -0.007170 0.022210 
#    y -0.007170 2.030070 0.057400 
#    z 0.022210 0.057400 2.021800 
# 
# From -- ./inp_files/84269.got.cif
#   From: 2010.05.17/outbox.cif.g08.bks.cpg/sg2_43_cif.got.tgz:84269.got - 2010.06.03 11:33:40.
