data_PCOD9062754
_publ_section_title
;
Structure prediction by ZEFSAII (Michael W. Deem and Ramdas Pophale) SiO2 
 PCOD9062754
Probable space group: P -1
;
_chemical_formula_sum "Si O2"
_cell_formula_units_Z 14
_cell_length_a 12.513616
_cell_length_b 8.995523
_cell_length_c 14.619384
_cell_angle_alpha 60.223024
_cell_angle_beta 30.081125
_cell_angle_gamma 49.948503
_cell_volume 623.573413
_symmetry_space_group_name_H-M "P -1"
_symmetry_group_IT_number 2
_symmetry_cell_setting 'triclinic'
loop_
_space_group_symop_operation_xyz
x,y,z
-x,-y,-z
loop_
_atom_site_type_symbol
_atom_site_label
_atom_site_fract_x
_atom_site_fract_y
_atom_site_fract_z
Si Si1 0.351002 0.869096 0.383238
Si Si2 0.683455 0.923747 0.972705
Si Si3 0.131077 0.057876 0.806839
Si Si4 0.192768 0.295293 0.376932
Si Si5 0.533230 0.753676 0.474009
Si Si6 0.936118 0.337061 0.366966
Si Si7 0.343521 0.719446 0.010879
O O1 0.556642 0.865231 0.165118
O O2 0.463829 0.730321 0.429777
O O3 0.180635 0.800429 0.479624
O O4 0.199656 0.094532 0.462264
O O5 0.719420 0.103767 0.925506
O O6 0.925451 0.743361 0.807165
O O7 0.500000 0.000000 0.000000
O O8 0.319989 0.125109 0.681505
O O9 0.289575 0.878648 0.675668
O O10 0.907347 0.235474 0.864210
O O11 0.000000 0.000000 0.000000
O O12 0.461974 0.264332 0.205026
O O13 0.000000 0.500000 0.500000
O O14 0.125344 0.315412 0.312757
O O15 0.716859 0.555742 0.450365
O O16 0.500000 0.500000 0.000000
#
# Coordination Sequence:
#
# PCOD9062754 Si02
#       7
#     2   2   2   2   2   2   2
#     4  11  25  46  70 100 144 187 229 294 356 413
#     4  11  24  44  68 103 143 176 239 289 348 424
#     4  11  25  46  70 100 148 185 234 293 355 417
#     4  11  26  42  70 105 138 179 241 288 348 425
#     4  11  27  45  70 106 142 188 241 288 352 431
#     4  12  25  46  73 104 142 189 232 293 358 421
#     4  11  24  42  70 102 133 183 229 292 351 408
#
# _framework density 22.451246000000001
#
# number of rings (size 3 to 8) (size 9 to 14) (size 15 to 20)
#    0.000    0.857    2.857    4.286   10.000    1.714 
#    0.000    0.000    0.000    0.000    0.000    0.000 
#    0.000    0.000    0.000    0.000    0.000    0.000 
#
# Total GULP energy -78321.816012 kJ/mol
# GULP energy per Si atom -5594.415429 kJ/mol
# Density = 2.240015 g / cm^3
# Si number density = 22.451246 Si / 1000 Ang^3
#
#
#
# Elastic Constant Matrix: (Units=GPa)
#
#
# Indices 1 2 3 4 5 6 
#
# 1 69.2733 -1.1107 26.2768 5.2331 -2.1571 -6.3297
# 2 -1.1107 91.0081 38.4680 9.7835 6.2108 -11.9139
# 3 26.2768 38.4680 130.1403 9.4934 6.1774 3.1605
# 4 5.2331 9.7835 9.4934 44.5115 -1.6898 -5.2760
# 5 -2.1571 6.2108 6.1774 -1.6898 29.3374 5.4662
# 6 -6.3297 -11.9139 3.1605 -5.2760 5.4662 38.7493
#
#
#
# Elastic Compliance Matrix: (Units=1/GPa)
#
#
# Indices 1 2 3 4 5 6 
#
# 1 0.016459 0.002455 -0.004089 -0.001156 0.000832 0.003502
# 2 0.002455 0.014001 -0.004484 -0.001901 -0.002922 0.005225
# 3 -0.004089 -0.004484 0.010028 -0.001050 -0.000989 -0.002868
# 4 -0.001156 -0.001901 -0.001050 0.023574 0.001465 0.002315
# 5 0.000832 -0.002922 -0.000989 0.001465 0.036097 -0.005574
# 6 0.003502 0.005225 -0.002868 0.002315 -0.005574 0.029321
#
#
# Mechanical properties :
#
#
# Convention : Reuss Voigt Hill
#
# Bulk Modulus (GPa) = 35.39438 46.41001 40.90219
# Shear Modulus (GPa) = 33.08316 37.63881 35.36098
#
# Velocity S-wave (km/s) = 3.84286 4.09891 3.97295
# Velocity P-wave (km/s) = 5.95729 6.56641 6.26925
#
# Compressibility (1/GPa) = 0.02825307
#
# Stress axis : x y z
#
# Youngs Moduli (GPa) = 60.75570 71.42309 99.71823
#
# Poissons Ratio (x) = -0.17537 0.40778
# Poissons Ratio (y) = -0.14918 0.44712
# Poissons Ratio (z) = 0.24845 0.32025
#
# Static dielectric constant tensor:
#      x y z
#    x 1.809310 0.009300 0.021670 
#    y 0.009300 1.815330 -0.030480 
#    z 0.021670 -0.030480 1.785740 
# 
# From -- ./inp_files/306568.got.cif
#   From: 2010.05.17/outbox.cif.g08.bks.cpg/sg2_154_cif.got.tgz:306568.got - 2010.06.03 11:33:40.
