data_PCOD9062479
_publ_section_title
;
Structure prediction by ZEFSAII (Michael W. Deem and Ramdas Pophale) SiO2 
 PCOD9062479
Probable space group: P -1
;
_chemical_formula_sum "Si O2"
_cell_formula_units_Z 16
_cell_length_a 6.430584
_cell_length_b 5.397374
_cell_length_c 25.895494
_cell_angle_alpha 101.652807
_cell_angle_beta 97.665979
_cell_angle_gamma 47.921671
_cell_volume 653.354868
_symmetry_space_group_name_H-M "P -1"
_symmetry_group_IT_number 2
_symmetry_cell_setting 'triclinic'
loop_
_space_group_symop_operation_xyz
x,y,z
-x,-y,-z
loop_
_atom_site_type_symbol
_atom_site_label
_atom_site_fract_x
_atom_site_fract_y
_atom_site_fract_z
Si Si1 0.474936 0.619080 0.864144
Si Si2 0.844295 0.497590 0.780435
Si Si3 0.626384 0.978526 0.288453
Si Si4 0.234503 0.243920 0.037850
Si Si5 0.115036 0.066660 0.123975
Si Si6 0.773481 0.781796 0.464920
Si Si7 0.954557 0.254708 0.616219
Si Si8 0.588944 0.080637 0.634066
O O1 0.636414 0.504955 0.810429
O O2 0.644964 0.660446 0.910911
O O3 0.142013 0.915441 0.868668
O O4 0.561641 0.274372 0.872709
O O5 0.913295 0.685002 0.825940
O O6 0.146895 0.177487 0.755985
O O7 0.661103 0.696359 0.731833
O O8 0.530467 0.793773 0.306150
O O9 0.793169 0.952689 0.342296
O O10 0.099224 0.138899 0.065946
O O11 0.000000 0.500000 0.000000
O O12 0.500000 0.000000 0.000000
O O13 0.662924 0.725548 0.407617
O O14 0.000000 0.500000 0.500000
O O15 0.916332 0.898048 0.442934
O O16 0.500000 0.000000 0.500000
O O17 0.766105 0.175121 0.625350
O O18 0.771374 0.667560 0.623153
#
# Coordination Sequence:
#
# PCOD9062479 Si02
#       8
#     2   2   2   2   2   2   2   2
#     4  11  24  42  65  95 132 172 220 281 340 410
#     4  11  24  45  64 100 128 175 224 279 348 412
#     4  11  24  45  68 100 134 181 232 287 350 432
#     4  11  24  41  64  94 132 173 224 279 332 412
#     4  11  24  42  65  95 132 172 220 281 340 410
#     4  11  24  47  74 110 144 193 242 297 360 432
#     4  11  26  49  72 106 147 189 239 301 359 429
#     4  11  26  49  72 106 147 189 239 301 359 429
#
# _framework density 24.488990000000001
#
# number of rings (size 3 to 8) (size 9 to 14) (size 15 to 20)
#    0.000    1.000    2.500    3.000    0.000   15.000 
#    4.500    0.000    0.000    0.000    0.000    0.000 
#    0.000    0.000    0.000    0.000    0.000    0.000 
#
# Total GULP energy -89167.537513 kJ/mol
# GULP energy per Si atom -5572.971095 kJ/mol
# Density = 2.443325 g / cm^3
# Si number density = 24.488990 Si / 1000 Ang^3
#
#
#
# Elastic Constant Matrix: (Units=GPa)
#
#
# Indices 1 2 3 4 5 6 
#
# 1 122.9277 37.7350 34.6219 -10.9050 -27.0406 -24.1227
# 2 37.7350 93.1272 27.0782 -12.1876 -1.8524 -36.3359
# 3 34.6219 27.0782 131.7352 -16.6026 -23.8703 -2.7999
# 4 -10.9050 -12.1876 -16.6026 44.3592 -13.0054 -3.4145
# 5 -27.0406 -1.8524 -23.8703 -13.0054 50.3850 0.2354
# 6 -24.1227 -36.3359 -2.7999 -3.4145 0.2354 43.3223
#
#
#
# Elastic Compliance Matrix: (Units=1/GPa)
#
#
# Indices 1 2 3 4 5 6 
#
# 1 0.011955 -0.001712 -0.000781 0.004702 0.007171 0.005501
# 2 -0.001712 0.018574 -0.002488 0.004824 -0.000239 0.014846
# 3 -0.000781 -0.002488 0.009739 0.004168 0.005186 -0.001592
# 4 0.004702 0.004824 0.004168 0.031005 0.012635 0.009308
# 5 0.007171 -0.000239 0.005186 0.012635 0.029382 0.004964
# 6 0.005501 0.014846 -0.001592 0.009308 0.004964 0.039202
#
#
# Mechanical properties :
#
#
# Convention : Reuss Voigt Hill
#
# Bulk Modulus (GPa) = 32.99739 60.74003 46.86871
# Shear Modulus (GPa) = 31.26553 44.17031 37.71792
#
# Velocity S-wave (km/s) = 3.57700 4.25158 3.92879
# Velocity P-wave (km/s) = 5.52843 6.99701 6.30562
#
# Compressibility (1/GPa) = 0.03030543
#
# Stress axis : x y z
#
# Youngs Moduli (GPa) = 83.65050 53.83770 102.68241
#
# Poissons Ratio (x) = 0.09219 0.08020
# Poissons Ratio (y) = 0.14324 0.25544
# Poissons Ratio (z) = 0.06533 0.13393
#
# Static dielectric constant tensor:
#      x y z
#    x 2.115430 0.107180 -0.086570 
#    y 0.107180 2.034460 0.046400 
#    z -0.086570 0.046400 1.991560 
# 
# From -- ./inp_files/614908.got.cif
#   From: 2010.05.17/outbox.cif.g08.bks.cpg/sg2_308_cif.got.tgz:614908.got - 2010.06.03 11:33:40.
