data_PCOD9062544
_publ_section_title
;
Structure prediction by ZEFSAII (Michael W. Deem and Ramdas Pophale) SiO2 
 PCOD9062544
Probable space group: P -1
;
_chemical_formula_sum "Si O2"
_cell_formula_units_Z 16
_cell_length_a 12.140563
_cell_length_b 15.325560
_cell_length_c 12.986803
_cell_angle_alpha 138.369210
_cell_angle_beta 74.240072
_cell_angle_gamma 139.346463
_cell_volume 764.207238
_symmetry_space_group_name_H-M "P -1"
_symmetry_group_IT_number 2
_symmetry_cell_setting 'triclinic'
loop_
_space_group_symop_operation_xyz
x,y,z
-x,-y,-z
loop_
_atom_site_type_symbol
_atom_site_label
_atom_site_fract_x
_atom_site_fract_y
_atom_site_fract_z
Si Si1 0.442959 0.298297 0.203177
Si Si2 0.185584 0.769104 0.830542
Si Si3 0.798008 0.694579 0.638365
Si Si4 0.937209 0.537694 0.897905
Si Si5 0.270632 0.911248 0.321851
Si Si6 0.662821 0.761940 0.050824
Si Si7 0.705724 0.337899 0.450824
Si Si8 0.545410 0.353501 0.789253
O O1 0.670675 0.556235 0.439005
O O2 0.255105 0.217133 0.220589
O O3 0.470290 0.345372 0.116233
O O4 0.347981 0.058063 0.035721
O O5 0.291636 0.749643 0.728642
O O6 0.112231 0.673586 0.882437
O O7 0.948008 0.561955 0.645972
O O8 0.686542 0.470684 0.540558
O O9 0.069115 0.938651 0.773787
O O10 0.816818 0.289753 0.757519
O O11 0.747247 0.447136 0.821798
O O12 0.076404 0.743620 0.137773
O O13 0.496385 0.089929 0.359157
O O14 0.349175 0.112163 0.546886
O O15 0.559226 0.739858 0.152345
O O16 0.643243 0.590797 0.938249
#
# Coordination Sequence:
#
# PCOD9062544 Si02
#       8
#     2   2   2   2   2   2   2   2
#     4  11  24  42  68  98 132 171 219 270 327 390
#     4  11  24  41  69 101 132 170 219 275 326 386
#     4  11  24  42  68  98 132 171 219 270 327 390
#     4  11  25  43  67  95 131 176 216 262 327 391
#     4  11  25  43  67  95 131 176 216 262 327 391
#     4  11  25  42  66  97 126 175 218 266 326 383
#     4  11  24  41  69 101 132 170 219 275 326 386
#     4  11  25  44  66  92 134 170 218 270 319 388
#
# _framework density 20.936730000000001
#
# number of rings (size 3 to 8) (size 9 to 14) (size 15 to 20)
#    0.000    1.000    2.500    3.000    3.500    6.000 
#    0.000    2.500    0.000    0.000    0.000    0.000 
#    0.000    0.000    0.000    0.000    0.000    0.000 
#
# Total GULP energy -89564.423219 kJ/mol
# GULP energy per Si atom -5597.776451 kJ/mol
# Density = 2.088908 g / cm^3
# Si number density = 20.936730 Si / 1000 Ang^3
#
#
#
# Elastic Constant Matrix: (Units=GPa)
#
#
# Indices 1 2 3 4 5 6 
#
# 1 34.4671 8.9349 10.6522 -3.3880 0.8378 -7.3724
# 2 8.9349 105.8376 38.6450 -25.4976 -4.4571 -20.7763
# 3 10.6522 38.6450 84.9595 -16.2160 -10.1879 -0.3534
# 4 -3.3880 -25.4976 -16.2160 27.7341 -1.1051 1.2238
# 5 0.8378 -4.4571 -10.1879 -1.1051 25.7496 -4.6274
# 6 -7.3724 -20.7763 -0.3534 1.2238 -4.6274 18.8720
#
#
#
# Elastic Compliance Matrix: (Units=1/GPa)
#
#
# Indices 1 2 3 4 5 6 
#
# 1 0.033483 0.002875 -0.004748 0.003270 0.000560 0.016082
# 2 0.002875 0.019422 -0.005727 0.014076 0.005719 0.022887
# 3 -0.004748 -0.005727 0.016278 0.004162 0.004521 -0.007016
# 4 0.003270 0.014076 0.004162 0.051496 0.009012 0.015722
# 5 0.000560 0.005719 0.004521 0.009012 0.045049 0.017062
# 6 0.016082 0.022887 -0.007016 0.015722 0.017062 0.087500
#
#
# Mechanical properties :
#
#
# Convention : Reuss Voigt Hill
#
# Bulk Modulus (GPa) = 18.52405 37.96983 28.24694
# Shear Modulus (GPa) = 17.45679 25.60661 21.53170
#
# Velocity S-wave (km/s) = 2.89067 3.50100 3.21037
# Velocity P-wave (km/s) = 4.47305 5.87517 5.22139
#
# Compressibility (1/GPa) = 0.05398386
#
# Stress axis : x y z
#
# Youngs Moduli (GPa) = 29.86604 51.48902 61.43247
#
# Poissons Ratio (x) = -0.14805 0.29166
# Poissons Ratio (y) = -0.08588 0.35182
# Poissons Ratio (z) = 0.14179 0.29488
#
# Static dielectric constant tensor:
#      x y z
#    x 1.724430 0.000030 0.015310 
#    y 0.000030 1.727550 -0.013000 
#    z 0.015310 -0.013000 1.742200 
# 
# From -- ./inp_files/433337.got.cif
#   From: 2010.05.17/outbox.cif.g08.bks.cpg/sg2_217_cif.got.tgz:433337.got - 2010.06.03 11:33:40.
