data_PCOD9062673
_publ_section_title
;
Structure prediction by ZEFSAII (Michael W. Deem and Ramdas Pophale) SiO2 
 PCOD9062673
Probable space group: P -1
;
_chemical_formula_sum "Si O2"
_cell_formula_units_Z 16
_cell_length_a 11.406090
_cell_length_b 15.110485
_cell_length_c 5.277951
_cell_angle_alpha 84.319001
_cell_angle_beta 87.443020
_cell_angle_gamma 48.240699
_cell_volume 674.951260
_symmetry_space_group_name_H-M "P -1"
_symmetry_group_IT_number 2
_symmetry_cell_setting 'triclinic'
loop_
_space_group_symop_operation_xyz
x,y,z
-x,-y,-z
loop_
_atom_site_type_symbol
_atom_site_label
_atom_site_fract_x
_atom_site_fract_y
_atom_site_fract_z
Si Si1 0.987448 0.286493 0.099297
Si Si2 0.262751 0.288885 0.054778
Si Si3 0.816288 0.574484 0.468197
Si Si4 0.592147 0.292866 0.329161
Si Si5 0.889876 0.218772 0.510777
Si Si6 0.910046 0.954777 0.075283
Si Si7 0.701526 0.450047 0.742666
Si Si8 0.429802 0.816072 0.124809
O O1 0.126486 0.284670 0.039518
O O2 0.970190 0.268881 0.396700
O O3 0.029290 0.169825 0.005649
O O4 0.814744 0.401750 0.989594
O O5 0.261335 0.323122 0.335632
O O6 0.433774 0.180616 0.951662
O O7 0.218683 0.387831 0.830918
O O8 0.761209 0.503814 0.557546
O O9 0.000000 0.500000 0.500000
O O10 0.777231 0.222693 0.329865
O O11 0.483837 0.436119 0.276788
O O12 0.549647 0.263897 0.083708
O O13 0.565309 0.240694 0.592066
O O14 0.751475 0.327051 0.676470
O O15 0.036067 0.087397 0.627218
O O16 0.737303 0.055637 0.955058
O O17 0.000000 0.000000 0.000000
#
# Coordination Sequence:
#
# PCOD9062673 Si02
#       8
#     2   2   2   2   2   2   2   2
#     4  11  27  43  72 106 143 186 237 296 355 425
#     4  12  25  45  69 107 145 184 237 287 355 420
#     4  12  23  41  71 101 146 194 229 277 346 438
#     4  12  26  45  73 105 144 185 237 294 360 424
#     4  11  26  45  71 104 142 187 238 303 352 426
#     4  11  25  49  74 100 137 190 249 295 354 418
#     4  11  24  42  67 110 141 184 230 287 363 423
#     4  12  26  46  74 105 137 192 244 292 349 424
#
# _framework density 23.705414999999999
#
# number of rings (size 3 to 8) (size 9 to 14) (size 15 to 20)
#    0.000    0.500    5.000    2.250    8.750    2.000 
#    0.000    0.625    0.000    0.000    0.000    0.000 
#    0.000    0.000    0.000    0.000    0.000    0.000 
#
# Total GULP energy -89239.953907 kJ/mol
# GULP energy per Si atom -5577.497119 kJ/mol
# Density = 2.365146 g / cm^3
# Si number density = 23.705415 Si / 1000 Ang^3
#
#
#
# Elastic Constant Matrix: (Units=GPa)
#
#
# Indices 1 2 3 4 5 6 
#
# 1 91.0857 5.3110 36.6031 -12.3232 -6.0661 -9.5505
# 2 5.3110 86.4600 33.7681 -20.3650 8.5949 -15.9953
# 3 36.6031 33.7681 115.2246 -27.7131 -3.8353 -8.2633
# 4 -12.3232 -20.3650 -27.7131 47.4626 -1.6994 14.3499
# 5 -6.0661 8.5949 -3.8353 -1.6994 39.7755 -7.2011
# 6 -9.5505 -15.9953 -8.2633 14.3499 -7.2011 39.1411
#
#
#
# Elastic Compliance Matrix: (Units=1/GPa)
#
#
# Indices 1 2 3 4 5 6 
#
# 1 0.013080 0.001329 -0.004089 0.000757 0.001878 0.002939
# 2 0.001329 0.014671 -0.003761 0.003174 -0.002488 0.003904
# 3 -0.004089 -0.003761 0.012207 0.004964 0.001300 -0.001538
# 4 0.000757 0.003174 0.004964 0.027855 -0.000303 -0.007738
# 5 0.001878 -0.002488 0.001300 -0.000303 0.026944 0.004784
# 6 0.002939 0.003904 -0.001538 -0.007738 0.004784 0.031253
#
#
# Mechanical properties :
#
#
# Convention : Reuss Voigt Hill
#
# Bulk Modulus (GPa) = 37.15368 49.34830 43.25099
# Shear Modulus (GPa) = 33.77857 39.74838 36.76348
#
# Velocity S-wave (km/s) = 3.77892 4.09927 3.94235
# Velocity P-wave (km/s) = 5.89469 6.57783 6.24561
#
# Compressibility (1/GPa) = 0.02691523
#
# Stress axis : x y z
#
# Youngs Moduli (GPa) = 76.45188 68.16380 81.92262
#
# Poissons Ratio (x) = -0.09060 0.33500
# Poissons Ratio (y) = -0.10161 0.30811
# Poissons Ratio (z) = 0.31263 0.25636
#
# Static dielectric constant tensor:
#      x y z
#    x 1.919090 -0.072860 -0.010450 
#    y -0.072860 2.015850 0.091960 
#    z -0.010450 0.091960 2.134760 
# 
# From -- ./inp_files/77663.got.cif
#   From: 2010.05.17/outbox.cif.g08.bks.cpg/sg2_39_cif.got.tgz:77663.got - 2010.06.03 11:33:40.
