data_PCOD9062367
_publ_section_title
;
Structure prediction by ZEFSAII (Michael W. Deem and Ramdas Pophale) SiO2 
 PCOD9062367
Probable space group: P -1
;
_chemical_formula_sum "Si O2"
_cell_formula_units_Z 14
_cell_length_a 6.343849
_cell_length_b 15.907575
_cell_length_c 25.006048
_cell_angle_alpha 16.351409
_cell_angle_beta 57.795316
_cell_angle_gamma 59.163638
_cell_volume 601.125015
_symmetry_space_group_name_H-M "P -1"
_symmetry_group_IT_number 2
_symmetry_cell_setting 'triclinic'
loop_
_space_group_symop_operation_xyz
x,y,z
-x,-y,-z
loop_
_atom_site_type_symbol
_atom_site_label
_atom_site_fract_x
_atom_site_fract_y
_atom_site_fract_z
Si Si1 0.031645 0.267068 0.485931
Si Si2 0.152955 0.084489 0.374444
Si Si3 0.745440 0.811933 0.155436
Si Si4 0.433217 0.540675 0.705932
Si Si5 0.469673 0.388587 0.006450
Si Si6 0.193983 0.902595 0.789782
Si Si7 0.300730 0.204416 0.025199
O O1 0.277686 0.453015 0.323537
O O2 0.986325 0.019310 0.597228
O O3 0.813948 0.513719 0.361841
O O4 0.096253 0.124944 0.621211
O O5 0.381283 0.853041 0.493558
O O6 0.285675 0.402529 0.160377
O O7 0.000000 0.000000 0.500000
O O8 0.658755 0.703066 0.175019
O O9 0.513295 0.987221 0.105607
O O10 0.000000 0.000000 0.000000
O O11 0.291280 0.481957 0.816196
O O12 0.258049 0.590564 0.940345
O O13 0.552290 0.102498 0.205491
O O14 0.382818 0.302989 0.012395
O O15 0.973868 0.919068 0.853134
#
# Coordination Sequence:
#
# PCOD9062367 Si02
#       7
#     2   2   2   2   2   2   2
#     4  11  25  45  70  97 141 179 222 288 339 392
#     4  11  24  39  68 106 136 174 234 276 339 413
#     4  11  26  46  73 103 134 174 238 285 334 406
#     4  11  24  44  71 101 134 180 224 288 340 397
#     4  11  26  43  69 102 142 180 228 276 338 416
#     4  11  27  44  67 102 141 183 226 277 344 405
#     4  12  26  43  74  99 137 187 227 276 346 404
#
# _framework density 23.289663999999998
#
# number of rings (size 3 to 8) (size 9 to 14) (size 15 to 20)
#    0.000    0.857    2.857    2.571   12.000    1.714 
#    0.000    1.429    0.000    0.000    0.000    0.000 
#    0.000    0.000    0.000    0.000    0.000    0.000 
#
# Total GULP energy -78202.395015 kJ/mol
# GULP energy per Si atom -5585.885358 kJ/mol
# Density = 2.323666 g / cm^3
# Si number density = 23.289664 Si / 1000 Ang^3
#
#
#
# Elastic Constant Matrix: (Units=GPa)
#
#
# Indices 1 2 3 4 5 6 
#
# 1 63.6529 7.2447 12.7608 -5.6448 7.9877 -5.6259
# 2 7.2447 75.4283 8.6170 10.7973 9.0098 -12.4217
# 3 12.7608 8.6170 83.1230 13.7464 25.4103 -9.6340
# 4 -5.6448 10.7973 13.7464 35.8562 6.1683 1.0494
# 5 7.9877 9.0098 25.4103 6.1683 52.7264 7.0387
# 6 -5.6259 -12.4217 -9.6340 1.0494 7.0387 46.0555
#
#
#
# Elastic Compliance Matrix: (Units=1/GPa)
#
#
# Indices 1 2 3 4 5 6 
#
# 1 0.017120 -0.001552 -0.002481 0.004388 -0.001824 0.001333
# 2 -0.001552 0.015084 0.000854 -0.004765 -0.002810 0.004595
# 3 -0.002481 0.000854 0.016067 -0.005658 -0.007460 0.004557
# 4 0.004388 -0.004765 -0.005658 0.032357 -0.000564 -0.002584
# 5 -0.001824 -0.002810 -0.007460 -0.000564 0.024215 -0.006229
# 6 0.001333 0.004595 0.004557 -0.002584 -0.006229 0.025079
#
#
# Mechanical properties :
#
#
# Convention : Reuss Voigt Hill
#
# Bulk Modulus (GPa) = 23.85881 31.04992 27.45436
# Shear Modulus (GPa) = 33.27793 39.83307 36.55550
#
# Velocity S-wave (km/s) = 3.78414 4.14010 3.96612
# Velocity P-wave (km/s) = 5.41845 6.01789 5.72602
#
# Compressibility (1/GPa) = 0.04191324
#
# Stress axis : x y z
#
# Youngs Moduli (GPa) = 58.41106 66.29713 62.23982
#
# Poissons Ratio (x) = 0.10288 0.15442
# Poissons Ratio (y) = 0.09064 -0.05317
# Poissons Ratio (z) = 0.14492 -0.05663
#
# Static dielectric constant tensor:
#      x y z
#    x 1.885450 -0.054530 0.014750 
#    y -0.054530 1.874270 0.011150 
#    z 0.014750 0.011150 1.932370 
# 
# From -- ./inp_files/429245.got.cif
#   From: 2010.05.17/outbox.cif.g08.bks.cpg/sg2_215_cif.got.tgz:429245.got - 2010.06.03 11:33:40.
