data_PCOD9062629
_publ_section_title
;
Structure prediction by ZEFSAII (Michael W. Deem and Ramdas Pophale) SiO2 
 PCOD9062629
Probable space group: P -1
;
_chemical_formula_sum "Si O2"
_cell_formula_units_Z 11
_cell_length_a 8.977429
_cell_length_b 16.635032
_cell_length_c 13.458867
_cell_angle_alpha 23.060202
_cell_angle_beta 131.117077
_cell_angle_gamma 142.986428
_cell_volume 447.910364
_symmetry_space_group_name_H-M "P -1"
_symmetry_group_IT_number 2
_symmetry_cell_setting 'triclinic'
loop_
_space_group_symop_operation_xyz
x,y,z
-x,-y,-z
loop_
_atom_site_type_symbol
_atom_site_label
_atom_site_fract_x
_atom_site_fract_y
_atom_site_fract_z
Si Si1 0.228658 0.493539 0.123589
Si Si2 0.500000 0.500000 0.500000
Si Si3 0.517127 0.035206 0.743057
Si Si4 0.607543 0.500350 0.177212
Si Si5 0.857328 0.980781 0.259252
Si Si6 0.093690 0.295003 0.716630
O O1 0.385660 0.523939 0.060648
O O2 0.128321 0.216400 0.444313
O O3 0.000000 0.500000 0.000000
O O4 0.424348 0.747008 0.995728
O O5 0.719013 0.807518 0.295500
O O6 0.267470 0.458952 0.509883
O O7 0.499264 0.195521 0.465313
O O8 0.324407 0.981002 0.806052
O O9 0.822085 0.230036 0.682344
O O10 0.717061 0.568127 0.261453
O O11 0.856559 0.733306 0.958563
O O12 0.000000 0.000000 0.000000
#
# Coordination Sequence:
#
# PCOD9062629 Si02
#       6
#     2   1   2   2   2   2
#     4  11  25  48  68  90 132 179 226 274 321 383
#     4  12  20  38  64  94 138 170 206 256 330 392
#     4  11  24  43  65 100 131 178 216 270 328 391
#     4  11  24  42  64 100 135 171 218 270 328 390
#     4  11  25  41  67 101 134 174 217 266 333 393
#     4  12  21  40  64  95 143 173 206 266 330 401
#
# _framework density 24.558485999999998
#
# number of rings (size 3 to 8) (size 9 to 14) (size 15 to 20)
#    0.000    0.727    7.273    0.545    0.000    8.727 
#    0.000    1.818    0.000    0.000    0.000    0.000 
#    0.000    0.000    0.000    0.000    0.000    0.000 
#
# Total GULP energy -61311.357368 kJ/mol
# GULP energy per Si atom -5573.759761 kJ/mol
# Density = 2.450259 g / cm^3
# Si number density = 24.558486 Si / 1000 Ang^3
#
#
#
# Elastic Constant Matrix: (Units=GPa)
#
#
# Indices 1 2 3 4 5 6 
#
# 1 194.9526 44.0681 68.0155 7.0683 -16.9999 48.1336
# 2 44.0681 59.1834 -6.0421 4.3601 0.1181 13.4999
# 3 68.0155 -6.0421 94.4168 -11.0029 -0.2196 7.8659
# 4 7.0683 4.3601 -11.0029 18.8835 11.6916 12.3113
# 5 -16.9999 0.1181 -0.2196 11.6916 48.7183 -6.9504
# 6 48.1336 13.4999 7.8659 12.3113 -6.9504 48.1692
#
#
#
# Elastic Compliance Matrix: (Units=1/GPa)
#
#
# Indices 1 2 3 4 5 6 
#
# 1 0.013023 -0.008820 -0.010479 -0.008796 0.005810 -0.005743
# 2 -0.008820 0.024322 0.008952 0.007518 -0.005205 -0.002138
# 3 -0.010479 0.008952 0.021381 0.021427 -0.009054 -0.002312
# 4 -0.008796 0.007518 0.021427 0.105638 -0.032407 -0.028492
# 5 0.005810 -0.005205 -0.009054 -0.032407 0.031728 0.009993
# 6 -0.005743 -0.002138 -0.002312 -0.028492 0.009993 0.036200
#
#
# Mechanical properties :
#
#
# Convention : Reuss Voigt Hill
#
# Bulk Modulus (GPa) = 26.29272 62.29287 44.29279
# Shear Modulus (GPa) = 18.82091 39.32161 29.07126
#
# Velocity S-wave (km/s) = 2.77134 4.00577 3.44431
# Velocity P-wave (km/s) = 4.57929 6.84215 5.82172
#
# Compressibility (1/GPa) = 0.03803335
#
# Stress axis : x y z
#
# Youngs Moduli (GPa) = 76.79001 41.11506 46.76985
#
# Poissons Ratio (x) = 0.36263 0.49008
# Poissons Ratio (y) = 0.67728 -0.41869
# Poissons Ratio (z) = 0.80465 -0.36807
#
# Static dielectric constant tensor:
#      x y z
#    x 1.953860 -0.034380 -0.015980 
#    y -0.034380 2.083460 0.086950 
#    z -0.015980 0.086950 2.010610 
# 
# From -- ./inp_files/317381.got.cif
#   From: 2010.05.17/outbox.cif.g08.bks.cpg/sg2_159_cif.got.tgz:317381.got - 2010.06.03 11:33:40.
