data_PCOD9062477
_publ_section_title
;
Structure prediction by ZEFSAII (Michael W. Deem and Ramdas Pophale) SiO2 
 PCOD9062477
Probable space group: P -1
;
_chemical_formula_sum "Si O2"
_cell_formula_units_Z 16
_cell_length_a 25.783616
_cell_length_b 5.032276
_cell_length_c 5.224491
_cell_angle_alpha 80.988665
_cell_angle_beta 84.946915
_cell_angle_gamma 68.621107
_cell_volume 623.089443
_symmetry_space_group_name_H-M "P -1"
_symmetry_group_IT_number 2
_symmetry_cell_setting 'triclinic'
loop_
_space_group_symop_operation_xyz
x,y,z
-x,-y,-z
loop_
_atom_site_type_symbol
_atom_site_label
_atom_site_fract_x
_atom_site_fract_y
_atom_site_fract_z
Si Si1 0.745911 0.168240 0.232815
Si Si2 0.514167 0.196527 0.167834
Si Si3 0.009432 0.711376 0.689386
Si Si4 0.908091 0.796401 0.079945
Si Si5 0.761946 0.706825 0.907915
Si Si6 0.162562 0.059961 0.410646
Si Si7 0.590670 0.842850 0.559853
Si Si8 0.656673 0.197532 0.631245
O O1 0.749561 0.422120 0.015838
O O2 0.684436 0.190541 0.339253
O O3 0.773920 0.855800 0.138705
O O4 0.781094 0.179980 0.470210
O O5 0.464610 0.239964 0.386864
O O6 0.575394 0.023205 0.274605
O O7 0.500000 0.500000 0.000000
O O8 0.500000 0.000000 0.000000
O O9 0.070357 0.548161 0.812549
O O10 0.000000 0.500000 0.500000
O O11 0.966007 0.793729 0.933019
O O12 0.000000 0.000000 0.500000
O O13 0.880546 0.916681 0.345118
O O14 0.866438 0.946637 0.845096
O O15 0.813042 0.682853 0.699604
O O16 0.706485 0.961038 0.795797
O O17 0.637820 0.536107 0.644990
O O18 0.606367 0.077118 0.680616
#
# Coordination Sequence:
#
# PCOD9062477 Si02
#       8
#     2   2   2   2   2   2   2   2
#     4  11  25  45  68 100 138 181 235 287 351 429
#     4  11  24  41  64  94 130 177 228 283 344 415
#     4  11  26  48  73 109 145 188 242 296 355 433
#     4  11  24  48  74 108 144 192 238 297 360 426
#     4  11  25  45  68 100 138 181 235 287 351 429
#     4  11  24  47  72 106 142 191 238 297 360 426
#     4  11  24  42  64  98 134 172 232 281 346 418
#     4  11  24  41  66  96 132 177 224 289 354 418
#
# _framework density 25.678497
#
# number of rings (size 3 to 8) (size 9 to 14) (size 15 to 20)
#    0.000    1.000    2.500    3.000    0.000   15.000 
#    0.000    0.000    0.000    0.000    0.000    0.000 
#    0.000    0.000    0.000    0.000    0.000    0.000 
#
# Total GULP energy -89173.206537 kJ/mol
# GULP energy per Si atom -5573.325409 kJ/mol
# Density = 2.562005 g / cm^3
# Si number density = 25.678497 Si / 1000 Ang^3
#
#
#
# Elastic Constant Matrix: (Units=GPa)
#
#
# Indices 1 2 3 4 5 6 
#
# 1 60.7905 26.8185 24.0862 -13.5464 -7.5627 3.1623
# 2 26.8185 131.3636 41.6446 -29.4704 -7.2248 20.3187
# 3 24.0862 41.6446 140.4921 -22.5290 -7.9962 7.0951
# 4 -13.5464 -29.4704 -22.5290 40.6062 -0.6104 2.8210
# 5 -7.5627 -7.2248 -7.9962 -0.6104 54.2405 -9.3695
# 6 3.1623 20.3187 7.0951 2.8210 -9.3695 31.4331
#
#
#
# Elastic Compliance Matrix: (Units=1/GPa)
#
#
# Indices 1 2 3 4 5 6 
#
# 1 0.019354 -0.002485 -0.001900 0.003603 0.002201 0.000420
# 2 -0.002485 0.011301 -0.001425 0.007096 -0.000258 -0.007447
# 3 -0.001900 -0.001425 0.008443 0.003087 0.000675 -0.000870
# 4 0.003603 0.007096 0.003087 0.033287 0.000829 -0.008387
# 5 0.002201 -0.000258 0.000675 0.000829 0.019788 0.005617
# 6 0.000420 -0.007447 -0.000870 -0.008387 0.005617 0.039209
#
#
# Mechanical properties :
#
#
# Convention : Reuss Voigt Hill
#
# Bulk Modulus (GPa) = 36.38997 57.52721 46.95859
# Shear Modulus (GPa) = 32.86043 41.26242 37.06142
#
# Velocity S-wave (km/s) = 3.58115 4.01295 3.80318
# Velocity P-wave (km/s) = 5.59479 6.62746 6.13290
#
# Compressibility (1/GPa) = 0.02748010
#
# Stress axis : x y z
#
# Youngs Moduli (GPa) = 51.67020 88.48799 118.43856
#
# Poissons Ratio (x) = 0.21985 0.22500
# Poissons Ratio (y) = 0.12838 0.16872
# Poissons Ratio (z) = 0.09816 0.12605
#
# Static dielectric constant tensor:
#      x y z
#    x 1.900810 0.039160 0.079410 
#    y 0.039160 1.999870 0.002160 
#    z 0.079410 0.002160 2.156580 
# 
# From -- ./inp_files/127913.got.cif
#   From: 2010.05.17/outbox.cif.g08.bks.cpg/sg2_64_cif.got.tgz:127913.got - 2010.06.03 11:33:40.
