data_PCOD9062889
_publ_section_title
;
Structure prediction by ZEFSAII (Michael W. Deem and Ramdas Pophale) SiO2 
 PCOD9062889
Probable space group: P -1
;
_chemical_formula_sum "Si O2"
_cell_formula_units_Z 16
_cell_length_a 16.000158
_cell_length_b 14.348044
_cell_length_c 12.108480
_cell_angle_alpha 30.472381
_cell_angle_beta 124.355078
_cell_angle_gamma 144.349640
_cell_volume 729.429637
_symmetry_space_group_name_H-M "P -1"
_symmetry_group_IT_number 2
_symmetry_cell_setting 'triclinic'
loop_
_space_group_symop_operation_xyz
x,y,z
-x,-y,-z
loop_
_atom_site_type_symbol
_atom_site_label
_atom_site_fract_x
_atom_site_fract_y
_atom_site_fract_z
Si Si1 0.987606 0.637554 0.757599
Si Si2 0.500365 0.571559 0.301242
Si Si3 0.256498 0.745586 0.202691
Si Si4 0.077751 0.653035 0.517680
Si Si5 0.804176 0.730808 0.751405
Si Si6 0.232972 0.718387 0.752552
Si Si7 0.681157 0.670318 0.966075
Si Si8 0.584791 0.342884 0.443742
O O1 0.140592 0.773304 0.662171
O O2 0.803324 0.371107 0.847879
O O3 0.040488 0.924123 0.509342
O O4 0.000000 0.500000 0.000000
O O5 0.500000 0.500000 0.500000
O O6 0.328846 0.401867 0.302686
O O7 0.549577 0.478639 0.348262
O O8 0.624303 0.916351 0.038790
O O9 0.324919 0.666435 0.396864
O O10 0.083729 0.547763 0.327068
O O11 0.187111 0.649024 0.659689
O O12 0.000000 0.500000 0.500000
O O13 0.191499 0.991589 0.252728
O O14 0.834079 0.555185 0.956403
O O15 0.730130 0.664436 0.887492
O O16 0.418511 0.011007 0.620416
O O17 0.677366 0.523884 0.215130
O O18 0.500000 0.500000 0.000000
#
# Coordination Sequence:
#
# PCOD9062889 Si02
#       8
#     2   2   2   2   2   2   2   2
#     4  11  24  48  70  95 142 179 223 288 341 399
#     4  12  25  44  71 102 136 178 232 288 337 405
#     4  11  26  43  65 108 133 170 231 283 343 393
#     4  11  24  43  65 101 142 172 222 284 336 400
#     4  12  24  44  72 103 134 181 236 269 344 420
#     4  11  24  44  69  99 134 183 227 274 342 408
#     4  12  22  44  73  94 139 188 222 275 341 418
#     4  12  25  44  72 100 137 182 231 278 342 409
#
# _framework density 21.934946
#
# number of rings (size 3 to 8) (size 9 to 14) (size 15 to 20)
#    0.000    0.500    7.500    1.500    1.750    6.000 
#    0.000    0.000    0.000    0.000    0.000    0.000 
#    0.000    0.000    0.000    0.000    0.000    0.000 
#
# Total GULP energy -89353.853829 kJ/mol
# GULP energy per Si atom -5584.615864 kJ/mol
# Density = 2.188502 g / cm^3
# Si number density = 21.934946 Si / 1000 Ang^3
#
#
#
# Elastic Constant Matrix: (Units=GPa)
#
#
# Indices 1 2 3 4 5 6 
#
# 1 34.5789 -2.1743 7.8306 5.6094 8.8921 -12.8920
# 2 -2.1743 167.2827 50.2361 13.2297 15.7042 -1.7961
# 3 7.8306 50.2361 144.9105 4.8887 27.1098 -5.5679
# 4 5.6094 13.2297 4.8887 55.6724 2.1293 3.4808
# 5 8.8921 15.7042 27.1098 2.1293 30.7427 1.2978
# 6 -12.8920 -1.7961 -5.5679 3.4808 1.2978 16.5694
#
#
#
# Elastic Compliance Matrix: (Units=1/GPa)
#
#
# Indices 1 2 3 4 5 6 
#
# 1 0.051456 0.003073 0.001731 -0.008091 -0.019284 0.044161
# 2 0.003073 0.007035 -0.001894 -0.001904 -0.002813 0.003138
# 3 0.001731 -0.001894 0.009120 -0.000537 -0.007747 0.004926
# 4 -0.008091 -0.001904 -0.000537 0.019860 0.002878 -0.011079
# 5 -0.019284 -0.002813 -0.007747 0.002878 0.047112 -0.022207
# 6 0.044161 0.003138 0.004926 -0.011079 -0.022207 0.100774
#
#
# Mechanical properties :
#
#
# Convention : Reuss Voigt Hill
#
# Bulk Modulus (GPa) = 13.61778 50.95078 32.28428
# Shear Modulus (GPa) = 19.68392 39.98888 29.83640
#
# Velocity S-wave (km/s) = 2.99888 4.27437 3.69212
# Velocity P-wave (km/s) = 4.26764 6.90209 5.73810
#
# Compressibility (1/GPa) = 0.07343342
#
# Stress axis : x y z
#
# Youngs Moduli (GPa) = 19.43390 142.14841 109.64375
#
# Poissons Ratio (x) = -0.43685 -0.18984
# Poissons Ratio (y) = -0.05972 0.20764
# Poissons Ratio (z) = -0.03365 0.26920
#
# Static dielectric constant tensor:
#      x y z
#    x 1.128490 1.042540 0.167670 
#    y 1.042540 0.170150 -0.210480 
#    z 0.167670 -0.210480 1.756380 
# 
# From -- ./inp_files/352031.got.cif
#   From: 2010.05.17/outbox.cif.g08.bks.cpg/sg2_177_cif.got.tgz:352031.got - 2010.06.03 11:33:40.
