data_PCOD9062267
_publ_section_title
;
Structure prediction by ZEFSAII (Michael W. Deem and Ramdas Pophale) SiO2 
 PCOD9062267
Probable space group: P -1
;
_chemical_formula_sum "Si O2"
_cell_formula_units_Z 16
_cell_length_a 9.120949
_cell_length_b 23.650057
_cell_length_c 20.219403
_cell_angle_alpha 20.192045
_cell_angle_beta 150.340968
_cell_angle_gamma 149.134197
_cell_volume 721.201345
_symmetry_space_group_name_H-M "P -1"
_symmetry_group_IT_number 2
_symmetry_cell_setting 'triclinic'
loop_
_space_group_symop_operation_xyz
x,y,z
-x,-y,-z
loop_
_atom_site_type_symbol
_atom_site_label
_atom_site_fract_x
_atom_site_fract_y
_atom_site_fract_z
Si Si1 0.745947 0.848880 0.416621
Si Si2 0.862566 0.147714 0.227023
Si Si3 0.349504 0.010926 0.283703
Si Si4 0.768391 0.336041 0.858529
Si Si5 0.391236 0.306621 0.073624
Si Si6 0.657699 0.974251 0.020929
Si Si7 0.882732 0.298670 0.381905
Si Si8 0.272608 0.405433 0.198873
O O1 0.470171 0.917738 0.202849
O O2 0.654972 0.682348 0.609444
O O3 0.945008 0.809637 0.477339
O O4 0.931038 0.001449 0.368164
O O5 0.592912 0.060997 0.266129
O O6 0.137215 0.255897 0.258664
O O7 0.758147 0.278287 0.994054
O O8 0.440852 0.142737 0.235299
O O9 0.290205 0.822627 0.495639
O O10 0.019543 0.027336 0.111103
O O11 0.870071 0.537459 0.674927
O O12 0.051901 0.277316 0.000868
O O13 0.465470 0.223626 0.829417
O O14 0.636511 0.353015 0.178104
O O15 0.457817 0.457247 0.880911
O O16 0.500000 0.000000 0.000000
O O17 0.000000 0.500000 0.000000
#
# Coordination Sequence:
#
# PCOD9062267 Si02
#       8
#     2   2   2   2   2   2   2   2
#     4  11  24  42  69  96 134 182 222 270 338 397
#     4  11  24  43  68 102 138 177 218 281 342 396
#     4  12  25  43  72  97 136 180 228 274 335 394
#     4  11  25  44  72  98 137 180 223 275 337 400
#     4  12  24  42  70 101 140 174 218 282 344 401
#     4  11  23  49  69  93 136 183 228 273 324 405
#     4  12  24  43  68 106 132 175 228 277 339 402
#     4  12  22  41  68 104 140 168 218 284 343 397
#
# _framework density 22.185206000000001
#
# number of rings (size 3 to 8) (size 9 to 14) (size 15 to 20)
#    0.000    0.500    6.250    1.875    1.750    4.500 
#    0.000    0.625    2.750    0.000    0.000    0.000 
#    0.000    0.000    0.000    0.000    0.000    0.000 
#
# Total GULP energy -89624.454801 kJ/mol
# GULP energy per Si atom -5601.528425 kJ/mol
# Density = 2.213471 g / cm^3
# Si number density = 22.185206 Si / 1000 Ang^3
#
#
#
# Elastic Constant Matrix: (Units=GPa)
#
#
# Indices 1 2 3 4 5 6 
#
# 1 107.8549 22.9326 40.9983 -18.7836 -9.9015 7.0825
# 2 22.9326 83.0756 32.4907 -13.6343 -4.2732 -4.6074
# 3 40.9983 32.4907 104.1928 -19.9290 -19.9423 0.6105
# 4 -18.7836 -13.6343 -19.9290 38.7629 4.8370 -4.3524
# 5 -9.9015 -4.2732 -19.9423 4.8370 54.3269 -10.8190
# 6 7.0825 -4.6074 0.6105 -4.3524 -10.8190 31.4072
#
#
#
# Elastic Compliance Matrix: (Units=1/GPa)
#
#
# Indices 1 2 3 4 5 6 
#
# 1 0.011601 -0.001459 -0.003521 0.003038 -0.000032 -0.002352
# 2 -0.001459 0.014405 -0.003381 0.002954 -0.000060 0.002896
# 3 -0.003521 -0.003381 0.013536 0.003771 0.004119 0.001976
# 4 0.003038 0.002954 0.003771 0.030668 0.000238 0.004007
# 5 -0.000032 -0.000060 0.004119 0.000238 0.021342 0.007303
# 6 -0.002352 0.002896 0.001976 0.004007 0.007303 0.035828
#
#
# Mechanical properties :
#
#
# Convention : Reuss Voigt Hill
#
# Bulk Modulus (GPa) = 43.82331 54.21850 49.02091
# Shear Modulus (GPa) = 32.95818 38.14617 35.55217
#
# Velocity S-wave (km/s) = 3.85852 4.15111 4.00749
# Velocity P-wave (km/s) = 6.29660 6.88968 6.59981
#
# Compressibility (1/GPa) = 0.02281891
#
# Stress axis : x y z
#
# Youngs Moduli (GPa) = 86.19984 69.42173 73.87931
#
# Poissons Ratio (x) = 0.10127 0.26014
# Poissons Ratio (y) = 0.12574 0.24981
# Poissons Ratio (z) = 0.30352 0.23474
#
# Static dielectric constant tensor:
#      x y z
#    x 1.800600 -0.019410 0.003980 
#    y -0.019410 1.783720 -0.010100 
#    z 0.003980 -0.010100 1.857900 
# 
# From -- ./inp_files/355333.got.cif
#   From: 2010.05.17/outbox.cif.g08.bks.cpg/sg2_178_cif.got.tgz:355333.got - 2010.06.03 11:33:40.
