data_PCOD9062221
_publ_section_title
;
Structure prediction by ZEFSAII (Michael W. Deem and Ramdas Pophale) SiO2 
 PCOD9062221
Probable space group: P -1
;
_chemical_formula_sum "Si O2"
_cell_formula_units_Z 16
_cell_length_a 25.562102
_cell_length_b 13.826600
_cell_length_c 8.008452
_cell_angle_alpha 38.757998
_cell_angle_beta 143.910686
_cell_angle_gamma 158.972364
_cell_volume 593.878087
_symmetry_space_group_name_H-M "P -1"
_symmetry_group_IT_number 2
_symmetry_cell_setting 'triclinic'
loop_
_space_group_symop_operation_xyz
x,y,z
-x,-y,-z
loop_
_atom_site_type_symbol
_atom_site_label
_atom_site_fract_x
_atom_site_fract_y
_atom_site_fract_z
Si Si1 0.445802 0.756046 0.114171
Si Si2 0.557736 0.621515 0.744342
Si Si3 0.271398 0.444344 0.651188
Si Si4 0.284725 0.039646 0.973333
Si Si5 0.046080 0.317674 0.476161
Si Si6 0.617603 0.093135 0.824270
Si Si7 0.134967 0.229294 0.227838
Si Si8 0.888122 0.480158 0.275519
O O1 0.541934 0.733315 0.417260
O O2 0.282250 0.482544 0.149080
O O3 0.500000 0.000000 0.000000
O O4 0.456350 0.806144 0.877700
O O5 0.663923 0.619734 0.010496
O O6 0.628653 0.816282 0.822063
O O7 0.384557 0.305904 0.760987
O O8 0.388458 0.738217 0.472933
O O9 0.152375 0.380206 0.534160
O O10 0.188415 0.266523 0.504582
O O11 0.099523 0.800178 0.820858
O O12 0.313258 0.917602 0.123500
O O13 0.958976 0.050243 0.701587
O O14 0.130207 0.532572 0.552798
O O15 0.738190 0.248622 0.081378
O O16 0.042329 0.257784 0.962926
O O17 0.000000 0.500000 0.500000
#
# Coordination Sequence:
#
# PCOD9062221 Si02
#       8
#     2   2   2   2   2   2   2   2
#     4  12  24  49  80 107 152 196 248 323 375 441
#     4  11  25  48  78 110 149 202 256 302 381 453
#     4  11  25  47  76 114 152 198 251 310 379 453
#     4  11  24  47  77 109 152 198 254 313 368 459
#     4  12  24  46  76 111 155 200 248 312 374 452
#     4  11  27  49  74 110 158 194 253 317 375 440
#     4  11  23  48  73 108 151 197 253 314 376 444
#     4  11  24  44  71 106 152 199 247 301 379 446
#
# _framework density 26.941557
#
# number of rings (size 3 to 8) (size 9 to 14) (size 15 to 20)
#    0.000    0.750    6.250    1.500    0.000    4.500 
#    4.500    0.000    2.750    0.000    0.000    0.000 
#    0.000    0.000    0.000    0.000    0.000    0.000 
#
# Total GULP energy -89575.063577 kJ/mol
# GULP energy per Si atom -5598.441474 kJ/mol
# Density = 2.688024 g / cm^3
# Si number density = 26.941557 Si / 1000 Ang^3
#
#
#
# Elastic Constant Matrix: (Units=GPa)
#
#
# Indices 1 2 3 4 5 6 
#
# 1 165.6736 41.1930 53.9503 17.0283 28.3355 -10.0272
# 2 41.1930 125.8009 41.4232 -11.9301 7.6030 -11.1077
# 3 53.9503 41.4232 166.2056 -3.7118 21.5851 8.3505
# 4 17.0283 -11.9301 -3.7118 44.3893 0.6698 0.4745
# 5 28.3355 7.6030 21.5851 0.6698 47.7169 -3.9915
# 6 -10.0272 -11.1077 8.3505 0.4745 -3.9915 48.5498
#
#
#
# Elastic Compliance Matrix: (Units=1/GPa)
#
#
# Indices 1 2 3 4 5 6 
#
# 1 0.008246 -0.002134 -0.001831 -0.003850 -0.003568 0.001274
# 2 -0.002134 0.009711 -0.001851 0.003241 0.000690 0.002124
# 3 -0.001831 -0.001851 0.007494 0.000889 -0.002211 -0.002281
# 4 -0.003850 0.003241 0.000889 0.024939 0.000986 -0.000369
# 5 -0.003568 0.000690 -0.002211 0.000986 0.024100 0.001773
# 6 0.001274 0.002124 -0.002281 -0.000369 0.001773 0.021888
#
#
# Mechanical properties :
#
#
# Convention : Reuss Voigt Hill
#
# Bulk Modulus (GPa) = 72.37459 81.20146 76.78802
# Shear Modulus (GPa) = 44.39800 49.53877 46.96839
#
# Velocity S-wave (km/s) = 4.06388 4.29272 4.17987
# Velocity P-wave (km/s) = 6.99586 7.40102 7.20129
#
# Compressibility (1/GPa) = 0.01381700
#
# Stress axis : x y z
#
# Youngs Moduli (GPa) = 121.27208 102.97947 133.43745
#
# Poissons Ratio (x) = 0.21976 0.24438
# Poissons Ratio (y) = 0.25880 0.24705
# Poissons Ratio (z) = 0.22210 0.19066
#
# Static dielectric constant tensor:
#      x y z
#    x 2.127180 0.023170 -0.046980 
#    y 0.023170 2.210860 0.066640 
#    z -0.046980 0.066640 2.188180 
# 
# From -- ./inp_files/353436.got.cif
#   From: 2010.05.17/outbox.cif.g08.bks.cpg/sg2_177_cif.got.tgz:353436.got - 2010.06.03 11:33:40.
