data_PCOD9062430
_publ_section_title
;
Structure prediction by ZEFSAII (Michael W. Deem and Ramdas Pophale) SiO2 
 PCOD9062430
Probable space group: P -1
;
_chemical_formula_sum "Si O2"
_cell_formula_units_Z 12
_cell_length_a 11.617556
_cell_length_b 5.175741
_cell_length_c 9.326157
_cell_angle_alpha 105.482414
_cell_angle_beta 76.524569
_cell_angle_gamma 113.732973
_cell_volume 489.685505
_symmetry_space_group_name_H-M "P -1"
_symmetry_group_IT_number 2
_symmetry_cell_setting 'triclinic'
loop_
_space_group_symop_operation_xyz
x,y,z
-x,-y,-z
loop_
_atom_site_type_symbol
_atom_site_label
_atom_site_fract_x
_atom_site_fract_y
_atom_site_fract_z
Si Si1 0.134806 0.180449 0.414572
Si Si2 0.236092 0.691952 0.247180
Si Si3 0.286564 0.301764 0.939002
Si Si4 0.483212 0.050599 0.839750
Si Si5 0.755269 0.465330 0.296565
Si Si6 0.077606 0.785116 0.935009
O O1 0.147303 0.428495 0.331781
O O2 0.231847 0.363720 0.535908
O O3 0.176935 0.935261 0.297580
O O4 0.000000 0.000000 0.500000
O O5 0.384096 0.856404 0.269100
O O6 0.258222 0.536164 0.075047
O O7 0.225738 0.306898 0.803326
O O8 0.427306 0.305914 0.881581
O O9 0.212500 0.995429 0.988143
O O10 0.378078 0.780759 0.748576
O O11 0.500000 0.000000 0.000000
O O12 0.868780 0.336896 0.236405
O O13 0.000000 0.500000 0.000000
O O14 0.000000 0.000000 0.000000
#
# Coordination Sequence:
#
# PCOD9062430 Si02
#       6
#     2   2   2   2   2   2
#     4  12  32  52  71 109 164 202 252 306 382 462
#     4  12  28  49  79 108 150 208 248 311 389 449
#     4  11  25  45  79 114 148 191 262 321 375 442
#     4  11  24  48  81 117 152 187 263 327 381 446
#     4  11  27  47  76 112 153 200 250 325 371 447
#     4  11  24  40  71 107 146 192 258 306 370 435
#
# _framework density 24.505521999999999
#
# number of rings (size 3 to 8) (size 9 to 14) (size 15 to 20)
#    0.000    0.667    3.333    2.000   14.000    1.333 
#    0.000    0.000    0.000    0.000    0.000    0.000 
#    0.000    0.000    0.000    0.000    0.000    0.000 
#
# Total GULP energy -66984.168697 kJ/mol
# GULP energy per Si atom -5582.014058 kJ/mol
# Density = 2.444975 g / cm^3
# Si number density = 24.505522 Si / 1000 Ang^3
#
#
#
# Elastic Constant Matrix: (Units=GPa)
#
#
# Indices 1 2 3 4 5 6 
#
# 1 78.6348 19.9951 -5.4116 -5.4500 -19.6152 0.7546
# 2 19.9951 152.4723 12.1620 10.9672 -8.5643 0.3779
# 3 -5.4116 12.1620 58.7364 11.3264 1.3105 -18.5901
# 4 -5.4500 10.9672 11.3264 38.0233 4.1534 -7.0989
# 5 -19.6152 -8.5643 1.3105 4.1534 41.8476 0.7619
# 6 0.7546 0.3779 -18.5901 -7.0989 0.7619 57.0203
#
#
#
# Elastic Compliance Matrix: (Units=1/GPa)
#
#
# Indices 1 2 3 4 5 6 
#
# 1 0.014998 -0.001837 0.001431 0.001624 0.006441 0.000396
# 2 -0.001837 0.007122 -0.001506 -0.002111 0.000868 -0.000788
# 3 0.001431 -0.001506 0.020202 -0.004254 0.000042 0.006047
# 4 0.001624 -0.002111 -0.004254 0.029100 -0.002467 0.002261
# 5 0.006441 0.000868 0.000042 -0.002467 0.027350 -0.000750
# 6 0.000396 -0.000788 0.006047 0.002261 -0.000750 0.019801
#
#
# Mechanical properties :
#
#
# Convention : Reuss Voigt Hill
#
# Bulk Modulus (GPa) = 25.97507 38.14829 32.06168
# Shear Modulus (GPa) = 36.97412 44.91810 40.94611
#
# Velocity S-wave (km/s) = 3.88855 4.28597 4.09209
# Velocity P-wave (km/s) = 5.54831 6.33197 5.95305
#
# Compressibility (1/GPa) = 0.03849846
#
# Stress axis : x y z
#
# Youngs Moduli (GPa) = 66.67567 140.40824 49.49964
#
# Poissons Ratio (x) = 0.25792 -0.07082
# Poissons Ratio (y) = 0.12248 0.07453
# Poissons Ratio (z) = -0.09540 0.21141
#
# Static dielectric constant tensor:
#      x y z
#    x 2.045260 0.013210 0.022400 
#    y 0.013210 2.000440 -0.045100 
#    z 0.022400 -0.045100 1.937460 
# 
# From -- ./inp_files/230005.got.cif
#   From: 2010.05.17/outbox.cif.g08.bks.cpg/sg2_116_cif.got.tgz:230005.got - 2010.06.03 11:33:40.
