data_PCOD9062393
_publ_section_title
;
Structure prediction by ZEFSAII (Michael W. Deem and Ramdas Pophale) SiO2 
 PCOD9062393
Probable space group: P -1
;
_chemical_formula_sum "Si O2"
_cell_formula_units_Z 16
_cell_length_a 14.193022
_cell_length_b 15.179318
_cell_length_c 14.036476
_cell_angle_alpha 151.496308
_cell_angle_beta 147.817926
_cell_angle_gamma 50.909642
_cell_volume 688.142245
_symmetry_space_group_name_H-M "P -1"
_symmetry_group_IT_number 2
_symmetry_cell_setting 'triclinic'
loop_
_space_group_symop_operation_xyz
x,y,z
-x,-y,-z
loop_
_atom_site_type_symbol
_atom_site_label
_atom_site_fract_x
_atom_site_fract_y
_atom_site_fract_z
Si Si1 0.070435 0.166890 0.135219
Si Si2 0.131385 0.478746 0.188169
Si Si3 0.361690 0.563635 0.878265
Si Si4 0.642220 0.759720 0.138172
Si Si5 0.678780 0.168572 0.752480
Si Si6 0.666091 0.185191 0.539212
Si Si7 0.625072 0.664977 0.598101
Si Si8 0.022570 0.207817 0.661376
O O1 0.199092 0.385127 0.505701
O O2 0.216895 0.167835 0.178994
O O3 0.871801 0.133198 0.879167
O O4 0.000000 0.000000 0.000000
O O5 0.263012 0.417201 0.311748
O O6 0.146035 0.711095 0.423301
O O7 0.154381 0.387433 0.019466
O O8 0.899538 0.334228 0.876240
O O9 0.500000 0.500000 0.000000
O O10 0.527122 0.736086 0.116494
O O11 0.254889 0.637358 0.935674
O O12 0.864846 0.789067 0.337911
O O13 0.636773 0.957490 0.274124
O O14 0.513189 0.540722 0.772496
O O15 0.616008 0.197035 0.619989
O O16 0.500000 0.000000 0.500000
O O17 0.518233 0.237961 0.399653
O O18 0.000000 0.000000 0.500000
#
# Coordination Sequence:
#
# PCOD9062393 Si02
#       8
#     2   2   2   2   2   2   2   2
#     4  11  24  41  64 101 142 184 240 286 346 418
#     4  11  25  46  75 102 137 185 231 291 355 418
#     4  11  24  40  65 100 137 185 233 288 350 419
#     4  11  24  44  70 100 141 185 233 289 352 417
#     4  12  22  41  65  97 138 187 232 283 345 412
#     4  12  23  45  71 100 145 184 229 292 349 416
#     4  11  25  46  68 106 141 183 238 289 349 421
#     4  11  24  47  74 104 140 181 234 290 358 422
#
# _framework density 23.251006
#
# number of rings (size 3 to 8) (size 9 to 14) (size 15 to 20)
#    0.000    0.750    5.000    3.375    0.000    1.500 
#    0.000    1.250    0.000    0.000    0.000    0.000 
#    0.000    0.000    0.000    0.000    0.000    0.000 
#
# Total GULP energy -89205.977501 kJ/mol
# GULP energy per Si atom -5575.373594 kJ/mol
# Density = 2.319809 g / cm^3
# Si number density = 23.251006 Si / 1000 Ang^3
#
#
#
# Elastic Constant Matrix: (Units=GPa)
#
#
# Indices 1 2 3 4 5 6 
#
# 1 87.5525 12.1335 4.2716 8.2795 18.2313 -14.8457
# 2 12.1335 164.1779 30.0593 -0.2141 15.4976 -17.0427
# 3 4.2716 30.0593 64.0599 6.2575 21.4836 -10.5549
# 4 8.2795 -0.2141 6.2575 40.2264 -4.5605 0.7108
# 5 18.2313 15.4976 21.4836 -4.5605 25.9482 4.0630
# 6 -14.8457 -17.0427 -10.5549 0.7108 4.0630 39.0985
#
#
#
# Elastic Compliance Matrix: (Units=1/GPa)
#
#
# Indices 1 2 3 4 5 6 
#
# 1 0.019292 0.000507 0.010164 -0.008713 -0.025861 0.013136
# 2 0.000507 0.007029 -0.001435 -0.000349 -0.003942 0.003285
# 3 0.010164 -0.001435 0.031803 -0.011537 -0.037131 0.015888
# 4 -0.008713 -0.000349 -0.011537 0.031205 0.022857 -0.009517
# 5 -0.025861 -0.003942 -0.037131 0.022857 0.098871 -0.032251
# 6 0.013136 0.003285 0.015888 -0.009517 -0.032251 0.039809
#
#
# Mechanical properties :
#
#
# Convention : Reuss Voigt Hill
#
# Bulk Modulus (GPa) = 13.05563 45.41324 29.23443
# Shear Modulus (GPa) = 21.27032 39.00968 30.14000
#
# Velocity S-wave (km/s) = 3.02787 4.10049 3.60431
# Velocity P-wave (km/s) = 4.22507 6.48019 5.47011
#
# Compressibility (1/GPa) = 0.07659533
#
# Stress axis : x y z
#
# Youngs Moduli (GPa) = 51.83523 142.27173 31.44354
#
# Poissons Ratio (x) = -0.07208 -0.31959
# Poissons Ratio (y) = -0.02626 0.04512
# Poissons Ratio (z) = -0.52686 0.20414
#
# Static dielectric constant tensor:
#      x y z
#    x 1.920830 0.050430 0.007910 
#    y 0.050430 1.915240 0.063550 
#    z 0.007910 0.063550 1.889070 
# 
# From -- ./inp_files/534656.got.cif
#   From: 2010.05.17/outbox.cif.g08.bks.cpg/sg2_268_cif.got.tgz:534656.got - 2010.06.03 11:33:40.
