data_PCOD9062819
_publ_section_title
;
Structure prediction by ZEFSAII (Michael W. Deem and Ramdas Pophale) SiO2 
 PCOD9062819
Probable space group: P -1
;
_chemical_formula_sum "Si O2"
_cell_formula_units_Z 15
_cell_length_a 23.757217
_cell_length_b 5.533069
_cell_length_c 11.743443
_cell_angle_alpha 117.313355
_cell_angle_beta 150.766059
_cell_angle_gamma 55.368818
_cell_volume 617.684282
_symmetry_space_group_name_H-M "P -1"
_symmetry_group_IT_number 2
_symmetry_cell_setting 'triclinic'
loop_
_space_group_symop_operation_xyz
x,y,z
-x,-y,-z
loop_
_atom_site_type_symbol
_atom_site_label
_atom_site_fract_x
_atom_site_fract_y
_atom_site_fract_z
Si Si1 0.202391 0.842129 0.377766
Si Si2 0.077869 0.441502 0.006939
Si Si3 0.346920 0.862323 0.124079
Si Si4 0.500000 0.500000 0.500000
Si Si5 0.530062 0.638806 0.196930
Si Si6 0.951006 0.691285 0.622889
Si Si7 0.327175 0.984563 0.435099
Si Si8 0.806747 0.511674 0.131002
O O1 0.116510 0.723654 0.126278
O O2 0.328520 0.571559 0.570770
O O3 0.129789 0.002234 0.394662
O O4 0.251435 0.044132 0.432875
O O5 0.211842 0.171959 0.190082
O O6 0.000000 0.500000 0.000000
O O7 0.996133 0.453850 0.754483
O O8 0.437681 0.805449 0.381001
O O9 0.426679 0.678241 0.117918
O O10 0.264402 0.681413 0.983932
O O11 0.277362 0.196115 0.027190
O O12 0.387718 0.647711 0.428954
O O13 0.549851 0.946784 0.304145
O O14 0.500000 0.500000 0.000000
O O15 0.866622 0.620558 0.365605
O O16 0.076322 0.680624 0.781479
#
# Coordination Sequence:
#
# PCOD9062819 Si02
#       8
#     2   2   2   1   2   2   2   2
#     4  11  24  43  68 106 141 189 249 307 377 441
#     4  11  24  42  72 106 145 192 253 312 377 446
#     4  12  27  50  76 110 150 201 252 313 383 453
#     4  12  26  46  78 102 160 186 254 308 374 456
#     4  11  26  46  74 106 149 197 251 313 380 459
#     4  11  25  47  73 103 150 192 253 312 376 456
#     4  11  25  45  68 110 143 197 246 310 380 446
#     4  11  29  48  74 111 148 204 250 312 384 453
#
# _framework density 24.284253
#
# number of rings (size 3 to 8) (size 9 to 14) (size 15 to 20)
#    0.000    0.800    2.667    2.800    3.733    6.933 
#    0.000    0.000    0.000    0.000    0.000    0.000 
#    0.000    0.000    0.000    0.000    0.000    0.000 
#
# Total GULP energy -83583.407358 kJ/mol
# GULP energy per Si atom -5572.227157 kJ/mol
# Density = 2.422898 g / cm^3
# Si number density = 24.284253 Si / 1000 Ang^3
#
#
#
# Elastic Constant Matrix: (Units=GPa)
#
#
# Indices 1 2 3 4 5 6 
#
# 1 151.5899 51.7089 38.8316 8.7421 15.5872 -2.2962
# 2 51.7089 73.5242 40.7657 -7.8558 29.7394 -6.6870
# 3 38.8316 40.7657 95.0739 3.6699 -2.5158 15.3974
# 4 8.7421 -7.8558 3.6699 31.2934 -9.5556 11.0669
# 5 15.5872 29.7394 -2.5158 -9.5556 44.1201 -4.2359
# 6 -2.2962 -6.6870 15.3974 11.0669 -4.2359 47.0378
#
#
#
# Elastic Compliance Matrix: (Units=1/GPa)
#
#
# Indices 1 2 3 4 5 6 
#
# 1 0.009297 -0.006391 -0.001035 -0.004374 0.000105 0.000923
# 2 -0.006391 0.035712 -0.014496 0.003583 -0.021216 0.006757
# 3 -0.001035 -0.014496 0.018610 0.000279 0.010556 -0.007318
# 4 -0.004374 0.003583 0.000279 0.039086 0.006807 -0.008379
# 5 0.000105 -0.021216 0.010556 0.006807 0.038564 -0.004595
# 6 0.000923 0.006757 -0.007318 -0.008379 -0.004595 0.026218
#
#
# Mechanical properties :
#
#
# Convention : Reuss Voigt Hill
#
# Bulk Modulus (GPa) = 50.56778 64.75560 57.66169
# Shear Modulus (GPa) = 22.94380 37.08235 30.01308
#
# Velocity S-wave (km/s) = 3.07710 3.91194 3.51936
# Velocity P-wave (km/s) = 5.78733 6.86498 6.34906
#
# Compressibility (1/GPa) = 0.01977544
#
# Stress axis : x y z
#
# Youngs Moduli (GPa) = 107.55819 28.00173 53.73398
#
# Poissons Ratio (x) = 0.17896 0.05560
# Poissons Ratio (y) = 0.68742 0.77894
# Poissons Ratio (z) = 0.11130 0.40592
#
# Static dielectric constant tensor:
#      x y z
#    x 2.023060 0.029010 0.000680 
#    y 0.029010 2.131640 0.033330 
#    z 0.000680 0.033330 2.008080 
# 
# From -- ./inp_files/67646.got.cif
#   From: 2010.05.17/outbox.cif.g08.bks.cpg/sg2_34_cif.got.tgz:67646.got - 2010.06.03 11:33:40.
