data_PCOD9062658
_publ_section_title
;
Structure prediction by ZEFSAII (Michael W. Deem and Ramdas Pophale) SiO2 
 PCOD9062658
Probable space group: P -1
;
_chemical_formula_sum "Si O2"
_cell_formula_units_Z 14
_cell_length_a 9.487034
_cell_length_b 20.752312
_cell_length_c 6.596795
_cell_angle_alpha 122.185741
_cell_angle_beta 46.213307
_cell_angle_gamma 138.245275
_cell_volume 624.025557
_symmetry_space_group_name_H-M "P -1"
_symmetry_group_IT_number 2
_symmetry_cell_setting 'triclinic'
loop_
_space_group_symop_operation_xyz
x,y,z
-x,-y,-z
loop_
_atom_site_type_symbol
_atom_site_label
_atom_site_fract_x
_atom_site_fract_y
_atom_site_fract_z
Si Si1 0.932740 0.006977 0.351523
Si Si2 0.378295 0.413828 0.813952
Si Si3 0.197284 0.702910 0.846114
Si Si4 0.397320 0.901385 0.813479
Si Si5 0.290013 0.587095 0.838601
Si Si6 0.480788 0.303028 0.805653
Si Si7 0.022794 0.883150 0.844903
O O1 0.638346 0.925920 0.504904
O O2 0.972844 0.100788 0.374357
O O3 0.000000 0.000000 0.500000
O O4 0.089035 0.982810 0.031145
O O5 0.562752 0.439113 0.487128
O O6 0.357937 0.328111 0.804209
O O7 0.500000 0.500000 0.000000
O O8 0.100371 0.372092 0.965896
O O9 0.288206 0.811924 0.925377
O O10 0.309289 0.675365 0.862065
O O11 0.302658 0.691716 0.513229
O O12 0.204214 0.873611 0.778144
O O13 0.500000 0.000000 0.000000
O O14 0.402924 0.618828 0.001480
O O15 0.000000 0.500000 0.000000
O O16 0.255527 0.202818 0.958948
#
# Coordination Sequence:
#
# PCOD9062658 Si02
#       7
#     2   2   2   2   2   2   2
#     4  11  24  42  67  93 138 174 228 283 336 397
#     4  11  24  45  73  99 137 176 223 288 348 413
#     4  11  25  44  68 100 140 181 228 286 346 404
#     4  12  24  43  68  99 138 182 233 281 338 406
#     4  11  26  45  70 104 136 178 231 282 353 418
#     4  11  24  43  69  97 140 177 228 282 345 410
#     4  11  24  42  66  96 129 184 225 280 343 398
#
# _framework density 22.434978000000001
#
# number of rings (size 3 to 8) (size 9 to 14) (size 15 to 20)
#    0.000    0.857    4.286    2.143    2.000    6.857 
#    2.571    0.000    0.000    0.000    0.000    0.000 
#    0.000    0.000    0.000    0.000    0.000    0.000 
#
# Total GULP energy -78147.883223 kJ/mol
# GULP energy per Si atom -5581.991659 kJ/mol
# Density = 2.238391 g / cm^3
# Si number density = 22.434978 Si / 1000 Ang^3
#
#
#
# Elastic Constant Matrix: (Units=GPa)
#
#
# Indices 1 2 3 4 5 6 
#
# 1 114.6710 15.3715 33.8786 -14.1882 -4.2798 -4.9082
# 2 15.3715 65.1063 26.9702 -15.4713 -6.3620 -8.9161
# 3 33.8786 26.9702 100.3229 -13.2170 -9.2861 14.9574
# 4 -14.1882 -15.4713 -13.2170 40.9751 1.8322 -2.3346
# 5 -4.2798 -6.3620 -9.2861 1.8322 38.6653 -11.1486
# 6 -4.9082 -8.9161 14.9574 -2.3346 -11.1486 39.0330
#
#
#
# Elastic Compliance Matrix: (Units=1/GPa)
#
#
# Indices 1 2 3 4 5 6 
#
# 1 0.010238 0.000212 -0.003539 0.002614 0.001107 0.003164
# 2 0.000212 0.020768 -0.005697 0.006375 0.004234 0.008544
# 3 -0.003539 -0.005697 0.013826 0.000686 -0.000066 -0.007022
# 4 0.002614 0.006375 0.000686 0.028087 0.001194 0.003543
# 5 0.001107 0.004234 -0.000066 0.001194 0.029376 0.009593
# 6 0.003164 0.008544 -0.007022 0.003543 0.009593 0.033612
#
#
# Mechanical properties :
#
#
# Convention : Reuss Voigt Hill
#
# Bulk Modulus (GPa) = 37.33688 48.06009 42.69849
# Shear Modulus (GPa) = 30.69696 37.32669 34.01182
#
# Velocity S-wave (km/s) = 3.70302 4.08336 3.89783
# Velocity P-wave (km/s) = 5.91283 6.61062 6.27143
#
# Compressibility (1/GPa) = 0.02678317
#
# Stress axis : x y z
#
# Youngs Moduli (GPa) = 97.67488 48.15083 72.32920
#
# Poissons Ratio (x) = -0.01019 0.25599
# Poissons Ratio (y) = -0.02067 0.41204
# Poissons Ratio (z) = 0.34569 0.27430
#
# Static dielectric constant tensor:
#      x y z
#    x 1.925010 -0.054420 0.071980 
#    y -0.054420 1.852030 0.028820 
#    z 0.071980 0.028820 1.902950 
# 
# From -- ./inp_files/46908.got.cif
#   From: 2010.05.17/outbox.cif.g08.bks.cpg/sg2_24_cif.got.tgz:46908.got - 2010.06.03 11:33:40.
