data_PCOD9062119
_publ_section_title
;
Structure prediction by ZEFSAII (Michael W. Deem and Ramdas Pophale) SiO2 
 PCOD9062119
Probable space group: P -1
;
_chemical_formula_sum "Si O2"
_cell_formula_units_Z 16
_cell_length_a 25.819478
_cell_length_b 6.474827
_cell_length_c 8.778260
_cell_angle_alpha 76.867881
_cell_angle_beta 139.584128
_cell_angle_gamma 127.207853
_cell_volume 676.087943
_symmetry_space_group_name_H-M "P -1"
_symmetry_group_IT_number 2
_symmetry_cell_setting 'triclinic'
loop_
_space_group_symop_operation_xyz
x,y,z
-x,-y,-z
loop_
_atom_site_type_symbol
_atom_site_label
_atom_site_fract_x
_atom_site_fract_y
_atom_site_fract_z
Si Si1 0.130568 0.611165 0.166655
Si Si2 0.428519 0.246496 0.503480
Si Si3 0.779600 0.840041 0.881980
Si Si4 0.806279 0.122295 0.415245
Si Si5 0.317006 0.671687 0.459772
Si Si6 0.985184 0.150472 0.679551
Si Si7 0.135315 0.376897 0.691813
Si Si8 0.577320 0.481500 0.084754
O O1 0.124999 0.692637 0.309831
O O2 0.248207 0.705807 0.405547
O O3 0.135452 0.822330 0.028395
O O4 0.049062 0.298394 0.956465
O O5 0.500000 0.500000 0.500000
O O6 0.334238 0.243172 0.337127
O O7 0.366079 0.909072 0.395609
O O8 0.512577 0.334827 0.808901
O O9 0.762512 0.647424 0.737033
O O10 0.811964 0.744093 0.107264
O O11 0.784430 0.300232 0.246223
O O12 0.881948 0.115788 0.478543
O O13 0.695613 0.801802 0.265646
O O14 0.402731 0.694469 0.745327
O O15 0.064671 0.341603 0.681064
O O16 0.941101 0.839591 0.583207
O O17 0.500000 0.500000 0.000000
#
# Coordination Sequence:
#
# PCOD9062119 Si02
#       8
#     2   2   2   2   2   2   2   2
#     4  11  25  46  74 104 143 188 241 290 360 429
#     4  11  27  42  72 108 137 186 244 302 357 425
#     4  11  24  46  71 103 143 190 236 292 366 428
#     4  12  28  45  73 111 142 190 249 303 345 437
#     4  11  23  47  73  99 144 194 231 298 361 429
#     4  11  27  48  71 106 152 191 238 297 366 435
#     4  11  28  46  74 105 148 196 235 297 373 421
#     4  12  25  50  71 102 146 191 241 295 364 425
#
# _framework density 23.665558000000001
#
# number of rings (size 3 to 8) (size 9 to 14) (size 15 to 20)
#    0.000    0.750    3.750    1.875   10.500    2.000 
#    0.000    0.000    0.000    0.000    0.000    0.000 
#    0.000    0.000    0.000    0.000    0.000    0.000 
#
# Total GULP energy -89466.779850 kJ/mol
# GULP energy per Si atom -5591.673741 kJ/mol
# Density = 2.361169 g / cm^3
# Si number density = 23.665558 Si / 1000 Ang^3
#
#
#
# Elastic Constant Matrix: (Units=GPa)
#
#
# Indices 1 2 3 4 5 6 
#
# 1 92.9822 50.3652 36.8451 -8.2272 -3.6464 -20.0279
# 2 50.3652 140.0839 34.3401 -23.9194 10.1005 5.4575
# 3 36.8451 34.3401 97.9616 -9.3880 2.5739 -13.1458
# 4 -8.2272 -23.9194 -9.3880 41.9668 -12.8540 -0.7341
# 5 -3.6464 10.1005 2.5739 -12.8540 28.0901 0.6183
# 6 -20.0279 5.4575 -13.1458 -0.7341 0.6183 28.4777
#
#
#
# Elastic Compliance Matrix: (Units=1/GPa)
#
#
# Indices 1 2 3 4 5 6 
#
# 1 0.018632 -0.006679 -0.002973 0.001023 0.005276 0.012923
# 2 -0.006679 0.011144 -0.001995 0.003579 -0.002886 -0.007599
# 3 -0.002973 -0.001995 0.012701 0.001060 -0.000439 0.004192
# 4 0.001023 0.003579 0.001060 0.030161 0.012528 0.001028
# 5 0.005276 -0.002886 -0.000439 0.012528 0.043020 0.003450
# 6 0.012923 -0.007599 0.004192 0.001028 0.003450 0.047547
#
#
# Mechanical properties :
#
#
# Convention : Reuss Voigt Hill
#
# Bulk Modulus (GPa) = 52.13071 63.79205 57.96138
# Shear Modulus (GPa) = 25.92106 33.67205 29.79656
#
# Velocity S-wave (km/s) = 3.31313 3.77613 3.55218
# Velocity P-wave (km/s) = 6.05902 6.78428 6.43188
#
# Compressibility (1/GPa) = 0.01918255
#
# Stress axis : x y z
#
# Youngs Moduli (GPa) = 53.67249 89.73064 78.73209
#
# Poissons Ratio (x) = 0.59933 0.23405
# Poissons Ratio (y) = 0.35849 0.15710
# Poissons Ratio (z) = 0.15955 0.17905
#
# Static dielectric constant tensor:
#      x y z
#    x 1.868180 0.032550 -0.004430 
#    y 0.032550 1.866840 0.040020 
#    z -0.004430 0.040020 1.940330 
# 
# From -- ./inp_files/355992.got.cif
#   From: 2010.05.17/outbox.cif.g08.bks.cpg/sg2_178_cif.got.tgz:355992.got - 2010.06.03 11:33:40.
