data_PCOD9062523
_publ_section_title
;
Structure prediction by ZEFSAII (Michael W. Deem and Ramdas Pophale) SiO2 
 PCOD9062523
Probable space group: P -1
;
_chemical_formula_sum "Si O2"
_cell_formula_units_Z 14
_cell_length_a 11.606935
_cell_length_b 12.139165
_cell_length_c 12.094202
_cell_angle_alpha 117.490960
_cell_angle_beta 24.642059
_cell_angle_gamma 113.050914
_cell_volume 628.463810
_symmetry_space_group_name_H-M "P -1"
_symmetry_group_IT_number 2
_symmetry_cell_setting 'triclinic'
loop_
_space_group_symop_operation_xyz
x,y,z
-x,-y,-z
loop_
_atom_site_type_symbol
_atom_site_label
_atom_site_fract_x
_atom_site_fract_y
_atom_site_fract_z
Si Si1 0.707100 0.836185 0.939491
Si Si2 0.555232 0.291610 0.516019
Si Si3 0.010568 0.439045 0.082265
Si Si4 0.160609 0.628529 0.483722
Si Si5 0.913880 0.126255 0.569197
Si Si6 0.311127 0.979532 0.759597
Si Si7 0.945619 0.399026 0.674307
O O1 0.853109 0.701438 0.783971
O O2 0.949966 0.889382 0.678188
O O3 0.418285 0.844262 0.128698
O O4 0.645599 0.923496 0.137667
O O5 0.229900 0.321060 0.825308
O O6 0.626034 0.164278 0.331123
O O7 0.672318 0.292051 0.539797
O O8 0.716319 0.397282 0.361646
O O9 0.132915 0.527133 0.110993
O O10 0.000000 0.500000 0.000000
O O11 0.154415 0.491349 0.478011
O O12 0.246374 0.617900 0.275282
O O13 0.036094 0.256544 0.561507
O O14 0.000000 0.000000 0.500000
O O15 0.500000 0.000000 0.500000
O O16 0.000000 0.000000 0.000000
#
# Coordination Sequence:
#
# PCOD9062523 Si02
#       7
#     2   2   2   2   2   2   2
#     4  11  24  41  67  96 134 168 219 278 325 401
#     4  11  24  41  67  96 134 168 219 278 325 401
#     4  11  25  44  64  95 131 179 224 267 322 397
#     4   9  20  41  66 102 128 161 220 271 350 380
#     4  11  25  44  64  95 131 179 224 267 322 397
#     4  12  24  40  65  99 132 174 208 267 349 394
#     4   9  22  39  69  93 130 169 211 275 331 386
#
# _framework density 22.276541999999999
#
# number of rings (size 3 to 8) (size 9 to 14) (size 15 to 20)
#    0.000    1.429    1.429    2.571    4.000    9.143 
#    0.000    0.000    0.000    0.000    0.000    0.000 
#    0.000    0.000    0.000    0.000    0.000    0.000 
#
# Total GULP energy -78123.605559 kJ/mol
# GULP energy per Si atom -5580.257540 kJ/mol
# Density = 2.222584 g / cm^3
# Si number density = 22.276542 Si / 1000 Ang^3
#
#
#
# Elastic Constant Matrix: (Units=GPa)
#
#
# Indices 1 2 3 4 5 6 
#
# 1 58.4711 20.5167 27.4605 3.5749 15.9911 -5.5939
# 2 20.5167 117.1022 19.9132 21.2094 7.8026 -10.3356
# 3 27.4605 19.9132 93.2595 6.1280 7.7455 2.8443
# 4 3.5749 21.2094 6.1280 47.4575 2.6372 6.8484
# 5 15.9911 7.8026 7.7455 2.6372 48.9912 1.6120
# 6 -5.5939 -10.3356 2.8443 6.8484 1.6120 21.8989
#
#
#
# Elastic Compliance Matrix: (Units=1/GPa)
#
#
# Indices 1 2 3 4 5 6 
#
# 1 0.022994 -0.001888 -0.005985 -0.000688 -0.006434 0.006449
# 2 -0.001888 0.010723 -0.001516 -0.005350 -0.000778 0.006506
# 3 -0.005985 -0.001516 0.012904 0.000016 0.000284 -0.003946
# 4 -0.000688 -0.005350 0.000016 0.025028 0.000074 -0.010535
# 5 -0.006434 -0.000778 0.000284 0.000074 0.022710 -0.003742
# 6 0.006449 0.006506 -0.003946 -0.010535 -0.003742 0.054465
#
#
# Mechanical properties :
#
#
# Convention : Reuss Voigt Hill
#
# Bulk Modulus (GPa) = 35.91438 44.95706 40.43572
# Shear Modulus (GPa) = 28.26707 37.06570 32.66639
#
# Velocity S-wave (km/s) = 3.56605 4.08351 3.83352
# Velocity P-wave (km/s) = 5.75436 6.51602 6.14700
#
# Compressibility (1/GPa) = 0.02784400
#
# Stress axis : x y z
#
# Youngs Moduli (GPa) = 43.48916 93.25575 77.49307
#
# Poissons Ratio (x) = 0.17611 0.46376
# Poissons Ratio (y) = 0.08213 0.11747
# Poissons Ratio (z) = 0.26026 0.14136
#
# Static dielectric constant tensor:
#      x y z
#    x 1.882990 0.009150 -0.013420 
#    y 0.009150 1.910630 0.000940 
#    z -0.013420 0.000940 1.810210 
# 
# From -- ./inp_files/426418.got.cif
#   From: 2010.05.17/outbox.cif.g08.bks.cpg/sg2_214_cif.got.tgz:426418.got - 2010.06.03 11:33:40.
