data_PCOD9062806
_publ_section_title
;
Structure prediction by ZEFSAII (Michael W. Deem and Ramdas Pophale) SiO2 
 PCOD9062806
Probable space group: P -1
;
_chemical_formula_sum "Si O2"
_cell_formula_units_Z 16
_cell_length_a 9.247829
_cell_length_b 5.303898
_cell_length_c 17.950101
_cell_angle_alpha 94.464440
_cell_angle_beta 129.872090
_cell_angle_gamma 101.601251
_cell_volume 636.392101
_symmetry_space_group_name_H-M "P -1"
_symmetry_group_IT_number 2
_symmetry_cell_setting 'triclinic'
loop_
_space_group_symop_operation_xyz
x,y,z
-x,-y,-z
loop_
_atom_site_type_symbol
_atom_site_label
_atom_site_fract_x
_atom_site_fract_y
_atom_site_fract_z
Si Si1 0.188149 0.798032 0.839844
Si Si2 0.433910 0.690044 0.039113
Si Si3 0.364080 0.797480 0.320506
Si Si4 0.694111 0.697944 0.607293
Si Si5 0.819190 0.617552 0.936184
Si Si6 0.069967 0.992585 0.144755
Si Si7 0.185446 0.892718 0.551352
Si Si8 0.980617 0.416544 0.368534
O O1 0.127334 0.589765 0.746900
O O2 0.397045 0.023752 0.895176
O O3 0.230639 0.687662 0.930736
O O4 0.027808 0.944313 0.810384
O O5 0.382836 0.584145 0.102814
O O6 0.500000 0.500000 0.000000
O O7 0.347236 0.036532 0.374132
O O8 0.597187 0.887479 0.378226
O O9 0.287196 0.508174 0.326404
O O10 0.214765 0.822633 0.206498
O O11 0.500000 0.500000 0.500000
O O12 0.874770 0.752086 0.610015
O O13 0.806396 0.751805 0.856993
O O14 0.000000 0.500000 0.000000
O O15 0.885332 0.849347 0.026460
O O16 0.171154 0.719605 0.618640
O O17 0.127537 0.690603 0.457452
O O18 0.000000 0.000000 0.500000
#
# Coordination Sequence:
#
# PCOD9062806 Si02
#       8
#     2   2   2   2   2   2   2   2
#     4  11  24  45  69 108 140 192 257 309 377 454
#     4  11  24  42  72 103 146 192 244 308 378 456
#     4  12  28  46  80 114 149 197 262 315 379 462
#     4  12  25  47  77 113 144 196 254 314 379 454
#     4  11  24  44  71 101 148 199 239 315 382 446
#     4  11  25  44  72 108 145 193 257 313 377 453
#     4  11  27  50  72 107 155 197 243 318 395 460
#     4  11  26  45  75 102 147 195 249 313 383 449
#
# _framework density 25.141729000000002
#
# number of rings (size 3 to 8) (size 9 to 14) (size 15 to 20)
#    0.000    0.750    5.000    1.125    7.000    3.000 
#    0.000    0.000    0.000    0.000    0.000    0.000 
#    0.000    0.000    0.000    0.000    0.000    0.000 
#
# Total GULP energy -89537.573706 kJ/mol
# GULP energy per Si atom -5596.098357 kJ/mol
# Density = 2.508451 g / cm^3
# Si number density = 25.141729 Si / 1000 Ang^3
#
#
#
# Elastic Constant Matrix: (Units=GPa)
#
#
# Indices 1 2 3 4 5 6 
#
# 1 112.2999 30.5653 30.7616 -0.4593 -1.9169 9.6546
# 2 30.5653 68.8980 25.1281 -10.4634 -12.4839 17.0254
# 3 30.7616 25.1281 122.1231 3.1868 -17.7911 6.6553
# 4 -0.4593 -10.4634 3.1868 46.7145 -6.8323 -2.7557
# 5 -1.9169 -12.4839 -17.7911 -6.8323 43.9585 0.4179
# 6 9.6546 17.0254 6.6553 -2.7557 0.4179 53.3610
#
#
#
# Elastic Compliance Matrix: (Units=1/GPa)
#
#
# Indices 1 2 3 4 5 6 
#
# 1 0.010636 -0.004385 -0.001987 -0.001015 -0.001740 -0.000316
# 2 -0.004385 0.020308 -0.002114 0.005158 0.005572 -0.005200
# 3 -0.001987 -0.002114 0.009605 -0.000709 0.003092 -0.000225
# 4 -0.001015 0.005158 -0.000709 0.023283 0.004754 -0.000208
# 5 -0.001740 0.005572 0.003092 0.004754 0.026263 -0.001809
# 6 -0.000316 -0.005200 -0.000225 -0.000208 -0.001809 0.020488
#
#
# Mechanical properties :
#
#
# Convention : Reuss Voigt Hill
#
# Bulk Modulus (GPa) = 42.41162 52.91456 47.66309
# Shear Modulus (GPa) = 36.92388 43.26454 40.09421
#
# Velocity S-wave (km/s) = 3.83643 4.15278 3.99774
# Velocity P-wave (km/s) = 6.04399 6.63976 6.34887
#
# Compressibility (1/GPa) = 0.02357844
#
# Stress axis : x y z
#
# Youngs Moduli (GPa) = 94.02228 49.24084 104.11225
#
# Poissons Ratio (x) = 0.21593 0.20682
# Poissons Ratio (y) = 0.41231 0.22005
# Poissons Ratio (z) = 0.18678 0.10407
#
# Static dielectric constant tensor:
#      x y z
#    x 1.959560 -0.039470 -0.013220 
#    y -0.039470 2.030710 -0.034480 
#    z -0.013220 -0.034480 2.117150 
# 
# From -- ./inp_files/553568.got.cif
#   From: 2010.05.17/outbox.cif.g08.bks.cpg/sg2_277_cif.got.tgz:553568.got - 2010.06.03 11:33:40.
