data_PCOD9062404
_publ_section_title
;
Structure prediction by ZEFSAII (Michael W. Deem and Ramdas Pophale) SiO2 
 PCOD9062404
Probable space group: P -1
;
_chemical_formula_sum "Si O2"
_cell_formula_units_Z 16
_cell_length_a 11.335216
_cell_length_b 20.556969
_cell_length_c 16.592119
_cell_angle_alpha 163.239106
_cell_angle_beta 43.225061
_cell_angle_gamma 143.560219
_cell_volume 642.390669
_symmetry_space_group_name_H-M "P -1"
_symmetry_group_IT_number 2
_symmetry_cell_setting 'triclinic'
loop_
_space_group_symop_operation_xyz
x,y,z
-x,-y,-z
loop_
_atom_site_type_symbol
_atom_site_label
_atom_site_fract_x
_atom_site_fract_y
_atom_site_fract_z
Si Si1 0.316024 0.136040 0.970697
Si Si2 0.959057 0.161528 0.464287
Si Si3 0.418490 0.036140 0.298535
Si Si4 0.630574 0.640808 0.950272
Si Si5 0.251884 0.535015 0.082548
Si Si6 0.072746 0.425314 0.456813
Si Si7 0.025134 0.776658 0.293379
Si Si8 0.872101 0.331109 0.122091
O O1 0.429991 0.236723 0.948240
O O2 0.470219 0.125949 0.942433
O O3 0.122737 0.831104 0.706968
O O4 0.227121 0.323449 0.249263
O O5 0.775659 0.219256 0.632340
O O6 0.021786 0.146035 0.505514
O O7 0.863238 0.879256 0.132781
O O8 0.578550 0.351106 0.606169
O O9 0.252030 0.949315 0.349160
O O10 0.291145 0.936538 0.161146
O O11 0.479315 0.606338 0.056078
O O12 0.106001 0.412853 0.087613
O O13 0.132504 0.307956 0.802751
O O14 0.882867 0.579578 0.360957
O O15 0.000000 0.500000 0.500000
O O16 0.166837 0.658805 0.753245
O O17 0.000000 0.500000 0.000000
#
# Coordination Sequence:
#
# PCOD9062404 Si02
#       8
#     2   2   2   2   2   2   2   2
#     4  11  24  45  70  98 136 178 220 291 350 393
#     4   9  18  35  62  93 137 183 225 272 330 395
#     4  11  24  40  67 104 142 179 224 277 340 415
#     4  12  22  38  65 106 139 179 225 277 339 406
#     4   8  18  34  64  95 141 181 221 268 334 407
#     4  11  24  48  76  97 127 180 236 286 341 409
#     4   9  16  35  59  93 138 190 215 263 337 399
#     4   9  21  42  68 103 138 180 230 275 342 403
#
# _framework density 24.906962
#
# number of rings (size 3 to 8) (size 9 to 14) (size 15 to 20)
#    0.750    1.250    2.500    2.625    0.000    4.000 
#    0.000    8.750    0.000    0.000    0.000    0.000 
#    0.000    0.000    0.000    0.000    0.000    0.000 
#
# Total GULP energy -89324.055003 kJ/mol
# GULP energy per Si atom -5582.753438 kJ/mol
# Density = 2.485027 g / cm^3
# Si number density = 24.906962 Si / 1000 Ang^3
#
#
#
# Elastic Constant Matrix: (Units=GPa)
#
#
# Indices 1 2 3 4 5 6 
#
# 1 94.4641 27.6016 50.0592 -12.9108 -27.1528 -5.9081
# 2 27.6016 59.9915 33.9493 6.5453 -3.9534 -13.6793
# 3 50.0592 33.9493 144.2842 11.2975 8.7714 -20.5564
# 4 -12.9108 6.5453 11.2975 32.7642 -6.0113 10.0631
# 5 -27.1528 -3.9534 8.7714 -6.0113 38.6060 -5.3911
# 6 -5.9081 -13.6793 -20.5564 10.0631 -5.3911 30.7382
#
#
#
# Elastic Compliance Matrix: (Units=1/GPa)
#
#
# Indices 1 2 3 4 5 6 
#
# 1 0.032920 -0.011216 -0.014680 0.029485 0.028087 -0.013208
# 2 -0.011216 0.025520 0.001494 -0.015509 -0.006044 0.014217
# 3 -0.014680 0.001494 0.015597 -0.017711 -0.014873 0.011463
# 4 0.029485 -0.015509 -0.017711 0.065772 0.029299 -0.029473
# 5 0.028087 -0.006044 -0.014873 0.029299 0.051901 -0.007727
# 6 -0.013208 0.014217 0.011463 -0.029473 -0.007727 0.052281
#
#
# Mechanical properties :
#
#
# Convention : Reuss Voigt Hill
#
# Bulk Modulus (GPa) = 39.63328 57.99557 48.81442
# Shear Modulus (GPa) = 16.59995 32.89699 24.74847
#
# Velocity S-wave (km/s) = 2.58442 3.63822 3.15562
# Velocity P-wave (km/s) = 4.98525 6.40190 5.73746
#
# Compressibility (1/GPa) = 0.02523132
#
# Stress axis : x y z
#
# Youngs Moduli (GPa) = 30.37665 39.18559 64.11640
#
# Poissons Ratio (x) = 0.43952 0.94125
# Poissons Ratio (y) = 0.34071 -0.09581
# Poissons Ratio (z) = 0.44594 -0.05855
#
# Static dielectric constant tensor:
#      x y z
#    x 1.985370 -0.007030 0.003660 
#    y -0.007030 2.008720 -0.038720 
#    z 0.003660 -0.038720 2.049630 
# 
# From -- ./inp_files/535292.got.cif
#   From: 2010.05.17/outbox.cif.g08.bks.cpg/sg2_268_cif.got.tgz:535292.got - 2010.06.03 11:33:40.
