data_PCOD9062864
_publ_section_title
;
Structure prediction by ZEFSAII (Michael W. Deem and Ramdas Pophale) SiO2 
 PCOD9062864
Probable space group: P -1
;
_chemical_formula_sum "Si O2"
_cell_formula_units_Z 11
_cell_length_a 13.961131
_cell_length_b 8.674372
_cell_length_c 11.057150
_cell_angle_alpha 44.361418
_cell_angle_beta 30.575228
_cell_angle_gamma 56.091420
_cell_volume 469.939158
_symmetry_space_group_name_H-M "P -1"
_symmetry_group_IT_number 2
_symmetry_cell_setting 'triclinic'
loop_
_space_group_symop_operation_xyz
x,y,z
-x,-y,-z
loop_
_atom_site_type_symbol
_atom_site_label
_atom_site_fract_x
_atom_site_fract_y
_atom_site_fract_z
Si Si1 0.576243 0.154675 0.605945
Si Si2 0.279149 0.377072 0.944189
Si Si3 0.021321 0.903218 0.715179
Si Si4 0.500000 0.000000 0.500000
Si Si5 0.018636 0.405468 0.400432
Si Si6 0.864841 0.782740 0.212140
O O1 0.420863 0.210628 0.841001
O O2 0.663776 0.396944 0.318810
O O3 0.752292 0.067806 0.529123
O O4 0.507039 0.015524 0.638664
O O5 0.237537 0.444208 0.088879
O O6 0.068067 0.254986 0.205736
O O7 0.958795 0.141676 0.629510
O O8 0.924083 0.786791 0.006019
O O9 0.653159 0.829988 0.429521
O O10 0.000000 0.500000 0.500000
O O11 0.903641 0.559007 0.358556
O O12 0.000000 0.000000 0.000000
#
# Coordination Sequence:
#
# PCOD9062864 Si02
#       6
#     2   2   2   1   2   2
#     4  11  24  42  75 102 136 188 228 282 343 408
#     4  11  25  44  68 106 140 180 232 282 343 412
#     4  12  24  46  71 101 142 181 226 286 348 404
#     4  12  22  42  72 104 130 182 238 274 340 410
#     4  12  25  43  72 104 136 185 231 279 347 409
#     4  12  23  45  72  98 141 182 228 285 338 410
#
# _framework density 23.407285000000002
#
# number of rings (size 3 to 8) (size 9 to 14) (size 15 to 20)
#    0.000    0.364    7.273    1.091    0.000    0.727 
#    0.000    4.545    0.000    0.000    0.000    0.000 
#    0.000    0.000    0.000    0.000    0.000    0.000 
#
# Total GULP energy -61238.416720 kJ/mol
# GULP energy per Si atom -5567.128793 kJ/mol
# Density = 2.335401 g / cm^3
# Si number density = 23.407285 Si / 1000 Ang^3
#
#
#
# Elastic Constant Matrix: (Units=GPa)
#
#
# Indices 1 2 3 4 5 6 
#
# 1 81.9857 67.9802 46.3048 14.5488 16.4139 -9.2496
# 2 67.9802 178.4326 55.9980 36.6184 13.5413 -28.7086
# 3 46.3048 55.9980 66.2313 20.8188 20.5223 -13.3890
# 4 14.5488 36.6184 20.8188 54.6086 4.8254 11.5272
# 5 16.4139 13.5413 20.5223 4.8254 32.9897 -2.8994
# 6 -9.2496 -28.7086 -13.3890 11.5272 -2.8994 46.1170
#
#
#
# Elastic Compliance Matrix: (Units=1/GPa)
#
#
# Indices 1 2 3 4 5 6 
#
# 1 0.023987 -0.006406 -0.012588 0.003739 -0.002365 -0.003915
# 2 -0.006406 0.010900 -0.001775 -0.006456 0.001349 0.006684
# 3 -0.012588 -0.001775 0.033292 -0.008682 -0.011793 0.007465
# 4 0.003739 -0.006456 -0.008682 0.027522 0.001057 -0.012602
# 5 -0.002365 0.001349 -0.011793 0.001057 0.038035 -0.000932
# 6 -0.003915 0.006684 0.007465 -0.012602 -0.000932 0.030318
#
#
# Mechanical properties :
#
#
# Convention : Reuss Voigt Hill
#
# Bulk Modulus (GPa) = 37.53479 74.13507 55.83493
# Shear Modulus (GPa) = 23.31334 37.16752 30.24043
#
# Velocity S-wave (km/s) = 3.15935 3.98912 3.59823
# Velocity P-wave (km/s) = 5.42024 7.27722 6.41627
#
# Compressibility (1/GPa) = 0.02664195
#
# Stress axis : x y z
#
# Youngs Moduli (GPa) = 41.69010 91.74620 30.03747
#
# Poissons Ratio (x) = 0.58771 0.37810
# Poissons Ratio (y) = 0.26706 0.05330
# Poissons Ratio (z) = 0.52478 0.16281
#
# Static dielectric constant tensor:
#      x y z
#    x 2.064950 0.123510 -0.048320 
#    y 0.123510 1.917820 0.002400 
#    z -0.048320 0.002400 1.961460 
# 
# From -- ./inp_files/251198.got.cif
#   From: 2010.05.17/outbox.cif.g08.bks.cpg/sg2_126_cif.got.tgz:251198.got - 2010.06.03 11:33:40.
