data_PCOD9062090
_publ_section_title
;
Structure prediction by ZEFSAII (Michael W. Deem and Ramdas Pophale) SiO2 
 PCOD9062090
Probable space group: P -1
;
_chemical_formula_sum "Si O2"
_cell_formula_units_Z 16
_cell_length_a 10.347317
_cell_length_b 19.046199
_cell_length_c 14.692976
_cell_angle_alpha 151.670304
_cell_angle_beta 32.327952
_cell_angle_gamma 129.577946
_cell_volume 666.758529
_symmetry_space_group_name_H-M "P -1"
_symmetry_group_IT_number 2
_symmetry_cell_setting 'triclinic'
loop_
_space_group_symop_operation_xyz
x,y,z
-x,-y,-z
loop_
_atom_site_type_symbol
_atom_site_label
_atom_site_fract_x
_atom_site_fract_y
_atom_site_fract_z
Si Si1 0.466769 0.432421 0.328577
Si Si2 0.028819 0.148531 0.700666
Si Si3 0.220904 0.217171 0.321897
Si Si4 0.604390 0.864160 0.679866
Si Si5 0.601544 0.806586 0.234567
Si Si6 0.710254 0.511761 0.707108
Si Si7 0.147624 0.781338 0.923377
Si Si8 0.835738 0.173300 0.349601
O O1 0.270339 0.358637 0.402727
O O2 0.432635 0.462230 0.274774
O O3 0.374320 0.611294 0.628382
O O4 0.767936 0.309777 0.021339
O O5 0.264801 0.177005 0.543725
O O6 0.023986 0.114055 0.770967
O O7 0.000000 0.000000 0.500000
O O8 0.196543 0.228070 0.459634
O O9 0.010020 0.183810 0.346170
O O10 0.505349 0.058861 0.968787
O O11 0.325798 0.848637 0.838211
O O12 0.446007 0.808817 0.422268
O O13 0.500000 0.000000 0.500000
O O14 0.557752 0.675266 0.045421
O O15 0.920561 0.744857 0.968924
O O16 0.763472 0.338476 0.523421
O O17 0.000000 0.500000 0.500000
O O18 0.000000 0.000000 0.000000
#
# Coordination Sequence:
#
# PCOD9062090 Si02
#       8
#     2   2   2   2   2   2   2   2
#     4  12  26  48  76 103 161 191 243 326 378 451
#     4  12  26  46  77 108 144 202 253 305 378 450
#     4  11  23  47  72 104 150 190 243 314 375 440
#     4  11  25  45  76 108 144 197 252 307 370 451
#     4  12  28  47  77 111 153 202 254 318 386 469
#     4  12  25  49  73 111 150 202 255 312 394 452
#     4  12  27  49  71 111 153 192 253 311 379 457
#     4  12  28  47  78 112 152 200 255 321 389 463
#
# _framework density 23.996691999999999
#
# number of rings (size 3 to 8) (size 9 to 14) (size 15 to 20)
#    0.000    0.250    5.000    3.000    7.000    0.500 
#    0.000    0.000    0.000    0.000    0.000    0.000 
#    0.000    0.000    0.000    0.000    0.000    0.000 
#
# Total GULP energy -89335.028158 kJ/mol
# GULP energy per Si atom -5583.439260 kJ/mol
# Density = 2.394207 g / cm^3
# Si number density = 23.996692 Si / 1000 Ang^3
#
#
#
# Elastic Constant Matrix: (Units=GPa)
#
#
# Indices 1 2 3 4 5 6 
#
# 1 105.5571 35.5068 18.3000 -16.1012 17.1841 -7.9528
# 2 35.5068 195.3739 60.0993 -9.2056 9.1314 -7.2372
# 3 18.3000 60.0993 124.4441 -7.3341 30.2139 -8.8107
# 4 -16.1012 -9.2056 -7.3341 58.9171 -2.6584 -9.5229
# 5 17.1841 9.1314 30.2139 -2.6584 41.2217 1.8600
# 6 -7.9528 -7.2372 -8.8107 -9.5229 1.8600 28.5846
#
#
#
# Elastic Compliance Matrix: (Units=1/GPa)
#
#
# Indices 1 2 3 4 5 6 
#
# 1 0.011641 -0.001832 0.000948 0.003521 -0.005121 0.004573
# 2 -0.001832 0.006369 -0.003207 0.000183 0.001712 0.000064
# 3 0.000948 -0.003207 0.011893 0.001531 -0.008492 0.004180
# 4 0.003521 0.000183 0.001531 0.019380 -0.001745 0.008068
# 5 -0.005121 0.001712 -0.008492 -0.001745 0.032410 -0.006299
# 6 0.004573 0.000064 0.004180 0.008068 -0.006299 0.040658
#
#
# Mechanical properties :
#
#
# Convention : Reuss Voigt Hill
#
# Bulk Modulus (GPa) = 46.04157 72.57639 59.30898
# Shear Modulus (GPa) = 36.29140 46.50927 41.40033
#
# Velocity S-wave (km/s) = 3.89311 4.40722 4.15812
# Velocity P-wave (km/s) = 6.27987 7.49721 6.91538
#
# Compressibility (1/GPa) = 0.02171950
#
# Stress axis : x y z
#
# Youngs Moduli (GPa) = 85.90401 157.01557 84.08354
#
# Poissons Ratio (x) = 0.28773 -0.07969
# Poissons Ratio (y) = 0.15742 0.26964
# Poissons Ratio (z) = -0.08141 0.50351
#
# Static dielectric constant tensor:
#      x y z
#    x 2.040480 -0.009240 -0.009120 
#    y -0.009240 1.932910 0.035900 
#    z -0.009120 0.035900 1.886380 
# 
# From -- ./inp_files/523464.got.cif
#   From: 2010.05.17/outbox.cif.g08.bks.cpg/sg2_262_cif.got.tgz:523464.got - 2010.06.03 11:33:40.
