data_PCOD9062184
_publ_section_title
;
Structure prediction by ZEFSAII (Michael W. Deem and Ramdas Pophale) SiO2 
 PCOD9062184
Probable space group: P -1
;
_chemical_formula_sum "Si O2"
_cell_formula_units_Z 14
_cell_length_a 14.522763
_cell_length_b 14.626438
_cell_length_c 11.484760
_cell_angle_alpha 140.452395
_cell_angle_beta 24.111893
_cell_angle_gamma 142.951857
_cell_volume 591.376722
_symmetry_space_group_name_H-M "P -1"
_symmetry_group_IT_number 2
_symmetry_cell_setting 'triclinic'
loop_
_space_group_symop_operation_xyz
x,y,z
-x,-y,-z
loop_
_atom_site_type_symbol
_atom_site_label
_atom_site_fract_x
_atom_site_fract_y
_atom_site_fract_z
Si Si1 0.568209 0.409273 0.202204
Si Si2 0.270368 0.175058 0.137269
Si Si3 0.446807 0.146325 0.251731
Si Si4 0.225070 0.378034 0.196004
Si Si5 0.664756 0.145507 0.211069
Si Si6 0.926652 0.755688 0.348820
Si Si7 0.998991 0.389467 0.222980
O O1 0.501592 0.309981 0.061291
O O2 0.615337 0.299908 0.137199
O O3 0.300727 0.409461 0.543882
O O4 0.786274 0.563221 0.073512
O O5 0.224989 0.226797 0.113617
O O6 0.059566 0.184539 0.476317
O O7 0.318789 0.018109 0.938980
O O8 0.197376 0.142602 0.479276
O O9 0.427162 0.138195 0.407146
O O10 0.500000 0.000000 0.000000
O O11 0.106914 0.348839 0.176396
O O12 0.073362 0.462374 0.525177
O O13 0.500000 0.500000 0.000000
O O14 0.842982 0.222144 0.971430
O O15 0.762999 0.256692 0.315057
#
# Coordination Sequence:
#
# PCOD9062184 Si02
#       7
#     2   2   2   2   2   2   2
#     4   8  19  37  56  93 117 169 194 222 306 374
#     4   9  20  38  67  85 120 168 199 236 303 364
#     4   9  18  33  56  84 130 161 190 227 294 361
#     4  11  23  48  66  78 119 167 208 253 314 361
#     4  12  21  38  61 100 126 151 203 256 288 360
#     4   8  20  34  59  89 129 161 194 223 305 371
#     4  11  26  39  65  93 115 157 215 257 299 351
#
# _framework density 23.673573999999999
#
# number of rings (size 3 to 8) (size 9 to 14) (size 15 to 20)
#    1.714    0.286    4.286    0.429    2.000    2.857 
#    0.000    0.714    0.000    0.000    0.000    0.000 
#    0.000    0.000    0.000    0.000    0.000    0.000 
#
# Total GULP energy -78042.919691 kJ/mol
# GULP energy per Si atom -5574.494264 kJ/mol
# Density = 2.361969 g / cm^3
# Si number density = 23.673574 Si / 1000 Ang^3
#
#
#
# Elastic Constant Matrix: (Units=GPa)
#
#
# Indices 1 2 3 4 5 6 
#
# 1 163.5821 43.6284 -7.6108 22.1286 3.5092 -20.6495
# 2 43.6284 65.4966 5.7616 10.2024 4.9365 -5.9831
# 3 -7.6108 5.7616 22.6484 -2.3295 6.1838 -6.4897
# 4 22.1286 10.2024 -2.3295 26.9317 2.1177 2.6524
# 5 3.5092 4.9365 6.1838 2.1177 18.0350 7.8249
# 6 -20.6495 -5.9831 -6.4897 2.6524 7.8249 37.3410
#
#
#
# Elastic Compliance Matrix: (Units=1/GPa)
#
#
# Indices 1 2 3 4 5 6 
#
# 1 0.009655 -0.005123 0.007646 -0.005618 -0.005663 0.007433
# 2 -0.005123 0.019973 -0.006820 -0.003800 -0.001592 -0.000214
# 3 0.007646 -0.006820 0.062684 0.002103 -0.030122 0.020192
# 4 -0.005618 -0.003800 0.002103 0.044067 -0.001046 -0.006261
# 5 -0.005663 -0.001592 -0.030122 -0.001046 0.078260 -0.024947
# 6 0.007433 -0.000214 0.020192 -0.006261 -0.024947 0.040038
#
#
# Mechanical properties :
#
#
# Convention : Reuss Voigt Hill
#
# Bulk Modulus (GPa) = 11.94488 37.25395 24.59941
# Shear Modulus (GPa) = 17.17165 30.45805 23.81485
#
# Velocity S-wave (km/s) = 2.69616 3.59079 3.17514
# Velocity P-wave (km/s) = 3.84044 5.74129 4.88423
#
# Compressibility (1/GPa) = 0.08371790
#
# Stress axis : x y z
#
# Youngs Moduli (GPa) = 103.57420 50.06799 15.95299
#
# Poissons Ratio (x) = 0.25650 -0.12198
# Poissons Ratio (y) = 0.53061 0.10880
# Poissons Ratio (z) = -0.79193 0.34147
#
# Static dielectric constant tensor:
#      x y z
#    x 2.097570 0.170940 -0.110170 
#    y 0.170940 2.010420 -0.136360 
#    z -0.110170 -0.136360 2.040300 
# 
# From -- ./inp_files/454032.got.cif
#   From: 2010.05.17/outbox.cif.g08.bks.cpg/sg2_228_cif.got.tgz:454032.got - 2010.06.03 11:33:40.
