data_PCOD9062329
_publ_section_title
;
Structure prediction by ZEFSAII (Michael W. Deem and Ramdas Pophale) SiO2 
 PCOD9062329
Probable space group: P -1
;
_chemical_formula_sum "Si O2"
_cell_formula_units_Z 16
_cell_length_a 19.216228
_cell_length_b 16.722600
_cell_length_c 7.618932
_cell_angle_alpha 122.773116
_cell_angle_beta 48.097885
_cell_angle_gamma 158.006645
_cell_volume 655.203717
_symmetry_space_group_name_H-M "P -1"
_symmetry_group_IT_number 2
_symmetry_cell_setting 'triclinic'
loop_
_space_group_symop_operation_xyz
x,y,z
-x,-y,-z
loop_
_atom_site_type_symbol
_atom_site_label
_atom_site_fract_x
_atom_site_fract_y
_atom_site_fract_z
Si Si1 0.024126 0.643707 0.316489
Si Si2 0.884601 0.117534 0.084370
Si Si3 0.080472 0.176768 0.514366
Si Si4 0.449806 0.379442 0.598105
Si Si5 0.851349 0.750625 0.907184
Si Si6 0.443401 0.156162 0.221814
Si Si7 0.431544 0.683436 0.188496
Si Si8 0.913570 0.514029 0.943291
O O1 0.793224 0.475133 0.561952
O O2 0.056343 0.568315 0.250862
O O3 0.011905 0.620165 0.098035
O O4 0.226286 0.897741 0.323993
O O5 0.009391 0.171686 0.084263
O O6 0.965056 0.299933 0.167418
O O7 0.624256 0.868812 0.225914
O O8 0.966086 0.147997 0.797904
O O9 0.338979 0.422691 0.398821
O O10 0.037183 0.149900 0.351370
O O11 0.000000 0.000000 0.500000
O O12 0.500000 0.500000 0.500000
O O13 0.237382 0.226885 0.868762
O O14 0.632364 0.484096 0.942122
O O15 0.432620 0.256495 0.413690
O O16 0.485040 0.193399 0.986131
O O17 0.658638 0.307682 0.125253
#
# Coordination Sequence:
#
# PCOD9062329 Si02
#       8
#     2   2   2   2   2   2   2   2
#     4  11  28  48  80 112 157 212 262 334 410 471
#     4  12  25  51  78 114 165 205 267 337 385 480
#     4  12  27  49  78 112 163 211 263 330 390 473
#     4  12  23  49  76 116 159 209 264 324 395 480
#     4  12  27  51  77 118 158 215 262 320 403 469
#     4  12  25  51  79 111 166 203 265 334 398 472
#     4  12  26  48  76 114 154 209 263 321 402 472
#     4  11  23  53  77 115 155 205 268 331 407 472
#
# _framework density 24.419886999999999
#
# number of rings (size 3 to 8) (size 9 to 14) (size 15 to 20)
#    0.000    0.250    6.250    2.250    0.000    2.500 
#    6.750    0.000    0.000    0.000    0.000    0.000 
#    0.000    0.000    0.000    0.000    0.000    0.000 
#
# Total GULP energy -89885.315724 kJ/mol
# GULP energy per Si atom -5617.832233 kJ/mol
# Density = 2.436431 g / cm^3
# Si number density = 24.419887 Si / 1000 Ang^3
#
#
#
# Elastic Constant Matrix: (Units=GPa)
#
#
# Indices 1 2 3 4 5 6 
#
# 1 106.2591 78.8489 32.1450 -2.2022 -11.4210 -7.5759
# 2 78.8489 194.9627 52.5618 -14.8131 -29.3656 -0.4799
# 3 32.1450 52.5618 91.9953 -4.6747 -6.4512 -8.3549
# 4 -2.2022 -14.8131 -4.6747 41.8535 1.7236 -11.4579
# 5 -11.4210 -29.3656 -6.4512 1.7236 51.0713 -1.4559
# 6 -7.5759 -0.4799 -8.3549 -11.4579 -1.4559 53.6401
#
#
#
# Elastic Compliance Matrix: (Units=1/GPa)
#
#
# Indices 1 2 3 4 5 6 
#
# 1 0.013900 -0.005209 -0.001800 -0.000917 -0.000042 0.001439
# 2 -0.005209 0.008674 -0.002837 0.002192 0.003375 -0.000540
# 3 -0.001800 -0.002837 0.013326 0.000948 -0.000326 0.001990
# 4 -0.000917 0.002192 0.000948 0.026257 0.000450 0.005659
# 5 -0.000042 0.003375 -0.000326 0.000450 0.021474 0.000653
# 6 0.001439 -0.000540 0.001990 0.005659 0.000653 0.020378
#
#
# Mechanical properties :
#
#
# Convention : Reuss Voigt Hill
#
# Bulk Modulus (GPa) = 61.69413 80.03650 70.86532
# Shear Modulus (GPa) = 38.72916 44.62372 41.67644
#
# Velocity S-wave (km/s) = 3.98674 4.27939 4.13566
# Velocity P-wave (km/s) = 6.81989 7.56729 7.20329
#
# Compressibility (1/GPa) = 0.01620900
#
# Stress axis : x y z
#
# Youngs Moduli (GPa) = 71.94486 115.28456 75.04191
#
# Poissons Ratio (x) = 0.60048 0.13505
# Poissons Ratio (y) = 0.37474 0.21289
# Poissons Ratio (z) = 0.12947 0.32706
#
# Static dielectric constant tensor:
#      x y z
#    x 1.928570 0.012150 0.025510 
#    y 0.012150 1.955550 -0.001850 
#    z 0.025510 -0.001850 1.936690 
# 
# From -- ./inp_files/348506.got.cif
#   From: 2010.05.17/outbox.cif.g08.bks.cpg/sg2_175_cif.got.tgz:348506.got - 2010.06.03 11:33:40.
