data_PCOD9062744
_publ_section_title
;
Structure prediction by ZEFSAII (Michael W. Deem and Ramdas Pophale) SiO2 
 PCOD9062744
Probable space group: P -1
;
_chemical_formula_sum "Si O2"
_cell_formula_units_Z 14
_cell_length_a 11.353697
_cell_length_b 9.626000
_cell_length_c 9.756848
_cell_angle_alpha 40.767721
_cell_angle_beta 79.085982
_cell_angle_gamma 81.759381
_cell_volume 683.714290
_symmetry_space_group_name_H-M "P -1"
_symmetry_group_IT_number 2
_symmetry_cell_setting 'triclinic'
loop_
_space_group_symop_operation_xyz
x,y,z
-x,-y,-z
loop_
_atom_site_type_symbol
_atom_site_label
_atom_site_fract_x
_atom_site_fract_y
_atom_site_fract_z
Si Si1 0.982575 0.953892 0.198006
Si Si2 0.539505 0.313489 0.026733
Si Si3 0.180497 0.676474 0.496699
Si Si4 0.605315 0.528981 0.564953
Si Si5 0.902069 0.627182 0.012161
Si Si6 0.704870 0.899551 0.712893
Si Si7 0.292483 0.049497 0.652316
O O1 0.843925 0.927761 0.285356
O O2 0.063539 0.759124 0.379581
O O3 0.000000 0.000000 0.000000
O O4 0.033301 0.161194 0.107483
O O5 0.427016 0.153567 0.163903
O O6 0.652637 0.181029 0.155694
O O7 0.500000 0.500000 0.000000
O O8 0.569560 0.409504 0.801230
O O9 0.274387 0.568991 0.453550
O O10 0.144275 0.513266 0.746087
O O11 0.243387 0.882186 0.398879
O O12 0.500000 0.500000 0.500000
O O13 0.630660 0.772397 0.418587
O O14 0.791745 0.708316 0.883777
O O15 0.000000 0.500000 0.000000
O O16 0.701038 0.913230 0.539580
#
# Coordination Sequence:
#
# PCOD9062744 Si02
#       7
#     2   2   2   2   2   2   2
#     4  11  25  43  66 100 137 177 227 277 338 407
#     4  12  27  44  70 100 134 180 231 282 337 402
#     4  11  25  44  69 101 142 178 223 286 338 400
#     4  12  27  45  71 102 137 181 226 283 345 397
#     4  11  24  42  69  99 136 180 226 277 338 401
#     4  11  25  43  69 100 136 177 229 278 336 406
#     4  12  26  44  71 100 136 179 231 277 337 411
#
# _framework density 20.476388
#
# number of rings (size 3 to 8) (size 9 to 14) (size 15 to 20)
#    0.000    0.571    1.429    5.571    6.000   11.429 
#    0.000    0.000    0.000    0.000    0.000    0.000 
#    0.000    0.000    0.000    0.000    0.000    0.000 
#
# Total GULP energy -78413.146035 kJ/mol
# GULP energy per Si atom -5600.939002 kJ/mol
# Density = 2.042978 g / cm^3
# Si number density = 20.476388 Si / 1000 Ang^3
#
#
#
# Elastic Constant Matrix: (Units=GPa)
#
#
# Indices 1 2 3 4 5 6 
#
# 1 124.6392 44.4698 64.7129 5.5874 11.6948 -16.7372
# 2 44.4698 118.4301 62.2109 16.2862 17.5760 -17.1010
# 3 64.7129 62.2109 164.0506 21.5541 12.4061 -16.7011
# 4 5.5874 16.2862 21.5541 35.7875 -5.9004 -6.9160
# 5 11.6948 17.5760 12.4061 -5.9004 47.9544 -0.3609
# 6 -16.7372 -17.1010 -16.7011 -6.9160 -0.3609 41.9937
#
#
#
# Elastic Compliance Matrix: (Units=1/GPa)
#
#
# Indices 1 2 3 4 5 6 
#
# 1 0.010847 -0.002038 -0.003415 0.001622 -0.000797 0.002395
# 2 -0.002038 0.012044 -0.002771 -0.003636 -0.003630 0.002360
# 3 -0.003415 -0.002771 0.009112 -0.003755 -0.000967 0.000508
# 4 0.001622 -0.003636 -0.003755 0.033216 0.006020 0.003194
# 5 -0.000797 -0.003630 -0.000967 0.006020 0.023361 -0.000989
# 6 0.002395 0.002360 0.000508 0.003194 -0.000989 0.026449
#
#
# Mechanical properties :
#
#
# Convention : Reuss Voigt Hill
#
# Bulk Modulus (GPa) = 64.28631 83.32300 73.80466
# Shear Modulus (GPa) = 36.58673 40.86221 38.72447
#
# Velocity S-wave (km/s) = 4.23161 4.47203 4.35348
# Velocity P-wave (km/s) = 7.43901 8.21255 7.83533
#
# Compressibility (1/GPa) = 0.01555541
#
# Stress axis : x y z
#
# Youngs Moduli (GPa) = 92.19034 83.02724 109.74886
#
# Poissons Ratio (x) = 0.16921 0.37479
# Poissons Ratio (y) = 0.18788 0.30410
# Poissons Ratio (z) = 0.31483 0.23006
#
# Static dielectric constant tensor:
#      x y z
#    x 1.718350 0.010880 0.012040 
#    y 0.010880 1.694480 -0.024960 
#    z 0.012040 -0.024960 1.692640 
# 
# From -- ./inp_files/24819.got.cif
#   From: 2010.05.17/outbox.cif.g08.bks.cpg/sg2_13_cif.got.tgz:24819.got - 2010.06.03 11:33:40.
