data_PCOD9062656
_publ_section_title
;
Structure prediction by ZEFSAII (Michael W. Deem and Ramdas Pophale) SiO2 
 PCOD9062656
Probable space group: P -1
;
_chemical_formula_sum "Si O2"
_cell_formula_units_Z 14
_cell_length_a 21.698256
_cell_length_b 13.377641
_cell_length_c 13.060829
_cell_angle_alpha 144.883312
_cell_angle_beta 25.430077
_cell_angle_gamma 157.585465
_cell_volume 617.438824
_symmetry_space_group_name_H-M "P -1"
_symmetry_group_IT_number 2
_symmetry_cell_setting 'triclinic'
loop_
_space_group_symop_operation_xyz
x,y,z
-x,-y,-z
loop_
_atom_site_type_symbol
_atom_site_label
_atom_site_fract_x
_atom_site_fract_y
_atom_site_fract_z
Si Si1 0.227398 0.458737 0.343319
Si Si2 0.956862 0.332902 0.830291
Si Si3 0.692314 0.797723 0.876242
Si Si4 0.378998 0.393925 0.389467
Si Si5 0.787481 0.011306 0.549016
Si Si6 0.821232 0.733619 0.108313
Si Si7 0.338299 0.675460 0.845909
O O1 0.241428 0.262187 0.178336
O O2 0.149585 0.483273 0.584450
O O3 0.476770 0.717897 0.153424
O O4 0.029040 0.311537 0.437788
O O5 0.885717 0.092533 0.792651
O O6 0.761716 0.242733 0.982148
O O7 0.000000 0.500000 0.000000
O O8 0.640983 0.616193 0.709809
O O9 0.232847 0.100963 0.404318
O O10 0.617637 0.538183 0.175784
O O11 0.353291 0.546936 0.622401
O O12 0.768907 0.824515 0.350430
O O13 0.574215 0.917188 0.748854
O O14 0.824913 0.556971 0.018229
O O15 0.000000 0.000000 0.000000
#
# Coordination Sequence:
#
# PCOD9062656 Si02
#       7
#     2   2   2   2   2   2   2
#     4  11  24  42  66  93 119 165 219 258 302 374
#     4  12  26  43  64  89 132 170 199 258 330 361
#     4  11  24  42  66  91 121 164 220 259 298 375
#     4   9  17  37  62  87 119 162 211 246 300 368
#     4   9  18  36  64  88 120 160 208 251 304 368
#     4   9  17  32  59  93 123 160 208 251 299 363
#     4   9  21  38  61  96 128 162 203 254 310 382
#
# _framework density 22.674312
#
# number of rings (size 3 to 8) (size 9 to 14) (size 15 to 20)
#    0.000    2.000    1.429    3.857    4.000    1.143 
#    5.143    0.714    0.000    0.000    0.000    0.000 
#    0.000    0.000    0.000    0.000    0.000    0.000 
#
# Total GULP energy -78016.785613 kJ/mol
# GULP energy per Si atom -5572.627544 kJ/mol
# Density = 2.262270 g / cm^3
# Si number density = 22.674312 Si / 1000 Ang^3
#
#
#
# Elastic Constant Matrix: (Units=GPa)
#
#
# Indices 1 2 3 4 5 6 
#
# 1 65.0121 5.4316 21.1866 -0.8159 -11.7625 4.6516
# 2 5.4316 41.3044 18.1128 -7.3094 9.9297 8.7136
# 3 21.1866 18.1128 102.8458 -8.5546 3.8882 10.7115
# 4 -0.8159 -7.3094 -8.5546 38.8956 -3.1661 1.2360
# 5 -11.7625 9.9297 3.8882 -3.1661 26.9096 1.7484
# 6 4.6516 8.7136 10.7115 1.2360 1.7484 32.6799
#
#
#
# Elastic Compliance Matrix: (Units=1/GPa)
#
#
# Indices 1 2 3 4 5 6 
#
# 1 0.018665 -0.003026 -0.003570 -0.000122 0.009855 -0.001202
# 2 -0.003026 0.030889 -0.003382 0.004275 -0.011323 -0.006253
# 3 -0.003570 -0.003382 0.011506 0.001763 -0.001615 -0.002342
# 4 -0.000122 0.004275 0.001763 0.027108 0.001486 -0.002805
# 5 0.009855 -0.011323 -0.001615 0.001486 0.046080 -0.000376
# 6 -0.001202 -0.006253 -0.002342 -0.002805 -0.000376 0.033332
#
#
# Mechanical properties :
#
#
# Convention : Reuss Voigt Hill
#
# Bulk Modulus (GPa) = 24.32795 33.18049 28.75422
# Shear Modulus (GPa) = 24.84618 30.65911 27.75265
#
# Velocity S-wave (km/s) = 3.31386 3.68115 3.50232
# Velocity P-wave (km/s) = 5.03932 5.72129 5.39110
#
# Compressibility (1/GPa) = 0.04110499
#
# Stress axis : x y z
#
# Youngs Moduli (GPa) = 53.57478 32.37392 86.91219
#
# Poissons Ratio (x) = 0.09797 0.31025
# Poissons Ratio (y) = 0.16213 0.29392
# Poissons Ratio (z) = 0.19124 0.10948
#
# Static dielectric constant tensor:
#      x y z
#    x 1.919430 -0.056550 0.028950 
#    y -0.056550 1.908340 -0.081110 
#    z 0.028950 -0.081110 1.891050 
# 
# From -- ./inp_files/259233.got.cif
#   From: 2010.05.17/outbox.cif.g08.bks.cpg/sg2_130_cif.got.tgz:259233.got - 2010.06.03 11:33:40.
