data_PCOD9062698
_publ_section_title
;
Structure prediction by ZEFSAII (Michael W. Deem and Ramdas Pophale) SiO2 
 PCOD9062698
Probable space group: P -1
;
_chemical_formula_sum "Si O2"
_cell_formula_units_Z 10
_cell_length_a 7.480038
_cell_length_b 14.913400
_cell_length_c 5.420561
_cell_angle_alpha 87.081125
_cell_angle_beta 114.751706
_cell_angle_gamma 53.544155
_cell_volume 402.778581
_symmetry_space_group_name_H-M "P -1"
_symmetry_group_IT_number 2
_symmetry_cell_setting 'triclinic'
loop_
_space_group_symop_operation_xyz
x,y,z
-x,-y,-z
loop_
_atom_site_type_symbol
_atom_site_label
_atom_site_fract_x
_atom_site_fract_y
_atom_site_fract_z
Si Si1 0.301323 0.219125 0.424250
Si Si2 0.805484 0.122703 0.522886
Si Si3 0.232463 0.455152 0.391194
Si Si4 0.778371 0.861545 0.119757
Si Si5 0.379725 0.378348 0.989783
O O1 0.187479 0.208287 0.603180
O O2 0.234241 0.345463 0.377224
O O3 0.228538 0.190709 0.133010
O O4 0.081219 0.426297 0.786849
O O5 0.625951 0.121627 0.609546
O O6 0.978196 0.144600 0.751916
O O7 0.603577 0.235474 0.199046
O O8 0.000000 0.000000 0.500000
O O9 0.401768 0.421240 0.737126
O O10 0.359739 0.446921 0.209953
O O11 0.500000 0.000000 0.000000
#
# Coordination Sequence:
#
# PCOD9062698 Si02
#       5
#     2   2   2   2   2
#     4  11  24  44  64  94 127 170 210 263 320 369
#     4  11  24  42  68  94 131 171 211 260 323 375
#     4   9  18  37  66  86 127 162 208 259 315 366
#     4  12  26  42  62  97 130 166 216 259 311 391
#     4   9  19  37  60  97 118 165 213 253 309 383
#
# _framework density 24.827535999999998
#
# number of rings (size 3 to 8) (size 9 to 14) (size 15 to 20)
#    0.000    1.600    2.000    3.000    0.000    5.600 
#    0.000    2.000    0.000    0.000    0.000    0.000 
#    0.000    0.000    0.000    0.000    0.000    0.000 
#
# Total GULP energy -55924.636422 kJ/mol
# GULP energy per Si atom -5592.463642 kJ/mol
# Density = 2.477103 g / cm^3
# Si number density = 24.827536 Si / 1000 Ang^3
#
#
#
# Elastic Constant Matrix: (Units=GPa)
#
#
# Indices 1 2 3 4 5 6 
#
# 1 81.6667 32.2659 36.8056 38.0319 7.1752 12.5059
# 2 32.2659 129.6913 56.6393 17.7883 10.9317 -11.6846
# 3 36.8056 56.6393 151.0106 32.5154 -16.9801 -7.5359
# 4 38.0319 17.7883 32.5154 65.9636 -19.9831 3.4466
# 5 7.1752 10.9317 -16.9801 -19.9831 31.9626 3.7444
# 6 12.5059 -11.6846 -7.5359 3.4466 3.7444 33.9339
#
#
#
# Elastic Compliance Matrix: (Units=1/GPa)
#
#
# Indices 1 2 3 4 5 6 
#
# 1 0.025135 -0.001229 -0.004319 -0.016891 -0.017254 -0.007026
# 2 -0.001229 0.011275 -0.003946 -0.003105 -0.008165 0.004675
# 3 -0.004319 -0.003946 0.009910 0.001037 0.008063 0.001439
# 4 -0.016891 -0.003105 0.001037 0.033235 0.026287 -0.000890
# 5 -0.017254 -0.008165 0.008063 0.026287 0.059122 -0.003856
# 6 -0.007026 0.004675 0.001439 -0.000890 -0.003856 0.034504
#
#
# Mechanical properties :
#
#
# Convention : Reuss Voigt Hill
#
# Bulk Modulus (GPa) = 36.58639 68.19893 52.39266
# Shear Modulus (GPa) = 24.84125 42.14923 33.49524
#
# Velocity S-wave (km/s) = 3.16658 4.12476 3.67702
# Velocity P-wave (km/s) = 5.30451 7.08615 6.25905
#
# Compressibility (1/GPa) = 0.02733256
#
# Stress axis : x y z
#
# Youngs Moduli (GPa) = 39.78537 88.69293 100.91094
#
# Poissons Ratio (x) = 0.10901 0.43581
# Poissons Ratio (y) = 0.04890 0.39815
# Poissons Ratio (z) = 0.17182 0.34994
#
# Static dielectric constant tensor:
#      x y z
#    x 1.964510 -0.040110 -0.045840 
#    y -0.040110 2.000480 0.017560 
#    z -0.045840 0.017560 2.064010 
# 
# From -- ./inp_files/20990.got.cif
#   From: 2010.05.17/outbox.cif.g08.bks.cpg/sg2_11_cif.got.tgz:20990.got - 2010.06.03 11:33:40.
