data_PCOD9062606
_publ_section_title
;
Structure prediction by ZEFSAII (Michael W. Deem and Ramdas Pophale) SiO2 
 PCOD9062606
Probable space group: P -1
;
_chemical_formula_sum "Si O2"
_cell_formula_units_Z 14
_cell_length_a 11.878950
_cell_length_b 9.171650
_cell_length_c 17.779919
_cell_angle_alpha 51.897984
_cell_angle_beta 150.213543
_cell_angle_gamma 136.376761
_cell_volume 663.548239
_symmetry_space_group_name_H-M "P -1"
_symmetry_group_IT_number 2
_symmetry_cell_setting 'triclinic'
loop_
_space_group_symop_operation_xyz
x,y,z
-x,-y,-z
loop_
_atom_site_type_symbol
_atom_site_label
_atom_site_fract_x
_atom_site_fract_y
_atom_site_fract_z
Si Si1 0.331416 0.852908 0.591530
Si Si2 0.131492 0.505710 0.479247
Si Si3 0.714812 0.814185 0.373356
Si Si4 0.494814 0.962938 0.918479
Si Si5 0.565384 0.309219 0.603119
Si Si6 0.749369 0.893219 0.944994
Si Si7 0.138705 0.472900 0.826395
O O1 0.342983 0.721135 0.569708
O O2 0.517897 0.859147 0.764937
O O3 0.040160 0.688763 0.501827
O O4 0.389262 0.087305 0.528230
O O5 0.274663 0.401671 0.551201
O O6 0.937269 0.539820 0.301685
O O7 0.507799 0.778961 0.327486
O O8 0.625263 0.890562 0.225406
O O9 0.000000 0.000000 0.500000
O O10 0.722147 0.997836 0.976144
O O11 0.303733 0.715244 0.869816
O O12 0.500000 0.000000 0.000000
O O13 0.500000 0.500000 0.500000
O O14 0.859879 0.381977 0.733053
O O15 0.736292 0.672933 0.032998
O O16 0.000000 0.000000 0.000000
#
# Coordination Sequence:
#
# PCOD9062606 Si02
#       7
#     2   2   2   2   2   2   2
#     4  11  24  44  69 101 134 185 238 286 353 419
#     4  11  24  41  72  99 133 182 239 292 346 418
#     4  12  20  45  67  93 137 182 230 292 349 404
#     4  12  27  45  70 102 138 187 241 290 350 424
#     4  12  22  42  70 101 139 182 229 294 359 415
#     4  12  24  49  69  96 145 188 227 294 356 423
#     4  12  24  44  66 100 138 187 228 292 360 419
#
# _framework density 21.098690000000001
#
# number of rings (size 3 to 8) (size 9 to 14) (size 15 to 20)
#    0.000    0.286    8.571    0.429    2.000    1.714 
#    2.571    1.429    0.000    0.000    0.000    0.000 
#    0.000    0.000    0.000    0.000    0.000    0.000 
#
# Total GULP energy -77946.611609 kJ/mol
# GULP energy per Si atom -5567.615115 kJ/mol
# Density = 2.105067 g / cm^3
# Si number density = 21.098690 Si / 1000 Ang^3
#
#
#
# Elastic Constant Matrix: (Units=GPa)
#
#
# Indices 1 2 3 4 5 6 
#
# 1 104.3157 32.1165 22.8556 11.1639 -10.1599 3.9491
# 2 32.1165 134.5563 41.1838 -16.9902 -5.1968 -19.7690
# 3 22.8556 41.1838 74.5601 -27.2528 -18.2385 -11.5301
# 4 11.1639 -16.9902 -27.2528 33.8988 3.1992 6.4381
# 5 -10.1599 -5.1968 -18.2385 3.1992 36.5300 5.2777
# 6 3.9491 -19.7690 -11.5301 6.4381 5.2777 47.8008
#
#
#
# Elastic Compliance Matrix: (Units=1/GPa)
#
#
# Indices 1 2 3 4 5 6 
#
# 1 0.013231 -0.002855 -0.006406 -0.010585 0.001370 -0.002545
# 2 -0.002855 0.009970 -0.003649 0.002548 -0.001904 0.003346
# 3 -0.006406 -0.003649 0.027802 0.021399 0.009446 0.001801
# 4 -0.010585 0.002548 0.021399 0.051160 0.003651 -0.000204
# 5 0.001370 -0.001904 0.009446 0.003651 0.032268 -0.002677
# 6 -0.002545 0.003346 0.001801 -0.000204 -0.002677 0.023272
#
#
# Mechanical properties :
#
#
# Convention : Reuss Voigt Hill
#
# Bulk Modulus (GPa) = 39.70909 56.19378 47.95143
# Shear Modulus (GPa) = 26.05294 38.13099 32.09197
#
# Velocity S-wave (km/s) = 3.51780 4.25581 3.90428
# Velocity P-wave (km/s) = 5.94655 7.13027 6.56514
#
# Compressibility (1/GPa) = 0.02518315
#
# Stress axis : x y z
#
# Youngs Moduli (GPa) = 75.57783 100.30285 35.96875
#
# Poissons Ratio (x) = 0.28635 0.23043
# Poissons Ratio (y) = 0.21576 0.13124
# Poissons Ratio (z) = 0.48418 0.36599
#
# Static dielectric constant tensor:
#      x y z
#    x 1.888220 0.050310 -0.021910 
#    y 0.050310 1.753660 0.000110 
#    z -0.021910 0.000110 1.734590 
# 
# From -- ./inp_files/153888.got.cif
#   From: 2010.05.17/outbox.cif.g08.bks.cpg/sg2_77_cif.got.tgz:153888.got - 2010.06.03 11:33:40.
