data_PCOD9062856
_publ_section_title
;
Structure prediction by ZEFSAII (Michael W. Deem and Ramdas Pophale) SiO2 
 PCOD9062856
Probable space group: P -1
;
_chemical_formula_sum "Si O2"
_cell_formula_units_Z 16
_cell_length_a 10.425104
_cell_length_b 16.288205
_cell_length_c 18.663645
_cell_angle_alpha 156.955575
_cell_angle_beta 145.877060
_cell_angle_gamma 45.426145
_cell_volume 669.486727
_symmetry_space_group_name_H-M "P -1"
_symmetry_group_IT_number 2
_symmetry_cell_setting 'triclinic'
loop_
_space_group_symop_operation_xyz
x,y,z
-x,-y,-z
loop_
_atom_site_type_symbol
_atom_site_label
_atom_site_fract_x
_atom_site_fract_y
_atom_site_fract_z
Si Si1 0.255808 0.608271 0.741343
Si Si2 0.604255 0.434081 0.669339
Si Si3 0.695352 0.870561 0.965018
Si Si4 0.603184 0.359126 0.878873
Si Si5 0.811074 0.015549 0.672710
Si Si6 0.889519 0.170893 0.673480
Si Si7 0.661168 0.748372 0.137919
Si Si8 0.241424 0.079376 0.124681
O O1 0.419964 0.479308 0.677232
O O2 0.000000 0.500000 0.500000
O O3 0.380922 0.650219 0.912303
O O4 0.294991 0.860610 0.945170
O O5 0.667744 0.651018 0.823536
O O6 0.802919 0.362449 0.749533
O O7 0.454068 0.227821 0.388664
O O8 0.738307 0.801429 0.847411
O O9 0.949157 0.034802 0.234518
O O10 0.500000 0.000000 0.000000
O O11 0.742029 0.188505 0.832803
O O12 0.395975 0.201432 0.609405
O O13 0.500000 0.500000 0.000000
O O14 0.754843 0.554735 0.058688
O O15 0.846351 0.137968 0.710942
O O16 0.163193 0.177410 0.788750
O O17 0.725648 0.950462 0.383705
O O18 0.000000 0.000000 0.000000
#
# Coordination Sequence:
#
# PCOD9062856 Si02
#       8
#     2   2   2   2   2   2   2   2
#     4  12  25  44  72 107 142 196 248 301 365 442
#     4  12  25  48  77 104 151 193 251 314 373 445
#     4  12  28  49  75 110 154 199 250 313 378 447
#     4  11  24  46  69 105 144 187 242 303 373 432
#     4  11  26  47  75 107 150 194 248 305 373 449
#     4  11  24  46  75 111 142 195 245 306 374 440
#     4  11  24  42  74 105 146 187 245 304 364 445
#     4  12  27  49  73 108 148 199 255 300 373 450
#
# _framework density 23.898903000000001
#
# number of rings (size 3 to 8) (size 9 to 14) (size 15 to 20)
#    0.000    0.500    5.000    2.625    1.750    4.500 
#    4.500    0.000    0.000    0.000    0.000    0.000 
#    0.000    0.000    0.000    0.000    0.000    0.000 
#
# Total GULP energy -89201.171407 kJ/mol
# GULP energy per Si atom -5575.073213 kJ/mol
# Density = 2.384451 g / cm^3
# Si number density = 23.898903 Si / 1000 Ang^3
#
#
#
# Elastic Constant Matrix: (Units=GPa)
#
#
# Indices 1 2 3 4 5 6 
#
# 1 109.3531 29.7032 18.3190 -12.3645 -7.1639 -7.4974
# 2 29.7032 107.8778 40.1914 -11.8331 -1.0900 -18.7537
# 3 18.3190 40.1914 113.0718 -6.7813 -20.6519 -17.9420
# 4 -12.3645 -11.8331 -6.7813 51.9570 -1.9544 5.2007
# 5 -7.1639 -1.0900 -20.6519 -1.9544 33.8204 1.2185
# 6 -7.4974 -18.7537 -17.9420 5.2007 1.2185 40.3305
#
#
#
# Elastic Compliance Matrix: (Units=1/GPa)
#
#
# Indices 1 2 3 4 5 6 
#
# 1 0.010217 -0.002431 -0.000252 0.001886 0.002028 0.000353
# 2 -0.002431 0.012025 -0.003713 0.001243 -0.002445 0.003402
# 3 -0.000252 -0.003713 0.012063 0.000606 0.007109 0.003300
# 4 0.001886 0.001243 0.000606 0.020282 0.002035 -0.001479
# 5 0.002028 -0.002445 0.007109 0.002035 0.034338 0.001103
# 6 0.000353 0.003402 0.003300 -0.001479 0.001103 0.028068
#
#
# Mechanical properties :
#
#
# Convention : Reuss Voigt Hill
#
# Bulk Modulus (GPa) = 46.47954 56.30333 51.39143
# Shear Modulus (GPa) = 36.50797 41.36085 38.93441
#
# Velocity S-wave (km/s) = 3.91269 4.16463 4.04063
# Velocity P-wave (km/s) = 6.31687 6.83635 6.58174
#
# Compressibility (1/GPa) = 0.02151484
#
# Stress axis : x y z
#
# Youngs Moduli (GPa) = 97.87174 83.15757 82.89858
#
# Poissons Ratio (x) = 0.20214 0.02087
# Poissons Ratio (y) = 0.23791 0.30779
# Poissons Ratio (z) = 0.02464 0.30875
#
# Static dielectric constant tensor:
#      x y z
#    x 2.104850 0.122530 -0.034740 
#    y 0.122530 2.061540 -0.056450 
#    z -0.034740 -0.056450 1.964690 
# 
# From -- ./inp_files/596093.got.cif
#   From: 2010.05.17/outbox.cif.g08.bks.cpg/sg2_299_cif.got.tgz:596093.got - 2010.06.03 11:33:40.
