data_PCOD9062833
_publ_section_title
;
Structure prediction by ZEFSAII (Michael W. Deem and Ramdas Pophale) SiO2 
 PCOD9062833
Probable space group: P -1
;
_chemical_formula_sum "Si O2"
_cell_formula_units_Z 14
_cell_length_a 25.407453
_cell_length_b 25.806608
_cell_length_c 13.776824
_cell_angle_alpha 159.148881
_cell_angle_beta 21.543588
_cell_angle_gamma 169.144235
_cell_volume 595.186432
_symmetry_space_group_name_H-M "P -1"
_symmetry_group_IT_number 2
_symmetry_cell_setting 'triclinic'
loop_
_space_group_symop_operation_xyz
x,y,z
-x,-y,-z
loop_
_atom_site_type_symbol
_atom_site_label
_atom_site_fract_x
_atom_site_fract_y
_atom_site_fract_z
Si Si1 0.619873 0.971769 0.499832
Si Si2 0.056284 0.142880 0.359124
Si Si3 0.935159 0.015622 0.741110
Si Si4 0.419385 0.465306 0.967190
Si Si5 0.209807 0.816805 0.206402
Si Si6 0.070755 0.549845 0.619961
Si Si7 0.672128 0.384674 0.889745
O O1 0.327066 0.809159 0.708507
O O2 0.764839 0.106485 0.592040
O O3 0.855103 0.238491 0.487736
O O4 0.493442 0.698091 0.224640
O O5 0.091296 0.130263 0.387745
O O6 0.363697 0.434492 0.295637
O O7 0.876378 0.126286 0.614468
O O8 0.895356 0.866856 0.098172
O O9 0.655702 0.874070 0.976346
O O10 0.000000 0.000000 0.500000
O O11 0.201322 0.350358 0.895774
O O12 0.500000 0.500000 0.000000
O O13 0.000000 0.500000 0.000000
O O14 0.500000 0.000000 0.000000
O O15 0.859581 0.492099 0.846633
O O16 0.250570 0.656502 0.402826
#
# Coordination Sequence:
#
# PCOD9062833 Si02
#       7
#     2   2   2   2   2   2   2
#     4  12  24  42  70 107 139 184 232 281 359 426
#     4  12  26  46  70 104 138 184 231 296 345 403
#     4  12  26  45  71  98 140 189 241 282 342 418
#     4  12  24  42  74 103 141 175 229 294 352 410
#     4  12  28  46  66  96 144 186 229 278 339 427
#     4  11  24  42  73 103 142 178 227 298 360 411
#     4  11  24  46  68 104 139 179 232 296 351 405
#
# _framework density 23.522043
#
# number of rings (size 3 to 8) (size 9 to 14) (size 15 to 20)
#    0.000    0.286    1.429    8.571    2.000    5.714 
#    0.000    0.000    0.000    0.000    0.000    0.000 
#    0.000    0.000    0.000    0.000    0.000    0.000 
#
# Total GULP energy -78412.228499 kJ/mol
# GULP energy per Si atom -5600.873464 kJ/mol
# Density = 2.346851 g / cm^3
# Si number density = 23.522043 Si / 1000 Ang^3
#
#
#
# Elastic Constant Matrix: (Units=GPa)
#
#
# Indices 1 2 3 4 5 6 
#
# 1 136.5183 20.3344 37.4635 -24.1208 -23.5413 -0.4292
# 2 20.3344 137.2185 18.6197 -1.6636 -7.3312 2.6337
# 3 37.4635 18.6197 78.8940 -4.4566 -15.4647 -1.1409
# 4 -24.1208 -1.6636 -4.4566 31.1844 1.7721 1.1291
# 5 -23.5413 -7.3312 -15.4647 1.7721 40.0087 0.3801
# 6 -0.4292 2.6337 -1.1409 1.1291 0.3801 39.4138
#
#
#
# Elastic Compliance Matrix: (Units=1/GPa)
#
#
# Indices 1 2 3 4 5 6 
#
# 1 0.010435 -0.000745 -0.003523 0.007290 0.004321 -0.000189
# 2 -0.000745 0.007616 -0.001386 -0.000374 0.000443 -0.000551
# 3 -0.003523 -0.001386 0.015349 -0.000830 0.003638 0.000487
# 4 0.007290 -0.000374 -0.000830 0.037476 0.002250 -0.001015
# 5 0.004321 0.000443 0.003638 0.002250 0.028927 -0.000221
# 6 -0.000189 -0.000551 0.000487 -0.001015 -0.000221 0.025452
#
#
# Mechanical properties :
#
#
# Convention : Reuss Voigt Hill
#
# Bulk Modulus (GPa) = 45.26771 56.16289 50.71530
# Shear Modulus (GPa) = 34.73982 40.53561 37.63771
#
# Velocity S-wave (km/s) = 3.84722 4.15577 4.00447
# Velocity P-wave (km/s) = 6.24671 6.85243 6.55657
#
# Compressibility (1/GPa) = 0.02209080
#
# Stress axis : x y z
#
# Youngs Moduli (GPa) = 95.82773 131.30505 65.15243
#
# Poissons Ratio (x) = 0.09788 0.22956
# Poissons Ratio (y) = 0.07144 0.09028
# Poissons Ratio (z) = 0.33764 0.18194
#
# Static dielectric constant tensor:
#      x y z
#    x 1.934170 -0.010090 0.010300 
#    y -0.010090 1.827510 -0.017670 
#    z 0.010300 -0.017670 1.914810 
# 
# From -- ./inp_files/544595.got.cif
#   From: 2010.05.17/outbox.cif.g08.bks.cpg/sg2_273_cif.got.tgz:544595.got - 2010.06.03 11:33:40.
