data_PCOD9062087
_publ_section_title
;
Structure prediction by ZEFSAII (Michael W. Deem and Ramdas Pophale) SiO2 
 PCOD9062087
Probable space group: P -1
;
_chemical_formula_sum "Si O2"
_cell_formula_units_Z 16
_cell_length_a 11.881459
_cell_length_b 9.936984
_cell_length_c 11.242515
_cell_angle_alpha 126.187759
_cell_angle_beta 98.900784
_cell_angle_gamma 47.646668
_cell_volume 722.973840
_symmetry_space_group_name_H-M "P -1"
_symmetry_group_IT_number 2
_symmetry_cell_setting 'triclinic'
loop_
_space_group_symop_operation_xyz
x,y,z
-x,-y,-z
loop_
_atom_site_type_symbol
_atom_site_label
_atom_site_fract_x
_atom_site_fract_y
_atom_site_fract_z
Si Si1 0.168946 0.157812 0.206688
Si Si2 0.131837 0.311784 0.617795
Si Si3 0.412357 0.086547 0.381521
Si Si4 0.773492 0.608983 0.106565
Si Si5 0.339283 0.081504 0.961411
Si Si6 0.933614 0.078867 0.892471
Si Si7 0.935783 0.180082 0.472822
Si Si8 0.440855 0.376539 0.407661
O O1 0.279033 0.168209 0.303969
O O2 0.977265 0.422184 0.319180
O O3 0.190038 0.947885 0.144846
O O4 0.229398 0.111640 0.058086
O O5 0.321238 0.124046 0.504976
O O6 0.135936 0.347391 0.776458
O O7 0.043645 0.234977 0.527396
O O8 0.425282 0.272220 0.465471
O O9 0.583042 0.815518 0.230742
O O10 0.764960 0.674059 0.003326
O O11 0.853498 0.344666 0.001215
O O12 0.417173 0.864899 0.771902
O O13 0.500000 0.000000 0.000000
O O14 0.044099 0.924910 0.710769
O O15 0.000000 0.000000 0.000000
O O16 0.739628 0.428918 0.583131
O O17 0.000000 0.000000 0.500000
O O18 0.500000 0.500000 0.500000
#
# Coordination Sequence:
#
# PCOD9062087 Si02
#       8
#     2   2   2   2   2   2   2   2
#     4  12  23  44  78 100 142 196 237 303 366 440
#     4  12  24  47  73 104 144 191 244 301 368 437
#     4  11  23  47  72 103 139 193 242 289 369 436
#     4  11  27  44  74 108 146 190 245 305 364 447
#     4  11  24  48  72 101 143 192 241 293 376 434
#     4  12  28  48  72 115 147 191 247 310 372 429
#     4  12  29  47  75 108 149 194 251 304 370 441
#     4  11  26  44  72 106 145 187 242 303 362 434
#
# _framework density 22.130813
#
# number of rings (size 3 to 8) (size 9 to 14) (size 15 to 20)
#    0.000    0.500    6.250    1.500    8.750    1.000 
#    2.250    0.000    0.000    0.000    0.000    0.000 
#    0.000    0.000    0.000    0.000    0.000    0.000 
#
# Total GULP energy -89450.886467 kJ/mol
# GULP energy per Si atom -5590.680404 kJ/mol
# Density = 2.208044 g / cm^3
# Si number density = 22.130813 Si / 1000 Ang^3
#
#
#
# Elastic Constant Matrix: (Units=GPa)
#
#
# Indices 1 2 3 4 5 6 
#
# 1 97.0009 10.5548 36.6036 4.5276 11.8783 19.8678
# 2 10.5548 118.5845 39.9326 -2.7188 7.5360 20.2966
# 3 36.6036 39.9326 69.6126 1.1175 2.2898 16.8808
# 4 4.5276 -2.7188 1.1175 37.3819 1.0221 2.1668
# 5 11.8783 7.5360 2.2898 1.0221 45.3885 3.0655
# 6 19.8678 20.2966 16.8808 2.1668 3.0655 35.7866
#
#
#
# Elastic Compliance Matrix: (Units=1/GPa)
#
#
# Indices 1 2 3 4 5 6 
#
# 1 0.014472 0.002377 -0.007515 -0.000944 -0.003411 -0.005489
# 2 0.002377 0.011376 -0.006627 0.001053 -0.001893 -0.004547
# 3 -0.007515 -0.006627 0.022775 -0.000138 0.002123 -0.002986
# 4 -0.000944 0.001053 -0.000138 0.027051 -0.000421 -0.001610
# 5 -0.003411 -0.001893 0.002123 -0.000421 0.023141 0.000009
# 6 -0.005489 -0.004547 -0.002986 -0.001610 0.000009 0.035074
#
#
# Mechanical properties :
#
#
# Convention : Reuss Voigt Hill
#
# Bulk Modulus (GPa) = 39.85349 51.04224 45.44787
# Shear Modulus (GPa) = 30.15977 36.91854 33.53915
#
# Velocity S-wave (km/s) = 3.69561 4.08879 3.89716
# Velocity P-wave (km/s) = 6.02140 6.73831 6.38992
#
# Compressibility (1/GPa) = 0.02509191
#
# Stress axis : x y z
#
# Youngs Moduli (GPa) = 69.09746 87.90695 43.90787
#
# Poissons Ratio (x) = -0.20896 0.32997
# Poissons Ratio (y) = -0.16425 0.29100
# Poissons Ratio (z) = 0.51927 0.58260
#
# Static dielectric constant tensor:
#      x y z
#    x 1.792610 -0.003110 -0.025310 
#    y -0.003110 1.844180 -0.045670 
#    z -0.025310 -0.045670 1.818680 
# 
# From -- ./inp_files/216520.got.cif
#   From: 2010.05.17/outbox.cif.g08.bks.cpg/sg2_109_cif.got.tgz:216520.got - 2010.06.03 11:33:40.
