data_PCOD9062463
_publ_section_title
;
Structure prediction by ZEFSAII (Michael W. Deem and Ramdas Pophale) SiO2 
 PCOD9062463
Probable space group: P -1
;
_chemical_formula_sum "Si O2"
_cell_formula_units_Z 16
_cell_length_a 20.852945
_cell_length_b 8.646017
_cell_length_c 18.693721
_cell_angle_alpha 133.761075
_cell_angle_beta 160.413003
_cell_angle_gamma 53.929145
_cell_volume 788.065771
_symmetry_space_group_name_H-M "P -1"
_symmetry_group_IT_number 2
_symmetry_cell_setting 'triclinic'
loop_
_space_group_symop_operation_xyz
x,y,z
-x,-y,-z
loop_
_atom_site_type_symbol
_atom_site_label
_atom_site_fract_x
_atom_site_fract_y
_atom_site_fract_z
Si Si1 0.619591 0.054074 0.455316
Si Si2 0.983894 0.144792 0.960593
Si Si3 0.102767 0.710030 0.462566
Si Si4 0.918344 0.705703 0.501789
Si Si5 0.760797 0.803751 0.220711
Si Si6 0.909473 0.343569 0.736493
Si Si7 0.824046 0.917843 0.005006
Si Si8 0.361389 0.435755 0.714683
O O1 0.598956 0.792088 0.343329
O O2 0.759104 0.129674 0.694906
O O3 0.741751 0.179139 0.555382
O O4 0.407088 0.102543 0.248944
O O5 0.086678 0.403347 0.163687
O O6 0.082812 0.058416 0.968595
O O7 0.000000 0.000000 0.000000
O O8 0.117138 0.704166 0.390549
O O9 0.179727 0.507536 0.509016
O O10 0.884096 0.710186 0.260572
O O11 0.237931 0.942333 0.711130
O O12 0.885002 0.820569 0.430099
O O13 0.712344 0.612249 0.296956
O O14 0.000000 0.500000 0.500000
O O15 0.066212 0.875008 0.763689
O O16 0.552350 0.634408 0.962952
O O17 0.112202 0.290060 0.959504
#
# Coordination Sequence:
#
# PCOD9062463 Si02
#       8
#     2   2   2   2   2   2   2   2
#     4  11  24  43  70 100 127 175 222 269 331 392
#     4  11  25  46  72  98 134 171 214 279 337 388
#     4  11  24  43  61  97 139 170 224 269 334 392
#     4  12  22  41  66  94 132 178 219 272 322 386
#     4  11  24  41  63  96 133 182 218 271 334 389
#     4  11  24  44  71  95 135 177 215 278 329 386
#     4  11  24  45  67  95 137 169 226 270 323 400
#     4  12  23  40  67  95 132 172 227 271 329 392
#
# _framework density 20.302873999999999
#
# number of rings (size 3 to 8) (size 9 to 14) (size 15 to 20)
#    0.000    0.750    5.000    3.750    0.000    4.500 
#    0.000    0.000    0.000    0.000    0.000    0.000 
#    0.000    0.000    0.000    0.000    0.000    0.000 
#
# Total GULP energy -89438.517656 kJ/mol
# GULP energy per Si atom -5589.907353 kJ/mol
# Density = 2.025666 g / cm^3
# Si number density = 20.302874 Si / 1000 Ang^3
#
#
#
# Elastic Constant Matrix: (Units=GPa)
#
#
# Indices 1 2 3 4 5 6 
#
# 1 91.6907 34.1836 38.8362 -5.7066 -11.9652 6.2629
# 2 34.1836 120.4641 26.1419 -1.4228 -0.6412 0.2005
# 3 38.8362 26.1419 84.2195 -4.5430 15.2605 -7.7319
# 4 -5.7066 -1.4228 -4.5430 33.5987 -1.0719 -2.4922
# 5 -11.9652 -0.6412 15.2605 -1.0719 32.2113 -0.9977
# 6 6.2629 0.2005 -7.7319 -2.4922 -0.9977 33.6789
#
#
#
# Elastic Compliance Matrix: (Units=1/GPa)
#
#
# Indices 1 2 3 4 5 6 
#
# 1 0.018079 -0.002904 -0.009856 0.001590 0.011221 -0.005157
# 2 -0.002904 0.009463 -0.001579 -0.000304 -0.000150 0.000094
# 3 -0.009856 -0.001579 0.019855 0.000985 -0.012877 0.006092
# 4 0.001590 -0.000304 0.000985 0.030356 0.001197 0.002214
# 5 0.011221 -0.000150 -0.012877 0.001197 0.041235 -0.003732
# 6 -0.005157 0.000094 0.006092 0.002214 -0.003732 0.032103
#
#
# Mechanical properties :
#
#
# Convention : Reuss Voigt Hill
#
# Bulk Modulus (GPa) = 53.42290 54.96642 54.19466
# Shear Modulus (GPa) = 26.88048 33.04529 29.96288
#
# Velocity S-wave (km/s) = 3.64259 4.03875 3.84578
# Velocity P-wave (km/s) = 6.63788 6.99147 6.81697
#
# Compressibility (1/GPa) = 0.01871856
#
# Stress axis : x y z
#
# Youngs Moduli (GPa) = 55.31248 105.66981 50.36626
#
# Poissons Ratio (x) = 0.30689 0.49642
# Poissons Ratio (y) = 0.16064 0.07952
# Poissons Ratio (z) = 0.54517 0.16684
#
# Static dielectric constant tensor:
#      x y z
#    x 1.701010 0.001880 -0.002470 
#    y 0.001880 1.746480 0.011100 
#    z -0.002470 0.011100 1.731700 
# 
# From -- ./inp_files/577447.got.cif
#   From: 2010.05.17/outbox.cif.g08.bks.cpg/sg2_289_cif.got.tgz:577447.got - 2010.06.03 11:33:40.
