data_PCOD9062808
_publ_section_title
;
Structure prediction by ZEFSAII (Michael W. Deem and Ramdas Pophale) SiO2 
 PCOD9062808
Probable space group: P -1
;
_chemical_formula_sum "Si O2"
_cell_formula_units_Z 16
_cell_length_a 9.119847
_cell_length_b 9.327157
_cell_length_c 15.116072
_cell_angle_alpha 38.759316
_cell_angle_beta 108.261147
_cell_angle_gamma 113.081029
_cell_volume 740.476980
_symmetry_space_group_name_H-M "P -1"
_symmetry_group_IT_number 2
_symmetry_cell_setting 'triclinic'
loop_
_space_group_symop_operation_xyz
x,y,z
-x,-y,-z
loop_
_atom_site_type_symbol
_atom_site_label
_atom_site_fract_x
_atom_site_fract_y
_atom_site_fract_z
Si Si1 0.907267 0.839077 0.774599
Si Si2 0.947714 0.244842 0.864226
Si Si3 0.419708 0.488638 0.896263
Si Si4 0.415189 0.966064 0.095554
Si Si5 0.126093 0.548690 0.899176
Si Si6 0.554860 0.579444 0.373151
Si Si7 0.401807 0.203591 0.375353
Si Si8 0.073410 0.331692 0.655425
O O1 0.783572 0.873861 0.657470
O O2 0.068158 0.779837 0.797863
O O3 0.840035 0.603803 0.936654
O O4 0.968227 0.068080 0.737429
O O5 0.759105 0.203614 0.842232
O O6 0.986581 0.377662 0.900225
O O7 0.040059 0.367196 0.735741
O O8 0.000000 0.000000 0.000000
O O9 0.268462 0.588717 0.838314
O O10 0.521900 0.638731 0.768610
O O11 0.500000 0.500000 0.000000
O O12 0.386191 0.216922 0.994417
O O13 0.526574 0.841503 0.232773
O O14 0.500000 0.000000 0.000000
O O15 0.500000 0.500000 0.500000
O O16 0.444754 0.382252 0.381348
O O17 0.739091 0.612355 0.361311
O O18 0.500000 0.000000 0.500000
O O19 0.000000 0.500000 0.500000
#
# Coordination Sequence:
#
# PCOD9062808 Si02
#       8
#     2   2   2   2   2   2   2   2
#     4  11  25  44  70 106 141 185 233 297 352 423
#     4  12  22  43  70 102 139 181 235 288 351 420
#     4  12  25  42  69 103 139 184 231 287 357 422
#     4  12  25  43  71 105 142 179 242 294 349 426
#     4  11  24  42  72 104 140 180 239 292 354 418
#     4  12  28  47  72 104 141 189 239 293 356 426
#     4  12  27  48  70 102 148 187 236 295 364 427
#     4  12  26  47  72 103 142 188 238 289 357 429
#
# _framework density 21.607693000000001
#
# number of rings (size 3 to 8) (size 9 to 14) (size 15 to 20)
#    0.000    0.250    5.000    3.750    3.500    0.000 
#    0.000    1.875    0.000    0.000    0.000    0.000 
#    0.000    0.000    0.000    0.000    0.000    0.000 
#
# Total GULP energy -89309.377064 kJ/mol
# GULP energy per Si atom -5581.836066 kJ/mol
# Density = 2.155851 g / cm^3
# Si number density = 21.607693 Si / 1000 Ang^3
#
#
#
# Elastic Constant Matrix: (Units=GPa)
#
#
# Indices 1 2 3 4 5 6 
#
# 1 133.5468 15.7386 26.1804 21.4021 1.5675 -3.4924
# 2 15.7386 69.7761 5.4079 22.7524 2.2671 -4.6466
# 3 26.1804 5.4079 113.8049 27.0320 2.6414 -4.8105
# 4 21.4021 22.7524 27.0320 31.2087 -10.1477 -2.1513
# 5 1.5675 2.2671 2.6414 -10.1477 41.5454 6.8941
# 6 -3.4924 -4.6466 -4.8105 -2.1513 6.8941 33.2614
#
#
#
# Elastic Compliance Matrix: (Units=1/GPa)
#
#
# Indices 1 2 3 4 5 6 
#
# 1 0.008597 0.000289 -0.000397 -0.006357 -0.002016 0.000892
# 2 0.000289 0.021577 0.004458 -0.021955 -0.007468 0.003817
# 3 -0.000397 0.004458 0.012539 -0.015354 -0.005187 0.002476
# 4 -0.006357 -0.021955 -0.015354 0.072136 0.020969 -0.005636
# 5 -0.002016 -0.007468 -0.005187 0.020969 0.031185 -0.007113
# 6 0.000892 0.003817 0.002476 -0.005636 -0.007113 0.032160
#
#
# Mechanical properties :
#
#
# Convention : Reuss Voigt Hill
#
# Bulk Modulus (GPa) = 19.45059 45.75352 32.60205
# Shear Modulus (GPa) = 26.79068 39.18982 32.99025
#
# Velocity S-wave (km/s) = 3.52500 4.26337 3.91165
# Velocity P-wave (km/s) = 5.05853 6.74209 5.96005
#
# Compressibility (1/GPa) = 0.05141232
#
# Stress axis : x y z
#
# Youngs Moduli (GPa) = 116.31298 46.34642 79.75403
#
# Poissons Ratio (x) = -0.01340 0.03168
# Poissons Ratio (y) = -0.03364 -0.35552
# Poissons Ratio (z) = 0.04620 -0.20660
#
# Static dielectric constant tensor:
#      x y z
#    x 1.799040 0.068380 -0.071270 
#    y 0.068380 1.895630 -0.082850 
#    z -0.071270 -0.082850 1.832560 
# 
# From -- ./inp_files/419662.got.cif
#   From: 2010.05.17/outbox.cif.g08.bks.cpg/sg2_210_cif.got.tgz:419662.got - 2010.06.03 11:33:40.
