data_PCOD9062975
_publ_section_title
;
Structure prediction by ZEFSAII (Michael W. Deem and Ramdas Pophale) SiO2 
 PCOD9062975
Probable space group: P -1
;
_chemical_formula_sum "Si O2"
_cell_formula_units_Z 14
_cell_length_a 18.327883
_cell_length_b 9.784954
_cell_length_c 7.925042
_cell_angle_alpha 132.318933
_cell_angle_beta 35.067232
_cell_angle_gamma 123.141977
_cell_volume 603.743993
_symmetry_space_group_name_H-M "P -1"
_symmetry_group_IT_number 2
_symmetry_cell_setting 'triclinic'
loop_
_space_group_symop_operation_xyz
x,y,z
-x,-y,-z
loop_
_atom_site_type_symbol
_atom_site_label
_atom_site_fract_x
_atom_site_fract_y
_atom_site_fract_z
Si Si1 0.559049 0.173415 0.637308
Si Si2 0.908082 0.015536 0.350788
Si Si3 0.120606 0.574745 0.231249
Si Si4 0.651993 0.554041 0.762261
Si Si5 0.642218 0.968337 0.630111
Si Si6 0.373770 0.449350 0.798663
Si Si7 0.903588 0.650452 0.238058
O O1 0.639634 0.342957 0.541230
O O2 0.500000 0.000000 0.500000
O O3 0.642017 0.094994 0.568313
O O4 0.436521 0.291854 0.030106
O O5 0.761298 0.998381 0.553068
O O6 0.944384 0.854081 0.278478
O O7 0.916633 0.218973 0.581124
O O8 0.000000 0.000000 0.000000
O O9 0.000000 0.500000 0.500000
O O10 0.250727 0.573324 0.089609
O O11 0.146219 0.438177 0.915287
O O12 0.788774 0.641898 0.576833
O O13 0.608603 0.544312 0.029853
O O14 0.655128 0.759443 0.369934
O O15 0.500000 0.000000 0.000000
O O16 0.500000 0.500000 0.500000
O O17 0.000000 0.500000 0.000000
#
# Coordination Sequence:
#
# PCOD9062975 Si02
#       7
#     2   2   2   2   2   2   2
#     4  11  24  43  68 102 146 188 231 293 368 425
#     4  12  26  49  78 105 143 194 250 299 362 440
#     4  12  25  49  76 105 144 193 248 299 360 441
#     4  11  26  44  68 105 152 183 237 303 365 427
#     4  12  24  44  73 106 141 187 246 297 360 438
#     4  12  25  45  73 106 144 194 244 299 361 435
#     4  12  28  47  74 108 147 186 242 306 368 427
#
# _framework density 23.188637
#
# number of rings (size 3 to 8) (size 9 to 14) (size 15 to 20)
#    0.000    0.286    4.286    4.286    6.000    2.857 
#    0.000    0.000    0.000    0.000    0.000    0.000 
#    0.000    0.000    0.000    0.000    0.000    0.000 
#
# Total GULP energy -78259.980486 kJ/mol
# GULP energy per Si atom -5589.998606 kJ/mol
# Density = 2.313586 g / cm^3
# Si number density = 23.188637 Si / 1000 Ang^3
#
#
#
# Elastic Constant Matrix: (Units=GPa)
#
#
# Indices 1 2 3 4 5 6 
#
# 1 56.2144 13.7183 2.7749 3.1088 -10.1491 -10.0438
# 2 13.7183 175.2391 45.4800 29.5579 -9.2666 -10.3369
# 3 2.7749 45.4800 87.3153 -3.9574 -18.0216 -9.1224
# 4 3.1088 29.5579 -3.9574 61.8122 4.9439 0.2582
# 5 -10.1491 -9.2666 -18.0216 4.9439 47.3804 15.3400
# 6 -10.0438 -10.3369 -9.1224 0.2582 15.3400 37.8110
#
#
#
# Elastic Compliance Matrix: (Units=1/GPa)
#
#
# Indices 1 2 3 4 5 6 
#
# 1 0.019325 -0.001316 0.001087 -0.000539 0.003132 0.003769
# 2 -0.001316 0.007524 -0.004004 -0.003774 -0.000216 0.000855
# 3 0.001087 -0.004004 0.014630 0.002435 0.004471 0.000893
# 4 -0.000539 -0.003774 0.002435 0.018314 -0.001851 0.000038
# 5 0.003132 -0.000216 0.004471 -0.001851 0.026506 -0.008889
# 6 0.003769 0.000855 0.000893 0.000038 -0.008889 0.031504
#
#
# Mechanical properties :
#
#
# Convention : Reuss Voigt Hill
#
# Bulk Modulus (GPa) = 30.29008 49.19056 39.74032
# Shear Modulus (GPa) = 36.42358 46.52042 41.47200
#
# Velocity S-wave (km/s) = 3.96757 4.48389 4.23361
# Velocity P-wave (km/s) = 5.83778 6.93299 6.40882
#
# Compressibility (1/GPa) = 0.03301411
#
# Stress axis : x y z
#
# Youngs Moduli (GPa) = 51.74596 132.90380 68.35199
#
# Poissons Ratio (x) = 0.17491 -0.07430
# Poissons Ratio (y) = 0.06810 0.27366
# Poissons Ratio (z) = -0.05625 0.53211
#
# Static dielectric constant tensor:
#      x y z
#    x 4.073480 4.366220 -3.529000 
#    y 4.366220 10.650390 -7.078350 
#    z -3.529000 -7.078350 7.584180 
# 
# From -- ./inp_files/343824.got.cif
#   From: 2010.05.17/outbox.cif.g08.bks.cpg/sg2_172_cif.got.tgz:343824.got - 2010.06.03 11:33:40.
