data_PCOD9062174
_publ_section_title
;
Structure prediction by ZEFSAII (Michael W. Deem and Ramdas Pophale) SiO2 
 PCOD9062174
Probable space group: P -1
;
_chemical_formula_sum "Si O2"
_cell_formula_units_Z 15
_cell_length_a 17.557879
_cell_length_b 12.494618
_cell_length_c 8.245234
_cell_angle_alpha 104.359013
_cell_angle_beta 54.435408
_cell_angle_gamma 148.900473
_cell_volume 610.817171
_symmetry_space_group_name_H-M "P -1"
_symmetry_group_IT_number 2
_symmetry_cell_setting 'triclinic'
loop_
_space_group_symop_operation_xyz
x,y,z
-x,-y,-z
loop_
_atom_site_type_symbol
_atom_site_label
_atom_site_fract_x
_atom_site_fract_y
_atom_site_fract_z
Si Si1 0.094326 0.147428 0.769981
Si Si2 0.588982 0.316211 0.366176
Si Si3 0.647280 0.790704 0.606596
Si Si4 0.713286 0.293807 0.900512
Si Si5 0.695394 0.636791 0.883717
Si Si6 0.058568 0.308852 0.498186
Si Si7 0.046424 0.503080 0.762483
Si Si8 0.500000 0.000000 0.500000
O O1 0.212446 0.389396 0.733394
O O2 0.278382 0.254449 0.534411
O O3 0.892859 0.923086 0.810188
O O4 0.000000 0.000000 0.000000
O O5 0.387579 0.176137 0.500369
O O6 0.536667 0.174905 0.520114
O O7 0.658062 0.311323 0.129484
O O8 0.416840 0.542795 0.891326
O O9 0.834128 0.039471 0.583259
O O10 0.809447 0.470104 0.704261
O O11 0.893549 0.401680 0.786760
O O12 0.500000 0.000000 0.000000
O O13 0.798284 0.650103 0.650309
O O14 0.500000 0.500000 0.000000
O O15 0.006163 0.330077 0.724188
O O16 0.300234 0.800864 0.542702
O O17 0.000000 0.500000 0.000000
#
# Coordination Sequence:
#
# PCOD9062174 Si02
#       8
#     2   2   2   2   2   2   2   1
#     4  11  24  46  74 116 147 195 259 311 382 458
#     4  12  23  45  76 110 153 202 250 316 385 459
#     4  11  23  47  79 107 147 201 256 309 387 457
#     4  12  24  49  77 105 147 209 262 305 372 468
#     4  11  26  47  74 111 147 194 254 312 392 451
#     4  11  25  46  78 105 147 203 254 310 379 468
#     4  12  27  48  70 110 156 198 261 318 383 451
#     4  12  28  46  68 112 158 194 248 312 398 438
#
# _framework density 24.557267
#
# number of rings (size 3 to 8) (size 9 to 14) (size 15 to 20)
#    0.000    0.533    4.000    4.000    0.000    4.267 
#    2.400    0.000    0.000    0.000    0.000    0.000 
#    0.000    0.000    0.000    0.000    0.000    0.000 
#
# Total GULP energy -83808.824605 kJ/mol
# GULP energy per Si atom -5587.254974 kJ/mol
# Density = 2.450137 g / cm^3
# Si number density = 24.557267 Si / 1000 Ang^3
#
#
#
# Elastic Constant Matrix: (Units=GPa)
#
#
# Indices 1 2 3 4 5 6 
#
# 1 182.4801 72.4873 29.1547 -15.0348 -40.5759 6.5775
# 2 72.4873 217.9857 56.5726 -0.6301 -36.0774 -15.9266
# 3 29.1547 56.5726 87.3590 9.2251 -7.5845 -2.7925
# 4 -15.0348 -0.6301 9.2251 44.8733 2.0896 -1.9075
# 5 -40.5759 -36.0774 -7.5845 2.0896 39.1214 -8.7812
# 6 6.5775 -15.9266 -2.7925 -1.9075 -8.7812 38.8597
#
#
#
# Elastic Compliance Matrix: (Units=1/GPa)
#
#
# Indices 1 2 3 4 5 6 
#
# 1 0.007884 -0.001117 -0.001620 0.002638 0.006629 -0.000281
# 2 -0.001117 0.007149 -0.003677 0.000396 0.005631 0.004147
# 3 -0.001620 -0.003677 0.014515 -0.003510 -0.002266 -0.000874
# 4 0.002638 0.000396 -0.003510 0.023873 0.001358 0.000942
# 5 0.006629 0.005631 -0.002266 0.001358 0.039359 0.009984
# 6 -0.000281 0.004147 -0.000874 0.000942 0.009984 0.029720
#
#
# Mechanical properties :
#
#
# Convention : Reuss Voigt Hill
#
# Bulk Modulus (GPa) = 59.80935 89.36154 74.58545
# Shear Modulus (GPa) = 35.48546 46.54491 41.01518
#
# Velocity S-wave (km/s) = 3.80545 4.35830 4.09122
# Velocity P-wave (km/s) = 6.61185 7.86094 7.26330
#
# Compressibility (1/GPa) = 0.01671979
#
# Stress axis : x y z
#
# Youngs Moduli (GPa) = 126.83721 139.87113 68.89415
#
# Poissons Ratio (x) = 0.15626 0.11160
# Poissons Ratio (y) = 0.14170 0.25335
# Poissons Ratio (z) = 0.20545 0.51437
#
# Static dielectric constant tensor:
#      x y z
#    x 2.018790 0.008640 0.064500 
#    y 0.008640 1.935540 0.033580 
#    z 0.064500 0.033580 2.031270 
# 
# From -- ./inp_files/333496.got.cif
#   From: 2010.05.17/outbox.cif.g08.bks.cpg/sg2_167_cif.got.tgz:333496.got - 2010.06.03 11:33:40.
