data_PCOD9062508
_publ_section_title
;
Structure prediction by ZEFSAII (Michael W. Deem and Ramdas Pophale) SiO2 
 PCOD9062508
Probable space group: P -1
;
_chemical_formula_sum "Si O2"
_cell_formula_units_Z 16
_cell_length_a 9.184330
_cell_length_b 8.290725
_cell_length_c 16.450351
_cell_angle_alpha 73.808372
_cell_angle_beta 107.801070
_cell_angle_gamma 49.591343
_cell_volume 683.849700
_symmetry_space_group_name_H-M "P -1"
_symmetry_group_IT_number 2
_symmetry_cell_setting 'triclinic'
loop_
_space_group_symop_operation_xyz
x,y,z
-x,-y,-z
loop_
_atom_site_type_symbol
_atom_site_label
_atom_site_fract_x
_atom_site_fract_y
_atom_site_fract_z
Si Si1 0.761322 0.844369 0.759524
Si Si2 0.567062 0.632553 0.470480
Si Si3 0.360481 0.375032 0.938914
Si Si4 0.544207 0.331401 0.140847
Si Si5 0.589207 0.761349 0.202882
Si Si6 0.971941 0.728909 0.289071
Si Si7 0.248034 0.679046 0.610624
Si Si8 0.703253 0.509245 0.765246
O O1 0.673902 0.044625 0.643356
O O2 0.631185 0.015021 0.798901
O O3 0.667304 0.740658 0.735522
O O4 0.065615 0.579580 0.857778
O O5 0.500000 0.500000 0.500000
O O6 0.758136 0.537509 0.583064
O O7 0.721197 0.480856 0.434205
O O8 0.384376 0.551751 0.897972
O O9 0.499127 0.161232 0.917023
O O10 0.464114 0.276209 0.062057
O O11 0.320640 0.537494 0.140462
O O12 0.799348 0.019591 0.264617
O O13 0.721170 0.464118 0.284934
O O14 0.809755 0.703764 0.260686
O O15 0.042653 0.737190 0.210364
O O16 0.481611 0.604414 0.666840
O O17 0.000000 0.000000 0.500000
#
# Coordination Sequence:
#
# PCOD9062508 Si02
#       8
#     2   2   2   2   2   2   2   2
#     4  11  26  44  67 101 139 171 230 275 329 404
#     4  11  24  41  66  99 133 178 217 273 332 399
#     4  11  25  47  72  96 131 185 217 279 345 391
#     4  11  26  46  71  99 134 171 231 280 331 405
#     4  11  25  44  66 100 136 177 222 277 332 402
#     4  12  25  44  68 100 139 173 225 275 336 399
#     4  11  25  40  68  95 139 180 223 272 331 402
#     4  12  24  44  67 102 133 180 220 281 336 389
#
# _framework density 23.396954999999998
#
# number of rings (size 3 to 8) (size 9 to 14) (size 15 to 20)
#    0.000    0.750    5.000    1.500    5.250    3.500 
#    0.000    2.500    0.000    0.000    0.000    0.000 
#    0.000    0.000    0.000    0.000    0.000    0.000 
#
# Total GULP energy -89448.720304 kJ/mol
# GULP energy per Si atom -5590.545019 kJ/mol
# Density = 2.334370 g / cm^3
# Si number density = 23.396955 Si / 1000 Ang^3
#
#
#
# Elastic Constant Matrix: (Units=GPa)
#
#
# Indices 1 2 3 4 5 6 
#
# 1 119.5585 11.5980 18.4816 -3.4160 7.4434 -1.4524
# 2 11.5980 67.8730 9.1319 16.5056 4.5544 -14.1187
# 3 18.4816 9.1319 79.0230 18.3869 0.6083 -6.7676
# 4 -3.4160 16.5056 18.3869 38.6484 2.3646 -5.8005
# 5 7.4434 4.5544 0.6083 2.3646 24.0255 8.9285
# 6 -1.4524 -14.1187 -6.7676 -5.8005 8.9285 40.4689
#
#
#
# Elastic Compliance Matrix: (Units=1/GPa)
#
#
# Indices 1 2 3 4 5 6 
#
# 1 0.009200 -0.001678 -0.002601 0.003002 -0.002903 0.000380
# 2 -0.001678 0.018296 0.000480 -0.006938 -0.004670 0.006439
# 3 -0.002601 0.000480 0.015050 -0.007416 0.000540 0.001409
# 4 0.003002 -0.006938 -0.007416 0.033132 -0.003412 0.001949
# 5 -0.002903 -0.004670 0.000540 -0.003412 0.048498 -0.012832
# 6 0.000380 0.006439 0.001409 0.001949 -0.012832 0.030316
#
#
# Mechanical properties :
#
#
# Convention : Reuss Voigt Hill
#
# Bulk Modulus (GPa) = 28.61550 38.31972 33.46761
# Shear Modulus (GPa) = 28.77860 35.77811 32.27835
#
# Velocity S-wave (km/s) = 3.51096 3.91471 3.71832
# Velocity P-wave (km/s) = 5.35656 6.07017 5.72450
#
# Compressibility (1/GPa) = 0.03494610
#
# Stress axis : x y z
#
# Youngs Moduli (GPa) = 108.69349 54.65792 66.44706
#
# Poissons Ratio (x) = 0.09173 0.17285
# Poissons Ratio (y) = 0.18241 -0.03189
# Poissons Ratio (z) = 0.28275 -0.02624
#
# Static dielectric constant tensor:
#      x y z
#    x 1.852590 -0.004430 -0.071780 
#    y -0.004430 1.899420 0.042420 
#    z -0.071780 0.042420 1.966520 
# 
# From -- ./inp_files/187958.got.cif
#   From: 2010.05.17/outbox.cif.g08.bks.cpg/sg2_94_cif.got.tgz:187958.got - 2010.06.03 11:33:40.
