data_PCOD9062899
_publ_section_title
;
Structure prediction by ZEFSAII (Michael W. Deem and Ramdas Pophale) SiO2 
 PCOD9062899
Probable space group: P -1
;
_chemical_formula_sum "Si O2"
_cell_formula_units_Z 14
_cell_length_a 18.197430
_cell_length_b 5.198439
_cell_length_c 7.347561
_cell_angle_alpha 82.451949
_cell_angle_beta 56.396381
_cell_angle_gamma 73.954127
_cell_volume 556.154238
_symmetry_space_group_name_H-M "P -1"
_symmetry_group_IT_number 2
_symmetry_cell_setting 'triclinic'
loop_
_space_group_symop_operation_xyz
x,y,z
-x,-y,-z
loop_
_atom_site_type_symbol
_atom_site_label
_atom_site_fract_x
_atom_site_fract_y
_atom_site_fract_z
Si Si1 0.254113 0.152468 0.124490
Si Si2 0.452745 0.291861 0.340442
Si Si3 0.984812 0.279844 0.905359
Si Si4 0.297752 0.572800 0.308891
Si Si5 0.769862 0.429882 0.178252
Si Si6 0.616324 0.190144 0.356431
Si Si7 0.058779 0.200795 0.458447
O O1 0.258816 0.387411 0.241257
O O2 0.150550 0.144267 0.232549
O O3 0.289985 0.868910 0.210108
O O4 0.278631 0.295320 0.891161
O O5 0.404179 0.421870 0.211953
O O6 0.560175 0.198044 0.244429
O O7 0.420603 0.532094 0.507594
O O8 0.411204 0.039006 0.465458
O O9 0.070010 0.201868 0.657127
O O10 0.877405 0.361660 0.990746
O O11 0.000000 0.500000 0.000000
O O12 0.000000 0.000000 0.000000
O O13 0.248526 0.569577 0.576463
O O14 0.720325 0.206014 0.191525
O O15 0.000000 0.500000 0.500000
O O16 0.000000 0.000000 0.500000
#
# Coordination Sequence:
#
# PCOD9062899 Si02
#       7
#     2   2   2   2   2   2   2
#     4  12  26  43  69  98 134 179 228 274 346 397
#     4   9  18  38  64  94 138 169 220 267 342 397
#     4  12  26  43  68  97 130 178 229 282 341 404
#     4  11  24  43  66 101 135 177 221 284 332 406
#     4  11  25  45  71  98 138 173 234 279 337 402
#     4   9  19  36  66  98 125 182 215 271 336 405
#     4  12  24  45  64  90 133 175 219 283 339 397
#
# _framework density 25.172874
#
# number of rings (size 3 to 8) (size 9 to 14) (size 15 to 20)
#    0.000    1.143    1.429    5.143    0.000    5.714 
#    0.000    1.429    0.000    0.000    0.000    0.000 
#    0.000    0.000    0.000    0.000    0.000    0.000 
#
# Total GULP energy -78090.550400 kJ/mol
# GULP energy per Si atom -5577.896457 kJ/mol
# Density = 2.511558 g / cm^3
# Si number density = 25.172874 Si / 1000 Ang^3
#
#
#
# Elastic Constant Matrix: (Units=GPa)
#
#
# Indices 1 2 3 4 5 6 
#
# 1 136.3011 49.0959 21.0197 -19.8525 -31.0881 10.7077
# 2 49.0959 165.2446 58.8682 -56.9291 -0.5525 21.6317
# 3 21.0197 58.8682 134.9553 -24.2583 9.4105 11.0308
# 4 -19.8525 -56.9291 -24.2583 48.0171 -8.0183 -0.4427
# 5 -31.0881 -0.5525 9.4105 -8.0183 35.1358 -13.0675
# 6 10.7077 21.6317 11.0308 -0.4427 -13.0675 55.4396
#
#
#
# Elastic Compliance Matrix: (Units=1/GPa)
#
#
# Indices 1 2 3 4 5 6 
#
# 1 0.011289 -0.001687 -0.001247 0.004020 0.011785 0.001536
# 2 -0.001687 0.012359 -0.002602 0.012767 0.000954 -0.003652
# 3 -0.001247 -0.002602 0.009215 0.000356 -0.004105 -0.001542
# 4 0.004020 0.012767 0.000356 0.039734 0.011706 -0.002752
# 5 0.011785 0.000954 -0.004105 0.011706 0.046066 0.009120
# 6 0.001536 -0.003652 -0.001542 -0.002752 0.009120 0.021601
#
#
# Mechanical properties :
#
#
# Convention : Reuss Voigt Hill
#
# Bulk Modulus (GPa) = 45.88651 77.16318 61.52485
# Shear Modulus (GPa) = 31.52589 48.21966 39.87277
#
# Velocity S-wave (km/s) = 3.54273 4.38144 3.98421
# Velocity P-wave (km/s) = 5.91631 7.50439 6.75716
#
# Compressibility (1/GPa) = 0.02179290
#
# Stress axis : x y z
#
# Youngs Moduli (GPa) = 88.57895 80.91045 108.51613
#
# Poissons Ratio (x) = 0.13646 0.13536
# Poissons Ratio (y) = 0.14939 0.28232
# Poissons Ratio (z) = 0.11049 0.21050
#
# Static dielectric constant tensor:
#      x y z
#    x 2.039230 -0.080340 0.037580 
#    y -0.080340 2.061690 0.140130 
#    z 0.037580 0.140130 2.174680 
# 
# From -- ./inp_files/323279.got.cif
#   From: 2010.05.17/outbox.cif.g08.bks.cpg/sg2_162_cif.got.tgz:323279.got - 2010.06.03 11:33:40.
