data_PCOD9062968
_publ_section_title
;
Structure prediction by ZEFSAII (Michael W. Deem and Ramdas Pophale) SiO2 
 PCOD9062968
Probable space group: P -1
;
_chemical_formula_sum "Si O2"
_cell_formula_units_Z 12
_cell_length_a 14.817599
_cell_length_b 7.512420
_cell_length_c 15.185485
_cell_angle_alpha 76.248481
_cell_angle_beta 160.946738
_cell_angle_gamma 95.883047
_cell_volume 494.609046
_symmetry_space_group_name_H-M "P -1"
_symmetry_group_IT_number 2
_symmetry_cell_setting 'triclinic'
loop_
_space_group_symop_operation_xyz
x,y,z
-x,-y,-z
loop_
_atom_site_type_symbol
_atom_site_label
_atom_site_fract_x
_atom_site_fract_y
_atom_site_fract_z
Si Si1 0.727370 0.960649 0.793834
Si Si2 0.161880 0.401700 0.939662
Si Si3 0.168636 0.667925 0.683084
Si Si4 0.516863 0.822964 0.102052
Si Si5 0.680874 0.845351 0.448995
Si Si6 0.824480 0.224544 0.520242
O O1 0.500000 0.000000 0.500000
O O2 0.567852 0.106761 0.710175
O O3 0.818545 0.738622 0.942419
O O4 0.000000 0.000000 0.000000
O O5 0.929540 0.624510 0.711506
O O6 0.056626 0.294782 0.775968
O O7 0.494202 0.383847 0.223245
O O8 0.130558 0.779813 0.542152
O O9 0.850533 0.651726 0.410391
O O10 0.500000 0.500000 0.000000
O O11 0.234611 0.775844 0.816817
O O12 0.529699 0.871766 0.209878
O O13 0.500000 0.000000 0.000000
O O14 0.815341 0.015276 0.565237
#
# Coordination Sequence:
#
# PCOD9062968 Si02
#       6
#     2   2   2   2   2   2
#     4  11  26  48  73 103 134 177 232 293 360 423
#     4  11  25  45  72 107 137 182 238 280 358 424
#     4  12  24  41  65  96 143 189 242 283 331 409
#     4  12  25  42  66 103 140 188 237 275 348 410
#     4  11  26  46  75 100 147 185 229 296 350 412
#     4  11  24  43  68 101 147 186 231 286 337 409
#
# _framework density 24.261583999999999
#
# number of rings (size 3 to 8) (size 9 to 14) (size 15 to 20)
#    0.000    0.667    1.667    6.000    2.333    6.667 
#    0.000    0.000    0.000    0.000    0.000    0.000 
#    0.000    0.000    0.000    0.000    0.000    0.000 
#
# Total GULP energy -67281.672746 kJ/mol
# GULP energy per Si atom -5606.806062 kJ/mol
# Density = 2.420636 g / cm^3
# Si number density = 24.261584 Si / 1000 Ang^3
#
#
#
# Elastic Constant Matrix: (Units=GPa)
#
#
# Indices 1 2 3 4 5 6 
#
# 1 171.8805 19.5672 60.6459 -20.6235 0.0239 -1.3408
# 2 19.5672 64.5554 37.4758 -33.7059 -6.0867 -6.8637
# 3 60.6459 37.4758 142.1420 3.8450 -5.6488 -2.9487
# 4 -20.6235 -33.7059 3.8450 62.2865 1.8797 4.7607
# 5 0.0239 -6.0867 -5.6488 1.8797 59.9955 -4.7541
# 6 -1.3408 -6.8637 -2.9487 4.7607 -4.7541 38.7191
#
#
#
# Elastic Compliance Matrix: (Units=1/GPa)
#
#
# Indices 1 2 3 4 5 6 
#
# 1 0.007369 0.001800 -0.003734 0.003669 -0.000303 -0.000198
# 2 0.001800 0.029232 -0.008797 0.016693 0.001831 0.002747
# 3 -0.003734 -0.008797 0.011144 -0.006698 0.000370 0.000029
# 4 0.003669 0.016693 -0.006698 0.026764 0.000168 -0.000694
# 5 -0.000303 0.001831 0.000370 0.000168 0.017075 0.002418
# 6 -0.000198 0.002747 0.000029 -0.000694 0.002418 0.026692
#
#
# Mechanical properties :
#
#
# Convention : Reuss Voigt Hill
#
# Bulk Modulus (GPa) = 38.04630 68.21731 53.13181
# Shear Modulus (GPa) = 33.67013 49.59280 41.63147
#
# Velocity S-wave (km/s) = 3.72936 4.52606 4.14689
# Velocity P-wave (km/s) = 5.85319 7.44930 6.69896
#
# Compressibility (1/GPa) = 0.02628376
#
# Stress axis : x y z
#
# Youngs Moduli (GPa) = 135.69734 34.20907 89.73257
#
# Poissons Ratio (x) = -0.06158 0.33508
# Poissons Ratio (y) = -0.24427 0.78936
# Poissons Ratio (z) = 0.50672 0.30093
#
# Static dielectric constant tensor:
#      x y z
#    x 1.900390 -0.037010 0.033380 
#    y -0.037010 2.020730 -0.076400 
#    z 0.033380 -0.076400 1.956800 
# 
# From -- ./inp_files/116706.got.cif
#   From: 2010.05.17/outbox.cif.g08.bks.cpg/sg2_59_cif.got.tgz:116706.got - 2010.06.03 11:33:40.
