data_PCOD9062234
_publ_section_title
;
Structure prediction by ZEFSAII (Michael W. Deem and Ramdas Pophale) SiO2 
 PCOD9062234
Probable space group: P -1
;
_chemical_formula_sum "Si O2"
_cell_formula_units_Z 13
_cell_length_a 13.703270
_cell_length_b 11.501791
_cell_length_c 9.151763
_cell_angle_alpha 121.663805
_cell_angle_beta 146.928560
_cell_angle_gamma 43.063389
_cell_volume 522.484250
_symmetry_space_group_name_H-M "P -1"
_symmetry_group_IT_number 2
_symmetry_cell_setting 'triclinic'
loop_
_space_group_symop_operation_xyz
x,y,z
-x,-y,-z
loop_
_atom_site_type_symbol
_atom_site_label
_atom_site_fract_x
_atom_site_fract_y
_atom_site_fract_z
Si Si1 0.364903 0.960033 0.090652
Si Si2 0.013708 0.120406 0.308230
Si Si3 0.000000 0.000000 0.500000
Si Si4 0.928152 0.453550 0.025560
Si Si5 0.794433 0.676504 0.275896
Si Si6 0.436090 0.208299 0.477735
Si Si7 0.739547 0.261394 0.756462
O O1 0.549258 0.783697 0.115883
O O2 0.370276 0.907592 0.231899
O O3 0.443398 0.079512 0.289873
O O4 0.132704 0.069551 0.779965
O O5 0.149284 0.191554 0.561967
O O6 0.888411 0.140892 0.314912
O O7 0.167271 0.912318 0.333025
O O8 0.878061 0.212953 0.050024
O O9 0.791864 0.615330 0.071299
O O10 0.191852 0.307721 0.317492
O O11 0.796012 0.371701 0.811383
O O12 0.000000 0.500000 0.000000
O O13 0.000000 0.500000 0.500000
O O14 0.493028 0.323623 0.545319
#
# Coordination Sequence:
#
# PCOD9062234 Si02
#       7
#     2   2   1   2   2   2   2
#     4  11  24  46  76 117 151 204 260 314 385 465
#     4  11  24  43  73 111 149 194 259 312 377 463
#     4  12  26  42  74 114 150 188 268 326 352 454
#     4  12  29  48  75 112 159 195 257 329 394 452
#     4  12  24  48  73 110 156 199 251 328 391 449
#     4  11  23  48  80 107 151 214 256 304 394 473
#     4  11  23  48  75 107 149 210 252 307 387 477
#
# _framework density 24.881132000000001
#
# number of rings (size 3 to 8) (size 9 to 14) (size 15 to 20)
#    0.000    0.615    6.154    0.923    8.615    2.462 
#    2.769    2.308    0.000    0.000    0.000    0.000 
#    0.000    0.000    0.000    0.000    0.000    0.000 
#
# Total GULP energy -72401.373216 kJ/mol
# GULP energy per Si atom -5569.336401 kJ/mol
# Density = 2.482450 g / cm^3
# Si number density = 24.881132 Si / 1000 Ang^3
#
#
#
# Elastic Constant Matrix: (Units=GPa)
#
#
# Indices 1 2 3 4 5 6 
#
# 1 160.7180 66.1856 50.5237 16.4474 17.0034 22.6041
# 2 66.1856 85.6986 50.8905 30.6638 -13.2214 6.7702
# 3 50.5237 50.8905 131.9892 30.0745 -4.8820 15.5335
# 4 16.4474 30.6638 30.0745 36.2416 8.2410 -0.0608
# 5 17.0034 -13.2214 -4.8820 8.2410 42.8063 1.4643
# 6 22.6041 6.7702 15.5335 -0.0608 1.4643 59.2062
#
#
#
# Elastic Compliance Matrix: (Units=1/GPa)
#
#
# Indices 1 2 3 4 5 6 
#
# 1 0.013475 -0.014693 -0.002098 0.010809 -0.012122 -0.002603
# 2 -0.014693 0.037902 -0.001593 -0.029299 0.022964 0.001095
# 3 -0.002098 -0.001593 0.011081 -0.007613 0.003139 -0.002010
# 4 0.010809 -0.029299 -0.007613 0.059655 -0.025762 0.001919
# 5 -0.012122 0.022964 0.003139 -0.025762 0.040582 0.000148
# 6 -0.002603 0.001095 -0.002010 0.001919 0.000148 0.018284
#
#
# Mechanical properties :
#
#
# Convention : Reuss Voigt Hill
#
# Bulk Modulus (GPa) = 38.92593 79.28948 59.10770
# Shear Modulus (GPa) = 22.09368 41.70456 31.89912
#
# Velocity S-wave (km/s) = 2.98311 4.09852 3.58447
# Velocity P-wave (km/s) = 5.24824 7.37114 6.39835
#
# Compressibility (1/GPa) = 0.02568982
#
# Stress axis : x y z
#
# Youngs Moduli (GPa) = 74.21350 26.38380 90.24629
#
# Poissons Ratio (x) = 0.38766 0.18932
# Poissons Ratio (y) = 1.09042 0.14377
# Poissons Ratio (z) = 0.15569 0.04203
#
# Static dielectric constant tensor:
#      x y z
#    x 2.179590 0.044290 0.126600 
#    y 0.044290 2.004460 -0.054690 
#    z 0.126600 -0.054690 2.085930 
# 
# From -- ./inp_files/308662.got.cif
#   From: 2010.05.17/outbox.cif.g08.bks.cpg/sg2_155_cif.got.tgz:308662.got - 2010.06.03 11:33:40.
