data_PCOD9062145
_publ_section_title
;
Structure prediction by ZEFSAII (Michael W. Deem and Ramdas Pophale) SiO2 
 PCOD9062145
Probable space group: P -1
;
_chemical_formula_sum "Si O2"
_cell_formula_units_Z 16
_cell_length_a 14.321835
_cell_length_b 8.121026
_cell_length_c 6.895947
_cell_angle_alpha 119.453513
_cell_angle_beta 76.563480
_cell_angle_gamma 75.416870
_cell_volume 612.554094
_symmetry_space_group_name_H-M "P -1"
_symmetry_group_IT_number 2
_symmetry_cell_setting 'triclinic'
loop_
_space_group_symop_operation_xyz
x,y,z
-x,-y,-z
loop_
_atom_site_type_symbol
_atom_site_label
_atom_site_fract_x
_atom_site_fract_y
_atom_site_fract_z
Si Si1 0.324002 0.419184 0.634800
Si Si2 0.249007 0.751651 0.509896
Si Si3 0.000270 0.007953 0.237887
Si Si4 0.889606 0.481979 0.083421
Si Si5 0.704338 0.966480 0.055478
Si Si6 0.486770 0.965152 0.259969
Si Si7 0.895075 0.691370 0.593283
Si Si8 0.377082 0.690298 0.026273
O O1 0.275146 0.579786 0.569849
O O2 0.236405 0.441036 0.856553
O O3 0.404072 0.494836 0.755073
O O4 0.386054 0.185449 0.390157
O O5 0.124131 0.862295 0.580137
O O6 0.276307 0.930289 0.699792
O O7 0.318939 0.673386 0.239164
O O8 0.067313 0.127009 0.350315
O O9 0.063060 0.765878 0.116834
O O10 0.000000 0.000000 0.000000
O O11 0.860907 0.608767 0.374407
O O12 0.000000 0.500000 0.000000
O O13 0.594172 0.951905 0.107640
O O14 0.698651 0.117145 0.964348
O O15 0.807902 0.755086 0.840269
O O16 0.465310 0.767212 0.096105
O O17 0.500000 0.000000 0.500000
O O18 0.000000 0.500000 0.500000
#
# Coordination Sequence:
#
# PCOD9062145 Si02
#       8
#     2   2   2   2   2   2   2   2
#     4  11  27  52  72 109 151 194 253 309 371 449
#     4  11  23  47  76 108 155 194 245 315 369 447
#     4  12  22  45  72 108 152 193 246 304 371 443
#     4  12  28  45  71 113 151 195 252 309 368 456
#     4  11  24  48  75 108 152 192 252 310 368 444
#     4  12  27  52  77 106 151 197 250 317 367 444
#     4  12  24  45  77 106 146 205 243 300 389 437
#     4  11  26  48  78 110 141 202 246 305 385 438
#
# _framework density 26.120141
#
# number of rings (size 3 to 8) (size 9 to 14) (size 15 to 20)
#    0.000    0.500    5.000    1.875    5.250    4.000 
#    6.750    1.250    0.000    0.000    0.000    0.000 
#    0.000    0.000    0.000    0.000    0.000    0.000 
#
# Total GULP energy -89530.134326 kJ/mol
# GULP energy per Si atom -5595.633395 kJ/mol
# Density = 2.606069 g / cm^3
# Si number density = 26.120141 Si / 1000 Ang^3
#
#
#
# Elastic Constant Matrix: (Units=GPa)
#
#
# Indices 1 2 3 4 5 6 
#
# 1 139.1875 44.6592 50.8096 8.5270 -5.3006 24.1126
# 2 44.6592 58.8344 55.0666 -3.8068 -2.6956 23.0650
# 3 50.8096 55.0666 131.6637 -0.8894 -1.8400 12.4922
# 4 8.5270 -3.8068 -0.8894 47.1964 -4.0339 4.6420
# 5 -5.3006 -2.6956 -1.8400 -4.0339 72.9200 -0.5695
# 6 24.1126 23.0650 12.4922 4.6420 -0.5695 43.5169
#
#
#
# Elastic Compliance Matrix: (Units=1/GPa)
#
#
# Indices 1 2 3 4 5 6 
#
# 1 0.009960 -0.005756 -0.001267 -0.002073 0.000350 -0.001878
# 2 -0.005756 0.039577 -0.012890 0.005509 0.000910 -0.014663
# 3 -0.001267 -0.012890 0.013098 -0.000967 -0.000261 0.003874
# 4 -0.002073 0.005509 -0.000967 0.022476 0.001242 -0.003875
# 5 0.000350 0.000910 -0.000261 0.001242 0.013831 -0.000552
# 6 -0.001878 -0.014663 0.003874 -0.003875 -0.000552 0.031086
#
#
# Mechanical properties :
#
#
# Convention : Reuss Voigt Hill
#
# Bulk Modulus (GPa) = 43.84423 70.08404 56.96414
# Shear Modulus (GPa) = 28.17605 44.67000 36.42303
#
# Velocity S-wave (km/s) = 3.28793 4.13991 3.73827
# Velocity P-wave (km/s) = 5.58892 7.05277 6.36308
#
# Compressibility (1/GPa) = 0.02280802
#
# Stress axis : x y z
#
# Youngs Moduli (GPa) = 100.40567 25.26713 76.35037
#
# Poissons Ratio (x) = 0.14543 0.09674
# Poissons Ratio (y) = 0.57791 0.98418
# Poissons Ratio (z) = 0.12722 0.32570
#
# Static dielectric constant tensor:
#      x y z
#    x 2.330500 -0.021090 -0.043360 
#    y -0.021090 2.130300 -0.032760 
#    z -0.043360 -0.032760 1.949540 
# 
# From -- ./inp_files/299621.got.cif
#   From: 2010.05.17/outbox.cif.g08.bks.cpg/sg2_150_cif.got.tgz:299621.got - 2010.06.03 11:33:40.
