data_PCOD9062850
_publ_section_title
;
Structure prediction by ZEFSAII (Michael W. Deem and Ramdas Pophale) SiO2 
 PCOD9062850
Probable space group: P -1
;
_chemical_formula_sum "Si O2"
_cell_formula_units_Z 14
_cell_length_a 16.641307
_cell_length_b 4.977117
_cell_length_c 26.005585
_cell_angle_alpha 87.643346
_cell_angle_beta 17.373783
_cell_angle_gamma 96.447537
_cell_volume 553.565235
_symmetry_space_group_name_H-M "P -1"
_symmetry_group_IT_number 2
_symmetry_cell_setting 'triclinic'
loop_
_space_group_symop_operation_xyz
x,y,z
-x,-y,-z
loop_
_atom_site_type_symbol
_atom_site_label
_atom_site_fract_x
_atom_site_fract_y
_atom_site_fract_z
Si Si1 0.230238 0.665598 0.405216
Si Si2 0.914529 0.894091 0.838977
Si Si3 0.249864 0.344073 0.218932
Si Si4 0.753684 0.718584 0.514216
Si Si5 0.081884 0.884402 0.051164
Si Si6 0.040995 0.502073 0.696873
Si Si7 0.829943 0.277014 0.154124
O O1 0.326864 0.451246 0.380617
O O2 0.000000 0.500000 0.500000
O O3 0.013332 0.707944 0.578240
O O4 0.548531 0.955783 0.187891
O O5 0.972153 0.013052 0.860915
O O6 0.135565 0.784745 0.676941
O O7 0.916851 0.176730 0.804690
O O8 0.580022 0.574462 0.040484
O O9 0.202773 0.481374 0.193560
O O10 0.122762 0.981046 0.287595
O O11 0.533224 0.855955 0.634497
O O12 0.709857 0.495051 0.494959
O O13 0.942264 0.033191 0.096020
O O14 0.929051 0.516566 0.139479
O O15 0.000000 0.500000 0.000000
#
# Coordination Sequence:
#
# PCOD9062850 Si02
#       7
#     2   2   2   2   2   2   2
#     4  11  24  43  68 111 143 175 223 297 364 413
#     4  12  25  45  70 103 146 182 228 293 354 418
#     4  11  24  42  74 101 142 181 236 289 353 421
#     4  11  26  44  74 104 137 188 240 290 341 418
#     4  12  27  47  71 108 142 187 231 289 358 410
#     4  11  25  44  70 104 137 188 236 282 353 413
#     4  12  26  48  75 100 143 188 242 281 340 426
#
# _framework density 25.290607000000001
#
# number of rings (size 3 to 8) (size 9 to 14) (size 15 to 20)
#    0.000    0.571    4.286    3.000    8.000    1.714 
#    0.000    4.286    0.000    0.000    0.000    0.000 
#    0.000    0.000    0.000    0.000    0.000    0.000 
#
# Total GULP energy -78371.139345 kJ/mol
# GULP energy per Si atom -5597.938525 kJ/mol
# Density = 2.523304 g / cm^3
# Si number density = 25.290607 Si / 1000 Ang^3
#
#
#
# Elastic Constant Matrix: (Units=GPa)
#
#
# Indices 1 2 3 4 5 6 
#
# 1 118.8463 21.1816 35.0387 0.3314 23.0701 30.7887
# 2 21.1816 108.8793 22.4559 -3.0341 14.4429 23.6653
# 3 35.0387 22.4559 69.3243 -4.4982 -8.3315 3.5690
# 4 0.3314 -3.0341 -4.4982 42.9657 5.9398 1.3656
# 5 23.0701 14.4429 -8.3315 5.9398 31.0127 -1.0507
# 6 30.7887 23.6653 3.5690 1.3656 -1.0507 36.0608
#
#
#
# Elastic Compliance Matrix: (Units=1/GPa)
#
#
# Indices 1 2 3 4 5 6 
#
# 1 0.023033 0.007563 -0.015820 0.003099 -0.026311 -0.023947
# 2 0.007563 0.015565 -0.009839 0.002825 -0.016611 -0.016290
# 3 -0.015820 -0.009839 0.027537 -0.001674 0.024679 0.018021
# 4 0.003099 0.002825 -0.001674 0.024693 -0.008987 -0.005531
# 5 -0.026311 -0.016611 0.024679 -0.008987 0.069032 0.033275
# 6 -0.023947 -0.016290 0.018021 -0.005531 0.033275 0.058263
#
#
# Mechanical properties :
#
#
# Convention : Reuss Voigt Hill
#
# Bulk Modulus (GPa) = 33.39496 50.48914 41.94205
# Shear Modulus (GPa) = 18.91822 36.56612 27.74217
#
# Velocity S-wave (km/s) = 2.73799 3.80654 3.31560
# Velocity P-wave (km/s) = 4.81960 6.27109 5.59264
#
# Compressibility (1/GPa) = 0.02994464
#
# Stress axis : x y z
#
# Youngs Moduli (GPa) = 43.41624 64.24586 36.31419
#
# Poissons Ratio (x) = -0.48592 0.57448
# Poissons Ratio (y) = -0.32837 0.35730
# Poissons Ratio (z) = 0.68683 0.63213
#
# Static dielectric constant tensor:
#      x y z
#    x 1.974510 0.056790 0.032220 
#    y 0.056790 2.058510 0.026010 
#    z 0.032220 0.026010 2.066870 
# 
# From -- ./inp_files/108810.got.cif
#   From: 2010.05.17/outbox.cif.g08.bks.cpg/sg2_55_cif.got.tgz:108810.got - 2010.06.03 11:33:40.
