data_PCOD9062194
_publ_section_title
;
Structure prediction by ZEFSAII (Michael W. Deem and Ramdas Pophale) SiO2 
 PCOD9062194
Probable space group: P -1
;
_chemical_formula_sum "Si O2"
_cell_formula_units_Z 16
_cell_length_a 9.243865
_cell_length_b 15.582673
_cell_length_c 12.412907
_cell_angle_alpha 141.141991
_cell_angle_beta 47.764449
_cell_angle_gamma 135.709853
_cell_volume 755.972262
_symmetry_space_group_name_H-M "P -1"
_symmetry_group_IT_number 2
_symmetry_cell_setting 'triclinic'
loop_
_space_group_symop_operation_xyz
x,y,z
-x,-y,-z
loop_
_atom_site_type_symbol
_atom_site_label
_atom_site_fract_x
_atom_site_fract_y
_atom_site_fract_z
Si Si1 0.712662 0.646605 0.574489
Si Si2 0.187133 0.442489 0.335750
Si Si3 0.492412 0.239700 0.468845
Si Si4 0.369670 0.078556 0.581814
Si Si5 0.720912 0.645452 0.025079
Si Si6 0.059651 0.647599 0.037268
Si Si7 0.026551 0.186342 0.571666
Si Si8 0.443977 0.823005 0.855431
O O1 0.500000 0.500000 0.500000
O O2 0.801086 0.638430 0.638979
O O3 0.889864 0.677775 0.423881
O O4 0.649638 0.787838 0.741670
O O5 0.412201 0.590230 0.371640
O O6 0.000000 0.500000 0.500000
O O7 0.175478 0.357645 0.146722
O O8 0.502617 0.142912 0.468854
O O9 0.242989 0.182652 0.506686
O O10 0.615744 0.231524 0.291400
O O11 0.335463 0.211511 0.790376
O O12 0.500000 0.000000 0.500000
O O13 0.133921 0.959670 0.550592
O O14 0.869673 0.633366 0.036087
O O15 0.500000 0.500000 0.000000
O O16 0.090390 0.777196 0.234979
O O17 0.268703 0.715593 0.922476
O O18 0.000000 0.500000 0.000000
O O19 0.500000 0.000000 0.000000
#
# Coordination Sequence:
#
# PCOD9062194 Si02
#       8
#     2   2   2   2   2   2   2   2
#     4  11  24  46  75 104 137 194 248 293 367 446
#     4  12  26  46  74 106 151 191 245 307 366 439
#     4  11  23  48  70 100 146 193 238 301 366 431
#     4  12  28  46  74 110 151 195 240 305 386 442
#     4  12  28  48  71 107 149 193 248 307 371 444
#     4  12  27  43  79 111 142 190 262 304 362 445
#     4  11  24  45  75 101 145 184 248 301 365 426
#     4  11  25  42  72 111 142 181 245 312 368 430
#
# _framework density 21.164797
#
# number of rings (size 3 to 8) (size 9 to 14) (size 15 to 20)
#    0.000    0.500    5.000    2.625   10.500    1.000 
#    0.000    0.625    0.000    0.000    0.000    0.000 
#    0.000    0.000    0.000    0.000    0.000    0.000 
#
# Total GULP energy -89387.161209 kJ/mol
# GULP energy per Si atom -5586.697576 kJ/mol
# Density = 2.111662 g / cm^3
# Si number density = 21.164797 Si / 1000 Ang^3
#
#
#
# Elastic Constant Matrix: (Units=GPa)
#
#
# Indices 1 2 3 4 5 6 
#
# 1 128.4969 38.5588 66.2664 5.5763 1.2528 -37.4335
# 2 38.5588 94.0501 58.0441 -14.8063 12.0255 -31.0314
# 3 66.2664 58.0441 156.8011 -5.6011 16.2800 -14.1713
# 4 5.5763 -14.8063 -5.6011 50.5605 -4.5995 9.6996
# 5 1.2528 12.0255 16.2800 -4.5995 33.8569 -0.2108
# 6 -37.4335 -31.0314 -14.1713 9.6996 -0.2108 53.6611
#
#
#
# Elastic Compliance Matrix: (Units=1/GPa)
#
#
# Indices 1 2 3 4 5 6 
#
# 1 0.012915 -0.000338 -0.004883 -0.003487 0.001567 0.008161
# 2 -0.000338 0.017433 -0.005151 0.002743 -0.003280 0.007976
# 3 -0.004883 -0.005151 0.010329 0.000637 -0.002893 -0.003784
# 4 -0.003487 0.002743 0.000637 0.022098 0.001821 -0.004665
# 5 0.001567 -0.003280 -0.002893 0.001821 0.032271 -0.001770
# 6 0.008161 0.007976 -0.003784 -0.004665 -0.001770 0.028778
#
#
# Mechanical properties :
#
#
# Convention : Reuss Voigt Hill
#
# Bulk Modulus (GPa) = 50.16627 78.34298 64.25462
# Shear Modulus (GPa) = 33.06590 42.04761 37.55676
#
# Velocity S-wave (km/s) = 3.95689 4.46205 4.21704
# Velocity P-wave (km/s) = 6.68058 7.97763 7.35774
#
# Compressibility (1/GPa) = 0.01993371
#
# Stress axis : x y z
#
# Youngs Moduli (GPa) = 77.42711 57.36114 96.81491
#
# Poissons Ratio (x) = 0.01941 0.47272
# Poissons Ratio (y) = 0.02620 0.49869
# Poissons Ratio (z) = 0.37805 0.29547
#
# Static dielectric constant tensor:
#      x y z
#    x 1.634420 0.294020 0.014720 
#    y 0.294020 1.062530 -0.077430 
#    z 0.014720 -0.077430 1.796840 
# 
# From -- ./inp_files/399758.got.cif
#   From: 2010.05.17/outbox.cif.g08.bks.cpg/sg2_200_cif.got.tgz:399758.got - 2010.06.03 11:33:40.
