data_PCOD9062075
_publ_section_title
;
Structure prediction by ZEFSAII (Michael W. Deem and Ramdas Pophale) SiO2 
 PCOD9062075
Probable space group: P -1
;
_chemical_formula_sum "Si O2"
_cell_formula_units_Z 16
_cell_length_a 17.015618
_cell_length_b 12.029583
_cell_length_c 9.223533
_cell_angle_alpha 88.623269
_cell_angle_beta 135.615131
_cell_angle_gamma 127.195775
_cell_volume 716.382711
_symmetry_space_group_name_H-M "P -1"
_symmetry_group_IT_number 2
_symmetry_cell_setting 'triclinic'
loop_
_space_group_symop_operation_xyz
x,y,z
-x,-y,-z
loop_
_atom_site_type_symbol
_atom_site_label
_atom_site_fract_x
_atom_site_fract_y
_atom_site_fract_z
Si Si1 0.113086 0.608926 0.297050
Si Si2 0.046192 0.894979 0.921549
Si Si3 0.980701 0.715603 0.297513
Si Si4 0.294165 0.313699 0.142612
Si Si5 0.427806 0.440177 0.741665
Si Si6 0.049161 0.711468 0.702880
Si Si7 0.680798 0.903126 0.441499
Si Si8 0.537902 0.056909 0.877353
O O1 0.349392 0.833118 0.564948
O O2 0.017518 0.632746 0.260854
O O3 0.089499 0.483439 0.373959
O O4 0.000000 0.500000 0.000000
O O5 0.114897 0.868089 0.886461
O O6 0.795601 0.691242 0.587240
O O7 0.134136 0.091454 0.000842
O O8 0.155008 0.948544 0.213592
O O9 0.940769 0.663123 0.415413
O O10 0.808801 0.652103 0.007515
O O11 0.193207 0.961247 0.542579
O O12 0.500000 0.500000 0.500000
O O13 0.384004 0.349896 0.105921
O O14 0.400860 0.289063 0.664415
O O15 0.500000 0.500000 0.000000
O O16 0.244245 0.804189 0.896906
O O17 0.503357 0.848716 0.217707
O O18 0.500000 0.000000 0.000000
#
# Coordination Sequence:
#
# PCOD9062075 Si02
#       8
#     2   2   2   2   2   2   2   2
#     4  11  26  47  71 107 144 185 239 294 356 427
#     4  12  27  48  70 106 149 184 240 298 357 428
#     4  11  24  45  72 102 145 183 237 303 350 417
#     4  12  26  45  73 105 138 194 242 287 361 426
#     4  12  27  45  73 105 142 189 238 297 358 424
#     4  12  26  45  76 105 144 189 232 300 357 423
#     4  11  23  47  71  99 148 187 231 307 351 415
#     4  11  25  45  74 104 140 187 240 289 356 423
#
# _framework density 22.334430000000001
#
# number of rings (size 3 to 8) (size 9 to 14) (size 15 to 20)
#    0.000    0.500    5.000    3.750    3.500    6.000 
#    0.000    0.000    0.000    0.000    0.000    0.000 
#    0.000    0.000    0.000    0.000    0.000    0.000 
#
# Total GULP energy -89556.503273 kJ/mol
# GULP energy per Si atom -5597.281455 kJ/mol
# Density = 2.228360 g / cm^3
# Si number density = 22.334430 Si / 1000 Ang^3
#
#
#
# Elastic Constant Matrix: (Units=GPa)
#
#
# Indices 1 2 3 4 5 6 
#
# 1 65.4519 14.1969 18.5730 -13.9941 -0.4840 -5.0432
# 2 14.1969 89.6855 13.3507 -18.3717 -4.3960 -3.7891
# 3 18.5730 13.3507 89.4636 -15.9234 5.7847 -15.2990
# 4 -13.9941 -18.3717 -15.9234 39.0647 -0.1827 3.8745
# 5 -0.4840 -4.3960 5.7847 -0.1827 40.3263 -9.0918
# 6 -5.0432 -3.7891 -15.2990 3.8745 -9.0918 35.2084
#
#
#
# Elastic Compliance Matrix: (Units=1/GPa)
#
#
# Indices 1 2 3 4 5 6 
#
# 1 0.017310 -0.001389 -0.002477 0.004449 0.000641 0.000930
# 2 -0.001389 0.012626 -0.000669 0.005103 0.001644 0.000732
# 3 -0.002477 -0.000669 0.013327 0.003759 -0.000936 0.004709
# 4 0.004449 0.005103 0.003759 0.031183 0.000078 -0.000592
# 5 0.000641 0.001644 -0.000936 0.000078 0.026637 0.006732
# 6 0.000930 0.000732 0.004709 -0.000592 0.006732 0.032464
#
#
# Mechanical properties :
#
#
# Convention : Reuss Voigt Hill
#
# Bulk Modulus (GPa) = 29.24571 37.42690 33.33631
# Shear Modulus (GPa) = 32.46442 36.15192 34.30817
#
# Velocity S-wave (km/s) = 3.81669 4.02763 3.92358
# Velocity P-wave (km/s) = 5.70489 6.19862 5.95687
#
# Compressibility (1/GPa) = 0.03419305
#
# Stress axis : x y z
#
# Youngs Moduli (GPa) = 57.76940 79.19950 75.03842
#
# Poissons Ratio (x) = 0.11004 0.18587
# Poissons Ratio (y) = 0.08026 0.05017
# Poissons Ratio (z) = 0.14309 0.05295
#
# Static dielectric constant tensor:
#      x y z
#    x 1.847620 0.038040 0.006130 
#    y 0.038040 1.868230 -0.021280 
#    z 0.006130 -0.021280 1.849800 
# 
# From -- ./inp_files/245850.got.cif
#   From: 2010.05.17/outbox.cif.g08.bks.cpg/sg2_123_cif.got.tgz:245850.got - 2010.06.03 11:33:40.
