data_PCOD9062985
_publ_section_title
;
Structure prediction by ZEFSAII (Michael W. Deem and Ramdas Pophale) SiO2 
 PCOD9062985
Probable space group: P -1
;
_chemical_formula_sum "Si O2"
_cell_formula_units_Z 14
_cell_length_a 9.622751
_cell_length_b 11.622104
_cell_length_c 14.819532
_cell_angle_alpha 29.655130
_cell_angle_beta 123.803352
_cell_angle_gamma 122.768485
_cell_volume 674.643751
_symmetry_space_group_name_H-M "P -1"
_symmetry_group_IT_number 2
_symmetry_cell_setting 'triclinic'
loop_
_space_group_symop_operation_xyz
x,y,z
-x,-y,-z
loop_
_atom_site_type_symbol
_atom_site_label
_atom_site_fract_x
_atom_site_fract_y
_atom_site_fract_z
Si Si1 0.776049 0.395588 0.473181
Si Si2 0.201234 0.575880 0.008230
Si Si3 0.190300 0.021321 0.589254
Si Si4 0.299168 0.465382 0.447635
Si Si5 0.970541 0.861607 0.178770
Si Si6 0.430006 0.209239 0.384219
Si Si7 0.691713 0.138503 0.967228
O O1 0.758562 0.497313 0.497640
O O2 0.893296 0.587354 0.325210
O O3 0.595519 0.356696 0.387341
O O4 0.862980 0.162287 0.684520
O O5 0.312780 0.365892 0.179548
O O6 0.270159 0.711939 0.030720
O O7 0.000000 0.500000 0.000000
O O8 0.224890 0.768621 0.807434
O O9 0.223639 0.215955 0.547754
O O10 0.313341 0.109166 0.492940
O O11 0.000000 0.000000 0.500000
O O12 0.500000 0.500000 0.500000
O O13 0.271102 0.675295 0.227545
O O14 0.829814 0.968037 0.113556
O O15 0.000000 0.000000 0.000000
O O16 0.500000 0.000000 0.500000
O O17 0.500000 0.000000 0.000000
#
# Coordination Sequence:
#
# PCOD9062985 Si02
#       7
#     2   2   2   2   2   2   2
#     4  11  25  44  69 103 146 186 236 298 359 423
#     4  12  25  47  72 103 140 188 243 292 355 426
#     4  12  25  46  76 107 141 188 242 297 354 430
#     4  12  21  42  72 104 138 184 236 294 353 422
#     4  11  24  43  68 104 141 183 230 293 362 426
#     4  12  28  48  70 105 147 189 239 299 366 426
#     4  12  24  42  73 106 139 181 238 296 355 427
#
# _framework density 20.751694000000001
#
# number of rings (size 3 to 8) (size 9 to 14) (size 15 to 20)
#    0.000    0.286    5.714    3.429    2.000    4.000 
#    2.571    0.000    0.000    0.000    0.000    0.000 
#    0.000    0.000    0.000    0.000    0.000    0.000 
#
# Total GULP energy -78247.816729 kJ/mol
# GULP energy per Si atom -5589.129766 kJ/mol
# Density = 2.070446 g / cm^3
# Si number density = 20.751694 Si / 1000 Ang^3
#
#
#
# Elastic Constant Matrix: (Units=GPa)
#
#
# Indices 1 2 3 4 5 6 
#
# 1 108.5082 42.0199 35.8872 -5.7036 21.6607 12.6407
# 2 42.0199 106.4812 16.5828 -2.3439 11.0276 16.4694
# 3 35.8872 16.5828 177.6438 4.0018 10.2020 9.0976
# 4 -5.7036 -2.3439 4.0018 24.1928 1.8251 3.7048
# 5 21.6607 11.0276 10.2020 1.8251 55.0861 -2.5611
# 6 12.6407 16.4694 9.0976 3.7048 -2.5611 42.1637
#
#
#
# Elastic Compliance Matrix: (Units=1/GPa)
#
#
# Indices 1 2 3 4 5 6 
#
# 1 0.012608 -0.003797 -0.001914 0.003603 -0.004076 -0.002448
# 2 -0.003797 0.011567 -0.000096 0.000852 -0.000995 -0.003494
# 3 -0.001914 -0.000096 0.006106 -0.001352 -0.000342 -0.000608
# 4 0.003603 0.000852 -0.001352 0.043503 -0.003017 -0.005127
# 5 -0.004076 -0.000995 -0.000342 -0.003017 0.020267 0.003181
# 6 -0.002448 -0.003494 -0.000608 -0.005127 0.003181 0.026591
#
#
# Mechanical properties :
#
#
# Convention : Reuss Voigt Hill
#
# Bulk Modulus (GPa) = 53.57159 64.62368 59.09764
# Shear Modulus (GPa) = 36.10690 44.16473 40.13581
#
# Velocity S-wave (km/s) = 4.17580 4.61830 4.40261
# Velocity P-wave (km/s) = 7.00866 7.72316 7.37457
#
# Compressibility (1/GPa) = 0.01866661
#
# Stress axis : x y z
#
# Youngs Moduli (GPa) = 79.31678 86.45308 163.76902
#
# Poissons Ratio (x) = 0.32827 0.31350
# Poissons Ratio (y) = 0.30117 0.01568
# Poissons Ratio (z) = 0.15183 0.00828
#
# Static dielectric constant tensor:
#      x y z
#    x 1.694620 0.018430 0.186480 
#    y 0.018430 1.728610 -0.056710 
#    z 0.186480 -0.056710 1.304070 
# 
# From -- ./inp_files/498722.got.cif
#   From: 2010.05.17/outbox.cif.g08.bks.cpg/sg2_250_cif.got.tgz:498722.got - 2010.06.03 11:33:40.
