data_PCOD9062680
_publ_section_title
;
Structure prediction by ZEFSAII (Michael W. Deem and Ramdas Pophale) SiO2 
 PCOD9062680
Probable space group: P -1
;
_chemical_formula_sum "Si O2"
_cell_formula_units_Z 15
_cell_length_a 25.606601
_cell_length_b 27.447725
_cell_length_c 5.517179
_cell_angle_alpha 123.358033
_cell_angle_beta 125.163117
_cell_angle_gamma 10.322766
_cell_volume 564.348205
_symmetry_space_group_name_H-M "P -1"
_symmetry_group_IT_number 2
_symmetry_cell_setting 'triclinic'
loop_
_space_group_symop_operation_xyz
x,y,z
-x,-y,-z
loop_
_atom_site_type_symbol
_atom_site_label
_atom_site_fract_x
_atom_site_fract_y
_atom_site_fract_z
Si Si1 0.305024 0.116959 0.756331
Si Si2 0.000000 0.000000 0.500000
Si Si3 0.367462 0.573944 0.041914
Si Si4 0.554366 0.332404 0.273472
Si Si5 0.988711 0.196812 0.593384
Si Si6 0.340381 0.302668 0.622301
Si Si7 0.994358 0.322253 0.855780
Si Si8 0.488461 0.743575 0.332300
O O1 0.972169 0.429288 0.624962
O O2 0.262892 0.119666 0.905183
O O3 0.472883 0.923529 0.489391
O O4 0.500000 0.000000 0.000000
O O5 0.182151 0.881042 0.438417
O O6 0.123502 0.828087 0.228497
O O7 0.232864 0.633257 0.741604
O O8 0.500000 0.500000 0.000000
O O9 0.621347 0.325055 0.233270
O O10 0.210935 0.646057 0.287589
O O11 0.575976 0.248718 0.008158
O O12 0.037487 0.222791 0.836680
O O13 0.304056 0.896705 0.503958
O O14 0.546848 0.163369 0.640315
O O15 0.223740 0.439966 0.926862
O O16 0.827377 0.445406 0.509777
#
# Coordination Sequence:
#
# PCOD9062680 Si02
#       8
#     2   1   2   2   2   2   2   2
#     4  11  26  47  73 110 155 192 235 289 350 424
#     4  12  26  44  64  92 128 176 226 286 354 428
#     4  12  27  45  64  94 131 173 228 289 357 427
#     4  12  26  44  66  97 128 177 234 289 356 429
#     4  12  24  42  68  97 131 178 227 294 357 414
#     4  11  25  44  75 108 145 191 241 291 350 424
#     4  11  25  43  71 105 140 182 241 286 357 415
#     4  11  24  42  68 100 136 176 231 300 351 420
#
# _framework density 26.579335
#
# number of rings (size 3 to 8) (size 9 to 14) (size 15 to 20)
#    0.000    0.533    6.667    0.800    1.867    4.800 
#    0.000    0.000    0.000    0.000    0.000    0.000 
#    0.000    0.000    0.000    0.000    0.000    0.000 
#
# Total GULP energy -83731.901531 kJ/mol
# GULP energy per Si atom -5582.126769 kJ/mol
# Density = 2.651884 g / cm^3
# Si number density = 26.579335 Si / 1000 Ang^3
#
#
#
# Elastic Constant Matrix: (Units=GPa)
#
#
# Indices 1 2 3 4 5 6 
#
# 1 123.3616 62.5885 59.4539 -5.2593 33.2907 -34.6647
# 2 62.5885 151.0776 43.0968 17.3645 16.5142 -18.4682
# 3 59.4539 43.0968 115.6774 9.7869 30.6602 -18.8193
# 4 -5.2593 17.3645 9.7869 56.5135 0.6085 9.8135
# 5 33.2907 16.5142 30.6602 0.6085 46.2736 -10.5845
# 6 -34.6647 -18.4682 -18.8193 9.8135 -10.5845 49.3600
#
#
#
# Elastic Compliance Matrix: (Units=1/GPa)
#
#
# Indices 1 2 3 4 5 6 
#
# 1 0.015564 -0.004185 -0.004181 0.002461 -0.005574 0.006086
# 2 -0.004185 0.009024 -0.000990 -0.003142 0.000677 0.000830
# 3 -0.004181 -0.000990 0.012825 -0.002431 -0.004871 0.001022
# 4 0.002461 -0.003142 -0.002431 0.020084 -0.000317 -0.004435
# 5 -0.005574 0.000677 -0.004871 -0.000317 0.028774 0.000715
# 6 0.006086 0.000830 0.001022 -0.004435 0.000715 0.026269
#
#
# Mechanical properties :
#
#
# Convention : Reuss Voigt Hill
#
# Bulk Modulus (GPa) = 53.47078 80.04389 66.75733
# Shear Modulus (GPa) = 36.36799 45.42792 40.89796
#
# Velocity S-wave (km/s) = 3.70304 4.13867 3.92690
# Velocity P-wave (km/s) = 6.20036 7.28138 6.76251
#
# Compressibility (1/GPa) = 0.01870180
#
# Stress axis : x y z
#
# Youngs Moduli (GPa) = 64.25277 110.81971 77.97080
#
# Poissons Ratio (x) = 0.46375 0.32599
# Poissons Ratio (y) = 0.26888 0.07717
# Poissons Ratio (z) = 0.26864 0.10968
#
# Static dielectric constant tensor:
#      x y z
#    x 2.241610 0.032880 -0.147430 
#    y 0.032880 2.259030 -0.007160 
#    z -0.147430 -0.007160 2.131060 
# 
# From -- ./inp_files/7812.got.cif
#   From: 2010.05.17/outbox.cif.g08.bks.cpg/sg2_4_cif.got.tgz:7812.got - 2010.06.03 11:33:40.
