data_PCOD9062118
_publ_section_title
;
Structure prediction by ZEFSAII (Michael W. Deem and Ramdas Pophale) SiO2 
 PCOD9062118
Probable space group: P -1
;
_chemical_formula_sum "Si O2"
_cell_formula_units_Z 11
_cell_length_a 12.687448
_cell_length_b 7.840719
_cell_length_c 5.729323
_cell_angle_alpha 114.304568
_cell_angle_beta 123.934983
_cell_angle_gamma 63.460733
_cell_volume 412.822400
_symmetry_space_group_name_H-M "P -1"
_symmetry_group_IT_number 2
_symmetry_cell_setting 'triclinic'
loop_
_space_group_symop_operation_xyz
x,y,z
-x,-y,-z
loop_
_atom_site_type_symbol
_atom_site_label
_atom_site_fract_x
_atom_site_fract_y
_atom_site_fract_z
Si Si1 0.766401 0.617531 0.659493
Si Si2 0.926575 0.139833 0.189224
Si Si3 0.743571 0.962785 0.153548
Si Si4 0.492339 0.711889 0.212269
Si Si5 0.000000 0.500000 0.500000
Si Si6 0.704049 0.266804 0.641339
O O1 0.639657 0.730802 0.412179
O O2 0.734620 0.415532 0.576410
O O3 0.899434 0.582541 0.655178
O O4 0.758010 0.745055 0.957763
O O5 0.866088 0.021975 0.225773
O O6 0.007252 0.279382 0.457871
O O7 0.798995 0.285699 0.983743
O O8 0.000000 0.000000 0.000000
O O9 0.737803 0.050376 0.454091
O O10 0.610204 0.110623 0.950867
O O11 0.438958 0.701300 0.403366
O O12 0.500000 0.500000 0.000000
#
# Coordination Sequence:
#
# PCOD9062118 Si02
#       6
#     2   2   2   2   1   2
#     4  12  24  44  71 104 138 183 231 275 344 407
#     4  11  24  46  68  97 140 183 225 282 340 405
#     4  11  24  45  70 105 136 180 227 285 342 403
#     4  11  23  47  73  98 144 178 224 288 343 400
#     4  12  24  46  72  96 144 184 222 282 346 396
#     4  11  25  45  71 101 136 180 228 288 338 403
#
# _framework density 26.645838000000001
#
# number of rings (size 3 to 8) (size 9 to 14) (size 15 to 20)
#    0.000    0.727    5.455    2.182    0.000    3.636 
#    6.545    0.000    0.000    0.000    0.000    0.000 
#    0.000    0.000    0.000    0.000    0.000    0.000 
#
# Total GULP energy -61370.779728 kJ/mol
# GULP energy per Si atom -5579.161793 kJ/mol
# Density = 2.658519 g / cm^3
# Si number density = 26.645838 Si / 1000 Ang^3
#
#
#
# Elastic Constant Matrix: (Units=GPa)
#
#
# Indices 1 2 3 4 5 6 
#
# 1 111.3982 40.4831 18.6201 18.5512 -24.9789 -9.1301
# 2 40.4831 111.7123 41.2982 38.0107 4.7617 6.0002
# 3 18.6201 41.2982 100.3896 26.0515 -3.8309 -15.2942
# 4 18.5512 38.0107 26.0515 67.6147 -13.4370 -14.3109
# 5 -24.9789 4.7617 -3.8309 -13.4370 35.1030 14.2050
# 6 -9.1301 6.0002 -15.2942 -14.3109 14.2050 44.4870
#
#
#
# Elastic Compliance Matrix: (Units=1/GPa)
#
#
# Indices 1 2 3 4 5 6 
#
# 1 0.013292 -0.006006 0.000006 0.002023 0.010740 0.000762
# 2 -0.006006 0.016290 -0.004472 -0.008486 -0.008160 -0.005092
# 3 0.000006 -0.004472 0.012901 -0.001560 -0.000476 0.004690
# 4 0.002023 -0.008486 -0.001560 0.022515 0.008835 0.005445
# 5 0.010740 -0.008160 -0.000476 0.008835 0.043806 -0.008004
# 6 0.000762 -0.005092 0.004690 0.005445 -0.008004 0.029241
#
#
# Mechanical properties :
#
#
# Convention : Reuss Voigt Hill
#
# Bulk Modulus (GPa) = 46.42717 58.25588 52.34152
# Shear Modulus (GPa) = 30.08975 44.31419 37.20197
#
# Velocity S-wave (km/s) = 3.36407 4.08251 3.74058
# Velocity P-wave (km/s) = 5.70534 6.64327 6.19209
#
# Compressibility (1/GPa) = 0.02153911
#
# Stress axis : x y z
#
# Youngs Moduli (GPa) = 75.23152 61.38668 77.51294
#
# Poissons Ratio (x) = 0.36870 -0.00050
# Poissons Ratio (y) = 0.45186 0.34667
# Poissons Ratio (z) = -0.00048 0.27455
#
# Static dielectric constant tensor:
#      x y z
#    x 1.614400 0.034560 -0.210430 
#    y 0.034560 2.062760 -0.035970 
#    z -0.210430 -0.035970 2.038860 
# 
# From -- ./inp_files/19807.got.cif
#   From: 2010.05.17/outbox.cif.g08.bks.cpg/sg2_10_cif.got.tgz:19807.got - 2010.06.03 11:33:40.
