data_PCOD9062741
_publ_section_title
;
Structure prediction by ZEFSAII (Michael W. Deem and Ramdas Pophale) SiO2 
 PCOD9062741
Probable space group: P -1
;
_chemical_formula_sum "Si O2"
_cell_formula_units_Z 16
_cell_length_a 6.609677
_cell_length_b 15.473044
_cell_length_c 14.621225
_cell_angle_alpha 141.226593
_cell_angle_beta 60.845468
_cell_angle_gamma 130.247102
_cell_volume 714.327280
_symmetry_space_group_name_H-M "P -1"
_symmetry_group_IT_number 2
_symmetry_cell_setting 'triclinic'
loop_
_space_group_symop_operation_xyz
x,y,z
-x,-y,-z
loop_
_atom_site_type_symbol
_atom_site_label
_atom_site_fract_x
_atom_site_fract_y
_atom_site_fract_z
Si Si1 0.808839 0.563383 0.979871
Si Si2 0.193411 0.796111 0.946244
Si Si3 0.930007 0.303287 0.773892
Si Si4 0.978296 0.514572 0.625694
Si Si5 0.539178 0.019294 0.398005
Si Si6 0.237117 0.100162 0.099233
Si Si7 0.866248 0.746745 0.588671
Si Si8 0.390789 0.268200 0.549112
O O1 0.957576 0.703022 0.991305
O O2 0.875796 0.424284 0.826929
O O3 0.500000 0.500000 0.000000
O O4 0.921640 0.620169 0.102447
O O5 0.471038 0.817069 0.940515
O O6 0.120974 0.688158 0.781557
O O7 0.232544 0.968045 0.059636
O O8 0.124379 0.258029 0.639511
O O9 0.647423 0.156684 0.740943
O O10 0.662679 0.426832 0.644154
O O11 0.000000 0.500000 0.500000
O O12 0.101009 0.408763 0.552601
O O13 0.429383 0.128279 0.467642
O O14 0.847770 0.104168 0.375383
O O15 0.500000 0.000000 0.500000
O O16 0.200506 0.225704 0.271315
O O17 0.000000 0.000000 0.000000
O O18 0.653081 0.739929 0.557150
#
# Coordination Sequence:
#
# PCOD9062741 Si02
#       8
#     2   2   2   2   2   2   2   2
#     4  11  27  43  68  98 137 180 223 277 335 410
#     4  11  26  45  68  96 137 175 228 275 338 404
#     4  11  25  42  65 100 133 176 224 269 346 399
#     4  11  24  44  69  99 134 175 226 286 338 400
#     4  11  25  40  68 100 136 174 220 281 341 405
#     4  11  27  45  68  98 134 181 224 279 337 401
#     4  11  25  42  69 101 132 177 232 276 342 403
#     4  11  24  42  69  99 134 173 227 283 334 407
#
# _framework density 22.398698
#
# number of rings (size 3 to 8) (size 9 to 14) (size 15 to 20)
#    0.000    1.000    1.250    3.375    8.750    8.000 
#    0.000    0.000    0.000    0.000    0.000    0.000 
#    0.000    0.000    0.000    0.000    0.000    0.000 
#
# Total GULP energy -89562.991320 kJ/mol
# GULP energy per Si atom -5597.686958 kJ/mol
# Density = 2.234772 g / cm^3
# Si number density = 22.398698 Si / 1000 Ang^3
#
#
#
# Elastic Constant Matrix: (Units=GPa)
#
#
# Indices 1 2 3 4 5 6 
#
# 1 111.7351 9.6111 13.5874 -1.7292 13.2134 5.7206
# 2 9.6111 63.9911 -16.1503 -0.8736 -3.8778 12.2818
# 3 13.5874 -16.1503 52.8669 0.9893 8.0258 2.1814
# 4 -1.7292 -0.8736 0.9893 37.7459 1.5862 4.4163
# 5 13.2134 -3.8778 8.0258 1.5862 28.6124 -1.4456
# 6 5.7206 12.2818 2.1814 4.4163 -1.4456 36.9277
#
#
#
# Elastic Compliance Matrix: (Units=1/GPa)
#
#
# Indices 1 2 3 4 5 6 
#
# 1 0.010022 -0.002231 -0.002582 0.000763 -0.004295 -0.000918
# 2 -0.002231 0.018890 0.006373 0.000852 0.001434 -0.006359
# 3 -0.002582 0.006373 0.022321 0.000003 -0.004368 -0.003209
# 4 0.000763 0.000852 0.000003 0.027063 -0.001926 -0.003714
# 5 -0.004295 0.001434 -0.004368 -0.001926 0.038570 0.002187
# 6 -0.000918 -0.006359 -0.003209 -0.003714 0.002187 0.030056
#
#
# Mechanical properties :
#
#
# Convention : Reuss Voigt Hill
#
# Bulk Modulus (GPa) = 18.39806 26.96551 22.68179
# Shear Modulus (GPa) = 30.87954 35.42685 33.15319
#
# Velocity S-wave (km/s) = 3.71702 3.98131 3.85143
# Velocity P-wave (km/s) = 5.16269 5.76189 5.47050
#
# Compressibility (1/GPa) = 0.05435354
#
# Stress axis : x y z
#
# Youngs Moduli (GPa) = 99.77786 52.93937 44.80072
#
# Poissons Ratio (x) = 0.11809 0.11566
# Poissons Ratio (y) = 0.22256 -0.28550
# Poissons Ratio (z) = 0.25759 -0.33736
#
# Static dielectric constant tensor:
#      x y z
#    x 2.211350 0.012930 0.025860 
#    y 0.012930 1.818840 -0.006680 
#    z 0.025860 -0.006680 1.831150 
# 
# From -- ./inp_files/484457.got.cif
#   From: 2010.05.17/outbox.cif.g08.bks.cpg/sg2_243_cif.got.tgz:484457.got - 2010.06.03 11:33:40.
