data_PCOD9062248
_publ_section_title
;
Structure prediction by ZEFSAII (Michael W. Deem and Ramdas Pophale) SiO2 
 PCOD9062248
Probable space group: P -1
;
_chemical_formula_sum "Si O2"
_cell_formula_units_Z 16
_cell_length_a 21.790300
_cell_length_b 8.668621
_cell_length_c 9.059930
_cell_angle_alpha 50.572817
_cell_angle_beta 150.678654
_cell_angle_gamma 130.190957
_cell_volume 628.075150
_symmetry_space_group_name_H-M "P -1"
_symmetry_group_IT_number 2
_symmetry_cell_setting 'triclinic'
loop_
_space_group_symop_operation_xyz
x,y,z
-x,-y,-z
loop_
_atom_site_type_symbol
_atom_site_label
_atom_site_fract_x
_atom_site_fract_y
_atom_site_fract_z
Si Si1 0.297721 0.457143 0.377893
Si Si2 0.033774 0.074830 0.356743
Si Si3 0.623927 0.938339 0.229137
Si Si4 0.428516 0.876245 0.283423
Si Si5 0.088606 0.340800 0.805729
Si Si6 0.662260 0.739179 0.786361
Si Si7 0.291459 0.412730 0.717052
Si Si8 0.799601 0.175618 0.682873
O O1 0.370621 0.289751 0.569908
O O2 0.317198 0.688375 0.221826
O O3 0.350198 0.469998 0.645716
O O4 0.147491 0.355377 0.085510
O O5 0.176364 0.212092 0.572462
O O6 0.998324 0.876311 0.298061
O O7 0.943577 0.214239 0.018785
O O8 0.000000 0.000000 0.500000
O O9 0.754868 0.080276 0.486548
O O10 0.500000 0.000000 0.000000
O O11 0.614633 0.972774 0.014594
O O12 0.514508 0.751851 0.443165
O O13 0.500000 0.000000 0.500000
O O14 0.000000 0.500000 0.500000
O O15 0.225406 0.363451 0.985152
O O16 0.728235 0.984974 0.755523
O O17 0.640421 0.646471 0.961457
O O18 0.243919 0.615856 0.530683
#
# Coordination Sequence:
#
# PCOD9062248 Si02
#       8
#     2   2   2   2   2   2   2   2
#     4  12  29  49  71 115 154 197 256 319 374 458
#     4  11  23  48  77 105 148 197 257 312 371 455
#     4  12  26  48  79 107 148 203 251 311 383 450
#     4  12  28  48  80 114 157 200 255 321 382 451
#     4  11  26  47  76 110 154 197 256 317 385 447
#     4  11  24  50  74 113 152 196 256 316 368 467
#     4  12  27  44  79 106 150 205 246 309 386 448
#     4  11  24  46  75 110 145 191 260 299 382 455
#
# _framework density 25.474657000000001
#
# number of rings (size 3 to 8) (size 9 to 14) (size 15 to 20)
#    0.000    0.500    6.250    1.875    5.250    5.500 
#    0.000    0.000    0.000    0.000    0.000    0.000 
#    0.000    0.000    0.000    0.000    0.000    0.000 
#
# Total GULP energy -89337.273929 kJ/mol
# GULP energy per Si atom -5583.579621 kJ/mol
# Density = 2.541668 g / cm^3
# Si number density = 25.474657 Si / 1000 Ang^3
#
#
#
# Elastic Constant Matrix: (Units=GPa)
#
#
# Indices 1 2 3 4 5 6 
#
# 1 65.2073 4.6402 20.8721 -6.1750 -17.7848 -0.8398
# 2 4.6402 115.1755 24.6683 -11.1018 -9.4112 -15.7292
# 3 20.8721 24.6683 149.7501 -25.4458 -19.9756 -11.5842
# 4 -6.1750 -11.1018 -25.4458 46.5872 1.3793 -2.7263
# 5 -17.7848 -9.4112 -19.9756 1.3793 30.9027 2.8482
# 6 -0.8398 -15.7292 -11.5842 -2.7263 2.8482 25.4688
#
#
#
# Elastic Compliance Matrix: (Units=1/GPa)
#
#
# Indices 1 2 3 4 5 6 
#
# 1 0.018548 0.000382 -0.001072 0.001631 0.010079 -0.000593
# 2 0.000382 0.010014 -0.000525 0.002432 0.002272 0.005965
# 3 -0.001072 -0.000525 0.008503 0.004459 0.004196 0.003516
# 4 0.001631 0.002432 0.004459 0.024957 0.002901 0.005931
# 5 0.010079 0.002272 0.004196 0.002901 0.041499 -0.000686
# 6 -0.000593 0.005965 0.003516 0.005931 -0.000686 0.045239
#
#
# Mechanical properties :
#
#
# Convention : Reuss Voigt Hill
#
# Bulk Modulus (GPa) = 28.87312 47.83269 38.35290
# Shear Modulus (GPa) = 30.72486 39.25522 34.99004
#
# Velocity S-wave (km/s) = 3.47666 3.92975 3.71013
# Velocity P-wave (km/s) = 5.24165 6.27758 5.78285
#
# Compressibility (1/GPa) = 0.03463429
#
# Stress axis : x y z
#
# Youngs Moduli (GPa) = 53.91519 99.85906 117.60396
#
# Poissons Ratio (x) = -0.03817 0.12611
# Poissons Ratio (y) = -0.02061 0.06177
# Poissons Ratio (z) = 0.05782 0.05245
#
# Static dielectric constant tensor:
#      x y z
#    x 2.270100 -0.090280 -0.088920 
#    y -0.090280 2.092260 0.120730 
#    z -0.088920 0.120730 2.074350 
# 
# From -- ./inp_files/352077.got.cif
#   From: 2010.05.17/outbox.cif.g08.bks.cpg/sg2_177_cif.got.tgz:352077.got - 2010.06.03 11:33:40.
