data_PCOD9062786
_publ_section_title
;
Structure prediction by ZEFSAII (Michael W. Deem and Ramdas Pophale) SiO2 
 PCOD9062786
Probable space group: P -1
;
_chemical_formula_sum "Si O2"
_cell_formula_units_Z 14
_cell_length_a 16.863255
_cell_length_b 8.897098
_cell_length_c 23.210556
_cell_angle_alpha 30.519795
_cell_angle_beta 22.532092
_cell_angle_gamma 41.979132
_cell_volume 652.742608
_symmetry_space_group_name_H-M "P -1"
_symmetry_group_IT_number 2
_symmetry_cell_setting 'triclinic'
loop_
_space_group_symop_operation_xyz
x,y,z
-x,-y,-z
loop_
_atom_site_type_symbol
_atom_site_label
_atom_site_fract_x
_atom_site_fract_y
_atom_site_fract_z
Si Si1 0.387229 0.383670 0.924877
Si Si2 0.125585 0.725782 0.065729
Si Si3 0.391540 0.396977 0.416961
Si Si4 0.806025 0.326634 0.729133
Si Si5 0.259872 0.390191 0.718649
Si Si6 0.198992 0.697841 0.764834
Si Si7 0.002644 0.355341 0.385515
O O1 0.497064 0.530881 0.743664
O O2 0.581447 0.371059 0.841687
O O3 0.253704 0.587036 0.978245
O O4 0.238086 0.042446 0.123255
O O5 0.888671 0.688468 0.211680
O O6 0.111125 0.542745 0.194844
O O7 0.228254 0.088599 0.878969
O O8 0.583341 0.388666 0.333978
O O9 0.243430 0.622213 0.453881
O O10 0.232818 0.055041 0.636664
O O11 0.000000 0.500000 0.500000
O O12 0.873106 0.475581 0.697364
O O13 0.500000 0.500000 0.500000
O O14 0.182572 0.632530 0.729596
O O15 0.000000 0.500000 0.000000
O O16 0.000000 0.000000 0.500000
#
# Coordination Sequence:
#
# PCOD9062786 Si02
#       7
#     2   2   2   2   2   2   2
#     4  11  25  44  72  97 135 186 237 283 342 420
#     4  11  26  44  67 107 139 178 237 285 346 422
#     4  11  25  43  68 106 136 178 243 283 345 426
#     4  11  25  46  69  98 137 184 235 282 346 417
#     4  11  24  44  70  98 142 183 226 287 356 407
#     4  11  24  42  71 102 136 184 231 292 348 408
#     4  12  27  46  71 104 150 185 233 296 355 424
#
# _framework density 21.447962
#
# number of rings (size 3 to 8) (size 9 to 14) (size 15 to 20)
#    0.000    0.857    1.429    4.286    8.000    9.714 
#    0.000    0.000    0.000    0.000    0.000    0.000 
#    0.000    0.000    0.000    0.000    0.000    0.000 
#
# Total GULP energy -78376.671461 kJ/mol
# GULP energy per Si atom -5598.333676 kJ/mol
# Density = 2.139915 g / cm^3
# Si number density = 21.447962 Si / 1000 Ang^3
#
#
#
# Elastic Constant Matrix: (Units=GPa)
#
#
# Indices 1 2 3 4 5 6 
#
# 1 66.2085 26.7182 23.5650 -16.1656 10.2132 -0.7121
# 2 26.7182 119.9842 43.0481 -2.3616 -11.2631 -4.7694
# 3 23.5650 43.0481 146.0597 -4.9340 1.4859 0.5427
# 4 -16.1656 -2.3616 -4.9340 35.2399 7.0818 3.6916
# 5 10.2132 -11.2631 1.4859 7.0818 30.2287 -1.8114
# 6 -0.7121 -4.7694 0.5427 3.6916 -1.8114 28.1886
#
#
#
# Elastic Compliance Matrix: (Units=1/GPa)
#
#
# Indices 1 2 3 4 5 6 
#
# 1 0.023054 -0.005693 -0.001462 0.012911 -0.013036 -0.002881
# 2 -0.005693 0.011266 -0.002622 -0.003996 0.007355 0.002809
# 3 -0.001462 -0.002622 0.007887 0.000549 -0.001046 -0.000772
# 4 0.012911 -0.003996 0.000549 0.037803 -0.015111 -0.006282
# 5 -0.013036 0.007355 -0.001046 -0.015111 0.044162 0.005752
# 6 -0.002881 0.002809 -0.000772 -0.006282 0.005752 0.037085
#
#
# Mechanical properties :
#
#
# Convention : Reuss Voigt Hill
#
# Bulk Modulus (GPa) = 44.14524 57.65724 50.90124
# Shear Modulus (GPa) = 26.54446 34.65953 30.60199
#
# Velocity S-wave (km/s) = 3.52180 4.02429 3.78140
# Velocity P-wave (km/s) = 6.09628 6.96663 6.54594
#
# Compressibility (1/GPa) = 0.02265250
#
# Stress axis : x y z
#
# Youngs Moduli (GPa) = 43.37684 88.75942 126.78607
#
# Poissons Ratio (x) = 0.50532 0.18537
# Poissons Ratio (y) = 0.24695 0.33247
# Poissons Ratio (z) = 0.06342 0.23275
#
# Static dielectric constant tensor:
#      x y z
#    x 1.758730 0.009160 -0.005860 
#    y 0.009160 1.747570 -0.018940 
#    z -0.005860 -0.018940 1.726870 
# 
# From -- ./inp_files/107350.got.cif
#   From: 2010.05.17/outbox.cif.g08.bks.cpg/sg2_54_cif.got.tgz:107350.got - 2010.06.03 11:33:40.
