data_PCOD9062091
_publ_section_title
;
Structure prediction by ZEFSAII (Michael W. Deem and Ramdas Pophale) SiO2 
 PCOD9062091
Probable space group: P -1
;
_chemical_formula_sum "Si O2"
_cell_formula_units_Z 16
_cell_length_a 8.830694
_cell_length_b 8.729810
_cell_length_c 13.115579
_cell_angle_alpha 84.447156
_cell_angle_beta 130.953238
_cell_angle_gamma 100.348216
_cell_volume 750.895473
_symmetry_space_group_name_H-M "P -1"
_symmetry_group_IT_number 2
_symmetry_cell_setting 'triclinic'
loop_
_space_group_symop_operation_xyz
x,y,z
-x,-y,-z
loop_
_atom_site_type_symbol
_atom_site_label
_atom_site_fract_x
_atom_site_fract_y
_atom_site_fract_z
Si Si1 0.099031 0.207877 0.145814
Si Si2 0.292810 0.707926 0.139428
Si Si3 0.800690 0.928824 0.126399
Si Si4 0.967063 0.445840 0.374456
Si Si5 0.618061 0.600379 0.133603
Si Si6 0.286873 0.487281 0.347353
Si Si7 0.131803 0.907130 0.636431
Si Si8 0.581175 0.934690 0.828284
O O1 0.206621 0.315930 0.276065
O O2 0.267711 0.175093 0.141900
O O3 0.986371 0.037776 0.144277
O O4 0.924487 0.294320 0.012417
O O5 0.459277 0.665371 0.134715
O O6 0.293236 0.598823 0.244591
O O7 0.354047 0.887026 0.187876
O O8 0.775446 0.745191 0.149320
O O9 0.813885 0.004771 0.238982
O O10 0.614707 0.937529 0.965476
O O11 0.745433 0.482029 0.249887
O O12 0.983982 0.264754 0.386377
O O13 0.000000 0.500000 0.500000
O O14 0.125292 0.527376 0.356511
O O15 0.500000 0.500000 0.000000
O O16 0.500000 0.500000 0.500000
O O17 0.352702 0.886425 0.693243
O O18 0.000000 0.000000 0.500000
#
# Coordination Sequence:
#
# PCOD9062091 Si02
#       8
#     2   2   2   2   2   2   2   2
#     4  11  26  48  72 105 144 188 246 294 359 431
#     4  11  25  47  71 106 145 188 235 301 361 425
#     4  11  23  47  72 105 141 189 241 302 354 412
#     4  12  28  48  71 106 142 190 242 288 362 436
#     4  12  26  42  76 110 143 185 243 295 359 423
#     4  12  28  47  72 101 152 190 234 299 366 430
#     4  12  26  48  75 100 144 191 242 303 352 421
#     4  11  26  44  76 103 142 186 246 297 358 428
#
# _framework density 21.307893
#
# number of rings (size 3 to 8) (size 9 to 14) (size 15 to 20)
#    0.000    0.500    2.500    5.250   14.000    0.000 
#    0.000    1.250    0.000    0.000    0.000    0.000 
#    0.000    0.000    0.000    0.000    0.000    0.000 
#
# Total GULP energy -89424.982908 kJ/mol
# GULP energy per Si atom -5589.061432 kJ/mol
# Density = 2.125940 g / cm^3
# Si number density = 21.307893 Si / 1000 Ang^3
#
#
#
# Elastic Constant Matrix: (Units=GPa)
#
#
# Indices 1 2 3 4 5 6 
#
# 1 119.3378 18.3845 76.3981 -12.9471 5.5295 -17.0559
# 2 18.3845 103.2251 48.6339 -13.2971 -14.9251 6.3772
# 3 76.3981 48.6339 164.6137 -5.9938 5.3324 -4.6312
# 4 -12.9471 -13.2971 -5.9938 35.7319 -8.9561 -0.0702
# 5 5.5295 -14.9251 5.3324 -8.9561 34.0166 -1.8881
# 6 -17.0559 6.3772 -4.6312 -0.0702 -1.8881 27.8612
#
#
#
# Elastic Compliance Matrix: (Units=1/GPa)
#
#
# Indices 1 2 3 4 5 6 
#
# 1 0.013755 0.000690 -0.006244 0.004357 0.000597 0.007276
# 2 0.000690 0.013973 -0.004555 0.006774 0.008353 -0.002950
# 3 -0.006244 -0.004555 0.010281 -0.003110 -0.003487 -0.001315
# 4 0.004357 0.006774 -0.003110 0.034558 0.011933 0.001496
# 5 0.000597 0.008353 -0.003487 0.011933 0.036675 0.000389
# 6 0.007276 -0.002950 -0.001315 0.001496 0.000389 0.040833
#
#
# Mechanical properties :
#
#
# Convention : Reuss Voigt Hill
#
# Bulk Modulus (GPa) = 56.20675 74.88995 65.54835
# Shear Modulus (GPa) = 28.37265 35.77262 32.07263
#
# Velocity S-wave (km/s) = 3.65301 4.10181 3.88390
# Velocity P-wave (km/s) = 6.65043 7.59316 7.13738
#
# Compressibility (1/GPa) = 0.01779146
#
# Stress axis : x y z
#
# Youngs Moduli (GPa) = 72.69825 71.56421 97.26470
#
# Poissons Ratio (x) = -0.04937 0.60730
# Poissons Ratio (y) = -0.05015 0.44309
# Poissons Ratio (z) = 0.45391 0.32601
#
# Static dielectric constant tensor:
#      x y z
#    x 1.781660 -0.023210 0.054770 
#    y -0.023210 1.712020 0.073980 
#    z 0.054770 0.073980 1.633740 
# 
# From -- ./inp_files/208686.got.cif
#   From: 2010.05.17/outbox.cif.g08.bks.cpg/sg2_105_cif.got.tgz:208686.got - 2010.06.03 11:33:40.
