data_PCOD9062768
_publ_section_title
;
Structure prediction by ZEFSAII (Michael W. Deem and Ramdas Pophale) SiO2 
 PCOD9062768
Probable space group: P -1
;
_chemical_formula_sum "Si O2"
_cell_formula_units_Z 16
_cell_length_a 11.497088
_cell_length_b 9.851277
_cell_length_c 14.060916
_cell_angle_alpha 37.482244
_cell_angle_beta 39.994032
_cell_angle_gamma 50.889149
_cell_volume 621.777088
_symmetry_space_group_name_H-M "P -1"
_symmetry_group_IT_number 2
_symmetry_cell_setting 'triclinic'
loop_
_space_group_symop_operation_xyz
x,y,z
-x,-y,-z
loop_
_atom_site_type_symbol
_atom_site_label
_atom_site_fract_x
_atom_site_fract_y
_atom_site_fract_z
Si Si1 0.174431 0.596077 0.716982
Si Si2 0.574225 0.480411 0.715748
Si Si3 0.702927 0.696716 0.690517
Si Si4 0.216562 0.372419 0.105296
Si Si5 0.085837 0.952246 0.731809
Si Si6 0.644971 0.956438 0.315766
Si Si7 0.320186 0.891610 0.293500
Si Si8 0.286744 0.108104 0.905397
O O1 0.300664 0.372474 0.769917
O O2 0.261524 0.759512 0.496608
O O3 0.131646 0.730885 0.764671
O O4 0.983081 0.514216 0.843526
O O5 0.688055 0.507109 0.726511
O O6 0.371567 0.447923 0.896943
O O7 0.583206 0.714109 0.522651
O O8 0.657318 0.281254 0.709833
O O9 0.871705 0.840929 0.477822
O O10 0.526808 0.867816 0.688583
O O11 0.718163 0.612648 0.835004
O O12 0.189637 0.111656 0.242956
O O13 0.221203 0.965769 0.729619
O O14 0.882826 0.965538 0.889392
O O15 0.737229 0.929994 0.170187
O O16 0.516402 0.991903 0.132013
#
# Coordination Sequence:
#
# PCOD9062768 Si02
#       8
#     2   2   2   2   2   2   2   2
#     4  12  26  44  74 102 146 182 240 294 352 411
#     4  11  25  44  72 107 136 190 237 282 353 419
#     4  11  25  46  74 101 149 188 228 294 352 427
#     4  12  26  49  71 104 144 191 229 291 358 426
#     4  11  24  42  70 107 139 182 237 286 355 407
#     4  11  24  46  73 105 145 184 235 297 344 419
#     4  12  25  47  72 100 147 186 236 291 353 415
#     4  12  25  44  73 108 137 187 238 299 340 420
#
# _framework density 25.732696000000001
#
# number of rings (size 3 to 8) (size 9 to 14) (size 15 to 20)
#    0.000    0.500    3.750    4.500    7.000    0.000 
#    0.000    1.875    0.000    0.000    0.000    0.000 
#    0.000    0.000    0.000    0.000    0.000    0.000 
#
# Total GULP energy -89918.314450 kJ/mol
# GULP energy per Si atom -5619.894653 kJ/mol
# Density = 2.567413 g / cm^3
# Si number density = 25.732696 Si / 1000 Ang^3
#
#
#
# Elastic Constant Matrix: (Units=GPa)
#
#
# Indices 1 2 3 4 5 6 
#
# 1 106.5659 37.8524 20.0370 11.5462 13.2007 17.2625
# 2 37.8524 112.7069 21.3509 24.7733 13.0595 32.7354
# 3 20.0370 21.3509 142.2291 29.3163 2.9215 1.3255
# 4 11.5462 24.7733 29.3163 45.0647 8.5156 9.2310
# 5 13.2007 13.0595 2.9215 8.5156 32.5725 6.3959
# 6 17.2625 32.7354 1.3255 9.2310 6.3959 44.9727
#
#
#
# Elastic Compliance Matrix: (Units=1/GPa)
#
#
# Indices 1 2 3 4 5 6 
#
# 1 0.011220 -0.002706 -0.001165 0.000347 -0.003068 -0.001938
# 2 -0.002706 0.013189 -0.000601 -0.004353 -0.001540 -0.007431
# 3 -0.001165 -0.000601 0.008346 -0.005322 0.001045 0.001582
# 4 0.000347 -0.004353 -0.005322 0.029366 -0.005183 -0.002098
# 5 -0.003068 -0.001540 0.001045 -0.005183 0.034122 -0.001521
# 6 -0.001938 -0.007431 0.001582 -0.002098 -0.001521 0.028989
#
#
# Mechanical properties :
#
#
# Convention : Reuss Voigt Hill
#
# Bulk Modulus (GPa) = 41.99415 57.77583 49.88499
# Shear Modulus (GPa) = 35.18362 43.33943 39.26153
#
# Velocity S-wave (km/s) = 3.70168 4.10837 3.91032
# Velocity P-wave (km/s) = 5.88427 6.70865 6.30994
#
# Compressibility (1/GPa) = 0.02381284
#
# Stress axis : x y z
#
# Youngs Moduli (GPa) = 89.12396 75.82286 119.81767
#
# Poissons Ratio (x) = 0.20514 0.13959
# Poissons Ratio (y) = 0.24113 0.07195
# Poissons Ratio (z) = 0.10383 0.04553
#
# Static dielectric constant tensor:
#      x y z
#    x 2.008600 0.025850 0.005910 
#    y 0.025850 1.959310 -0.055840 
#    z 0.005910 -0.055840 1.987180 
# 
# From -- ./inp_files/311586.got.cif
#   From: 2010.05.17/outbox.cif.g08.bks.cpg/sg2_156_cif.got.tgz:311586.got - 2010.06.03 11:33:40.
