data_PCOD9062488
_publ_section_title
;
Structure prediction by ZEFSAII (Michael W. Deem and Ramdas Pophale) SiO2 
 PCOD9062488
Probable space group: P -1
;
_chemical_formula_sum "Si O2"
_cell_formula_units_Z 14
_cell_length_a 20.109241
_cell_length_b 5.529093
_cell_length_c 9.089389
_cell_angle_alpha 92.719437
_cell_angle_beta 127.891444
_cell_angle_gamma 118.524006
_cell_volume 610.300426
_symmetry_space_group_name_H-M "P -1"
_symmetry_group_IT_number 2
_symmetry_cell_setting 'triclinic'
loop_
_space_group_symop_operation_xyz
x,y,z
-x,-y,-z
loop_
_atom_site_type_symbol
_atom_site_label
_atom_site_fract_x
_atom_site_fract_y
_atom_site_fract_z
Si Si1 0.261686 0.037000 0.230101
Si Si2 0.396375 0.214716 0.665477
Si Si3 0.044986 0.327494 0.488326
Si Si4 0.535842 0.846961 0.944708
Si Si5 0.425136 0.654144 0.308314
Si Si6 0.738028 0.312732 0.039184
Si Si7 0.968597 0.194694 0.041004
O O1 0.291057 0.957521 0.420712
O O2 0.380032 0.361320 0.346461
O O3 0.223865 0.782139 0.046272
O O4 0.163620 0.038157 0.127580
O O5 0.400244 0.185102 0.843468
O O6 0.501726 0.289745 0.730183
O O7 0.423355 0.548806 0.710383
O O8 0.173575 0.539982 0.708745
O O9 0.000000 0.500000 0.500000
O O10 0.018506 0.284073 0.277316
O O11 0.000000 0.000000 0.500000
O O12 0.621915 0.015818 0.937198
O O13 0.500000 0.000000 0.000000
O O14 0.500000 0.000000 0.500000
O O15 0.304249 0.513333 0.079712
O O16 0.000000 0.500000 0.000000
O O17 0.000000 0.000000 0.000000
#
# Coordination Sequence:
#
# PCOD9062488 Si02
#       7
#     2   2   2   2   2   2   2
#     4  12  26  45  75 101 142 196 248 303 379 453
#     4  11  24  41  65 103 147 179 238 290 361 441
#     4  12  27  52  82 112 149 196 263 330 381 458
#     4  11  24  42  61 101 145 189 228 293 357 440
#     4  12  23  41  73 106 144 187 244 298 361 457
#     4  12  25  43  76 100 141 196 245 295 378 443
#     4  12  30  54  78 114 156 198 263 332 394 455
#
# _framework density 22.939520999999999
#
# number of rings (size 3 to 8) (size 9 to 14) (size 15 to 20)
#    0.000    0.286    5.714    3.000    4.000    1.143 
#    0.000    0.000    0.000    0.000    0.000    0.000 
#    0.000    0.000    0.000    0.000    0.000    0.000 
#
# Total GULP energy -78033.988371 kJ/mol
# GULP energy per Si atom -5573.856312 kJ/mol
# Density = 2.288731 g / cm^3
# Si number density = 22.939521 Si / 1000 Ang^3
#
#
#
# Elastic Constant Matrix: (Units=GPa)
#
#
# Indices 1 2 3 4 5 6 
#
# 1 120.0799 13.0237 28.7997 -6.8435 -11.5938 -23.4491
# 2 13.0237 80.6758 25.6590 -15.6710 -14.3032 1.8348
# 3 28.7997 25.6590 131.5908 -29.6653 -11.4590 -2.1284
# 4 -6.8435 -15.6710 -29.6653 35.7445 1.0991 -5.2929
# 5 -11.5938 -14.3032 -11.4590 1.0991 53.8520 -0.9086
# 6 -23.4491 1.8348 -2.1284 -5.2929 -0.9086 34.7055
#
#
#
# Elastic Compliance Matrix: (Units=1/GPa)
#
#
# Indices 1 2 3 4 5 6 
#
# 1 0.010457 -0.000768 -0.001547 0.001403 0.001812 0.007273
# 2 -0.000768 0.014484 -0.001253 0.004985 0.003305 -0.000514
# 3 -0.001547 -0.001253 0.010012 0.007544 0.001324 0.000820
# 4 0.001403 0.004985 0.007544 0.037642 0.002580 0.006955
# 5 0.001812 0.003305 0.001324 0.002580 0.020101 0.002051
# 6 0.007273 -0.000514 0.000820 0.006955 0.002051 0.034920
#
#
# Mechanical properties :
#
#
# Convention : Reuss Voigt Hill
#
# Bulk Modulus (GPa) = 35.94954 51.92348 43.93651
# Shear Modulus (GPa) = 34.71666 42.51801 38.61734
#
# Velocity S-wave (km/s) = 3.89446 4.30988 4.10743
# Velocity P-wave (km/s) = 5.99399 6.88846 6.45673
#
# Compressibility (1/GPa) = 0.02781676
#
# Stress axis : x y z
#
# Youngs Moduli (GPa) = 95.62742 69.04338 99.88476
#
# Poissons Ratio (x) = 0.05300 0.15455
# Poissons Ratio (y) = 0.07341 0.12514
# Poissons Ratio (z) = 0.14797 0.08650
#
# Static dielectric constant tensor:
#      x y z
#    x 1.892690 0.218080 -0.042340 
#    y 0.218080 3.705380 -0.518890 
#    z -0.042340 -0.518890 2.049820 
# 
# From -- ./inp_files/60308.got.cif
#   From: 2010.05.17/outbox.cif.g08.bks.cpg/sg2_31_cif.got.tgz:60308.got - 2010.06.03 11:33:40.
