data_PCOD9062299
_publ_section_title
;
Structure prediction by ZEFSAII (Michael W. Deem and Ramdas Pophale) SiO2 
 PCOD9062299
Probable space group: P -1
;
_chemical_formula_sum "Si O2"
_cell_formula_units_Z 15
_cell_length_a 12.626202
_cell_length_b 11.403981
_cell_length_c 11.290460
_cell_angle_alpha 140.916975
_cell_angle_beta 136.314415
_cell_angle_gamma 36.811093
_cell_volume 591.444194
_symmetry_space_group_name_H-M "P -1"
_symmetry_group_IT_number 2
_symmetry_cell_setting 'triclinic'
loop_
_space_group_symop_operation_xyz
x,y,z
-x,-y,-z
loop_
_atom_site_type_symbol
_atom_site_label
_atom_site_fract_x
_atom_site_fract_y
_atom_site_fract_z
Si Si1 0.491619 0.645269 0.997255
Si Si2 0.591399 0.186699 0.369180
Si Si3 0.927575 0.871299 0.539636
Si Si4 0.316764 0.213191 0.573359
Si Si5 0.637598 0.540471 0.793415
Si Si6 0.774099 0.613556 0.610593
Si Si7 0.866968 0.900879 0.036393
Si Si8 0.000000 0.500000 0.000000
O O1 0.622285 0.722333 0.209071
O O2 0.500000 0.500000 0.000000
O O3 0.576835 0.496991 0.834096
O O4 0.303973 0.863794 0.970206
O O5 0.653673 0.358729 0.574699
O O6 0.519451 0.225131 0.207588
O O7 0.416295 0.258649 0.369574
O O8 0.771180 0.966073 0.387470
O O9 0.837526 0.829442 0.547049
O O10 0.098799 0.640968 0.446221
O O11 0.990571 0.033317 0.758428
O O12 0.253827 0.388077 0.553288
O O13 0.500000 0.000000 0.500000
O O14 0.825207 0.521910 0.938634
O O15 0.883267 0.733650 0.814356
O O16 0.864622 0.757290 0.031490
#
# Coordination Sequence:
#
# PCOD9062299 Si02
#       8
#     2   2   2   2   2   2   2   1
#     4  12  28  52  84 118 158 218 277 333 412 491
#     4  11  23  49  77 115 159 207 263 336 408 485
#     4  12  27  46  80 118 158 217 272 331 415 488
#     4  12  25  49  75 109 161 214 269 335 401 479
#     4  11  26  47  80 116 160 212 265 333 412 480
#     4  12  26  51  78 115 164 211 273 336 409 490
#     4  12  27  51  76 120 160 207 268 344 398 487
#     4  12  26  50  76 120 164 208 270 336 412 486
#
# _framework density 25.361649
#
# number of rings (size 3 to 8) (size 9 to 14) (size 15 to 20)
#    0.000    0.267    5.333    2.800    1.867    2.133 
#    0.000    2.667    0.000    0.000    0.000    0.000 
#    0.000    0.000    0.000    0.000    0.000    0.000 
#
# Total GULP energy -83656.692943 kJ/mol
# GULP energy per Si atom -5577.112863 kJ/mol
# Density = 2.530392 g / cm^3
# Si number density = 25.361649 Si / 1000 Ang^3
#
#
#
# Elastic Constant Matrix: (Units=GPa)
#
#
# Indices 1 2 3 4 5 6 
#
# 1 113.8663 44.9202 25.7726 -14.2317 5.9254 30.4821
# 2 44.9202 183.8836 26.7101 -24.2899 0.2685 18.6117
# 3 25.7726 26.7101 93.1407 -12.7303 15.8667 -10.5099
# 4 -14.2317 -24.2899 -12.7303 39.7116 9.6367 0.2111
# 5 5.9254 0.2685 15.8667 9.6367 32.2068 3.9606
# 6 30.4821 18.6117 -10.5099 0.2111 3.9606 31.5440
#
#
#
# Elastic Compliance Matrix: (Units=1/GPa)
#
#
# Indices 1 2 3 4 5 6 
#
# 1 0.014912 -0.000864 -0.005447 0.002904 0.001029 -0.015864
# 2 -0.000864 0.006702 -0.001772 0.003118 0.000509 -0.003795
# 3 -0.005447 -0.001772 0.016602 0.004685 -0.010173 0.013086
# 4 0.002904 0.003118 0.004685 0.032656 -0.012425 -0.001744
# 5 0.001029 0.000509 -0.010173 -0.012425 0.040781 -0.009722
# 6 -0.015864 -0.003795 0.013086 -0.001744 -0.009722 0.054863
#
#
# Mechanical properties :
#
#
# Convention : Reuss Voigt Hill
#
# Bulk Modulus (GPa) = 45.34972 65.07740 55.21356
# Shear Modulus (GPa) = 26.31157 40.25833 33.28495
#
# Velocity S-wave (km/s) = 3.22445 3.98850 3.62665
# Velocity P-wave (km/s) = 5.63762 6.85028 6.27332
#
# Compressibility (1/GPa) = 0.02205085
#
# Stress axis : x y z
#
# Youngs Moduli (GPa) = 67.05984 149.21342 60.23464
#
# Poissons Ratio (x) = 0.12890 0.32809
# Poissons Ratio (y) = 0.05793 0.10671
# Poissons Ratio (z) = 0.36527 0.26435
#
# Static dielectric constant tensor:
#      x y z
#    x 1.976800 0.023540 -0.048240 
#    y 0.023540 2.129550 -0.026000 
#    z -0.048240 -0.026000 2.072240 
# 
# From -- ./inp_files/429162.got.cif
#   From: 2010.05.17/outbox.cif.g08.bks.cpg/sg2_215_cif.got.tgz:429162.got - 2010.06.03 11:33:40.
