data_PCOD9062328
_publ_section_title
;
Structure prediction by ZEFSAII (Michael W. Deem and Ramdas Pophale) SiO2 
 PCOD9062328
Probable space group: P -1
;
_chemical_formula_sum "Si O2"
_cell_formula_units_Z 16
_cell_length_a 15.556179
_cell_length_b 7.097240
_cell_length_c 6.894449
_cell_angle_alpha 67.356498
_cell_angle_beta 64.016206
_cell_angle_gamma 92.950526
_cell_volume 608.863663
_symmetry_space_group_name_H-M "P -1"
_symmetry_group_IT_number 2
_symmetry_cell_setting 'triclinic'
loop_
_space_group_symop_operation_xyz
x,y,z
-x,-y,-z
loop_
_atom_site_type_symbol
_atom_site_label
_atom_site_fract_x
_atom_site_fract_y
_atom_site_fract_z
Si Si1 0.387139 0.930804 0.544939
Si Si2 0.893570 0.123095 0.498795
Si Si3 0.972238 0.773057 0.354975
Si Si4 0.094541 0.650234 0.958089
Si Si5 0.616330 0.538253 0.381896
Si Si6 0.390381 0.355906 0.211695
Si Si7 0.724246 0.995981 0.994473
Si Si8 0.779750 0.467270 0.776233
O O1 0.365279 0.686158 0.604613
O O2 0.388451 0.108247 0.309231
O O3 0.500000 0.000000 0.500000
O O4 0.305657 0.959604 0.771353
O O5 0.845034 0.223231 0.333500
O O6 0.823287 0.982197 0.786417
O O7 0.968989 0.292228 0.493676
O O8 0.952243 0.986974 0.371461
O O9 0.863769 0.616626 0.499019
O O10 0.044857 0.788862 0.096496
O O11 0.160980 0.552863 0.075531
O O12 0.000000 0.500000 0.000000
O O13 0.500000 0.500000 0.500000
O O14 0.640415 0.591777 0.561683
O O15 0.656217 0.759478 0.140882
O O16 0.308464 0.428100 0.143440
O O17 0.500000 0.500000 0.000000
O O18 0.731329 0.236632 0.821823
#
# Coordination Sequence:
#
# PCOD9062328 Si02
#       8
#     2   2   2   2   2   2   2   2
#     4  11  23  52  86 116 169 222 285 361 429 516
#     4  11  25  48  78 123 167 224 279 362 440 512
#     4  11  25  50  78 115 177 218 288 360 435 524
#     4  12  24  50  83 116 167 234 287 357 438 519
#     4  11  25  51  84 119 162 226 291 353 437 512
#     4  11  27  50  80 127 174 224 280 365 430 505
#     4  11  25  47  79 124 165 215 290 358 429 513
#     4  12  26  50  77 122 176 221 293 350 427 527
#
# _framework density 26.278459000000002
#
# number of rings (size 3 to 8) (size 9 to 14) (size 15 to 20)
#    0.000    0.750    5.000    2.250    1.750    2.500 
#   15.750    0.000    0.000    0.000    0.000    0.000 
#    0.000    0.000    0.000    0.000    0.000    0.000 
#
# Total GULP energy -89320.654093 kJ/mol
# GULP energy per Si atom -5582.540881 kJ/mol
# Density = 2.621865 g / cm^3
# Si number density = 26.278459 Si / 1000 Ang^3
#
#
#
# Elastic Constant Matrix: (Units=GPa)
#
#
# Indices 1 2 3 4 5 6 
#
# 1 145.5948 52.8967 53.3378 -10.3185 -11.6635 -12.6443
# 2 52.8967 203.1814 57.7953 0.3942 -8.0815 -3.5796
# 3 53.3378 57.7953 157.1304 -3.0535 -22.9096 1.8887
# 4 -10.3185 0.3942 -3.0535 57.8249 10.0093 -10.8321
# 5 -11.6635 -8.0815 -22.9096 10.0093 38.2810 -7.4643
# 6 -12.6443 -3.5796 1.8887 -10.8321 -7.4643 35.8723
#
#
#
# Elastic Compliance Matrix: (Units=1/GPa)
#
#
# Indices 1 2 3 4 5 6 
#
# 1 0.008841 -0.001544 -0.002258 0.001989 0.001266 0.003945
# 2 -0.001544 0.005782 -0.001629 -0.000383 -0.000129 -0.000024
# 3 -0.002258 -0.001629 0.008305 -0.000795 0.003990 -0.000805
# 4 0.001989 -0.000383 -0.000795 0.019358 -0.003893 0.005740
# 5 0.001266 -0.000129 0.003990 -0.003893 0.030957 0.005489
# 6 0.003945 -0.000024 -0.000805 0.005740 0.005489 0.032183
#
#
# Mechanical properties :
#
#
# Convention : Reuss Voigt Hill
#
# Bulk Modulus (GPa) = 82.85686 92.66290 87.75988
# Shear Modulus (GPa) = 41.55949 49.18744 45.37346
#
# Velocity S-wave (km/s) = 3.98113 4.33110 4.15979
# Velocity P-wave (km/s) = 7.26163 7.76851 7.51934
#
# Compressibility (1/GPa) = 0.01206901
#
# Stress axis : x y z
#
# Youngs Moduli (GPa) = 113.10644 172.94881 120.40279
#
# Poissons Ratio (x) = 0.26696 0.27182
# Poissons Ratio (y) = 0.17459 0.19610
# Poissons Ratio (z) = 0.25535 0.28169
#
# Static dielectric constant tensor:
#      x y z
#    x 2.139740 0.003580 0.065490 
#    y 0.003580 2.146430 -0.013750 
#    z 0.065490 -0.013750 2.227040 
# 
# From -- ./inp_files/90050.got.cif
#   From: 2010.05.17/outbox.cif.g08.bks.cpg/sg2_46_cif.got.tgz:90050.got - 2010.06.03 11:33:40.
