data_PCOD9062166
_publ_section_title
;
Structure prediction by ZEFSAII (Michael W. Deem and Ramdas Pophale) SiO2 
 PCOD9062166
Probable space group: P -1
;
_chemical_formula_sum "Si O2"
_cell_formula_units_Z 16
_cell_length_a 17.693043
_cell_length_b 5.901969
_cell_length_c 9.535126
_cell_angle_alpha 112.432994
_cell_angle_beta 62.140258
_cell_angle_gamma 129.875109
_cell_volume 670.618640
_symmetry_space_group_name_H-M "P -1"
_symmetry_group_IT_number 2
_symmetry_cell_setting 'triclinic'
loop_
_space_group_symop_operation_xyz
x,y,z
-x,-y,-z
loop_
_atom_site_type_symbol
_atom_site_label
_atom_site_fract_x
_atom_site_fract_y
_atom_site_fract_z
Si Si1 0.054869 0.968869 0.307915
Si Si2 0.666937 0.179772 0.289003
Si Si3 0.149731 0.645006 0.305333
Si Si4 0.195549 0.855642 0.629039
Si Si5 0.472482 0.495645 0.861258
Si Si6 0.078582 0.934658 0.982545
Si Si7 0.596047 0.563847 0.522598
Si Si8 0.288756 0.553716 0.988463
O O1 0.085611 0.283544 0.281326
O O2 0.025789 0.782371 0.141702
O O3 0.117710 0.841869 0.297368
O O4 0.000000 0.000000 0.500000
O O5 0.598111 0.276775 0.442232
O O6 0.755391 0.275061 0.348408
O O7 0.599142 0.836295 0.220804
O O8 0.714277 0.347938 0.142098
O O9 0.255951 0.713851 0.161147
O O10 0.154587 0.714391 0.480943
O O11 0.295874 0.182198 0.580756
O O12 0.107943 0.826826 0.794353
O O13 0.575243 0.643320 0.711766
O O14 0.500000 0.500000 0.000000
O O15 0.401283 0.620878 0.935260
O O16 0.197920 0.201639 0.987818
O O17 0.000000 0.000000 0.000000
O O18 0.500000 0.500000 0.500000
#
# Coordination Sequence:
#
# PCOD9062166 Si02
#       8
#     2   2   2   2   2   2   2   2
#     4  11  25  50  75 110 152 192 255 316 373 451
#     4  12  23  44  72  96 154 184 250 307 381 438
#     4  11  28  44  76 105 154 201 243 311 388 437
#     4  12  26  44  71 107 142 194 247 305 377 445
#     4  12  28  44  72 106 145 196 251 306 385 452
#     4  11  23  47  78 108 146 196 247 304 376 448
#     4  12  24  45  67 102 141 189 246 310 375 444
#     4  11  25  48  67 107 151 191 244 315 369 451
#
# _framework density 23.858568999999999
#
# number of rings (size 3 to 8) (size 9 to 14) (size 15 to 20)
#    0.000    0.500    5.000    2.250    7.000    2.500 
#    0.000    3.750    0.000    0.000    0.000    0.000 
#    0.000    0.000    0.000    0.000    0.000    0.000 
#
# Total GULP energy -89168.546865 kJ/mol
# GULP energy per Si atom -5573.034179 kJ/mol
# Density = 2.380427 g / cm^3
# Si number density = 23.858569 Si / 1000 Ang^3
#
#
#
# Elastic Constant Matrix: (Units=GPa)
#
#
# Indices 1 2 3 4 5 6 
#
# 1 136.6612 27.2548 91.8225 18.0557 2.2893 -44.0927
# 2 27.2548 65.4641 24.1653 -6.6307 -16.5344 -2.3618
# 3 91.8225 24.1653 270.3708 -0.5305 -4.1083 -25.4153
# 4 18.0557 -6.6307 -0.5305 33.3024 -6.7531 -4.2552
# 5 2.2893 -16.5344 -4.1083 -6.7531 63.9979 3.5318
# 6 -44.0927 -2.3618 -25.4153 -4.2552 3.5318 34.9575
#
#
#
# Elastic Compliance Matrix: (Units=1/GPa)
#
#
# Indices 1 2 3 4 5 6 
#
# 1 0.020279 -0.008665 -0.004235 -0.011222 -0.005585 0.021112
# 2 -0.008665 0.021215 0.000343 0.009273 0.007280 -0.008854
# 3 -0.004235 0.000343 0.004985 0.002436 0.000899 -0.001489
# 4 -0.011222 0.009273 0.002436 0.038508 0.007449 -0.007823
# 5 -0.005585 0.007280 0.000899 0.007449 0.018931 -0.006905
# 6 0.021112 -0.008854 -0.001489 -0.007823 -0.006905 0.053300
#
#
# Mechanical properties :
#
#
# Convention : Reuss Voigt Hill
#
# Bulk Modulus (GPa) = 46.80581 84.33126 65.56853
# Shear Modulus (GPa) = 26.39178 48.40181 37.39679
#
# Velocity S-wave (km/s) = 3.32953 4.50899 3.96338
# Velocity P-wave (km/s) = 5.86870 7.90766 6.96321
#
# Compressibility (1/GPa) = 0.02136487
#
# Stress axis : x y z
#
# Youngs Moduli (GPa) = 49.31262 47.13661 200.61443
#
# Poissons Ratio (x) = 0.40845 0.84957
# Poissons Ratio (y) = 0.42730 -0.06886
# Poissons Ratio (z) = 0.20883 -0.01618
#
# Static dielectric constant tensor:
#      x y z
#    x 1.835830 0.011860 -0.055360 
#    y 0.011860 2.053150 -0.017090 
#    z -0.055360 -0.017090 1.866390 
# 
# From -- ./inp_files/323967.got.cif
#   From: 2010.05.17/outbox.cif.g08.bks.cpg/sg2_162_cif.got.tgz:323967.got - 2010.06.03 11:33:40.
