data_PCOD9062532
_publ_section_title
;
Structure prediction by ZEFSAII (Michael W. Deem and Ramdas Pophale) SiO2 
 PCOD9062532
Probable space group: P -1
;
_chemical_formula_sum "Si O2"
_cell_formula_units_Z 16
_cell_length_a 9.489598
_cell_length_b 8.870394
_cell_length_c 11.542823
_cell_angle_alpha 75.296774
_cell_angle_beta 105.184328
_cell_angle_gamma 128.587141
_cell_volume 727.685260
_symmetry_space_group_name_H-M "P -1"
_symmetry_group_IT_number 2
_symmetry_cell_setting 'triclinic'
loop_
_space_group_symop_operation_xyz
x,y,z
-x,-y,-z
loop_
_atom_site_type_symbol
_atom_site_label
_atom_site_fract_x
_atom_site_fract_y
_atom_site_fract_z
Si Si1 0.472595 0.172393 0.271094
Si Si2 0.170102 0.431331 0.703289
Si Si3 0.234302 0.724650 0.327351
Si Si4 0.111200 0.111021 0.885165
Si Si5 0.531665 0.842361 0.001228
Si Si6 0.293724 0.417344 0.492606
Si Si7 0.168272 0.204237 0.282289
Si Si8 0.830967 0.459379 0.898576
O O1 0.686138 0.335702 0.305726
O O2 0.444911 0.157967 0.130402
O O3 0.361281 0.246655 0.285815
O O4 0.381173 0.953696 0.336678
O O5 0.173759 0.329640 0.840815
O O6 0.235204 0.368642 0.621764
O O7 0.965066 0.355812 0.655850
O O8 0.284132 0.592522 0.420387
O O9 0.212427 0.680323 0.193062
O O10 0.286546 0.113348 0.913903
O O11 0.977876 0.999262 0.769896
O O12 0.000000 0.000000 0.000000
O O13 0.350085 0.642463 0.044237
O O14 0.500000 0.000000 0.000000
O O15 0.500000 0.500000 0.500000
O O16 0.168738 0.239985 0.411572
O O17 0.135561 0.349124 0.184689
O O18 0.000000 0.500000 0.000000
#
# Coordination Sequence:
#
# PCOD9062532 Si02
#       8
#     2   2   2   2   2   2   2   2
#     4  12  24  44  72 108 141 195 242 297 368 433
#     4  12  26  46  77 103 143 196 242 299 374 423
#     4  11  25  48  69 106 148 181 248 304 359 433
#     4  12  26  44  71 109 149 187 242 304 364 444
#     4  12  24  39  66 104 147 190 237 289 367 437
#     4  11  26  50  74 105 145 188 250 306 353 436
#     4  11  24  45  69 103 144 189 237 301 363 419
#     4  11  24  41  68 102 149 191 237 302 360 436
#
# _framework density 21.987527
#
# number of rings (size 3 to 8) (size 9 to 14) (size 15 to 20)
#    0.000    0.500    5.000    2.625    5.250    3.000 
#    0.000    0.000    0.000    0.000    0.000    0.000 
#    0.000    0.000    0.000    0.000    0.000    0.000 
#
# Total GULP energy -89530.863649 kJ/mol
# GULP energy per Si atom -5595.678978 kJ/mol
# Density = 2.193748 g / cm^3
# Si number density = 21.987527 Si / 1000 Ang^3
#
#
#
# Elastic Constant Matrix: (Units=GPa)
#
#
# Indices 1 2 3 4 5 6 
#
# 1 132.9913 34.0156 19.0384 -16.5814 7.6163 12.9487
# 2 34.0156 122.6156 26.7049 3.2375 -2.6735 16.7822
# 3 19.0384 26.7049 72.9491 -2.3082 -8.3517 3.0403
# 4 -16.5814 3.2375 -2.3082 24.0436 -0.2462 -7.2889
# 5 7.6163 -2.6735 -8.3517 -0.2462 30.8542 3.2505
# 6 12.9487 16.7822 3.0403 -7.2889 3.2505 37.6911
#
#
#
# Elastic Compliance Matrix: (Units=1/GPa)
#
#
# Indices 1 2 3 4 5 6 
#
# 1 0.009394 -0.002402 -0.001675 0.006452 -0.002873 -0.000527
# 2 -0.002402 0.010226 -0.002949 -0.004666 0.001116 -0.004489
# 3 -0.001675 -0.002949 0.015738 0.000925 0.004381 0.000420
# 4 0.006452 -0.004666 0.000925 0.049641 -0.002361 0.009590
# 5 -0.002873 0.001116 0.004381 -0.002361 0.034733 -0.003315
# 6 -0.000527 -0.004489 0.000420 0.009590 -0.003315 0.030818
#
#
# Mechanical properties :
#
#
# Convention : Reuss Voigt Hill
#
# Bulk Modulus (GPa) = 46.93686 54.23041 50.58363
# Shear Modulus (GPa) = 29.11981 35.10426 32.11204
#
# Velocity S-wave (km/s) = 3.64315 4.00002 3.82575
# Velocity P-wave (km/s) = 6.25221 6.78611 6.52462
#
# Compressibility (1/GPa) = 0.02130522
#
# Stress axis : x y z
#
# Youngs Moduli (GPa) = 106.45391 97.78803 63.53875
#
# Poissons Ratio (x) = 0.23489 0.10644
# Poissons Ratio (y) = 0.25570 0.18740
# Poissons Ratio (z) = 0.17833 0.28842
#
# Static dielectric constant tensor:
#      x y z
#    x 1.771140 0.010110 -0.015110 
#    y 0.010110 1.908600 -0.004290 
#    z -0.015110 -0.004290 1.804950 
# 
# From -- ./inp_files/350060.got.cif
#   From: 2010.05.17/outbox.cif.g08.bks.cpg/sg2_176_cif.got.tgz:350060.got - 2010.06.03 11:33:40.
