data_PCOD9062614
_publ_section_title
;
Structure prediction by ZEFSAII (Michael W. Deem and Ramdas Pophale) SiO2 
 PCOD9062614
Probable space group: P -1
;
_chemical_formula_sum "Si O2"
_cell_formula_units_Z 16
_cell_length_a 5.663370
_cell_length_b 10.686016
_cell_length_c 22.501488
_cell_angle_alpha 40.688320
_cell_angle_beta 126.455305
_cell_angle_gamma 113.886967
_cell_volume 711.362847
_symmetry_space_group_name_H-M "P -1"
_symmetry_group_IT_number 2
_symmetry_cell_setting 'triclinic'
loop_
_space_group_symop_operation_xyz
x,y,z
-x,-y,-z
loop_
_atom_site_type_symbol
_atom_site_label
_atom_site_fract_x
_atom_site_fract_y
_atom_site_fract_z
Si Si1 0.940610 0.992581 0.062607
Si Si2 0.269430 0.481072 0.653827
Si Si3 0.263594 0.901574 0.458401
Si Si4 0.499789 0.154201 0.732641
Si Si5 0.519333 0.659902 0.136769
Si Si6 0.728982 0.629100 0.880414
Si Si7 0.145335 0.841409 0.774063
Si Si8 0.316844 0.704241 0.406818
O O1 0.768600 0.806340 0.115895
O O2 0.231056 0.961210 0.154308
O O3 0.763991 0.195847 0.973910
O O4 0.000000 0.000000 0.000000
O O5 0.186824 0.708647 0.551769
O O6 0.478149 0.373939 0.673190
O O7 0.435902 0.429080 0.759006
O O8 0.986787 0.363688 0.641896
O O9 0.336608 0.798070 0.441672
O O10 0.500000 0.000000 0.500000
O O11 0.022899 0.076141 0.340446
O O12 0.544933 0.153871 0.669528
O O13 0.223876 0.035846 0.748822
O O14 0.491601 0.493450 0.146045
O O15 0.473062 0.735454 0.847004
O O16 0.916688 0.741135 0.818647
O O17 0.000000 0.500000 0.000000
O O18 0.500000 0.500000 0.500000
#
# Coordination Sequence:
#
# PCOD9062614 Si02
#       8
#     2   2   2   2   2   2   2   2
#     4  11  24  41  73 109 143 193 250 333 379 456
#     4  12  24  45  72 107 144 197 255 318 385 461
#     4  12  27  48  77 114 157 206 265 328 400 473
#     4  12  24  44  76 106 150 193 262 317 386 459
#     4  11  26  44  72 111 148 192 264 318 393 465
#     4  12  29  51  78 110 160 211 254 322 408 483
#     4  12  28  49  78 112 154 206 264 320 392 480
#     4  12  24  45  73 106 145 204 258 316 387 466
#
# _framework density 22.492038000000001
#
# number of rings (size 3 to 8) (size 9 to 14) (size 15 to 20)
#    0.000    0.250    5.000    3.750    3.500    2.000 
#    0.000    3.750    0.000    0.000    0.000    0.000 
#    0.000    0.000    0.000    0.000    0.000    0.000 
#
# Total GULP energy -89124.597481 kJ/mol
# GULP energy per Si atom -5570.287343 kJ/mol
# Density = 2.244085 g / cm^3
# Si number density = 22.492038 Si / 1000 Ang^3
#
#
#
# Elastic Constant Matrix: (Units=GPa)
#
#
# Indices 1 2 3 4 5 6 
#
# 1 68.8962 58.7091 31.4797 1.8750 -11.5577 22.0587
# 2 58.7091 225.5767 16.6600 25.8834 -30.1202 60.5605
# 3 31.4797 16.6600 140.0533 7.2330 3.8895 10.0285
# 4 1.8750 25.8834 7.2330 42.0809 3.1963 12.5060
# 5 -11.5577 -30.1202 3.8895 3.1963 53.5997 -19.5119
# 6 22.0587 60.5605 10.0285 12.5060 -19.5119 64.4799
#
#
#
# Elastic Compliance Matrix: (Units=1/GPa)
#
#
# Indices 1 2 3 4 5 6 
#
# 1 0.021494 -0.004864 -0.004285 0.003411 0.001120 -0.002441
# 2 -0.004864 0.007394 0.000639 -0.003320 0.001724 -0.004215
# 3 -0.004285 0.000639 0.008170 -0.001354 -0.001269 -0.000526
# 4 0.003411 -0.003320 -0.001354 0.027546 -0.004307 -0.004484
# 5 0.001120 0.001724 -0.001269 -0.004307 0.022322 0.005785
# 6 -0.002441 -0.004215 -0.000526 -0.004484 0.005785 0.023005
#
#
# Mechanical properties :
#
#
# Convention : Reuss Voigt Hill
#
# Bulk Modulus (GPa) = 49.90434 72.02485 60.96459
# Shear Modulus (GPa) = 37.41651 53.87727 45.64689
#
# Velocity S-wave (km/s) = 4.08308 4.89958 4.50985
# Velocity P-wave (km/s) = 6.66817 8.00624 7.36764
#
# Compressibility (1/GPa) = 0.02003834
#
# Stress axis : x y z
#
# Youngs Moduli (GPa) = 46.52462 135.23638 122.39752
#
# Poissons Ratio (x) = 0.65780 0.52448
# Poissons Ratio (y) = 0.22630 -0.07822
# Poissons Ratio (z) = 0.19936 -0.08643
#
# Static dielectric constant tensor:
#      x y z
#    x 2.009170 -0.019700 0.067340 
#    y -0.019700 1.777270 -0.005170 
#    z 0.067340 -0.005170 1.773560 
# 
# From -- ./inp_files/604448.got.cif
#   From: 2010.05.17/outbox.cif.g08.bks.cpg/sg2_303_cif.got.tgz:604448.got - 2010.06.03 11:33:40.
