data_PCOD9062500
_publ_section_title
;
Structure prediction by ZEFSAII (Michael W. Deem and Ramdas Pophale) SiO2 
 PCOD9062500
Probable space group: P -1
;
_chemical_formula_sum "Si O2"
_cell_formula_units_Z 16
_cell_length_a 11.756866
_cell_length_b 14.743341
_cell_length_c 12.417059
_cell_angle_alpha 58.669589
_cell_angle_beta 100.936244
_cell_angle_gamma 148.945867
_cell_volume 772.299763
_symmetry_space_group_name_H-M "P -1"
_symmetry_group_IT_number 2
_symmetry_cell_setting 'triclinic'
loop_
_space_group_symop_operation_xyz
x,y,z
-x,-y,-z
loop_
_atom_site_type_symbol
_atom_site_label
_atom_site_fract_x
_atom_site_fract_y
_atom_site_fract_z
Si Si1 0.106443 0.973279 0.920283
Si Si2 0.978040 0.606424 0.412558
Si Si3 0.135560 0.283191 0.175178
Si Si4 0.612236 0.600826 0.210262
Si Si5 0.597165 0.800249 0.511776
Si Si6 0.650503 0.029247 0.946305
Si Si7 0.229955 0.605282 0.956029
Si Si8 0.412751 0.036883 0.400124
O O1 0.914925 0.823672 0.875978
O O2 0.319802 0.245953 0.792319
O O3 0.906342 0.812362 0.086123
O O4 0.248786 0.976993 0.949369
O O5 0.000000 0.500000 0.500000
O O6 0.664419 0.379105 0.492893
O O7 0.110591 0.737964 0.236968
O O8 0.151081 0.802237 0.420284
O O9 0.416187 0.486779 0.155438
O O10 0.133979 0.405749 0.069988
O O11 0.880239 0.046751 0.350320
O O12 0.466173 0.374518 0.365083
O O13 0.616380 0.893521 0.561296
O O14 0.444553 0.801944 0.967978
O O15 0.500000 0.000000 0.000000
O O16 0.357745 0.737255 0.782125
O O17 0.000000 0.500000 0.000000
O O18 0.500000 0.000000 0.500000
#
# Coordination Sequence:
#
# PCOD9062500 Si02
#       8
#     2   2   2   2   2   2   2   2
#     4  11  24  45  73  99 133 179 227 284 338 396
#     4  11  25  42  66 100 138 178 223 269 339 416
#     4  12  26  43  69 102 132 180 232 277 339 404
#     4  11  25  48  69  96 138 178 234 280 335 404
#     4  12  26  44  68  97 141 181 224 279 342 405
#     4  11  24  42  70 102 136 174 220 283 343 394
#     4  11  24  41  66 103 139 172 231 279 334 414
#     4  11  24  43  68  99 136 181 221 277 347 398
#
# _framework density 20.717345999999999
#
# number of rings (size 3 to 8) (size 9 to 14) (size 15 to 20)
#    0.000    0.750    3.750    3.000    5.250    3.500 
#    0.000    0.000    0.000    0.000    0.000    0.000 
#    0.000    0.000    0.000    0.000    0.000    0.000 
#
# Total GULP energy -89452.062985 kJ/mol
# GULP energy per Si atom -5590.753937 kJ/mol
# Density = 2.067019 g / cm^3
# Si number density = 20.717346 Si / 1000 Ang^3
#
#
#
# Elastic Constant Matrix: (Units=GPa)
#
#
# Indices 1 2 3 4 5 6 
#
# 1 109.7624 28.3432 34.4538 -9.7513 28.6418 -1.6303
# 2 28.3432 82.7222 5.4278 -8.3790 18.6002 -9.5172
# 3 34.4538 5.4278 84.1956 -13.8726 18.6182 -20.7642
# 4 -9.7513 -8.3790 -13.8726 21.6858 -0.0503 2.7990
# 5 28.6418 18.6002 18.6182 -0.0503 38.1684 -8.2074
# 6 -1.6303 -9.5172 -20.7642 2.7990 -8.2074 36.5712
#
#
#
# Elastic Compliance Matrix: (Units=1/GPa)
#
#
# Indices 1 2 3 4 5 6 
#
# 1 0.013306 -0.002834 -0.004257 0.002722 -0.007481 -0.004448
# 2 -0.002834 0.015337 0.003597 0.006420 -0.006230 0.004018
# 3 -0.004257 0.003597 0.018588 0.010158 -0.005621 0.009261
# 4 0.002722 0.006420 0.010158 0.056157 -0.009825 0.001057
# 5 -0.007481 -0.006230 -0.005621 -0.009825 0.038491 0.004244
# 6 -0.004448 0.004018 0.009261 0.001057 0.004244 0.034321
#
#
# Mechanical properties :
#
#
# Convention : Reuss Voigt Hill
#
# Bulk Modulus (GPa) = 24.84844 45.90332 35.37588
# Shear Modulus (GPa) = 25.43224 33.18209 29.30717
#
# Velocity S-wave (km/s) = 3.50749 4.00641 3.76522
# Velocity P-wave (km/s) = 5.33136 6.60355 6.00126
#
# Compressibility (1/GPa) = 0.04024397
#
# Stress axis : x y z
#
# Youngs Moduli (GPa) = 75.15219 65.20245 53.79891
#
# Poissons Ratio (x) = 0.18478 0.22901
# Poissons Ratio (y) = 0.21297 -0.19352
# Poissons Ratio (z) = 0.31990 -0.23454
#
# Static dielectric constant tensor:
#      x y z
#    x 1.204210 -0.275320 -0.128600 
#    y -0.275320 1.623600 -0.054340 
#    z -0.128600 -0.054340 1.742140 
# 
# From -- ./inp_files/273691.got.cif
#   From: 2010.05.17/outbox.cif.g08.bks.cpg/sg2_137_cif.got.tgz:273691.got - 2010.06.03 11:33:40.
