data_PCOD9062607
_publ_section_title
;
Structure prediction by ZEFSAII (Michael W. Deem and Ramdas Pophale) SiO2 
 PCOD9062607
Probable space group: P -1
;
_chemical_formula_sum "Si O2"
_cell_formula_units_Z 16
_cell_length_a 9.226706
_cell_length_b 9.101663
_cell_length_c 15.337841
_cell_angle_alpha 96.607362
_cell_angle_beta 70.411305
_cell_angle_gamma 145.664989
_cell_volume 651.958315
_symmetry_space_group_name_H-M "P -1"
_symmetry_group_IT_number 2
_symmetry_cell_setting 'triclinic'
loop_
_space_group_symop_operation_xyz
x,y,z
-x,-y,-z
loop_
_atom_site_type_symbol
_atom_site_label
_atom_site_fract_x
_atom_site_fract_y
_atom_site_fract_z
Si Si1 0.897245 0.168686 0.221418
Si Si2 0.499629 0.568991 0.211753
Si Si3 0.315185 0.589936 0.888837
Si Si4 0.745179 0.135437 0.749907
Si Si5 0.807311 0.364475 0.919409
Si Si6 0.709847 0.626677 0.345948
Si Si7 0.423066 0.953781 0.408872
Si Si8 0.234514 0.105376 0.513180
O O1 0.194897 0.361542 0.219290
O O2 0.983557 0.334522 0.131203
O O3 0.705209 0.875415 0.207882
O O4 0.721489 0.135204 0.319655
O O5 0.639385 0.548041 0.127031
O O6 0.493002 0.486973 0.302997
O O7 0.994280 0.383898 0.924040
O O8 0.495285 0.811745 0.789300
O O9 0.399507 0.735479 0.973186
O O10 0.692282 0.211180 0.841084
O O11 0.748194 0.217751 0.661043
O O12 0.025964 0.264445 0.722013
O O13 0.548287 0.407954 0.439221
O O14 0.794618 0.856714 0.381264
O O15 0.500000 0.000000 0.500000
O O16 0.221985 0.931567 0.469862
O O17 0.000000 0.000000 0.500000
#
# Coordination Sequence:
#
# PCOD9062607 Si02
#       8
#     2   2   2   2   2   2   2   2
#     4  12  28  50  72 112 164 203 255 319 398 460
#     4  12  27  48  76 110 155 209 254 315 389 473
#     4  11  25  46  80 110 147 200 267 316 383 466
#     4  12  22  47  77 110 154 197 261 322 382 455
#     4  11  25  47  76 113 150 199 256 328 388 459
#     4  11  24  41  73 103 139 201 258 320 370 453
#     4  12  26  44  73 107 152 202 246 318 387 462
#     4  11  24  42  67 104 140 191 262 318 370 448
#
# _framework density 24.541443999999998
#
# number of rings (size 3 to 8) (size 9 to 14) (size 15 to 20)
#    0.000    0.500    3.750    4.125    3.500    1.000 
#    0.000    3.750    0.000    0.000    0.000    0.000 
#    0.000    0.000    0.000    0.000    0.000    0.000 
#
# Total GULP energy -89103.525614 kJ/mol
# GULP energy per Si atom -5568.970351 kJ/mol
# Density = 2.448559 g / cm^3
# Si number density = 24.541444 Si / 1000 Ang^3
#
#
#
# Elastic Constant Matrix: (Units=GPa)
#
#
# Indices 1 2 3 4 5 6 
#
# 1 167.7383 36.8363 43.4598 17.4541 -16.7563 31.3337
# 2 36.8363 75.2915 32.7886 18.3371 12.7368 19.5159
# 3 43.4598 32.7886 104.4789 30.2504 -11.2694 -2.2112
# 4 17.4541 18.3371 30.2504 47.3711 -4.3868 1.6911
# 5 -16.7563 12.7368 -11.2694 -4.3868 23.7108 -4.4976
# 6 31.3337 19.5159 -2.2112 1.6911 -4.4976 26.5533
#
#
#
# Elastic Compliance Matrix: (Units=1/GPa)
#
#
# Indices 1 2 3 4 5 6 
#
# 1 0.009264 -0.001254 -0.003194 -0.000189 0.003844 -0.009613
# 2 -0.001254 0.033752 -0.012150 -0.006725 -0.031586 -0.029261
# 3 -0.003194 -0.012150 0.018137 -0.004902 0.015226 0.017101
# 4 -0.000189 -0.006725 -0.004902 0.027413 0.007017 0.004200
# 5 0.003844 -0.031586 0.015226 0.007017 0.076552 0.032467
# 6 -0.009613 -0.029261 0.017101 0.004200 0.032467 0.077166
#
#
# Mechanical properties :
#
#
# Convention : Reuss Voigt Hill
#
# Bulk Modulus (GPa) = 35.76941 63.74201 49.75571
# Shear Modulus (GPa) = 17.55627 35.15530 26.35578
#
# Velocity S-wave (km/s) = 2.67755 3.78893 3.28064
# Velocity P-wave (km/s) = 4.91587 6.72093 5.88798
#
# Compressibility (1/GPa) = 0.02795685
#
# Stress axis : x y z
#
# Youngs Moduli (GPa) = 107.94477 29.62783 55.13704
#
# Poissons Ratio (x) = 0.03714 0.17612
# Poissons Ratio (y) = 0.13533 0.66992
# Poissons Ratio (z) = 0.34479 0.35998
#
# Static dielectric constant tensor:
#      x y z
#    x 1.931460 -0.037620 0.046430 
#    y -0.037620 2.001710 -0.007700 
#    z 0.046430 -0.007700 2.010460 
# 
# From -- ./inp_files/495200.got.cif
#   From: 2010.05.17/outbox.cif.g08.bks.cpg/sg2_248_cif.got.tgz:495200.got - 2010.06.03 11:33:40.
