data_PCOD9062616
_publ_section_title
;
Structure prediction by ZEFSAII (Michael W. Deem and Ramdas Pophale) SiO2 
 PCOD9062616
Probable space group: P -1
;
_chemical_formula_sum "Si O2"
_cell_formula_units_Z 14
_cell_length_a 14.786129
_cell_length_b 21.512939
_cell_length_c 12.860483
_cell_angle_alpha 147.261207
_cell_angle_beta 19.840241
_cell_angle_gamma 152.561231
_cell_volume 639.262896
_symmetry_space_group_name_H-M "P -1"
_symmetry_group_IT_number 2
_symmetry_cell_setting 'triclinic'
loop_
_space_group_symop_operation_xyz
x,y,z
-x,-y,-z
loop_
_atom_site_type_symbol
_atom_site_label
_atom_site_fract_x
_atom_site_fract_y
_atom_site_fract_z
Si Si1 0.132387 0.659893 0.352273
Si Si2 0.548073 0.147006 0.171309
Si Si3 0.684378 0.101669 0.352407
Si Si4 0.721352 0.693002 0.430877
Si Si5 0.322115 0.370487 0.369382
Si Si6 0.298446 0.132114 0.644359
Si Si7 0.720285 0.449573 0.651782
O O1 0.180100 0.755048 0.533108
O O2 0.989326 0.688037 0.445199
O O3 0.868403 0.511025 0.466851
O O4 0.445236 0.663516 0.989532
O O5 0.420839 0.216876 0.327603
O O6 0.343722 0.119031 0.456614
O O7 0.927109 0.246729 0.909536
O O8 0.500000 0.000000 0.000000
O O9 0.448130 0.072379 0.473323
O O10 0.500000 0.000000 0.500000
O O11 0.957927 0.086999 0.988650
O O12 0.495956 0.534369 0.420709
O O13 0.741342 0.689666 0.530325
O O14 0.515494 0.291212 0.650657
O O15 0.000000 0.500000 0.500000
O O16 0.500000 0.500000 0.000000
#
# Coordination Sequence:
#
# PCOD9062616 Si02
#       7
#     2   2   2   2   2   2   2
#     4  12  23  41  66 104 135 180 226 268 348 412
#     4  12  27  46  73  98 136 182 235 281 337 408
#     4  12  27  45  65  96 141 181 223 271 331 418
#     4  11  24  47  67 104 135 174 230 288 347 393
#     4  11  24  41  73  99 139 176 220 290 345 405
#     4  12  24  46  68  99 134 180 224 284 339 390
#     4  12  21  38  66  96 135 169 216 272 330 396
#
# _framework density 21.900224000000001
#
# number of rings (size 3 to 8) (size 9 to 14) (size 15 to 20)
#    0.000    0.286    2.857    6.857    0.000    5.714 
#    0.000    0.000    0.000    0.000    0.000    0.000 
#    0.000    0.000    0.000    0.000    0.000    0.000 
#
# Total GULP energy -78329.441482 kJ/mol
# GULP energy per Si atom -5594.960106 kJ/mol
# Density = 2.185038 g / cm^3
# Si number density = 21.900224 Si / 1000 Ang^3
#
#
#
# Elastic Constant Matrix: (Units=GPa)
#
#
# Indices 1 2 3 4 5 6 
#
# 1 136.3022 27.0262 40.9279 5.3248 -16.9743 -27.0982
# 2 27.0262 74.4681 34.7891 -12.2226 -7.1546 -25.7329
# 3 40.9279 34.7891 144.1507 -1.1335 -9.1769 -14.6363
# 4 5.3248 -12.2226 -1.1335 38.4168 -4.0877 -2.1541
# 5 -16.9743 -7.1546 -9.1769 -4.0877 45.8650 -5.5461
# 6 -27.0982 -25.7329 -14.6363 -2.1541 -5.5461 37.5846
#
#
#
# Elastic Compliance Matrix: (Units=1/GPa)
#
#
# Indices 1 2 3 4 5 6 
#
# 1 0.009783 -0.000036 -0.001819 -0.000606 0.004029 0.006881
# 2 -0.000036 0.022111 -0.003393 0.008350 0.005322 0.015055
# 3 -0.001819 -0.003393 0.008249 -0.000570 0.000349 -0.000403
# 4 -0.000606 0.008350 -0.000570 0.029650 0.004504 0.007422
# 5 0.004029 0.005322 0.000349 0.004504 0.025897 0.010764
# 6 0.006881 0.015055 -0.000403 0.007422 0.010764 0.043732
#
#
# Mechanical properties :
#
#
# Convention : Reuss Voigt Hill
#
# Bulk Modulus (GPa) = 33.72833 62.26749 47.99791
# Shear Modulus (GPa) = 31.28907 41.18513 36.23710
#
# Velocity S-wave (km/s) = 3.78393 4.34127 4.07215
# Velocity P-wave (km/s) = 5.87581 7.32277 6.63883
#
# Compressibility (1/GPa) = 0.02964866
#
# Stress axis : x y z
#
# Youngs Moduli (GPa) = 102.21531 45.22655 121.22377
#
# Poissons Ratio (x) = 0.00161 0.22047
# Poissons Ratio (y) = 0.00364 0.41131
# Poissons Ratio (z) = 0.18590 0.15345
#
# Static dielectric constant tensor:
#      x y z
#    x 1.727310 0.016580 -0.044870 
#    y 0.016580 1.872420 0.055350 
#    z -0.044870 0.055350 1.726980 
# 
# From -- ./inp_files/118244.got.cif
#   From: 2010.05.17/outbox.cif.g08.bks.cpg/sg2_60_cif.got.tgz:118244.got - 2010.06.03 11:33:40.
