data_PCOD9062876
_publ_section_title
;
Structure prediction by ZEFSAII (Michael W. Deem and Ramdas Pophale) SiO2 
 PCOD9062876
Probable space group: P -1
;
_chemical_formula_sum "Si O2"
_cell_formula_units_Z 16
_cell_length_a 9.031974
_cell_length_b 24.461474
_cell_length_c 6.395843
_cell_angle_alpha 127.612507
_cell_angle_beta 97.359852
_cell_angle_gamma 46.384041
_cell_volume 696.733073
_symmetry_space_group_name_H-M "P -1"
_symmetry_group_IT_number 2
_symmetry_cell_setting 'triclinic'
loop_
_space_group_symop_operation_xyz
x,y,z
-x,-y,-z
loop_
_atom_site_type_symbol
_atom_site_label
_atom_site_fract_x
_atom_site_fract_y
_atom_site_fract_z
Si Si1 0.887631 0.811582 0.481005
Si Si2 0.526574 0.834316 0.685890
Si Si3 0.650519 0.006923 0.636976
Si Si4 0.846154 0.328304 0.176764
Si Si5 0.084433 0.020594 0.743102
Si Si6 0.580207 0.512743 0.836612
Si Si7 0.271016 0.740614 0.680150
Si Si8 0.715617 0.610951 0.224086
O O1 0.707788 0.827640 0.612512
O O2 0.782094 0.924083 0.664126
O O3 0.129594 0.743960 0.491730
O O4 0.934432 0.758588 0.141412
O O5 0.642118 0.716522 0.412413
O O6 0.282479 0.922387 0.710499
O O7 0.468957 0.882554 0.023025
O O8 0.795854 0.968435 0.364336
O O9 0.500000 0.000000 0.500000
O O10 0.823547 0.392067 0.506215
O O11 0.638888 0.423373 0.203613
O O12 0.782850 0.278678 0.158554
O O13 0.000000 0.000000 0.500000
O O14 0.858794 0.139131 0.080903
O O15 0.500000 0.500000 0.000000
O O16 0.618318 0.581243 0.002322
O O17 0.553248 0.650008 0.490039
O O18 0.000000 0.500000 0.000000
#
# Coordination Sequence:
#
# PCOD9062876 Si02
#       8
#     2   2   2   2   2   2   2   2
#     4  12  24  44  79 110 149 194 251 311 371 452
#     4  12  29  48  72 118 160 195 243 324 384 443
#     4  12  24  46  75 115 151 197 256 302 376 459
#     4  11  24  42  80 105 137 188 269 308 356 446
#     4  12  27  45  76 112 159 197 244 304 393 471
#     4  11  24  49  76 102 138 198 266 309 366 440
#     4  12  25  48  78 107 146 200 251 311 379 450
#     4  12  30  49  72 104 156 197 245 314 386 439
#
# _framework density 22.964319
#
# number of rings (size 3 to 8) (size 9 to 14) (size 15 to 20)
#    0.000    0.250    6.250    1.875    7.000    1.000 
#    2.250    1.250    0.000    0.000    0.000    0.000 
#    0.000    0.000    0.000    0.000    0.000    0.000 
#
# Total GULP energy -89175.790561 kJ/mol
# GULP energy per Si atom -5573.486910 kJ/mol
# Density = 2.291205 g / cm^3
# Si number density = 22.964319 Si / 1000 Ang^3
#
#
#
# Elastic Constant Matrix: (Units=GPa)
#
#
# Indices 1 2 3 4 5 6 
#
# 1 48.3515 14.5279 6.5500 -1.6306 1.9994 -7.3905
# 2 14.5279 115.7109 29.4562 7.6257 2.7002 2.8935
# 3 6.5500 29.4562 132.8390 22.2542 6.6386 -1.4505
# 4 -1.6306 7.6257 22.2542 40.7321 7.6144 4.1142
# 5 1.9994 2.7002 6.6386 7.6144 48.9127 3.3651
# 6 -7.3905 2.8935 -1.4505 4.1142 3.3651 34.3719
#
#
#
# Elastic Compliance Matrix: (Units=1/GPa)
#
#
# Indices 1 2 3 4 5 6 
#
# 1 0.022491 -0.002863 -0.000608 0.001499 -0.001256 0.004995
# 2 -0.002863 0.009562 -0.001872 -0.000750 0.000057 -0.001415
# 3 -0.000608 -0.001872 0.008755 -0.004475 -0.000430 0.000974
# 4 0.001499 -0.000750 -0.004475 0.028154 -0.003601 -0.002821
# 5 -0.001256 0.000057 -0.000430 -0.003601 0.021245 -0.001942
# 6 0.004995 -0.001415 0.000974 -0.002821 -0.001942 0.030855
#
#
# Mechanical properties :
#
#
# Convention : Reuss Voigt Hill
#
# Bulk Modulus (GPa) = 33.19936 44.21884 38.70910
# Shear Modulus (GPa) = 35.26385 41.22784 38.24584
#
# Velocity S-wave (km/s) = 3.92292 4.24169 4.08542
# Velocity P-wave (km/s) = 5.91670 6.57925 6.25675
#
# Compressibility (1/GPa) = 0.03012106
#
# Stress axis : x y z
#
# Youngs Moduli (GPa) = 44.46320 104.58391 114.22346
#
# Poissons Ratio (x) = 0.29947 0.06942
# Poissons Ratio (y) = 0.12732 0.21380
# Poissons Ratio (z) = 0.02702 0.19576
#
# Static dielectric constant tensor:
#      x y z
#    x 1.880920 -0.108480 -0.091440 
#    y -0.108480 1.983230 0.186700 
#    z -0.091440 0.186700 2.140600 
# 
# From -- ./inp_files/55621.got.cif
#   From: 2010.05.17/outbox.cif.g08.bks.cpg/sg2_28_cif.got.tgz:55621.got - 2010.06.03 11:33:40.
