data_PCOD9062663
_publ_section_title
;
Structure prediction by ZEFSAII (Michael W. Deem and Ramdas Pophale) SiO2 
 PCOD9062663
Probable space group: P -1
;
_chemical_formula_sum "Si O2"
_cell_formula_units_Z 16
_cell_length_a 8.872221
_cell_length_b 12.462907
_cell_length_c 9.144805
_cell_angle_alpha 53.594638
_cell_angle_beta 103.285905
_cell_angle_gamma 99.095331
_cell_volume 791.746530
_symmetry_space_group_name_H-M "P -1"
_symmetry_group_IT_number 2
_symmetry_cell_setting 'triclinic'
loop_
_space_group_symop_operation_xyz
x,y,z
-x,-y,-z
loop_
_atom_site_type_symbol
_atom_site_label
_atom_site_fract_x
_atom_site_fract_y
_atom_site_fract_z
Si Si1 0.890897 0.588645 0.805257
Si Si2 0.101567 0.114499 0.506951
Si Si3 0.531426 0.880168 0.493087
Si Si4 0.832217 0.479666 0.554455
Si Si5 0.349791 0.796322 0.231122
Si Si6 0.359216 0.288643 0.826540
Si Si7 0.147720 0.035623 0.907470
Si Si8 0.412943 0.361500 0.113151
O O1 0.955295 0.737785 0.662596
O O2 0.848876 0.518772 0.697952
O O3 0.740855 0.611223 0.852113
O O4 0.000000 0.500000 0.000000
O O5 0.285007 0.112385 0.510167
O O6 0.091504 0.082402 0.700437
O O7 0.000000 0.000000 0.500000
O O8 0.431416 0.868027 0.332106
O O9 0.497320 0.744868 0.685024
O O10 0.500000 0.000000 0.500000
O O11 0.761714 0.329359 0.647649
O O12 0.718492 0.583001 0.367526
O O13 0.000000 0.500000 0.500000
O O14 0.484265 0.740214 0.203451
O O15 0.254418 0.906807 0.034528
O O16 0.246711 0.160417 0.888713
O O17 0.383314 0.307541 0.988256
O O18 0.000000 0.000000 0.000000
O O19 0.500000 0.500000 0.000000
#
# Coordination Sequence:
#
# PCOD9062663 Si02
#       8
#     2   2   2   2   2   2   2   2
#     4  11  25  46  67  99 138 179 229 280 346 414
#     4  11  27  46  70 100 142 181 229 291 348 415
#     4  11  25  45  69 102 138 182 230 284 348 416
#     4  12  25  44  71 104 141 185 233 291 349 413
#     4  12  26  44  73 101 137 186 236 287 354 415
#     4  12  23  46  70  98 141 179 235 294 341 418
#     4  12  27  45  70 103 138 183 239 286 353 414
#     4  11  24  42  67 100 133 175 224 282 344 404
#
# _framework density 20.208489
#
# number of rings (size 3 to 8) (size 9 to 14) (size 15 to 20)
#    0.000    0.500    2.500    5.250    8.750    1.000 
#    0.000    0.000    0.000    0.000    0.000    0.000 
#    0.000    0.000    0.000    0.000    0.000    0.000 
#
# Total GULP energy -89527.029445 kJ/mol
# GULP energy per Si atom -5595.439340 kJ/mol
# Density = 2.016249 g / cm^3
# Si number density = 20.208489 Si / 1000 Ang^3
#
#
#
# Elastic Constant Matrix: (Units=GPa)
#
#
# Indices 1 2 3 4 5 6 
#
# 1 66.2867 37.0537 42.6518 5.2999 -16.8117 3.5818
# 2 37.0537 117.3919 38.0888 1.1534 -19.7497 11.3073
# 3 42.6518 38.0888 146.9549 -9.0568 -6.2146 -5.6193
# 4 5.2999 1.1534 -9.0568 54.0844 -5.4390 -12.2922
# 5 -16.8117 -19.7497 -6.2146 -5.4390 38.5257 -8.9316
# 6 3.5818 11.3073 -5.6193 -12.2922 -8.9316 40.6960
#
#
#
# Elastic Compliance Matrix: (Units=1/GPa)
#
#
# Indices 1 2 3 4 5 6 
#
# 1 0.022844 -0.004256 -0.005463 -0.002657 0.006298 -0.001003
# 2 -0.004256 0.011127 -0.001635 -0.000338 0.002982 -0.002391
# 3 -0.005463 -0.001635 0.009055 0.002656 -0.000731 0.002827
# 4 -0.002657 -0.000338 0.002656 0.021431 0.003986 0.008042
# 5 0.006298 0.002982 -0.000731 0.003986 0.032255 0.006799
# 6 -0.001003 -0.002391 0.002827 0.008042 0.006799 0.029637
#
#
# Mechanical properties :
#
#
# Convention : Reuss Voigt Hill
#
# Bulk Modulus (GPa) = 49.21493 62.91355 56.06424
# Shear Modulus (GPa) = 32.08656 40.85048 36.46852
#
# Velocity S-wave (km/s) = 3.98901 4.50093 4.25268
# Velocity P-wave (km/s) = 6.75446 7.62961 7.20534
#
# Compressibility (1/GPa) = 0.02031904
#
# Stress axis : x y z
#
# Youngs Moduli (GPa) = 43.77530 89.86772 110.43664
#
# Poissons Ratio (x) = 0.38245 0.60330
# Poissons Ratio (y) = 0.18630 0.18057
# Poissons Ratio (z) = 0.23914 0.14694
#
# Static dielectric constant tensor:
#      x y z
#    x 1.709480 -0.006400 0.010000 
#    y -0.006400 1.673750 -0.018240 
#    z 0.010000 -0.018240 1.694830 
# 
# From -- ./inp_files/184289.got.cif
#   From: 2010.05.17/outbox.cif.g08.bks.cpg/sg2_93_cif.got.tgz:184289.got - 2010.06.03 11:33:40.
