data_PCOD9062181
_publ_section_title
;
Structure prediction by ZEFSAII (Michael W. Deem and Ramdas Pophale) SiO2 
 PCOD9062181
Probable space group: P -1
;
_chemical_formula_sum "Si O2"
_cell_formula_units_Z 16
_cell_length_a 27.066908
_cell_length_b 13.877943
_cell_length_c 10.673238
_cell_angle_alpha 147.921494
_cell_angle_beta 149.248359
_cell_angle_gamma 19.961359
_cell_volume 681.628579
_symmetry_space_group_name_H-M "P -1"
_symmetry_group_IT_number 2
_symmetry_cell_setting 'triclinic'
loop_
_space_group_symop_operation_xyz
x,y,z
-x,-y,-z
loop_
_atom_site_type_symbol
_atom_site_label
_atom_site_fract_x
_atom_site_fract_y
_atom_site_fract_z
Si Si1 0.812743 0.014471 0.920729
Si Si2 0.672648 0.384311 0.815350
Si Si3 0.145778 0.358373 0.240669
Si Si4 0.354607 0.847897 0.720316
Si Si5 0.819183 0.320583 0.444879
Si Si6 0.065913 0.696170 0.687825
Si Si7 0.131594 0.503221 0.901094
Si Si8 0.253787 0.688672 0.449984
O O1 0.770443 0.944574 0.864732
O O2 0.989774 0.738752 0.951084
O O3 0.709164 0.154023 0.726342
O O4 0.775065 0.268189 0.170826
O O5 0.515832 0.701111 0.872759
O O6 0.652960 0.323070 0.570769
O O7 0.813968 0.314558 0.049099
O O8 0.209528 0.427871 0.372534
O O9 0.113531 0.491556 0.454822
O O10 0.000000 0.500000 0.000000
O O11 0.347576 0.743445 0.716835
O O12 0.217622 0.189342 0.775037
O O13 0.748528 0.364610 0.469002
O O14 0.000000 0.000000 0.500000
O O15 0.065602 0.610035 0.732104
O O16 0.908625 0.007235 0.631383
O O17 0.257937 0.480481 0.166241
#
# Coordination Sequence:
#
# PCOD9062181 Si02
#       8
#     2   2   2   2   2   2   2   2
#     4  12  23  41  69  99 131 171 224 270 327 390
#     4  11  23  48  65  94 137 179 212 266 340 399
#     4  12  22  36  62 101 128 166 215 271 324 385
#     4  11  27  43  66  96 138 175 214 269 339 395
#     4  12  21  39  63  97 137 171 210 278 331 385
#     4  12  22  40  69  96 134 169 218 276 325 384
#     4  12  23  39  67 103 130 166 223 279 323 384
#     4  12  22  42  65 100 133 172 216 278 329 379
#
# _framework density 23.473192999999998
#
# number of rings (size 3 to 8) (size 9 to 14) (size 15 to 20)
#    0.000    0.250    7.500    2.625    0.000    3.000 
#    2.250    0.625    0.000    1.500    0.000    0.000 
#    0.000    0.000    0.000    0.000    0.000    0.000 
#
# Total GULP energy -89238.624084 kJ/mol
# GULP energy per Si atom -5577.414005 kJ/mol
# Density = 2.341977 g / cm^3
# Si number density = 23.473193 Si / 1000 Ang^3
#
#
#
# Elastic Constant Matrix: (Units=GPa)
#
#
# Indices 1 2 3 4 5 6 
#
# 1 109.1953 19.2568 9.1251 17.2591 11.0334 35.6691
# 2 19.2568 55.8620 2.3633 13.0762 12.9484 1.9503
# 3 9.1251 2.3633 48.3656 16.6420 6.8309 1.0202
# 4 17.2591 13.0762 16.6420 22.4110 11.5988 11.5526
# 5 11.0334 12.9484 6.8309 11.5988 41.6673 6.9494
# 6 35.6691 1.9503 1.0202 11.5526 6.9494 33.0461
#
#
#
# Elastic Compliance Matrix: (Units=1/GPa)
#
#
# Indices 1 2 3 4 5 6 
#
# 1 0.015599 -0.005182 -0.003053 0.001988 0.000294 -0.017195
# 2 -0.005182 0.024366 0.006645 -0.019033 -0.003896 0.011423
# 3 -0.003053 0.006645 0.031553 -0.031782 0.000252 0.012987
# 4 0.001988 -0.019033 -0.031782 0.100925 -0.012026 -0.032795
# 5 0.000294 -0.003896 0.000252 -0.012026 0.028762 -0.001940
# 6 -0.017195 0.011423 0.012987 -0.032795 -0.001940 0.059618
#
#
# Mechanical properties :
#
#
# Convention : Reuss Voigt Hill
#
# Bulk Modulus (GPa) = 14.63270 30.54594 22.58932
# Shear Modulus (GPa) = 17.43484 31.60340 24.51912
#
# Velocity S-wave (km/s) = 2.72831 3.67326 3.23547
# Velocity P-wave (km/s) = 4.02147 5.57062 4.85819
#
# Compressibility (1/GPa) = 0.06834009
#
# Stress axis : x y z
#
# Youngs Moduli (GPa) = 64.10465 41.04104 31.69238
#
# Poissons Ratio (x) = 0.21266 0.09675
# Poissons Ratio (y) = 0.33217 -0.21060
# Poissons Ratio (z) = 0.19571 -0.27273
#
# Static dielectric constant tensor:
#      x y z
#    x 2.181690 -0.113660 0.007940 
#    y -0.113660 1.985870 0.024850 
#    z 0.007940 0.024850 2.045250 
# 
# From -- ./inp_files/477691.got.cif
#   From: 2010.05.17/outbox.cif.g08.bks.cpg/sg2_239_cif.got.tgz:477691.got - 2010.06.03 11:33:40.
