data_PCOD9062541
_publ_section_title
;
Structure prediction by ZEFSAII (Michael W. Deem and Ramdas Pophale) SiO2 
 PCOD9062541
Probable space group: P -1
;
_chemical_formula_sum "Si O2"
_cell_formula_units_Z 10
_cell_length_a 4.883492
_cell_length_b 20.514265
_cell_length_c 9.682261
_cell_angle_alpha 150.193388
_cell_angle_beta 131.572671
_cell_angle_gamma 52.111681
_cell_volume 358.783105
_symmetry_space_group_name_H-M "P -1"
_symmetry_group_IT_number 2
_symmetry_cell_setting 'triclinic'
loop_
_space_group_symop_operation_xyz
x,y,z
-x,-y,-z
loop_
_atom_site_type_symbol
_atom_site_label
_atom_site_fract_x
_atom_site_fract_y
_atom_site_fract_z
Si Si1 0.302046 0.157392 0.315004
Si Si2 0.587663 0.307819 0.293274
Si Si3 0.352456 0.973203 0.249787
Si Si4 0.783248 0.368241 0.862651
Si Si5 0.387097 0.593670 0.824500
O O1 0.629409 0.235337 0.512312
O O2 0.979310 0.277406 0.442659
O O3 0.397496 0.084686 0.357277
O O4 0.079514 0.058699 0.965359
O O5 0.685805 0.340746 0.228385
O O6 0.437005 0.165970 0.985772
O O7 0.500000 0.000000 0.500000
O O8 0.366401 0.436428 0.518191
O O9 0.500000 0.500000 0.000000
O O10 0.818288 0.347630 0.002361
O O11 0.179554 0.392721 0.986698
#
# Coordination Sequence:
#
# PCOD9062541 Si02
#       5
#     2   2   2   2   2
#     4   9  20  37  65  99 129 174 226 264 328 397
#     4   9  20  39  62 101 130 173 224 270 324 402
#     4   9  17  37  66  92 134 174 221 273 324 385
#     4  12  23  42  65 100 135 173 217 272 332 392
#     4  11  24  41  68  99 135 174 213 274 336 387
#
# _framework density 27.871991000000001
#
# number of rings (size 3 to 8) (size 9 to 14) (size 15 to 20)
#    1.200    0.800    2.000    1.800    0.000    3.200 
#    0.000    1.000    0.000   14.400    0.000    0.000 
#    0.000    0.000    0.000    0.000    0.000    0.000 
#
# Total GULP energy -56048.918911 kJ/mol
# GULP energy per Si atom -5604.891891 kJ/mol
# Density = 2.780855 g / cm^3
# Si number density = 27.871991 Si / 1000 Ang^3
#
#
#
# Elastic Constant Matrix: (Units=GPa)
#
#
# Indices 1 2 3 4 5 6 
#
# 1 62.0915 18.9666 28.1144 -3.8079 1.0734 4.9331
# 2 18.9666 187.6821 63.2238 -6.4287 9.0680 -21.9426
# 3 28.1144 63.2238 183.2751 -1.6739 5.3898 11.6664
# 4 -3.8079 -6.4287 -1.6739 64.4633 7.3797 -1.2140
# 5 1.0734 9.0680 5.3898 7.3797 35.6384 4.7135
# 6 4.9331 -21.9426 11.6664 -1.2140 4.7135 44.0223
#
#
#
# Elastic Compliance Matrix: (Units=1/GPa)
#
#
# Indices 1 2 3 4 5 6 
#
# 1 0.017675 -0.001292 -0.002134 0.000795 0.000227 -0.002062
# 2 -0.001292 0.006928 -0.002406 0.000881 -0.002136 0.004488
# 3 -0.002134 -0.002406 0.006786 -0.000250 0.000069 -0.002773
# 4 0.000795 0.000881 -0.000250 0.016089 -0.003708 0.001257
# 5 0.000227 -0.002136 0.000069 -0.003708 0.029938 -0.004416
# 6 -0.002062 0.004488 -0.002773 0.001257 -0.004416 0.026426
#
#
# Mechanical properties :
#
#
# Convention : Reuss Voigt Hill
#
# Bulk Modulus (GPa) = 50.70075 72.62871 61.66473
# Shear Modulus (GPa) = 40.95650 50.34104 45.64877
#
# Velocity S-wave (km/s) = 3.83750 4.25449 4.05137
# Velocity P-wave (km/s) = 6.15348 7.08864 6.63755
#
# Compressibility (1/GPa) = 0.01972358
#
# Stress axis : x y z
#
# Youngs Moduli (GPa) = 56.57801 144.35184 147.36375
#
# Poissons Ratio (x) = 0.18652 0.31444
# Poissons Ratio (y) = 0.07311 0.35462
# Poissons Ratio (z) = 0.12072 0.34737
#
# Static dielectric constant tensor:
#      x y z
#    x 2.187640 -0.059420 0.031960 
#    y -0.059420 2.104770 -0.021580 
#    z 0.031960 -0.021580 2.295620 
# 
# From -- ./inp_files/1045.got.cif
#   From: 2010.05.17/outbox.cif.g08.bks.cpg/sg2_1_cif.got.tgz:1045.got - 2010.06.03 11:33:40.
