data_PCOD9062312
_publ_section_title
;
Structure prediction by ZEFSAII (Michael W. Deem and Ramdas Pophale) SiO2 
 PCOD9062312
Probable space group: P -1
;
_chemical_formula_sum "Si O2"
_cell_formula_units_Z 13
_cell_length_a 15.150926
_cell_length_b 8.906468
_cell_length_c 11.941509
_cell_angle_alpha 56.159228
_cell_angle_beta 150.237339
_cell_angle_gamma 128.657695
_cell_volume 624.201383
_symmetry_space_group_name_H-M "P -1"
_symmetry_group_IT_number 2
_symmetry_cell_setting 'triclinic'
loop_
_space_group_symop_operation_xyz
x,y,z
-x,-y,-z
loop_
_atom_site_type_symbol
_atom_site_label
_atom_site_fract_x
_atom_site_fract_y
_atom_site_fract_z
Si Si1 0.321176 0.354753 0.429689
Si Si2 0.000000 0.000000 0.500000
Si Si3 0.301145 0.630624 0.489065
Si Si4 0.420932 0.168191 0.815750
Si Si5 0.104402 0.383568 0.587728
Si Si6 0.977843 0.785465 0.035323
Si Si7 0.676539 0.604182 0.963742
O O1 0.500000 0.500000 0.500000
O O2 0.264123 0.472570 0.416065
O O3 0.384605 0.197006 0.631632
O O4 0.143073 0.270971 0.187740
O O5 0.221664 0.123371 0.676169
O O6 0.975458 0.184268 0.471836
O O7 0.216841 0.528357 0.554842
O O8 0.527815 0.707789 0.720209
O O9 0.182266 0.763660 0.268691
O O10 0.562767 0.376072 0.925530
O O11 0.500000 0.000000 0.000000
O O12 0.000000 0.500000 0.500000
O O13 0.244464 0.338062 0.850014
O O14 0.846927 0.653175 0.042694
O O15 0.000000 0.000000 0.000000
#
# Coordination Sequence:
#
# PCOD9062312 Si02
#       7
#     2   1   2   2   2   2   2
#     4  11  23  50  73 104 149 196 247 302 369 454
#     4  12  26  44  70 120 142 192 256 292 384 452
#     4  11  24  47  75  97 146 197 240 302 388 422
#     4  11  25  44  74 109 150 189 252 308 373 449
#     4  12  24  45  78 106 154 192 244 317 373 445
#     4  12  27  45  72 105 143 195 255 303 371 454
#     4  11  24  47  71 105 149 198 241 311 386 437
#
# _framework density 20.826611
#
# number of rings (size 3 to 8) (size 9 to 14) (size 15 to 20)
#    0.000    0.615    7.692    1.846    2.154    1.846 
#    2.769    0.000    0.000    0.000    0.000    0.000 
#    0.000    0.000    0.000    0.000    0.000    0.000 
#
# Total GULP energy -72388.378966 kJ/mol
# GULP energy per Si atom -5568.336844 kJ/mol
# Density = 2.077921 g / cm^3
# Si number density = 20.826611 Si / 1000 Ang^3
#
#
#
# Elastic Constant Matrix: (Units=GPa)
#
#
# Indices 1 2 3 4 5 6 
#
# 1 102.1514 15.0768 21.9800 -9.8266 2.0680 -7.8261
# 2 15.0768 80.5616 28.9062 -13.1883 14.3484 -12.4648
# 3 21.9800 28.9062 124.8001 -29.7389 -0.9996 -8.6418
# 4 -9.8266 -13.1883 -29.7389 40.5705 -1.5126 1.7704
# 5 2.0680 14.3484 -0.9996 -1.5126 46.7388 1.8454
# 6 -7.8261 -12.4648 -8.6418 1.7704 1.8454 30.6106
#
#
#
# Elastic Compliance Matrix: (Units=1/GPa)
#
#
# Indices 1 2 3 4 5 6 
#
# 1 0.010460 -0.001000 -0.001185 0.001250 -0.000215 0.001873
# 2 -0.001000 0.015661 -0.002486 0.002599 -0.004952 0.005568
# 3 -0.001185 -0.002486 0.010452 0.006560 0.001205 0.001183
# 4 0.001250 0.002599 0.006560 0.030549 0.000219 0.001450
# 5 -0.000215 -0.004952 0.001205 0.000219 0.023082 -0.003136
# 6 0.001873 0.005568 0.001183 0.001450 -0.003136 0.035854
#
#
# Mechanical properties :
#
#
# Convention : Reuss Voigt Hill
#
# Bulk Modulus (GPa) = 36.72166 48.82657 42.77411
# Shear Modulus (GPa) = 34.60766 39.68734 37.14750
#
# Velocity S-wave (km/s) = 4.08082 4.37006 4.22792
# Velocity P-wave (km/s) = 6.31463 6.99703 6.66457
#
# Compressibility (1/GPa) = 0.02723188
#
# Stress axis : x y z
#
# Youngs Moduli (GPa) = 95.60221 63.85296 95.67523
#
# Poissons Ratio (x) = 0.06383 0.11335
# Poissons Ratio (y) = 0.09557 0.23787
# Poissons Ratio (z) = 0.11326 0.15875
#
# Static dielectric constant tensor:
#      x y z
#    x 1.809460 -0.009120 -0.000870 
#    y -0.009120 1.749820 -0.044580 
#    z -0.000870 -0.044580 1.793280 
# 
# From -- ./inp_files/447007.got.cif
#   From: 2010.05.17/outbox.cif.g08.bks.cpg/sg2_224_cif.got.tgz:447007.got - 2010.06.03 11:33:40.
