data_PCOD9062349
_publ_section_title
;
Structure prediction by ZEFSAII (Michael W. Deem and Ramdas Pophale) SiO2 
 PCOD9062349
Probable space group: P -1
;
_chemical_formula_sum "Si O2"
_cell_formula_units_Z 16
_cell_length_a 9.236587
_cell_length_b 15.817363
_cell_length_c 19.731948
_cell_angle_alpha 150.778413
_cell_angle_beta 144.747893
_cell_angle_gamma 40.111634
_cell_volume 798.285838
_symmetry_space_group_name_H-M "P -1"
_symmetry_group_IT_number 2
_symmetry_cell_setting 'triclinic'
loop_
_space_group_symop_operation_xyz
x,y,z
-x,-y,-z
loop_
_atom_site_type_symbol
_atom_site_label
_atom_site_fract_x
_atom_site_fract_y
_atom_site_fract_z
Si Si1 0.771385 0.594103 0.212589
Si Si2 0.690845 0.322861 0.187195
Si Si3 0.535289 0.613561 0.447420
Si Si4 0.038930 0.570685 0.431065
Si Si5 0.792130 0.264263 0.898912
Si Si6 0.982580 0.804844 0.337125
Si Si7 0.128420 0.299089 0.923215
Si Si8 0.880258 0.862537 0.691755
O O1 0.488088 0.643615 0.170826
O O2 0.975294 0.626197 0.368950
O O3 0.766634 0.724584 0.237786
O O4 0.833061 0.396539 0.067995
O O5 0.607085 0.463515 0.313319
O O6 0.858818 0.425845 0.275572
O O7 0.877663 0.162889 0.182906
O O8 0.433751 0.277274 0.027065
O O9 0.676685 0.526730 0.508002
O O10 0.236885 0.677516 0.371824
O O11 0.668025 0.775890 0.588733
O O12 0.957873 0.735789 0.567008
O O13 0.007140 0.255516 0.917289
O O14 0.792463 0.064618 0.780945
O O15 0.952929 0.801401 0.242877
O O16 0.000000 0.000000 0.500000
O O17 0.000000 0.500000 0.000000
#
# Coordination Sequence:
#
# PCOD9062349 Si02
#       8
#     2   2   2   2   2   2   2   2
#     4  11  24  40  58  89 125 156 192 252 299 346
#     4   9  18  38  65  89 116 154 206 237 290 359
#     4   9  18  40  62  86 121 158 195 241 295 355
#     4   9  20  37  65  88 117 158 195 244 299 347
#     4  11  24  39  60  90 123 154 201 244 295 355
#     4  12  26  41  60  90 123 153 202 250 294 350
#     4  12  22  41  65  84 116 169 195 238 301 357
#     4   9  20  38  63  92 115 154 202 247 285 353
#
# _framework density 20.042946000000001
#
# number of rings (size 3 to 8) (size 9 to 14) (size 15 to 20)
#    0.000    1.750    2.500    3.000    5.250    1.500 
#    2.250    1.250    0.000    0.000    0.000    0.000 
#    0.000    0.000    0.000    0.000    0.000    0.000 
#
# Total GULP energy -89293.013244 kJ/mol
# GULP energy per Si atom -5580.813328 kJ/mol
# Density = 1.999733 g / cm^3
# Si number density = 20.042946 Si / 1000 Ang^3
#
#
#
# Elastic Constant Matrix: (Units=GPa)
#
#
# Indices 1 2 3 4 5 6 
#
# 1 43.7065 14.6751 9.9124 -5.0128 -0.6063 -3.1999
# 2 14.6751 77.5402 36.9542 -8.2135 -2.7947 0.3491
# 3 9.9124 36.9542 92.3803 3.6983 -8.0518 -0.7553
# 4 -5.0128 -8.2135 3.6983 40.1458 1.4338 12.4477
# 5 -0.6063 -2.7947 -8.0518 1.4338 20.1545 -7.9867
# 6 -3.1999 0.3491 -0.7553 12.4477 -7.9867 21.9915
#
#
#
# Elastic Compliance Matrix: (Units=1/GPa)
#
#
# Indices 1 2 3 4 5 6 
#
# 1 0.024876 -0.004083 -0.000975 0.001311 0.000995 0.003271
# 2 -0.004083 0.017556 -0.007113 0.005499 -0.003034 -0.005331
# 3 -0.000975 -0.007113 0.014697 -0.005111 0.007656 0.006149
# 4 0.001311 0.005499 -0.005111 0.034800 -0.013491 -0.024669
# 5 0.000995 -0.003034 0.007656 -0.013491 0.065941 0.032041
# 6 0.003271 -0.005331 0.006149 -0.024669 0.032041 0.071844
#
#
# Mechanical properties :
#
#
# Convention : Reuss Voigt Hill
#
# Bulk Modulus (GPa) = 30.50002 37.41228 33.95615
# Shear Modulus (GPa) = 18.86904 26.59738 22.73321
#
# Velocity S-wave (km/s) = 3.07160 3.64678 3.37148
# Velocity P-wave (km/s) = 5.27542 6.03644 5.66871
#
# Compressibility (1/GPa) = 0.03278686
#
# Stress axis : x y z
#
# Youngs Moduli (GPa) = 40.20008 56.95943 68.04134
#
# Poissons Ratio (x) = 0.23259 0.06632
# Poissons Ratio (y) = 0.16415 0.48397
# Poissons Ratio (z) = 0.03918 0.40515
#
# Static dielectric constant tensor:
#      x y z
#    x 1.764630 0.016180 -0.005010 
#    y 0.016180 1.690550 -0.002260 
#    z -0.005010 -0.002260 1.629980 
# 
# From -- ./inp_files/259125.got.cif
#   From: 2010.05.17/outbox.cif.g08.bks.cpg/sg2_130_cif.got.tgz:259125.got - 2010.06.03 11:33:40.
