data_PCOD9062338
_publ_section_title
;
Structure prediction by ZEFSAII (Michael W. Deem and Ramdas Pophale) SiO2 
 PCOD9062338
Probable space group: P -1
;
_chemical_formula_sum "Si O2"
_cell_formula_units_Z 14
_cell_length_a 10.299166
_cell_length_b 10.574611
_cell_length_c 14.734264
_cell_angle_alpha 117.448734
_cell_angle_beta 60.584745
_cell_angle_gamma 153.328669
_cell_volume 626.445809
_symmetry_space_group_name_H-M "P -1"
_symmetry_group_IT_number 2
_symmetry_cell_setting 'triclinic'
loop_
_space_group_symop_operation_xyz
x,y,z
-x,-y,-z
loop_
_atom_site_type_symbol
_atom_site_label
_atom_site_fract_x
_atom_site_fract_y
_atom_site_fract_z
Si Si1 0.176321 0.957633 0.247708
Si Si2 0.479302 0.758442 0.960651
Si Si3 0.059596 0.698425 0.900952
Si Si4 0.762464 0.255221 0.429033
Si Si5 0.093942 0.286398 0.217614
Si Si6 0.287448 0.622402 0.693672
Si Si7 0.284057 0.287152 0.806930
O O1 0.371710 0.075348 0.131119
O O2 0.425565 0.224424 0.317712
O O3 0.006994 0.700414 0.279768
O O4 0.912647 0.833732 0.253292
O O5 0.378154 0.510617 0.899370
O O6 0.168523 0.564128 0.038101
O O7 0.730424 0.011954 0.028746
O O8 0.266119 0.754248 0.799010
O O9 0.858715 0.603787 0.860333
O O10 0.701727 0.326036 0.397796
O O11 0.000000 0.500000 0.500000
O O12 0.876195 0.210774 0.321235
O O13 0.500000 0.000000 0.500000
O O14 0.396084 0.521278 0.247905
O O15 0.931075 0.001327 0.165025
#
# Coordination Sequence:
#
# PCOD9062338 Si02
#       7
#     2   2   2   2   2   2   2
#     4  12  22  42  59  91 127 181 210 243 302 363
#     4  12  22  39  56  93 128 177 220 251 286 354
#     4  11  24  38  56  95 126 167 224 260 310 337
#     4  11  24  47  74 102 118 146 202 263 334 383
#     4  11  24  41  67  90 127 165 201 268 316 368
#     4  11  24  41  67  90 127 165 201 268 316 368
#     4  12  22  42  59  91 127 181 210 243 302 363
#
# _framework density 22.348300999999999
#
# number of rings (size 3 to 8) (size 9 to 14) (size 15 to 20)
#    0.000    0.571    4.286    3.429    0.000   11.429 
#    0.000    0.000    0.000   17.143    0.000    0.000 
#    0.000    0.000    0.000    0.000    0.000    0.000 
#
# Total GULP energy -78146.613425 kJ/mol
# GULP energy per Si atom -5581.900959 kJ/mol
# Density = 2.229743 g / cm^3
# Si number density = 22.348301 Si / 1000 Ang^3
#
#
#
# Elastic Constant Matrix: (Units=GPa)
#
#
# Indices 1 2 3 4 5 6 
#
# 1 92.3011 42.1268 32.9165 -17.4046 31.9476 13.1182
# 2 42.1268 174.0393 38.0573 -16.2690 23.8425 9.9937
# 3 32.9165 38.0573 56.2823 -19.2175 31.1260 6.6325
# 4 -17.4046 -16.2690 -19.2175 35.0189 -9.5278 4.7642
# 5 31.9476 23.8425 31.1260 -9.5278 27.1576 3.5666
# 6 13.1182 9.9937 6.6325 4.7642 3.5666 41.6934
#
#
#
# Elastic Compliance Matrix: (Units=1/GPa)
#
#
# Indices 1 2 3 4 5 6 
#
# 1 0.021041 -0.001899 0.008254 0.006897 -0.029369 -0.005754
# 2 -0.001899 0.007020 -0.003711 0.000523 0.000588 -0.000605
# 3 0.008254 -0.003711 0.060044 0.017837 -0.068030 -0.007478
# 4 0.006897 0.000523 0.017837 0.039320 -0.014115 -0.008418
# 5 -0.029369 0.000588 -0.068030 -0.014115 0.142649 0.009332
# 6 -0.005754 -0.000605 -0.007478 -0.008418 0.009332 0.027293
#
#
# Mechanical properties :
#
#
# Convention : Reuss Voigt Hill
#
# Bulk Modulus (GPa) = 10.70760 60.98042 35.84401
# Shear Modulus (GPa) = 15.46972 34.74212 25.10592
#
# Velocity S-wave (km/s) = 2.63384 3.94709 3.35534
# Velocity P-wave (km/s) = 3.74849 6.93673 5.57537
#
# Compressibility (1/GPa) = 0.09339165
#
# Stress axis : x y z
#
# Youngs Moduli (GPa) = 47.52584 142.44531 16.65437
#
# Poissons Ratio (x) = 0.27056 -0.13746
# Poissons Ratio (y) = 0.09027 0.06181
# Poissons Ratio (z) = -0.39226 0.52865
#
# Static dielectric constant tensor:
#      x y z
#    x 1.976570 -0.044880 -0.074930 
#    y -0.044880 1.813120 0.024740 
#    z -0.074930 0.024740 1.837980 
# 
# From -- ./inp_files/519617.got.cif
#   From: 2010.05.17/outbox.cif.g08.bks.cpg/sg2_260_cif.got.tgz:519617.got - 2010.06.03 11:33:40.
