data_PCOD9062559
_publ_section_title
;
Structure prediction by ZEFSAII (Michael W. Deem and Ramdas Pophale) SiO2 
 PCOD9062559
Probable space group: P -1
;
_chemical_formula_sum "Si O2"
_cell_formula_units_Z 15
_cell_length_a 8.407281
_cell_length_b 14.577870
_cell_length_c 9.798144
_cell_angle_alpha 146.430112
_cell_angle_beta 100.998269
_cell_angle_gamma 79.777566
_cell_volume 651.446409
_symmetry_space_group_name_H-M "P -1"
_symmetry_group_IT_number 2
_symmetry_cell_setting 'triclinic'
loop_
_space_group_symop_operation_xyz
x,y,z
-x,-y,-z
loop_
_atom_site_type_symbol
_atom_site_label
_atom_site_fract_x
_atom_site_fract_y
_atom_site_fract_z
Si Si1 0.553238 0.355450 0.495897
Si Si2 0.246267 0.766220 0.378679
Si Si3 0.970271 0.314625 0.211513
Si Si4 0.903048 0.768627 0.447481
Si Si5 0.662583 0.914789 0.362961
Si Si6 0.000000 0.000000 0.000000
Si Si7 0.325591 0.311754 0.165435
Si Si8 0.722941 0.456085 0.141085
O O1 0.649820 0.237585 0.470206
O O2 0.449196 0.268470 0.254749
O O3 0.666611 0.489647 0.609291
O O4 0.424786 0.465204 0.699870
O O5 0.066090 0.719408 0.331266
O O6 0.243946 0.944114 0.527889
O O7 0.320578 0.635530 0.119430
O O8 0.145339 0.260447 0.109926
O O9 0.000000 0.500000 0.500000
O O10 0.936433 0.184411 0.161980
O O11 0.829086 0.329426 0.095099
O O12 0.769087 0.834818 0.400855
O O13 0.835436 0.608863 0.312902
O O14 0.940226 0.912595 0.739027
O O15 0.500000 0.000000 0.500000
O O16 0.622566 0.776656 0.074382
#
# Coordination Sequence:
#
# PCOD9062559 Si02
#       8
#     2   2   2   2   2   1   2   2
#     4  11  24  41  69  98 134 179 232 285 345 420
#     4  12  25  41  67  98 135 181 232 283 352 413
#     4  12  23  45  72 102 140 183 230 289 347 406
#     4  12  25  44  68  99 137 180 233 289 346 412
#     4  12  26  45  66  96 142 183 226 293 349 410
#     4  12  26  42  72 106 138 174 240 282 344 418
#     4  11  24  45  67 100 135 177 236 282 345 423
#     4  12  23  44  69  99 136 184 229 282 351 415
#
# _framework density 23.025684999999999
#
# number of rings (size 3 to 8) (size 9 to 14) (size 15 to 20)
#    0.000    0.267    2.667    6.800    0.000    1.600 
#    0.000    0.000    0.000    0.000    0.000    0.000 
#    0.000    0.000    0.000    0.000    0.000    0.000 
#
# Total GULP energy -83828.694590 kJ/mol
# GULP energy per Si atom -5588.579639 kJ/mol
# Density = 2.297328 g / cm^3
# Si number density = 23.025685 Si / 1000 Ang^3
#
#
#
# Elastic Constant Matrix: (Units=GPa)
#
#
# Indices 1 2 3 4 5 6 
#
# 1 75.4475 24.0912 -2.3251 -13.6572 -3.7995 -16.8140
# 2 24.0912 140.3496 34.1408 -16.6220 6.5843 -38.3367
# 3 -2.3251 34.1408 100.7277 -18.6366 -11.4172 -7.5431
# 4 -13.6572 -16.6220 -18.6366 43.4779 9.8654 10.2681
# 5 -3.7995 6.5843 -11.4172 9.8654 15.3332 8.5850
# 6 -16.8140 -38.3367 -7.5431 10.2681 8.5850 34.9764
#
#
#
# Elastic Compliance Matrix: (Units=1/GPa)
#
#
# Indices 1 2 3 4 5 6 
#
# 1 0.015630 -0.001260 0.001954 0.003928 0.000368 0.005311
# 2 -0.001260 0.016475 -0.006259 0.004233 -0.026769 0.021430
# 3 0.001954 -0.006259 0.013781 0.002235 0.016247 -0.007593
# 4 0.003928 0.004233 0.002235 0.030786 -0.020697 0.003052
# 5 0.000368 -0.026769 0.016247 -0.020697 0.131216 -0.051791
# 6 0.005311 0.021430 -0.007593 0.003052 -0.051791 0.064811
#
#
# Mechanical properties :
#
#
# Convention : Reuss Voigt Hill
#
# Bulk Modulus (GPa) = 28.77268 47.59318 38.18293
# Shear Modulus (GPa) = 16.92549 36.13202 26.52875
#
# Velocity S-wave (km/s) = 2.71416 3.96562 3.39800
# Velocity P-wave (km/s) = 4.72708 6.45621 5.65809
#
# Compressibility (1/GPa) = 0.03475519
#
# Stress axis : x y z
#
# Youngs Moduli (GPa) = 63.98056 60.69954 72.56517
#
# Poissons Ratio (x) = 0.07645 -0.14178
# Poissons Ratio (y) = 0.08058 0.45420
# Poissons Ratio (z) = -0.12501 0.37993
#
# Static dielectric constant tensor:
#      x y z
#    x 1.888180 0.048410 0.017840 
#    y 0.048410 1.845630 0.009680 
#    z 0.017840 0.009680 1.846570 
# 
# From -- ./inp_files/155538.got.cif
#   From: 2010.05.17/outbox.cif.g08.bks.cpg/sg2_78_cif.got.tgz:155538.got - 2010.06.03 11:33:40.
