data_PCOD9062854
_publ_section_title
;
Structure prediction by ZEFSAII (Michael W. Deem and Ramdas Pophale) SiO2 
 PCOD9062854
Probable space group: P -1
;
_chemical_formula_sum "Si O2"
_cell_formula_units_Z 14
_cell_length_a 11.160392
_cell_length_b 13.355550
_cell_length_c 5.746379
_cell_angle_alpha 112.612765
_cell_angle_beta 123.798620
_cell_angle_gamma 57.104447
_cell_volume 593.460189
_symmetry_space_group_name_H-M "P -1"
_symmetry_group_IT_number 2
_symmetry_cell_setting 'triclinic'
loop_
_space_group_symop_operation_xyz
x,y,z
-x,-y,-z
loop_
_atom_site_type_symbol
_atom_site_label
_atom_site_fract_x
_atom_site_fract_y
_atom_site_fract_z
Si Si1 0.046531 0.543058 0.338388
Si Si2 0.963144 0.911572 0.208275
Si Si3 0.310945 0.763300 0.466384
Si Si4 0.290243 0.981108 0.324618
Si Si5 0.420000 0.428100 0.706015
Si Si6 0.496606 0.212224 0.929990
Si Si7 0.785961 0.805218 0.231205
O O1 0.236726 0.506129 0.504588
O O2 0.000000 0.500000 0.500000
O O3 0.939200 0.685171 0.349823
O O4 0.000000 0.500000 0.000000
O O5 0.834575 0.870406 0.139480
O O6 0.127893 0.792371 0.249829
O O7 0.000000 0.000000 0.500000
O O8 0.875852 0.984607 0.954689
O O9 0.320965 0.877138 0.452819
O O10 0.448530 0.641133 0.410690
O O11 0.353879 0.771619 0.786526
O O12 0.427681 0.915903 0.227630
O O13 0.265882 0.102869 0.528955
O O14 0.413860 0.320917 0.760399
O O15 0.500000 0.500000 0.000000
O O16 0.367734 0.221394 0.994109
#
# Coordination Sequence:
#
# PCOD9062854 Si02
#       7
#     2   2   2   2   2   2   2
#     4  12  29  55  79 113 158 206 265 321 384 465
#     4  12  25  44  68 108 144 191 241 305 379 464
#     4  11  25  46  72  98 154 185 247 314 379 458
#     4  11  24  42  74 104 144 184 249 299 389 446
#     4  11  28  47  77 109 146 202 257 322 380 454
#     4  11  24  48  69 107 146 188 245 308 386 455
#     4  12  27  43  77 102 147 193 244 308 380 452
#
# _framework density 23.590461999999999
#
# number of rings (size 3 to 8) (size 9 to 14) (size 15 to 20)
#    0.000    0.571    4.286    1.714    6.000    5.143 
#    0.000    0.000    0.000    0.000    0.000    0.000 
#    0.000    0.000    0.000    0.000    0.000    0.000 
#
# Total GULP energy -78248.328531 kJ/mol
# GULP energy per Si atom -5589.166324 kJ/mol
# Density = 2.353677 g / cm^3
# Si number density = 23.590462 Si / 1000 Ang^3
#
#
#
# Elastic Constant Matrix: (Units=GPa)
#
#
# Indices 1 2 3 4 5 6 
#
# 1 111.0398 45.7699 13.0292 -6.2095 18.1720 -34.0991
# 2 45.7699 147.1930 43.1885 -0.4553 5.4132 -30.3894
# 3 13.0292 43.1885 97.2256 -4.7641 9.9476 -21.8413
# 4 -6.2095 -0.4553 -4.7641 44.7921 -8.2723 -1.5614
# 5 18.1720 5.4132 9.9476 -8.2723 30.2616 -8.2552
# 6 -34.0991 -30.3894 -21.8413 -1.5614 -8.2552 43.9360
#
#
#
# Elastic Compliance Matrix: (Units=1/GPa)
#
#
# Indices 1 2 3 4 5 6 
#
# 1 0.013552 -0.002824 0.001997 0.001328 -0.005593 0.008553
# 2 -0.002824 0.009145 -0.003240 -0.000201 0.001851 0.002864
# 3 0.001997 -0.003240 0.013013 0.001232 -0.003133 0.005233
# 4 0.001328 -0.000201 0.001232 0.023934 0.006344 0.003546
# 5 -0.005593 0.001851 -0.003133 0.006344 0.039672 0.003062
# 6 0.008553 0.002864 0.005233 0.003546 0.003062 0.034682
#
#
# Mechanical properties :
#
#
# Convention : Reuss Voigt Hill
#
# Bulk Modulus (GPa) = 36.26259 62.15927 49.21093
# Shear Modulus (GPa) = 33.04174 40.69601 36.86887
#
# Velocity S-wave (km/s) = 3.74657 4.15794 3.95761
# Velocity P-wave (km/s) = 5.84130 7.03263 6.46447
#
# Compressibility (1/GPa) = 0.02757663
#
# Stress axis : x y z
#
# Youngs Moduli (GPa) = 73.79137 109.34765 76.84343
#
# Poissons Ratio (x) = 0.30882 -0.15347
# Poissons Ratio (y) = 0.20840 0.24896
# Poissons Ratio (z) = -0.14738 0.35427
#
# Static dielectric constant tensor:
#      x y z
#    x 1.983450 0.019400 -0.013170 
#    y 0.019400 1.858680 0.033650 
#    z -0.013170 0.033650 1.916190 
# 
# From -- ./inp_files/68942.got.cif
#   From: 2010.05.17/outbox.cif.g08.bks.cpg/sg2_35_cif.got.tgz:68942.got - 2010.06.03 11:33:40.
