data_PCOD9062995
_publ_section_title
;
Structure prediction by ZEFSAII (Michael W. Deem and Ramdas Pophale) SiO2 
 PCOD9062995
Probable space group: P -1
;
_chemical_formula_sum "Si O2"
_cell_formula_units_Z 14
_cell_length_a 13.558384
_cell_length_b 8.753849
_cell_length_c 13.673568
_cell_angle_alpha 75.309848
_cell_angle_beta 159.251252
_cell_angle_gamma 105.852066
_cell_volume 553.068827
_symmetry_space_group_name_H-M "P -1"
_symmetry_group_IT_number 2
_symmetry_cell_setting 'triclinic'
loop_
_space_group_symop_operation_xyz
x,y,z
-x,-y,-z
loop_
_atom_site_type_symbol
_atom_site_label
_atom_site_fract_x
_atom_site_fract_y
_atom_site_fract_z
Si Si1 0.336832 0.603647 0.549649
Si Si2 0.777788 0.950973 0.716821
Si Si3 0.823408 0.800236 0.060578
Si Si4 0.768923 0.238590 0.068934
Si Si5 0.056790 0.383213 0.484072
Si Si6 0.719907 0.909662 0.153954
Si Si7 0.345580 0.314563 0.502875
O O1 0.294205 0.479658 0.621403
O O2 0.447499 0.500540 0.580836
O O3 0.032826 0.666507 0.257046
O O4 0.563363 0.752150 0.756445
O O5 0.959864 0.045233 0.784249
O O6 0.500000 0.000000 0.500000
O O7 0.670202 0.782153 0.595736
O O8 0.000000 0.000000 0.000000
O O9 0.673997 0.810160 0.026314
O O10 0.786433 0.335887 0.171667
O O11 0.022024 0.322099 0.228061
O O12 0.871591 0.070882 0.223222
O O13 0.509037 0.225763 0.754876
O O14 0.140641 0.215369 0.629616
O O15 0.000000 0.500000 0.500000
O O16 0.500000 0.000000 0.000000
#
# Coordination Sequence:
#
# PCOD9062995 Si02
#       7
#     2   2   2   2   2   2   2
#     4  11  25  46  71 106 155 205 241 306 381 442
#     4  12  27  52  83 115 140 186 252 319 390 466
#     4  12  27  48  75 109 154 195 253 314 381 450
#     4  11  24  44  68 105 149 204 253 304 368 431
#     4  11  24  43  68 108 158 206 267 304 357 448
#     4  12  26  42  72 107 159 203 265 304 366 431
#     4  11  24  48  77 105 149 194 246 306 388 449
#
# _framework density 25.313303999999999
#
# number of rings (size 3 to 8) (size 9 to 14) (size 15 to 20)
#    0.000    0.571    2.857    5.571    4.000    1.714 
#    0.000    4.286    0.000    0.000    0.000    0.000 
#    0.000    0.000    0.000    0.000    0.000    0.000 
#
# Total GULP energy -77979.477243 kJ/mol
# GULP energy per Si atom -5569.962660 kJ/mol
# Density = 2.525569 g / cm^3
# Si number density = 25.313304 Si / 1000 Ang^3
#
#
#
# Elastic Constant Matrix: (Units=GPa)
#
#
# Indices 1 2 3 4 5 6 
#
# 1 127.8292 67.0358 50.7187 3.5956 -6.7951 -48.7982
# 2 67.0358 135.4156 44.1272 4.8590 -17.3507 -37.7912
# 3 50.7187 44.1272 151.4000 6.9135 -5.6766 -26.1148
# 4 3.5956 4.8590 6.9135 40.4150 -4.5669 -5.1539
# 5 -6.7951 -17.3507 -5.6766 -4.5669 32.7429 9.1383
# 6 -48.7982 -37.7912 -26.1148 -5.1539 9.1383 75.5081
#
#
#
# Elastic Compliance Matrix: (Units=1/GPa)
#
#
# Indices 1 2 3 4 5 6 
#
# 1 0.013075 -0.004372 -0.002192 0.000292 -0.001536 0.005710
# 2 -0.004372 0.010987 -0.001282 -0.000018 0.004210 0.001719
# 3 -0.002192 -0.001282 0.007857 -0.000926 -0.000070 0.000604
# 4 0.000292 -0.000018 -0.000926 0.025382 0.003091 0.001218
# 5 -0.001536 0.004210 -0.000070 0.003091 0.033645 -0.002771
# 6 0.005710 0.001719 0.000604 0.001218 -0.002771 0.018421
#
#
# Mechanical properties :
#
#
# Convention : Reuss Voigt Hill
#
# Bulk Modulus (GPa) = 61.63061 82.04535 71.83798
# Shear Modulus (GPa) = 38.32300 46.58408 42.45354
#
# Velocity S-wave (km/s) = 3.89517 4.29453 4.09971
# Velocity P-wave (km/s) = 6.68055 7.55466 7.13101
#
# Compressibility (1/GPa) = 0.01622570
#
# Stress axis : x y z
#
# Youngs Moduli (GPa) = 76.48003 91.01828 127.27610
#
# Poissons Ratio (x) = 0.39797 0.27898
# Poissons Ratio (y) = 0.33440 0.16321
# Poissons Ratio (z) = 0.16764 0.11672
#
# Static dielectric constant tensor:
#      x y z
#    x 2.128720 0.018850 -0.027430 
#    y 0.018850 2.235470 -0.021400 
#    z -0.027430 -0.021400 2.003370 
# 
# From -- ./inp_files/528682.got.cif
#   From: 2010.05.17/outbox.cif.g08.bks.cpg/sg2_265_cif.got.tgz:528682.got - 2010.06.03 11:33:40.
