data_PCOD9062200
_publ_section_title
;
Structure prediction by ZEFSAII (Michael W. Deem and Ramdas Pophale) SiO2 
 PCOD9062200
Probable space group: P -1
;
_chemical_formula_sum "Si O2"
_cell_formula_units_Z 15
_cell_length_a 11.652841
_cell_length_b 5.400308
_cell_length_c 14.365432
_cell_angle_alpha 91.412934
_cell_angle_beta 137.733186
_cell_angle_gamma 89.668500
_cell_volume 607.727524
_symmetry_space_group_name_H-M "P -1"
_symmetry_group_IT_number 2
_symmetry_cell_setting 'triclinic'
loop_
_space_group_symop_operation_xyz
x,y,z
-x,-y,-z
loop_
_atom_site_type_symbol
_atom_site_label
_atom_site_fract_x
_atom_site_fract_y
_atom_site_fract_z
Si Si1 0.959753 0.253314 0.031005
Si Si2 0.106501 0.349215 0.437176
Si Si3 0.500000 0.000000 0.500000
Si Si4 0.125896 0.996060 0.280726
Si Si5 0.735847 0.875661 0.302608
Si Si6 0.590784 0.259836 0.361216
Si Si7 0.838684 0.683433 0.180890
Si Si8 0.386664 0.565946 0.107348
O O1 0.765186 0.259511 0.949460
O O2 0.000000 0.500000 0.000000
O O3 0.077825 0.231433 0.192383
O O4 0.000000 0.000000 0.000000
O O5 0.139741 0.107128 0.393409
O O6 0.119143 0.259657 0.550394
O O7 0.270012 0.532241 0.521071
O O8 0.938279 0.479708 0.299632
O O9 0.693531 0.101683 0.642193
O O10 0.472865 0.897678 0.590796
O O11 0.973290 0.798680 0.189799
O O12 0.789158 0.893347 0.227754
O O13 0.564102 0.707299 0.196806
O O14 0.683674 0.113366 0.332175
O O15 0.429661 0.384124 0.216300
O O16 0.682633 0.573548 0.027272
#
# Coordination Sequence:
#
# PCOD9062200 Si02
#       8
#     2   2   1   2   2   2   2   2
#     4  12  28  49  79 113 159 209 260 326 388 475
#     4  11  23  48  71 109 147 199 256 317 391 472
#     4  12  24  48  72 104 150 196 244 316 390 460
#     4  12  27  44  78 110 149 202 255 320 394 469
#     4  11  26  47  76 109 151 207 257 327 390 469
#     4  11  26  47  73 111 151 199 260 314 393 469
#     4  12  25  49  75 111 156 198 264 327 393 466
#     4  11  27  48  74 112 151 201 261 316 399 468
#
# _framework density 24.682113999999999
#
# number of rings (size 3 to 8) (size 9 to 14) (size 15 to 20)
#    0.000    0.533    4.000    2.400    5.600    5.333 
#    0.000    0.000    0.000    0.000    0.000    0.000 
#    0.000    0.000    0.000    0.000    0.000    0.000 
#
# Total GULP energy -83759.608013 kJ/mol
# GULP energy per Si atom -5583.973868 kJ/mol
# Density = 2.462594 g / cm^3
# Si number density = 24.682114 Si / 1000 Ang^3
#
#
#
# Elastic Constant Matrix: (Units=GPa)
#
#
# Indices 1 2 3 4 5 6 
#
# 1 88.2792 14.7689 15.6798 -0.6131 -11.3115 11.3459
# 2 14.7689 57.0300 10.2141 8.2292 -1.7777 1.0102
# 3 15.6798 10.2141 136.4662 -6.6681 -1.8244 3.3967
# 4 -0.6131 8.2292 -6.6681 41.4738 -2.8923 2.0647
# 5 -11.3115 -1.7777 -1.8244 -2.8923 29.5892 8.7447
# 6 11.3459 1.0102 3.3967 2.0647 8.7447 32.9167
#
#
#
# Elastic Compliance Matrix: (Units=1/GPa)
#
#
# Indices 1 2 3 4 5 6 
#
# 1 0.013817 -0.003278 -0.001010 0.001513 0.007103 -0.006540
# 2 -0.003278 0.019171 -0.001305 -0.004187 -0.000943 0.001189
# 3 -0.001010 -0.001305 0.007635 0.001523 0.000327 -0.000582
# 4 0.001513 -0.004187 0.001523 0.025638 0.003869 -0.003186
# 5 0.007103 -0.000943 0.000327 0.003869 0.040858 -0.013550
# 6 -0.006540 0.001189 -0.000582 -0.003186 -0.013550 0.036457
#
#
# Mechanical properties :
#
#
# Convention : Reuss Voigt Hill
#
# Bulk Modulus (GPa) = 33.97285 40.34455 37.15870
# Shear Modulus (GPa) = 30.38134 36.87012 33.62573
#
# Velocity S-wave (km/s) = 3.51223 3.86916 3.69501
# Velocity P-wave (km/s) = 5.49925 6.02841 5.76990
#
# Compressibility (1/GPa) = 0.02943527
#
# Stress axis : x y z
#
# Youngs Moduli (GPa) = 72.37595 52.16204 130.97766
#
# Poissons Ratio (x) = 0.17100 0.13235
# Poissons Ratio (y) = 0.23726 0.17093
# Poissons Ratio (z) = 0.07314 0.06807
#
# Static dielectric constant tensor:
#      x y z
#    x 1.976880 -0.030460 -0.027280 
#    y -0.030460 1.971300 -0.039940 
#    z -0.027280 -0.039940 1.957390 
# 
# From -- ./inp_files/510402.got.cif
#   From: 2010.05.17/outbox.cif.g08.bks.cpg/sg2_256_cif.got.tgz:510402.got - 2010.06.03 11:33:40.
