data_PCOD9062376
_publ_section_title
;
Structure prediction by ZEFSAII (Michael W. Deem and Ramdas Pophale) SiO2 
 PCOD9062376
Probable space group: P -1
;
_chemical_formula_sum "Si O2"
_cell_formula_units_Z 14
_cell_length_a 9.669921
_cell_length_b 10.184264
_cell_length_c 13.218952
_cell_angle_alpha 97.531426
_cell_angle_beta 147.154121
_cell_angle_gamma 97.172694
_cell_volume 629.612805
_symmetry_space_group_name_H-M "P -1"
_symmetry_group_IT_number 2
_symmetry_cell_setting 'triclinic'
loop_
_space_group_symop_operation_xyz
x,y,z
-x,-y,-z
loop_
_atom_site_type_symbol
_atom_site_label
_atom_site_fract_x
_atom_site_fract_y
_atom_site_fract_z
Si Si1 0.898595 0.905132 0.236532
Si Si2 0.441268 0.674242 0.563259
Si Si3 0.065921 0.049500 0.160895
Si Si4 0.149587 0.777484 0.542686
Si Si5 0.554037 0.108682 0.899847
Si Si6 0.704325 0.763715 0.409891
Si Si7 0.757254 0.480887 0.769175
O O1 0.583322 0.875761 0.076530
O O2 0.989264 0.801883 0.348784
O O3 0.968267 0.910381 0.161970
O O4 0.104765 0.071862 0.415742
O O5 0.605756 0.835911 0.629993
O O6 0.310289 0.688322 0.590178
O O7 0.677874 0.616559 0.723516
O O8 0.215423 0.568059 0.332966
O O9 0.870967 0.126651 0.089831
O O10 0.000000 0.000000 0.000000
O O11 0.917126 0.711624 0.479904
O O12 0.366606 0.940857 0.729323
O O13 0.496694 0.213509 0.795824
O O14 0.523479 0.652476 0.372065
O O15 0.000000 0.500000 0.000000
#
# Coordination Sequence:
#
# PCOD9062376 Si02
#       7
#     2   2   2   2   2   2   2
#     4   9  19  34  57  84 119 155 185 235 295 353
#     4  11  24  40  58  90 121 152 200 246 287 346
#     4  12  21  33  56  91 122 151 189 240 298 347
#     4   9  19  37  58  87 116 143 195 245 290 349
#     4   9  18  34  57  87 118 150 188 233 296 360
#     4   9  18  38  62  79 110 160 194 235 294 344
#     4  11  24  43  63  79 116 166 202 239 288 349
#
# _framework density 22.235887000000002
#
# number of rings (size 3 to 8) (size 9 to 14) (size 15 to 20)
#    0.000    2.000    2.857    3.000    0.000    3.429 
#    0.000    0.714    0.000    0.000    0.000    0.000 
#    0.000    0.000    0.000    0.000    0.000    0.000 
#
# Total GULP energy -78179.530841 kJ/mol
# GULP energy per Si atom -5584.252203 kJ/mol
# Density = 2.218528 g / cm^3
# Si number density = 22.235887 Si / 1000 Ang^3
#
#
#
# Elastic Constant Matrix: (Units=GPa)
#
#
# Indices 1 2 3 4 5 6 
#
# 1 72.8013 -0.3833 8.7291 9.7315 -13.8421 0.3465
# 2 -0.3833 26.9156 -5.4315 -0.0358 -5.1012 4.3540
# 3 8.7291 -5.4315 59.1119 -14.7737 -7.4846 -9.3318
# 4 9.7315 -0.0358 -14.7737 20.0584 5.8408 -2.7942
# 5 -13.8421 -5.1012 -7.4846 5.8408 34.8070 -2.8751
# 6 0.3465 4.3540 -9.3318 -2.7942 -2.8751 31.5885
#
#
#
# Elastic Compliance Matrix: (Units=1/GPa)
#
#
# Indices 1 2 3 4 5 6 
#
# 1 0.018274 0.001115 -0.005981 -0.016167 0.008629 -0.002766
# 2 0.001115 0.039819 0.003686 -0.000267 0.006801 -0.003816
# 3 -0.005981 0.003686 0.025304 0.022651 0.000553 0.009087
# 4 -0.016167 -0.000267 0.022651 0.080233 -0.014010 0.012728
# 5 0.008629 0.006801 0.000553 -0.014010 0.035722 0.001143
# 6 -0.002766 -0.003816 0.009087 0.012728 0.001143 0.036128
#
#
# Mechanical properties :
#
#
# Convention : Reuss Voigt Hill
#
# Bulk Modulus (GPa) = 12.33998 18.29528 15.31763
# Shear Modulus (GPa) = 18.87844 27.68507 23.28176
#
# Velocity S-wave (km/s) = 2.91694 3.53237 3.23930
# Velocity P-wave (km/s) = 4.11173 4.98824 4.57104
#
# Compressibility (1/GPa) = 0.08103741
#
# Stress axis : x y z
#
# Youngs Moduli (GPa) = 54.72306 25.11376 39.51877
#
# Poissons Ratio (x) = -0.02799 0.23635
# Poissons Ratio (y) = -0.06100 -0.14567
# Poissons Ratio (z) = 0.32728 -0.09257
#
# Static dielectric constant tensor:
#      x y z
#    x 1.833290 0.000570 -0.008230 
#    y 0.000570 1.832290 -0.033530 
#    z -0.008230 -0.033530 1.863740 
# 
# From -- ./inp_files/173103.got.cif
#   From: 2010.05.17/outbox.cif.g08.bks.cpg/sg2_87_cif.got.tgz:173103.got - 2010.06.03 11:33:40.
