data_PCOD9062179
_publ_section_title
;
Structure prediction by ZEFSAII (Michael W. Deem and Ramdas Pophale) SiO2 
 PCOD9062179
Probable space group: P -1
;
_chemical_formula_sum "Si O2"
_cell_formula_units_Z 14
_cell_length_a 13.943746
_cell_length_b 9.967815
_cell_length_c 6.710253
_cell_angle_alpha 133.855539
_cell_angle_beta 91.276512
_cell_angle_gamma 60.129557
_cell_volume 499.470885
_symmetry_space_group_name_H-M "P -1"
_symmetry_group_IT_number 2
_symmetry_cell_setting 'triclinic'
loop_
_space_group_symop_operation_xyz
x,y,z
-x,-y,-z
loop_
_atom_site_type_symbol
_atom_site_label
_atom_site_fract_x
_atom_site_fract_y
_atom_site_fract_z
Si Si1 0.680752 0.707025 0.059570
Si Si2 0.694668 0.314221 0.262235
Si Si3 0.500657 0.362327 0.051213
Si Si4 0.170543 0.348825 0.320996
Si Si5 0.142273 0.243212 0.665465
Si Si6 0.045744 0.147397 0.022518
Si Si7 0.834660 0.234674 0.840233
O O1 0.544099 0.785248 0.162652
O O2 0.702094 0.733747 0.856055
O O3 0.785452 0.414406 0.834639
O O4 0.733320 0.818912 0.291876
O O5 0.627889 0.229968 0.053251
O O6 0.608878 0.447074 0.590988
O O7 0.840786 0.108310 0.129665
O O8 0.718579 0.424095 0.192123
O O9 0.500000 0.500000 0.000000
O O10 0.157617 0.299645 0.496702
O O11 0.125180 0.232324 0.066880
O O12 0.940970 0.352253 0.388929
O O13 0.000000 0.500000 0.000000
O O14 0.965592 0.149381 0.850075
O O15 0.154273 0.002583 0.428193
#
# Coordination Sequence:
#
# PCOD9062179 Si02
#       7
#     2   2   2   2   2   2   2
#     4  12  28  49  79 113 161 205 255 330 388 461
#     4  11  25  47  79 111 145 201 269 315 378 471
#     4  11  26  51  77 110 148 205 269 326 382 456
#     4  11  25  49  75 120 169 195 249 328 398 465
#     4  12  28  49  71 121 165 204 258 309 388 485
#     4  11  23  47  81 114 158 201 249 314 401 466
#     4  12  26  49  82 118 156 210 255 314 407 472
#
# _framework density 28.029661999999998
#
# number of rings (size 3 to 8) (size 9 to 14) (size 15 to 20)
#    0.000    0.571    4.286    3.000    2.000    2.857 
#    5.143    2.143    0.000    0.000    0.000    0.000 
#    0.000    0.000    0.000    0.000    0.000    0.000 
#
# Total GULP energy -78312.200466 kJ/mol
# GULP energy per Si atom -5593.728605 kJ/mol
# Density = 2.796586 g / cm^3
# Si number density = 28.029662 Si / 1000 Ang^3
#
#
#
# Elastic Constant Matrix: (Units=GPa)
#
#
# Indices 1 2 3 4 5 6 
#
# 1 254.7444 40.4495 82.2773 -19.1371 20.5256 10.9418
# 2 40.4495 63.2040 37.3965 -12.0211 6.9318 13.0117
# 3 82.2773 37.3965 144.6124 -21.5255 5.9886 17.1262
# 4 -19.1371 -12.0211 -21.5255 42.0526 5.7546 1.4116
# 5 20.5256 6.9318 5.9886 5.7546 74.6159 -14.4139
# 6 10.9418 13.0117 17.1262 1.4116 -14.4139 55.7263
#
#
#
# Elastic Compliance Matrix: (Units=1/GPa)
#
#
# Indices 1 2 3 4 5 6 
#
# 1 0.005081 -0.001552 -0.002279 0.000874 -0.001189 -0.000265
# 2 -0.001552 0.020629 -0.003261 0.003984 -0.002350 -0.004218
# 3 -0.002279 -0.003261 0.009785 0.003173 -0.000487 -0.002005
# 4 0.000874 0.003984 0.003173 0.027574 -0.003713 -0.003736
# 5 -0.001189 -0.002350 -0.000487 -0.003713 0.015232 0.004966
# 6 -0.000265 -0.004218 -0.002005 -0.003736 0.004966 0.020977
#
#
# Mechanical properties :
#
#
# Convention : Reuss Voigt Hill
#
# Bulk Modulus (GPa) = 46.92735 86.97862 66.95298
# Shear Modulus (GPa) = 41.47114 54.64146 48.05630
#
# Velocity S-wave (km/s) = 3.85066 4.42001 4.14512
# Velocity P-wave (km/s) = 6.04553 7.55956 6.84454
#
# Compressibility (1/GPa) = 0.02130954
#
# Stress axis : x y z
#
# Youngs Moduli (GPa) = 196.82156 48.47562 102.19901
#
# Poissons Ratio (x) = 0.07525 0.23288
# Poissons Ratio (y) = 0.30553 0.33332
# Poissons Ratio (z) = 0.44849 0.15810
#
# Static dielectric constant tensor:
#      x y z
#    x 2.182450 0.069680 0.028820 
#    y 0.069680 2.200330 -0.014170 
#    z 0.028820 -0.014170 2.434610 
# 
# From -- ./inp_files/95495.got.cif
#   From: 2010.05.17/outbox.cif.g08.bks.cpg/sg2_48_cif.got.tgz:95495.got - 2010.06.03 11:33:40.
