data_PCOD9062734
_publ_section_title
;
Structure prediction by ZEFSAII (Michael W. Deem and Ramdas Pophale) SiO2 
 PCOD9062734
Probable space group: P -1
;
_chemical_formula_sum "Si O2"
_cell_formula_units_Z 16
_cell_length_a 13.138226
_cell_length_b 6.378548
_cell_length_c 12.916300
_cell_angle_alpha 103.113404
_cell_angle_beta 41.818084
_cell_angle_gamma 100.833286
_cell_volume 702.606988
_symmetry_space_group_name_H-M "P -1"
_symmetry_group_IT_number 2
_symmetry_cell_setting 'triclinic'
loop_
_space_group_symop_operation_xyz
x,y,z
-x,-y,-z
loop_
_atom_site_type_symbol
_atom_site_label
_atom_site_fract_x
_atom_site_fract_y
_atom_site_fract_z
Si Si1 0.067084 0.619969 0.562313
Si Si2 0.618580 0.316230 0.399982
Si Si3 0.943160 0.543816 0.218864
Si Si4 0.407810 0.601315 0.226188
Si Si5 0.907885 0.023169 0.814272
Si Si6 0.876738 0.821343 0.034057
Si Si7 0.601487 0.213908 0.972579
Si Si8 0.553471 0.899069 0.309381
O O1 0.028281 0.504189 0.686928
O O2 0.248665 0.605341 0.408209
O O3 0.000000 0.500000 0.500000
O O4 0.994891 0.856406 0.655454
O O5 0.500000 0.500000 0.500000
O O6 0.783736 0.425813 0.298497
O O7 0.575090 0.173959 0.518635
O O8 0.586960 0.153439 0.310968
O O9 0.968926 0.797475 0.218533
O O10 0.063077 0.417200 0.045268
O O11 0.371468 0.659182 0.141694
O O12 0.509936 0.789582 0.222554
O O13 0.500951 0.380315 0.134107
O O14 0.762740 0.140426 0.888402
O O15 0.849374 0.892422 0.944097
O O16 0.717349 0.817605 0.213341
O O17 0.000000 0.000000 0.000000
O O18 0.500000 0.000000 0.000000
#
# Coordination Sequence:
#
# PCOD9062734 Si02
#       8
#     2   2   2   2   2   2   2   2
#     4  11  24  44  67  97 132 177 216 274 335 395
#     4  11  26  41  67  97 133 174 221 276 324 399
#     4  11  24  45  66  99 136 172 220 274 337 392
#     4  11  24  42  69  95 134 172 217 276 334 390
#     4  11  26  42  70 100 136 172 227 276 327 407
#     4  11  24  44  67  95 134 179 217 274 332 386
#     4  11  24  44  66  99 133 175 220 276 331 396
#     4  11  24  45  66  95 133 174 222 272 332 393
#
# _framework density 22.772334000000001
#
# number of rings (size 3 to 8) (size 9 to 14) (size 15 to 20)
#    0.000    1.000    2.500    3.000    3.500   10.500 
#    0.000    0.000    0.000    0.000    0.000    0.000 
#    0.000    0.000    0.000    0.000    0.000    0.000 
#
# Total GULP energy -89485.052628 kJ/mol
# GULP energy per Si atom -5592.815789 kJ/mol
# Density = 2.272050 g / cm^3
# Si number density = 22.772334 Si / 1000 Ang^3
#
#
#
# Elastic Constant Matrix: (Units=GPa)
#
#
# Indices 1 2 3 4 5 6 
#
# 1 92.0291 38.0005 30.5028 20.0718 -3.4342 12.9814
# 2 38.0005 115.1597 52.7394 28.4888 -4.9619 24.0773
# 3 30.5028 52.7394 135.0863 31.6075 -20.3399 11.1569
# 4 20.0718 28.4888 31.6075 52.1721 3.8512 4.6373
# 5 -3.4342 -4.9619 -20.3399 3.8512 29.6894 -3.3676
# 6 12.9814 24.0773 11.1569 4.6373 -3.3676 49.2196
#
#
#
# Elastic Compliance Matrix: (Units=1/GPa)
#
#
# Indices 1 2 3 4 5 6 
#
# 1 0.013236 -0.002861 -0.000997 -0.002829 0.000560 -0.001561
# 2 -0.002861 0.012927 -0.003268 -0.003542 -0.000463 -0.004526
# 3 -0.000997 -0.003268 0.011282 -0.005272 0.007790 0.000334
# 4 -0.002829 -0.003542 -0.005272 0.025898 -0.007811 0.000699
# 5 0.000560 -0.000463 0.007790 -0.007811 0.040224 0.001801
# 6 -0.001561 -0.004526 0.000334 0.000699 0.001801 0.022925
#
#
# Mechanical properties :
#
#
# Convention : Reuss Voigt Hill
#
# Bulk Modulus (GPa) = 43.11497 64.97339 54.04418
# Shear Modulus (GPa) = 33.67599 40.95172 37.31386
#
# Velocity S-wave (km/s) = 3.84970 4.24525 4.05231
# Velocity P-wave (km/s) = 6.22370 7.25418 6.75861
#
# Compressibility (1/GPa) = 0.02319380
#
# Stress axis : x y z
#
# Youngs Moduli (GPa) = 75.55286 77.35846 88.63292
#
# Poissons Ratio (x) = 0.22132 0.08834
# Poissons Ratio (y) = 0.21615 0.28966
# Poissons Ratio (z) = 0.07530 0.25281
#
# Static dielectric constant tensor:
#      x y z
#    x 1.894390 0.027080 -0.005970 
#    y 0.027080 1.894210 -0.020910 
#    z -0.005970 -0.020910 1.876400 
# 
# From -- ./inp_files/39365.got.cif
#   From: 2010.05.17/outbox.cif.g08.bks.cpg/sg2_20_cif.got.tgz:39365.got - 2010.06.03 11:33:40.
