data_PCOD9062490
_publ_section_title
;
Structure prediction by ZEFSAII (Michael W. Deem and Ramdas Pophale) SiO2 
 PCOD9062490
Probable space group: P -1
;
_chemical_formula_sum "Si O2"
_cell_formula_units_Z 12
_cell_length_a 11.846547
_cell_length_b 9.332292
_cell_length_c 6.558909
_cell_angle_alpha 55.938228
_cell_angle_beta 117.688868
_cell_angle_gamma 98.547031
_cell_volume 525.729549
_symmetry_space_group_name_H-M "P -1"
_symmetry_group_IT_number 2
_symmetry_cell_setting 'triclinic'
loop_
_space_group_symop_operation_xyz
x,y,z
-x,-y,-z
loop_
_atom_site_type_symbol
_atom_site_label
_atom_site_fract_x
_atom_site_fract_y
_atom_site_fract_z
Si Si1 0.196166 0.542189 0.182349
Si Si2 0.055470 0.380527 0.829295
Si Si3 0.056798 0.096866 0.783546
Si Si4 0.805276 0.124007 0.288349
Si Si5 0.553672 0.676248 0.318115
Si Si6 0.446372 0.974697 0.694700
O O1 0.294267 0.403854 0.498293
O O2 0.075189 0.636903 0.138321
O O3 0.142903 0.445112 0.023726
O O4 0.260687 0.697259 0.013336
O O5 0.127517 0.223509 0.879868
O O6 0.000000 0.500000 0.500000
O O7 0.927386 0.167273 0.486963
O O8 0.145602 0.998593 0.763205
O O9 0.000000 0.000000 0.000000
O O10 0.705790 0.036391 0.407012
O O11 0.500000 0.500000 0.500000
O O12 0.530601 0.847421 0.310282
O O13 0.509987 0.783533 0.989262
O O14 0.500000 0.000000 0.500000
#
# Coordination Sequence:
#
# PCOD9062490 Si02
#       6
#     2   2   2   2   2   2
#     4  11  24  44  70 104 143 186 242 300 353 447
#     4  11  24  41  65 107 143 182 232 286 372 429
#     4  11  24  41  68 105 140 190 225 294 372 430
#     4  11  24  45  70 104 146 185 248 297 358 446
#     4  11  26  50  74 102 141 192 247 309 362 430
#     4  11  28  50  72 107 144 195 250 306 369 430
#
# _framework density 22.825424000000002
#
# number of rings (size 3 to 8) (size 9 to 14) (size 15 to 20)
#    0.000    1.000    5.000    0.000    4.667    6.000 
#    0.000    0.000    0.000    0.000    0.000    0.000 
#    0.000    0.000    0.000    0.000    0.000    0.000 
#
# Total GULP energy -66837.685438 kJ/mol
# GULP energy per Si atom -5569.807120 kJ/mol
# Density = 2.277347 g / cm^3
# Si number density = 22.825424 Si / 1000 Ang^3
#
#
#
# Elastic Constant Matrix: (Units=GPa)
#
#
# Indices 1 2 3 4 5 6 
#
# 1 112.8986 52.9069 59.9867 1.8953 -25.7434 -3.7281
# 2 52.9069 108.3410 39.6383 3.6138 -4.4688 -5.3529
# 3 59.9867 39.6383 117.8272 -15.7654 -4.1307 -10.2572
# 4 1.8953 3.6138 -15.7654 37.0130 -4.6156 -12.1997
# 5 -25.7434 -4.4688 -4.1307 -4.6156 40.8871 -3.8779
# 6 -3.7281 -5.3529 -10.2572 -12.1997 -3.8779 27.3244
#
#
#
# Elastic Compliance Matrix: (Units=1/GPa)
#
#
# Indices 1 2 3 4 5 6 
#
# 1 0.017265 -0.005427 -0.007110 -0.002661 0.009138 -0.001268
# 2 -0.005427 0.012509 -0.001845 -0.002138 -0.002505 -0.000292
# 3 -0.007110 -0.001845 0.014624 0.009271 -0.001386 0.008101
# 4 -0.002661 -0.002138 0.009271 0.038840 0.005385 0.020803
# 5 0.009138 -0.002505 -0.001386 0.005385 0.031074 0.007050
# 6 -0.001268 -0.000292 0.008101 0.020803 0.007050 0.049697
#
#
# Mechanical properties :
#
#
# Convention : Reuss Voigt Hill
#
# Bulk Modulus (GPa) = 63.95879 71.57008 67.76444
# Shear Modulus (GPa) = 25.25466 33.48055 29.36761
#
# Velocity S-wave (km/s) = 3.32991 3.83405 3.59084
# Velocity P-wave (km/s) = 6.54722 7.14307 6.85162
#
# Compressibility (1/GPa) = 0.01563507
#
# Stress axis : x y z
#
# Youngs Moduli (GPa) = 57.92054 79.94509 68.37889
#
# Poissons Ratio (x) = 0.43384 0.48619
# Poissons Ratio (y) = 0.31432 0.12613
# Poissons Ratio (z) = 0.41183 0.14746
#
# Static dielectric constant tensor:
#      x y z
#    x 1.939850 0.026420 0.063010 
#    y 0.026420 1.784090 -0.060350 
#    z 0.063010 -0.060350 1.905250 
# 
# From -- ./inp_files/60182.got.cif
#   From: 2010.05.17/outbox.cif.g08.bks.cpg/sg2_31_cif.got.tgz:60182.got - 2010.06.03 11:33:40.
