data_PCOD9062667
_publ_section_title
;
Structure prediction by ZEFSAII (Michael W. Deem and Ramdas Pophale) SiO2 
 PCOD9062667
Probable space group: P -1
;
_chemical_formula_sum "Si O2"
_cell_formula_units_Z 16
_cell_length_a 6.803250
_cell_length_b 15.238494
_cell_length_c 11.158609
_cell_angle_alpha 124.834828
_cell_angle_beta 65.023240
_cell_angle_gamma 82.839017
_cell_volume 749.484408
_symmetry_space_group_name_H-M "P -1"
_symmetry_group_IT_number 2
_symmetry_cell_setting 'triclinic'
loop_
_space_group_symop_operation_xyz
x,y,z
-x,-y,-z
loop_
_atom_site_type_symbol
_atom_site_label
_atom_site_fract_x
_atom_site_fract_y
_atom_site_fract_z
Si Si1 0.977657 0.240331 0.468692
Si Si2 0.233675 0.098521 0.770240
Si Si3 0.451008 0.508817 0.159909
Si Si4 0.392796 0.285599 0.314268
Si Si5 0.830103 0.096174 0.217271
Si Si6 0.879684 0.589543 0.716176
Si Si7 0.206098 0.041634 0.464098
Si Si8 0.223917 0.642463 0.828882
O O1 0.140375 0.307906 0.461897
O O2 0.110974 0.138912 0.457253
O O3 0.702365 0.347668 0.655291
O O4 0.949844 0.172042 0.305840
O O5 0.217783 0.103480 0.634373
O O6 0.218511 0.979429 0.726138
O O7 0.510890 0.069453 0.714556
O O8 0.996459 0.219370 0.977775
O O9 0.279864 0.448409 0.188818
O O10 0.681408 0.435266 0.133569
O O11 0.500000 0.500000 0.000000
O O12 0.588059 0.181946 0.269642
O O13 0.309415 0.278617 0.193091
O O14 0.542703 0.358667 0.300085
O O15 0.000000 0.000000 0.000000
O O16 0.000000 0.500000 0.500000
O O17 0.100462 0.587655 0.730551
O O18 0.000000 0.000000 0.500000
#
# Coordination Sequence:
#
# PCOD9062667 Si02
#       8
#     2   2   2   2   2   2   2   2
#     4  12  25  44  72 103 143 185 238 296 359 428
#     4  11  24  44  66 103 136 182 238 284 360 423
#     4  11  27  48  72 108 142 190 247 295 359 427
#     4  11  24  42  67 102 139 183 232 290 357 423
#     4  12  25  42  68 106 138 181 231 294 359 428
#     4  11  25  46  70 103 137 189 240 290 360 419
#     4  11  24  45  69  96 141 188 229 290 358 427
#     4  11  26  46  73 102 147 185 237 303 353 429
#
# _framework density 21.348011
#
# number of rings (size 3 to 8) (size 9 to 14) (size 15 to 20)
#    0.000    0.750    5.000    1.500    1.750    6.000 
#    0.000    0.000    0.000    0.000    0.000    0.000 
#    0.000    0.000    0.000    0.000    0.000    0.000 
#
# Total GULP energy -89221.587833 kJ/mol
# GULP energy per Si atom -5576.349240 kJ/mol
# Density = 2.129942 g / cm^3
# Si number density = 21.348011 Si / 1000 Ang^3
#
#
#
# Elastic Constant Matrix: (Units=GPa)
#
#
# Indices 1 2 3 4 5 6 
#
# 1 160.3125 69.6621 46.5414 1.3099 -2.9188 -17.5140
# 2 69.6621 130.9271 38.0686 -17.1513 0.7526 -32.0638
# 3 46.5414 38.0686 80.1223 -5.2526 14.8533 -16.6161
# 4 1.3099 -17.1513 -5.2526 23.8467 -2.1245 -9.4883
# 5 -2.9188 0.7526 14.8533 -2.1245 20.1492 2.1166
# 6 -17.5140 -32.0638 -16.6161 -9.4883 2.1166 43.1466
#
#
#
# Elastic Compliance Matrix: (Units=1/GPa)
#
#
# Indices 1 2 3 4 5 6 
#
# 1 0.009975 -0.005668 -0.005373 -0.006933 0.005308 -0.004017
# 2 -0.005668 0.016359 -0.000400 0.017314 -0.000734 0.013546
# 3 -0.005373 -0.000400 0.020809 0.006205 -0.016258 0.007697
# 4 -0.006933 0.017314 0.006205 0.066787 -0.002044 0.027229
# 5 0.005308 -0.000734 -0.016258 -0.002044 0.063056 -0.008194
# 6 -0.004017 0.013546 0.007697 0.027229 -0.008194 0.040967
#
#
# Mechanical properties :
#
#
# Convention : Reuss Voigt Hill
#
# Bulk Modulus (GPa) = 41.21723 75.54514 58.38119
# Shear Modulus (GPa) = 20.08654 31.90113 25.99384
#
# Velocity S-wave (km/s) = 3.07075 3.86986 3.49323
# Velocity P-wave (km/s) = 5.64995 7.44527 6.60885
#
# Compressibility (1/GPa) = 0.02426170
#
# Stress axis : x y z
#
# Youngs Moduli (GPa) = 100.25122 61.12666 48.05560
#
# Poissons Ratio (x) = 0.34644 0.25821
# Poissons Ratio (y) = 0.56818 0.01924
# Poissons Ratio (z) = 0.53866 0.02447
#
# Static dielectric constant tensor:
#      x y z
#    x 1.749650 -0.052230 -0.015620 
#    y -0.052230 1.850120 0.110550 
#    z -0.015620 0.110550 1.792410 
# 
# From -- ./inp_files/368035.got.cif
#   From: 2010.05.17/outbox.cif.g08.bks.cpg/sg2_185_cif.got.tgz:368035.got - 2010.06.03 11:33:40.
