data_PCOD9062579
_publ_section_title
;
Structure prediction by ZEFSAII (Michael W. Deem and Ramdas Pophale) SiO2 
 PCOD9062579
Probable space group: P -1
;
_chemical_formula_sum "Si O2"
_cell_formula_units_Z 14
_cell_length_a 8.409987
_cell_length_b 15.096222
_cell_length_c 6.635159
_cell_angle_alpha 128.696081
_cell_angle_beta 87.043391
_cell_angle_gamma 94.375369
_cell_volume 655.541160
_symmetry_space_group_name_H-M "P -1"
_symmetry_group_IT_number 2
_symmetry_cell_setting 'triclinic'
loop_
_space_group_symop_operation_xyz
x,y,z
-x,-y,-z
loop_
_atom_site_type_symbol
_atom_site_label
_atom_site_fract_x
_atom_site_fract_y
_atom_site_fract_z
Si Si1 0.380347 0.081467 0.233088
Si Si2 0.549358 0.526877 0.759008
Si Si3 0.128458 0.932646 0.272337
Si Si4 0.090240 0.190993 0.211546
Si Si5 0.088853 0.408723 0.233441
Si Si6 0.899392 0.271332 0.717262
Si Si7 0.443625 0.688682 0.295774
O O1 0.250297 0.126704 0.149504
O O2 0.472102 0.191951 0.480408
O O3 0.281116 0.010823 0.309978
O O4 0.500000 0.000000 0.000000
O O5 0.500000 0.500000 0.500000
O O6 0.739331 0.544185 0.785153
O O7 0.490859 0.414376 0.725672
O O8 0.475646 0.642188 0.004314
O O9 0.162483 0.827592 0.264907
O O10 0.000000 0.000000 0.500000
O O11 0.042622 0.887419 0.008865
O O12 0.115884 0.300713 0.222587
O O13 0.023613 0.226650 0.484094
O O14 0.000000 0.500000 0.500000
O O15 0.983508 0.367115 0.989766
O O16 0.745317 0.307717 0.660001
#
# Coordination Sequence:
#
# PCOD9062579 Si02
#       7
#     2   2   2   2   2   2   2
#     4  12  26  44  69 102 141 183 227 282 348 406
#     4  11  24  45  68  96 139 175 225 285 344 399
#     4  11  25  44  70  95 133 181 228 276 335 404
#     4  11  24  44  68  97 136 177 229 284 334 409
#     4  11  24  41  71 100 130 179 229 280 342 412
#     4  11  24  44  68  99 136 176 232 280 338 409
#     4  11  26  43  67 100 135 178 224 283 343 405
#
# _framework density 21.356403
#
# number of rings (size 3 to 8) (size 9 to 14) (size 15 to 20)
#    0.000    0.857    1.429    4.714    4.000    9.714 
#    0.000    0.000    0.000    0.000    0.000    0.000 
#    0.000    0.000    0.000    0.000    0.000    0.000 
#
# Total GULP energy -78346.844941 kJ/mol
# GULP energy per Si atom -5596.203210 kJ/mol
# Density = 2.130779 g / cm^3
# Si number density = 21.356403 Si / 1000 Ang^3
#
#
#
# Elastic Constant Matrix: (Units=GPa)
#
#
# Indices 1 2 3 4 5 6 
#
# 1 89.5372 26.8722 36.6119 20.3015 -11.5554 11.5033
# 2 26.8722 74.2494 40.8930 13.9491 11.1556 11.1122
# 3 36.6119 40.8930 156.3547 20.8005 -2.2073 13.6183
# 4 20.3015 13.9491 20.8005 34.3963 -2.6045 3.3332
# 5 -11.5554 11.1556 -2.2073 -2.6045 44.8508 3.9856
# 6 11.5033 11.1122 13.6183 3.3332 3.9856 41.4301
#
#
#
# Elastic Compliance Matrix: (Units=1/GPa)
#
#
# Indices 1 2 3 4 5 6 
#
# 1 0.015230 -0.003907 -0.001459 -0.005905 0.004719 -0.002680
# 2 -0.003907 0.018560 -0.003397 -0.003418 -0.005816 -0.001942
# 3 -0.001459 -0.003397 0.008071 -0.002461 0.000832 -0.001219
# 4 -0.005905 -0.003418 -0.002461 0.035488 0.001234 0.000392
# 5 0.004719 -0.005816 0.000832 0.001234 0.025298 -0.002557
# 6 -0.002680 -0.001942 -0.001219 0.000392 -0.002557 0.026017
#
#
# Mechanical properties :
#
#
# Convention : Reuss Voigt Hill
#
# Bulk Modulus (GPa) = 41.09377 58.76616 49.92996
# Shear Modulus (GPa) = 32.40374 38.51974 35.46174
#
# Velocity S-wave (km/s) = 3.89946 4.25156 4.07931
# Velocity P-wave (km/s) = 6.28952 7.18872 6.75410
#
# Compressibility (1/GPa) = 0.02433459
#
# Stress axis : x y z
#
# Youngs Moduli (GPa) = 65.66004 53.87922 123.89797
#
# Poissons Ratio (x) = 0.21051 0.18073
# Poissons Ratio (y) = 0.25654 0.42094
# Poissons Ratio (z) = 0.09578 0.18305
#
# Static dielectric constant tensor:
#      x y z
#    x 1.759750 -0.014090 -0.018700 
#    y -0.014090 1.809310 0.006990 
#    z -0.018700 0.006990 1.763560 
# 
# From -- ./inp_files/26866.got.cif
#   From: 2010.05.17/outbox.cif.g08.bks.cpg/sg2_14_cif.got.tgz:26866.got - 2010.06.03 11:33:40.
