data_PCOD9062871
_publ_section_title
;
Structure prediction by ZEFSAII (Michael W. Deem and Ramdas Pophale) SiO2 
 PCOD9062871
Probable space group: P -1
;
_chemical_formula_sum "Si O2"
_cell_formula_units_Z 13
_cell_length_a 6.770044
_cell_length_b 10.889151
_cell_length_c 8.508417
_cell_angle_alpha 113.397427
_cell_angle_beta 108.513903
_cell_angle_gamma 98.068643
_cell_volume 519.656739
_symmetry_space_group_name_H-M "P -1"
_symmetry_group_IT_number 2
_symmetry_cell_setting 'triclinic'
loop_
_space_group_symop_operation_xyz
x,y,z
-x,-y,-z
loop_
_atom_site_type_symbol
_atom_site_label
_atom_site_fract_x
_atom_site_fract_y
_atom_site_fract_z
Si Si1 0.636734 0.157675 0.583679
Si Si2 0.563210 0.716771 0.138830
Si Si3 0.139672 0.490190 0.872675
Si Si4 0.033228 0.098213 0.822215
Si Si5 0.196713 0.664378 0.563688
Si Si6 0.104264 0.211672 0.252150
Si Si7 0.500000 0.500000 0.500000
O O1 0.514013 0.253182 0.692596
O O2 0.662640 0.202102 0.433453
O O3 0.873018 0.164894 0.719161
O O4 0.500000 0.000000 0.500000
O O5 0.711521 0.612955 0.117800
O O6 0.726323 0.857310 0.174715
O O7 0.326398 0.638616 0.966064
O O8 0.968796 0.427208 0.658886
O O9 0.000000 0.500000 0.000000
O O10 0.064221 0.163305 0.037107
O O11 0.921235 0.930597 0.726625
O O12 0.337197 0.564445 0.594172
O O13 0.077363 0.724640 0.694602
O O14 0.322826 0.341122 0.382260
#
# Coordination Sequence:
#
# PCOD9062871 Si02
#       7
#     2   2   2   2   2   2   1
#     4  12  26  45  81 111 143 189 256 310 369 439
#     4  11  24  42  76 111 147 186 244 313 378 423
#     4  11  24  44  73 115 145 188 247 314 368 434
#     4  11  26  51  75 110 152 197 246 306 376 451
#     4  12  27  48  74 110 149 192 251 308 364 445
#     4  11  29  50  73 107 155 198 246 301 378 447
#     4  12  30  46  72 106 152 200 242 304 372 432
#
# _framework density 25.016514999999998
#
# number of rings (size 3 to 8) (size 9 to 14) (size 15 to 20)
#    0.000    0.615    3.077    2.308   10.769    2.462 
#    0.000    3.846    0.000    0.000    0.000    0.000 
#    0.000    0.000    0.000    0.000    0.000    0.000 
#
# Total GULP energy -72548.206470 kJ/mol
# GULP energy per Si atom -5580.631267 kJ/mol
# Density = 2.495958 g / cm^3
# Si number density = 25.016515 Si / 1000 Ang^3
#
#
#
# Elastic Constant Matrix: (Units=GPa)
#
#
# Indices 1 2 3 4 5 6 
#
# 1 165.9853 42.4027 35.4678 13.9457 -19.1467 13.9130
# 2 42.4027 102.9829 26.7286 32.7939 14.7602 17.4121
# 3 35.4678 26.7286 50.5527 19.7519 -6.2313 8.6025
# 4 13.9457 32.7939 19.7519 41.9606 9.1567 9.7847
# 5 -19.1467 14.7602 -6.2313 9.1567 26.6469 20.9997
# 6 13.9130 17.4121 8.6025 9.7847 20.9997 58.8821
#
#
#
# Elastic Compliance Matrix: (Units=1/GPa)
#
#
# Indices 1 2 3 4 5 6 
#
# 1 0.009498 -0.004271 -0.001561 -0.000736 0.013319 -0.005381
# 2 -0.004271 0.016364 -0.005118 -0.006723 -0.013173 0.002733
# 3 -0.001561 -0.005118 0.032636 -0.013409 0.020129 -0.007836
# 4 -0.000736 -0.006723 -0.013409 0.038295 -0.015763 0.003379
# 5 0.013319 -0.013173 0.020129 -0.015763 0.089273 -0.031411
# 6 -0.005381 0.002733 -0.007836 0.003379 -0.031411 0.029232
#
#
# Mechanical properties :
#
#
# Convention : Reuss Voigt Hill
#
# Bulk Modulus (GPa) = 27.32232 58.74657 43.03445
# Shear Modulus (GPa) = 20.04827 39.82603 29.93715
#
# Velocity S-wave (km/s) = 2.83397 3.99430 3.46308
# Velocity P-wave (km/s) = 4.65338 6.69378 5.76458
#
# Compressibility (1/GPa) = 0.03660011
#
# Stress axis : x y z
#
# Youngs Moduli (GPa) = 105.28024 61.11001 30.64062
#
# Poissons Ratio (x) = 0.26097 0.04783
# Poissons Ratio (y) = 0.44960 0.15681
# Poissons Ratio (z) = 0.16435 0.31275
#
# Static dielectric constant tensor:
#      x y z
#    x 1.938350 0.015070 0.051150 
#    y 0.015070 2.044780 -0.021680 
#    z 0.051150 -0.021680 1.990030 
# 
# From -- ./inp_files/131979.got.cif
#   From: 2010.05.17/outbox.cif.g08.bks.cpg/sg2_66_cif.got.tgz:131979.got - 2010.06.03 11:33:40.
