data_PCOD9062626
_publ_section_title
;
Structure prediction by ZEFSAII (Michael W. Deem and Ramdas Pophale) SiO2 
 PCOD9062626
Probable space group: P -1
;
_chemical_formula_sum "Si O2"
_cell_formula_units_Z 13
_cell_length_a 9.529467
_cell_length_b 8.927340
_cell_length_c 14.681229
_cell_angle_alpha 66.169514
_cell_angle_beta 55.591423
_cell_angle_gamma 32.476890
_cell_volume 545.806152
_symmetry_space_group_name_H-M "P -1"
_symmetry_group_IT_number 2
_symmetry_cell_setting 'triclinic'
loop_
_space_group_symop_operation_xyz
x,y,z
-x,-y,-z
loop_
_atom_site_type_symbol
_atom_site_label
_atom_site_fract_x
_atom_site_fract_y
_atom_site_fract_z
Si Si1 0.967849 0.799412 0.810140
Si Si2 0.549968 0.435276 0.790920
Si Si3 0.711980 0.615749 0.574430
Si Si4 0.400390 0.396734 0.585048
Si Si5 0.184666 0.411821 0.129041
Si Si6 0.516179 0.999799 0.279466
Si Si7 0.500000 0.500000 0.000000
O O1 0.830113 0.730311 0.900134
O O2 0.217208 0.666271 0.821366
O O3 0.140598 0.629887 0.694633
O O4 0.730347 0.125659 0.801850
O O5 0.712178 0.435484 0.663575
O O6 0.552389 0.510992 0.871705
O O7 0.651506 0.641773 0.484454
O O8 0.000000 0.500000 0.500000
O O9 0.488243 0.891573 0.652904
O O10 0.500000 0.500000 0.500000
O O11 0.586607 0.106606 0.637215
O O12 0.850383 0.732674 0.187653
O O13 0.316648 0.235854 0.217517
O O14 0.375341 0.418336 0.030307
#
# Coordination Sequence:
#
# PCOD9062626 Si02
#       7
#     2   2   2   2   2   2   1
#     4  11  26  50  71 111 152 194 243 318 367 456
#     4  12  29  49  77 110 151 195 260 301 382 439
#     4  12  26  45  75 113 154 204 243 309 370 456
#     4  11  24  41  75 108 151 196 245 298 376 445
#     4  11  26  49  81 104 155 193 256 308 384 435
#     4  11  25  48  72 114 153 201 244 314 364 455
#     4  12  30  52  82 114 140 208 250 326 368 454
#
# _framework density 23.817978
#
# number of rings (size 3 to 8) (size 9 to 14) (size 15 to 20)
#    0.000    0.615    3.077    4.154    4.308    4.308 
#    0.000    0.000    0.000    0.000    0.000    0.000 
#    0.000    0.000    0.000    0.000    0.000    0.000 
#
# Total GULP energy -72484.353184 kJ/mol
# GULP energy per Si atom -5575.719476 kJ/mol
# Density = 2.376377 g / cm^3
# Si number density = 23.817978 Si / 1000 Ang^3
#
#
#
# Elastic Constant Matrix: (Units=GPa)
#
#
# Indices 1 2 3 4 5 6 
#
# 1 99.6672 16.8734 3.7077 -7.0983 -24.1807 17.3353
# 2 16.8734 30.0221 -9.1280 -5.0015 -7.2759 9.2341
# 3 3.7077 -9.1280 59.8847 -7.6949 -1.3677 -2.4830
# 4 -7.0983 -5.0015 -7.6949 14.0302 10.7949 4.1546
# 5 -24.1807 -7.2759 -1.3677 10.7949 62.5173 -18.3998
# 6 17.3353 9.2341 -2.4830 4.1546 -18.3998 36.3854
#
#
#
# Elastic Compliance Matrix: (Units=1/GPa)
#
#
# Indices 1 2 3 4 5 6 
#
# 1 0.012429 -0.005121 -0.001276 0.002874 0.002590 -0.003728
# 2 -0.005121 0.047451 0.010508 0.028880 -0.005640 -0.015035
# 3 -0.001276 0.010508 0.020450 0.018095 -0.003232 -0.004364
# 4 0.002874 0.028880 0.018095 0.124117 -0.026940 -0.035259
# 5 0.002590 -0.005640 -0.003232 -0.026940 0.025636 0.016017
# 6 -0.003728 -0.015035 -0.004364 -0.035259 0.016017 0.044903
#
#
# Mechanical properties :
#
#
# Convention : Reuss Voigt Hill
#
# Bulk Modulus (GPa) = 11.29268 23.60891 17.45080
# Shear Modulus (GPa) = 16.87589 34.46130 25.66859
#
# Velocity S-wave (km/s) = 2.66472 3.80789 3.28639
# Velocity P-wave (km/s) = 3.77083 5.40991 4.66295
#
# Compressibility (1/GPa) = 0.08855294
#
# Stress axis : x y z
#
# Youngs Moduli (GPa) = 80.45560 21.07453 48.89994
#
# Poissons Ratio (x) = 0.10792 0.06241
# Poissons Ratio (y) = 0.41199 -0.51386
# Poissons Ratio (z) = 0.10268 -0.22146
#
# Static dielectric constant tensor:
#      x y z
#    x 1.937270 0.010430 -0.059000 
#    y 0.010430 1.887880 -0.007890 
#    z -0.059000 -0.007890 1.917050 
# 
# From -- ./inp_files/494616.got.cif
#   From: 2010.05.17/outbox.cif.g08.bks.cpg/sg2_248_cif.got.tgz:494616.got - 2010.06.03 11:33:40.
