data_PCOD9062620
_publ_section_title
;
Structure prediction by ZEFSAII (Michael W. Deem and Ramdas Pophale) SiO2 
 PCOD9062620
Probable space group: P -1
;
_chemical_formula_sum "Si O2"
_cell_formula_units_Z 15
_cell_length_a 5.904022
_cell_length_b 16.896062
_cell_length_c 22.602835
_cell_angle_alpha 21.629148
_cell_angle_beta 53.008328
_cell_angle_gamma 46.699012
_cell_volume 599.412563
_symmetry_space_group_name_H-M "P -1"
_symmetry_group_IT_number 2
_symmetry_cell_setting 'triclinic'
loop_
_space_group_symop_operation_xyz
x,y,z
-x,-y,-z
loop_
_atom_site_type_symbol
_atom_site_label
_atom_site_fract_x
_atom_site_fract_y
_atom_site_fract_z
Si Si1 0.827587 0.851559 0.665957
Si Si2 0.500000 0.500000 0.500000
Si Si3 0.668428 0.941888 0.187779
Si Si4 0.126866 0.147588 0.957219
Si Si5 0.760652 0.001401 0.443474
Si Si6 0.167812 0.566219 0.599066
Si Si7 0.775035 0.926349 0.319681
Si Si8 0.987256 0.692840 0.999739
O O1 0.600120 0.912648 0.586156
O O2 0.115424 0.803850 0.706443
O O3 0.861434 0.583509 0.844199
O O4 0.000000 0.000000 0.500000
O O5 0.529420 0.479602 0.587562
O O6 0.071175 0.690839 0.461261
O O7 0.584392 0.735907 0.320638
O O8 0.719472 0.912297 0.270123
O O9 0.367587 0.187348 0.050815
O O10 0.956863 0.979165 0.088903
O O11 0.050780 0.371741 0.770525
O O12 0.026294 0.257804 0.961988
O O13 0.500000 0.000000 0.000000
O O14 0.002757 0.777889 0.524843
O O15 0.478021 0.961493 0.380779
O O16 0.848355 0.152411 0.162062
#
# Coordination Sequence:
#
# PCOD9062620 Si02
#       8
#     2   1   2   2   2   2   2   2
#     4  11  24  41  74 105 144 193 239 300 360 436
#     4  12  26  50  74 104 144 190 246 308 362 432
#     4  11  27  50  73 109 147 193 248 302 372 438
#     4  11  27  50  75 107 146 193 250 302 369 438
#     4  11  24  44  68 109 145 186 244 297 370 435
#     4  12  25  48  77 104 150 191 243 311 363 439
#     4  11  25  46  73 109 147 189 246 299 369 441
#     4  11  24  47  71 107 147 192 242 302 365 436
#
# _framework density 25.024501000000001
#
# number of rings (size 3 to 8) (size 9 to 14) (size 15 to 20)
#    0.000    0.800    4.000    2.000    3.733    3.200 
#    4.800    0.000    0.000    0.000    0.000    0.000 
#    0.000    0.000    0.000    0.000    0.000    0.000 
#
# Total GULP energy -83554.709563 kJ/mol
# GULP energy per Si atom -5570.313971 kJ/mol
# Density = 2.496754 g / cm^3
# Si number density = 25.024501 Si / 1000 Ang^3
#
#
#
# Elastic Constant Matrix: (Units=GPa)
#
#
# Indices 1 2 3 4 5 6 
#
# 1 105.9575 11.2098 54.5034 -0.3971 -16.5654 -18.6188
# 2 11.2098 137.2372 40.5358 14.1938 -12.0869 -13.8611
# 3 54.5034 40.5358 173.2397 -4.5831 -10.4731 -0.4927
# 4 -0.3971 14.1938 -4.5831 53.1388 4.6274 -5.9886
# 5 -16.5654 -12.0869 -10.4731 4.6274 36.3258 9.6356
# 6 -18.6188 -13.8611 -0.4927 -5.9886 9.6356 38.5394
#
#
#
# Elastic Compliance Matrix: (Units=1/GPa)
#
#
# Indices 1 2 3 4 5 6 
#
# 1 0.013002 0.001067 -0.004111 -0.000218 0.003622 0.005673
# 2 0.001067 0.008581 -0.002260 -0.002383 0.002296 0.002628
# 3 -0.004111 -0.002260 0.007620 0.000926 0.000140 -0.002593
# 4 -0.000218 -0.002383 0.000926 0.020248 -0.004056 0.003210
# 5 0.003622 0.002296 0.000140 -0.004056 0.032115 -0.006082
# 6 0.005673 0.002628 -0.002593 0.003210 -0.006082 0.031620
#
#
# Mechanical properties :
#
#
# Convention : Reuss Voigt Hill
#
# Bulk Modulus (GPa) = 53.77926 69.88138 61.83032
# Shear Modulus (GPa) = 38.46365 46.27981 42.37173
#
# Velocity S-wave (km/s) = 3.92476 4.30511 4.11933
# Velocity P-wave (km/s) = 6.48657 7.25932 6.88380
#
# Compressibility (1/GPa) = 0.01859453
#
# Stress axis : x y z
#
# Youngs Moduli (GPa) = 76.91297 116.53230 131.23160
#
# Poissons Ratio (x) = -0.12431 0.53947
# Poissons Ratio (y) = -0.08205 0.29662
# Poissons Ratio (z) = 0.31617 0.26339
#
# Static dielectric constant tensor:
#      x y z
#    x 1.343440 -0.907710 -0.132050 
#    y -0.907710 1.328300 -0.279260 
#    z -0.132050 -0.279260 1.850640 
# 
# From -- ./inp_files/583502.got.cif
#   From: 2010.05.17/outbox.cif.g08.bks.cpg/sg2_292_cif.got.tgz:583502.got - 2010.06.03 11:33:40.
