data_PCOD9062507
_publ_section_title
;
Structure prediction by ZEFSAII (Michael W. Deem and Ramdas Pophale) SiO2 
 PCOD9062507
Probable space group: P -1
;
_chemical_formula_sum "Si O2"
_cell_formula_units_Z 16
_cell_length_a 11.667638
_cell_length_b 14.313699
_cell_length_c 12.654415
_cell_angle_alpha 40.390538
_cell_angle_beta 124.183515
_cell_angle_gamma 151.594263
_cell_volume 610.096982
_symmetry_space_group_name_H-M "P -1"
_symmetry_group_IT_number 2
_symmetry_cell_setting 'triclinic'
loop_
_space_group_symop_operation_xyz
x,y,z
-x,-y,-z
loop_
_atom_site_type_symbol
_atom_site_label
_atom_site_fract_x
_atom_site_fract_y
_atom_site_fract_z
Si Si1 0.113830 0.445246 0.087490
Si Si2 0.260628 0.614806 0.346401
Si Si3 0.268736 0.197766 0.267817
Si Si4 0.770892 0.319602 0.269851
Si Si5 0.234278 0.083601 0.708243
Si Si6 0.737644 0.838414 0.955409
Si Si7 0.632598 0.273791 0.460022
Si Si8 0.641223 0.962599 0.977739
O O1 0.900038 0.139916 0.252449
O O2 0.197904 0.539112 0.928430
O O3 0.357335 0.646664 0.113094
O O4 0.000000 0.500000 0.000000
O O5 0.214466 0.570729 0.486735
O O6 0.510306 0.005160 0.382851
O O7 0.463848 0.665990 0.380306
O O8 0.376484 0.879609 0.159318
O O9 0.477915 0.512788 0.119893
O O10 0.409175 0.195529 0.405468
O O11 0.976454 0.974714 0.344709
O O12 0.250843 0.140892 0.183263
O O13 0.780816 0.412211 0.306485
O O14 0.997197 0.399568 0.330865
O O15 0.214362 0.987272 0.894925
O O16 0.727757 0.977598 0.896895
O O17 0.000000 0.000000 0.000000
#
# Coordination Sequence:
#
# PCOD9062507 Si02
#       8
#     2   2   2   2   2   2   2   2
#     4  12  21  39  66  98 132 166 209 274 337 382
#     4  12  25  42  68 100 130 173 218 273 331 388
#     4  11  26  43  65  96 136 177 217 265 324 404
#     4  11  24  43  66  95 130 170 226 273 323 384
#     4  12  24  42  66 101 135 168 219 273 332 397
#     4  11  24  41  66  99 131 170 219 271 332 383
#     4  11  26  45  63  92 133 180 221 264 323 392
#     4  12  22  38  68  99 129 162 216 277 330 379
#
# _framework density 26.225338000000001
#
# number of rings (size 3 to 8) (size 9 to 14) (size 15 to 20)
#    0.000    0.500    6.250    2.250    5.250    1.500 
#    0.000    0.625    0.000    0.000    0.000    0.000 
#    0.000    0.000    0.000    0.000    0.000    0.000 
#
# Total GULP energy -89482.227581 kJ/mol
# GULP energy per Si atom -5592.639224 kJ/mol
# Density = 2.616565 g / cm^3
# Si number density = 26.225338 Si / 1000 Ang^3
#
#
#
# Elastic Constant Matrix: (Units=GPa)
#
#
# Indices 1 2 3 4 5 6 
#
# 1 108.3390 2.2886 10.9269 1.7441 -5.0937 19.9084
# 2 2.2886 116.1564 13.9868 5.4504 9.1009 3.9638
# 3 10.9269 13.9868 63.0026 19.9652 -11.8598 -4.3399
# 4 1.7441 5.4504 19.9652 37.9618 6.8858 8.7661
# 5 -5.0937 9.1009 -11.8598 6.8858 31.7839 10.0471
# 6 19.9084 3.9638 -4.3399 8.7661 10.0471 48.9288
#
#
#
# Elastic Compliance Matrix: (Units=1/GPa)
#
#
# Indices 1 2 3 4 5 6 
#
# 1 0.010485 0.000001 -0.002247 0.001505 0.002152 -0.005177
# 2 0.000001 0.009266 -0.003206 0.001175 -0.003967 -0.000431
# 3 -0.002247 -0.003206 0.024233 -0.015148 0.011735 0.003628
# 4 0.001505 0.001175 -0.015148 0.037699 -0.011904 -0.006361
# 5 0.002152 -0.003967 0.011735 -0.011904 0.041785 -0.005961
# 6 -0.005177 -0.000431 0.003628 -0.006361 -0.005961 0.025265
#
#
# Mechanical properties :
#
#
# Convention : Reuss Voigt Hill
#
# Bulk Modulus (GPa) = 30.23011 37.98918 34.10964
# Shear Modulus (GPa) = 29.29733 41.08795 35.19264
#
# Velocity S-wave (km/s) = 3.34599 3.96248 3.66721
# Velocity P-wave (km/s) = 5.14583 5.95417 5.56470
#
# Compressibility (1/GPa) = 0.03307960
#
# Stress axis : x y z
#
# Youngs Moduli (GPa) = 95.37213 107.92661 41.26584
#
# Poissons Ratio (x) = -0.00016 0.09274
# Poissons Ratio (y) = -0.00014 0.13231
# Poissons Ratio (z) = 0.21434 0.34603
#
# Static dielectric constant tensor:
#      x y z
#    x 2.097860 0.086040 -0.036910 
#    y 0.086040 2.025060 -0.079570 
#    z -0.036910 -0.079570 2.016330 
# 
# From -- ./inp_files/432619.got.cif
#   From: 2010.05.17/outbox.cif.g08.bks.cpg/sg2_217_cif.got.tgz:432619.got - 2010.06.03 11:33:40.
