data_PCOD9062001
_publ_section_title
;
Structure prediction by ZEFSAII (Michael W. Deem and Ramdas Pophale) SiO2 
 PCOD9062001
Probable space group: P -1
;
_chemical_formula_sum "Si O2"
_cell_formula_units_Z 14
_cell_length_a 14.129553
_cell_length_b 14.814028
_cell_length_c 9.587457
_cell_angle_alpha 140.890331
_cell_angle_beta 29.884109
_cell_angle_gamma 139.582203
_cell_volume 605.171974
_symmetry_space_group_name_H-M "P -1"
_symmetry_group_IT_number 2
_symmetry_cell_setting 'triclinic'
loop_
_space_group_symop_operation_xyz
x,y,z
-x,-y,-z
loop_
_atom_site_type_symbol
_atom_site_label
_atom_site_fract_x
_atom_site_fract_y
_atom_site_fract_z
Si Si1 0.990057 0.006822 0.687511
Si Si2 0.390333 0.747153 0.549929
Si Si3 0.853570 0.580567 0.621479
Si Si4 0.688784 0.142142 0.940931
Si Si5 0.246394 0.324338 0.841608
Si Si6 0.698459 0.373711 0.983561
Si Si7 0.387296 0.203660 0.945008
O O1 0.135200 0.904605 0.416467
O O2 0.092900 0.173384 0.806515
O O3 0.000000 0.000000 0.500000
O O4 0.779510 0.931477 0.935997
O O5 0.250612 0.591042 0.487515
O O6 0.565177 0.715130 0.380965
O O7 0.496792 0.835141 0.383543
O O8 0.277796 0.821777 0.894387
O O9 0.078537 0.623733 0.337578
O O10 0.842243 0.607253 0.832465
O O11 0.726022 0.678715 0.827475
O O12 0.653765 0.283448 0.075858
O O13 0.500000 0.000000 0.000000
O O14 0.302061 0.454001 0.810697
O O15 0.543599 0.285184 0.959961
#
# Coordination Sequence:
#
# PCOD9062001 Si02
#       7
#     2   2   2   2   2   2   2
#     4  12  28  49  72 111 159 194 244 308 380 442
#     4  11  24  46  78 108 153 191 255 306 366 444
#     4  11  23  46  77 113 147 191 261 305 364 436
#     4  12  27  48  70 112 153 193 243 310 372 440
#     4  11  24  46  77 107 148 196 246 313 360 443
#     4  12  25  46  80 108 147 196 254 305 371 435
#     4  11  24  48  77 109 145 202 247 304 373 441
#
# _framework density 23.133918000000001
#
# number of rings (size 3 to 8) (size 9 to 14) (size 15 to 20)
#    0.000    0.571    5.714    2.143    2.000    5.714 
#    0.000    2.143    0.000    0.000    0.000    0.000 
#    0.000    0.000    0.000    0.000    0.000    0.000 
#
# Total GULP energy -78436.874662 kJ/mol
# GULP energy per Si atom -5602.633904 kJ/mol
# Density = 2.308126 g / cm^3
# Si number density = 23.133918 Si / 1000 Ang^3
#
#
#
# Elastic Constant Matrix: (Units=GPa)
#
#
# Indices 1 2 3 4 5 6 
#
# 1 115.0038 84.7581 43.6987 -9.3790 11.9411 10.7894
# 2 84.7581 207.7258 72.9409 -15.6131 27.5348 10.2319
# 3 43.6987 72.9409 117.9830 -12.0228 17.1261 14.6439
# 4 -9.3790 -15.6131 -12.0228 38.6901 6.4519 7.0198
# 5 11.9411 27.5348 17.1261 6.4519 43.7869 -0.3045
# 6 10.7894 10.2319 14.6439 7.0198 -0.3045 52.0668
#
#
#
# Elastic Compliance Matrix: (Units=1/GPa)
#
#
# Indices 1 2 3 4 5 6 
#
# 1 0.012888 -0.004489 -0.001675 0.001093 -0.000208 -0.001466
# 2 -0.004489 0.008167 -0.002712 0.001922 -0.003136 -0.000190
# 3 -0.001675 -0.002712 0.011897 0.003224 -0.002986 -0.002918
# 4 0.001093 0.001922 0.003224 0.030115 -0.007244 -0.005614
# 5 -0.000208 -0.003136 -0.002986 -0.007244 0.027120 0.002635
# 6 -0.001466 -0.000190 -0.002918 -0.005614 0.002635 0.021140
#
#
# Mechanical properties :
#
#
# Convention : Reuss Voigt Hill
#
# Bulk Modulus (GPa) = 65.78473 93.72312 79.75393
# Shear Modulus (GPa) = 37.27247 42.86309 40.06778
#
# Velocity S-wave (km/s) = 4.01828 4.30911 4.16624
# Velocity P-wave (km/s) = 7.07298 8.08450 7.59560
#
# Compressibility (1/GPa) = 0.01520110
#
# Stress axis : x y z
#
# Youngs Moduli (GPa) = 77.58981 122.43851 84.05370
#
# Poissons Ratio (x) = 0.54958 0.14078
# Poissons Ratio (y) = 0.34827 0.22798
# Poissons Ratio (z) = 0.12996 0.33208
#
# Static dielectric constant tensor:
#      x y z
#    x 1.867060 -0.060360 -0.044370 
#    y -0.060360 1.817510 0.007540 
#    z -0.044370 0.007540 1.942230 
# 
# From -- ./inp_files/316006.got.cif
#   From: 2010.05.17/outbox.cif.g08.bks.cpg/sg2_159_cif.got.tgz:316006.got - 2010.06.03 11:33:40.
