data_PCOD9062655
_publ_section_title
;
Structure prediction by ZEFSAII (Michael W. Deem and Ramdas Pophale) SiO2 
 PCOD9062655
Probable space group: P -1
;
_chemical_formula_sum "Si O2"
_cell_formula_units_Z 14
_cell_length_a 15.590225
_cell_length_b 11.794088
_cell_length_c 7.980168
_cell_angle_alpha 142.465895
_cell_angle_beta 131.430002
_cell_angle_gamma 37.829823
_cell_volume 545.812861
_symmetry_space_group_name_H-M "P -1"
_symmetry_group_IT_number 2
_symmetry_cell_setting 'triclinic'
loop_
_space_group_symop_operation_xyz
x,y,z
-x,-y,-z
loop_
_atom_site_type_symbol
_atom_site_label
_atom_site_fract_x
_atom_site_fract_y
_atom_site_fract_z
Si Si1 0.380972 0.747044 0.905859
Si Si2 0.196316 0.620342 0.658359
Si Si3 0.009662 0.201388 0.679493
Si Si4 0.679045 0.326028 0.805643
Si Si5 0.329706 0.001294 0.810785
Si Si6 0.747821 0.585514 0.975536
Si Si7 0.670259 0.841623 0.525578
O O1 0.291068 0.644392 0.674653
O O2 0.533390 0.552317 0.945137
O O3 0.408941 0.827327 0.861819
O O4 0.297520 0.975988 0.176536
O O5 0.047855 0.742003 0.518977
O O6 0.263942 0.358797 0.486522
O O7 0.207024 0.728989 0.971637
O O8 0.903867 0.426047 0.915576
O O9 0.000000 0.000000 0.500000
O O10 0.167341 0.123089 0.795533
O O11 0.652226 0.141697 0.499361
O O12 0.712334 0.408818 0.776171
O O13 0.345562 0.203415 0.025481
O O14 0.730825 0.711746 0.276584
O O15 0.500000 0.000000 0.500000
#
# Coordination Sequence:
#
# PCOD9062655 Si02
#       7
#     2   2   2   2   2   2   2
#     4  12  23  42  71 101 139 178 222 277 345 401
#     4  11  24  43  72  96 141 176 225 282 332 397
#     4  12  24  49  67  96 140 179 234 277 328 398
#     4  11  24  42  66 106 133 175 229 276 342 401
#     4  12  26  43  71  99 137 186 224 276 338 394
#     4  11  24  45  67  98 137 174 228 280 331 405
#     4  11  24  45  68 103 139 172 220 280 342 405
#
# _framework density 25.649818
#
# number of rings (size 3 to 8) (size 9 to 14) (size 15 to 20)
#    0.000    0.571    5.714    3.000    2.000    1.143 
#    0.000    3.571    0.000    0.000    0.000    0.000 
#    0.000    0.000    0.000    0.000    0.000    0.000 
#
# Total GULP energy -78407.414905 kJ/mol
# GULP energy per Si atom -5600.529636 kJ/mol
# Density = 2.559144 g / cm^3
# Si number density = 25.649818 Si / 1000 Ang^3
#
#
#
# Elastic Constant Matrix: (Units=GPa)
#
#
# Indices 1 2 3 4 5 6 
#
# 1 68.1069 32.5270 14.4400 8.1545 2.8817 30.5812
# 2 32.5270 115.4779 18.8636 3.0733 -14.0309 14.5042
# 3 14.4400 18.8636 118.2800 22.5938 -21.5610 8.7236
# 4 8.1545 3.0733 22.5938 47.1749 9.5709 4.5861
# 5 2.8817 -14.0309 -21.5610 9.5709 50.5156 3.9976
# 6 30.5812 14.5042 8.7236 4.5861 3.9976 44.7528
#
#
#
# Elastic Compliance Matrix: (Units=1/GPa)
#
#
# Indices 1 2 3 4 5 6 
#
# 1 0.023923 -0.004949 -0.001120 -0.001529 -0.001803 -0.014207
# 2 -0.004949 0.010532 -0.000462 -0.000213 0.003066 -0.000193
# 3 -0.001120 -0.000462 0.010988 -0.006121 0.005874 -0.001124
# 4 -0.001529 -0.000213 -0.006121 0.025901 -0.007518 0.000324
# 5 -0.001803 0.003066 0.005874 -0.007518 0.024869 -0.002358
# 6 -0.014207 -0.000193 -0.001124 0.000324 -0.002358 0.032512
#
#
# Mechanical properties :
#
#
# Convention : Reuss Voigt Hill
#
# Bulk Modulus (GPa) = 30.88301 48.16958 39.52629
# Shear Modulus (GPa) = 32.76979 44.22426 38.49702
#
# Velocity S-wave (km/s) = 3.57821 4.15680 3.87831
# Velocity P-wave (km/s) = 5.39795 6.46986 5.95806
#
# Compressibility (1/GPa) = 0.03238026
#
# Stress axis : x y z
#
# Youngs Moduli (GPa) = 41.80142 94.95180 91.00947
#
# Poissons Ratio (x) = 0.46995 0.10193
# Poissons Ratio (y) = 0.20689 0.04201
# Poissons Ratio (z) = 0.04682 0.04383
#
# Static dielectric constant tensor:
#      x y z
#    x 2.035580 0.046300 -0.001370 
#    y 0.046300 1.978730 -0.019410 
#    z -0.001370 -0.019410 2.039200 
# 
# From -- ./inp_files/333945.got.cif
#   From: 2010.05.17/outbox.cif.g08.bks.cpg/sg2_167_cif.got.tgz:333945.got - 2010.06.03 11:33:40.
