data_PCOD9062059
_publ_section_title
;
Structure prediction by ZEFSAII (Michael W. Deem and Ramdas Pophale) SiO2 
 PCOD9062059
Probable space group: P -1
;
_chemical_formula_sum "Si O2"
_cell_formula_units_Z 14
_cell_length_a 8.390876
_cell_length_b 8.111200
_cell_length_c 24.047507
_cell_angle_alpha 31.215365
_cell_angle_beta 48.380365
_cell_angle_gamma 55.357474
_cell_volume 634.101860
_symmetry_space_group_name_H-M "P -1"
_symmetry_group_IT_number 2
_symmetry_cell_setting 'triclinic'
loop_
_space_group_symop_operation_xyz
x,y,z
-x,-y,-z
loop_
_atom_site_type_symbol
_atom_site_label
_atom_site_fract_x
_atom_site_fract_y
_atom_site_fract_z
Si Si1 0.299696 0.415228 0.825016
Si Si2 0.345361 0.336803 0.244290
Si Si3 0.489994 0.727068 0.990170
Si Si4 0.689702 0.245766 0.390718
Si Si5 0.074584 0.762193 0.451505
Si Si6 0.088900 0.427685 0.663932
Si Si7 0.979979 0.722554 0.886729
O O1 0.475100 0.603961 0.767302
O O2 0.316421 0.517490 0.727914
O O3 0.071506 0.520692 0.872224
O O4 0.347267 0.041711 0.927081
O O5 0.127119 0.484029 0.277749
O O6 0.291050 0.974170 0.342734
O O7 0.417776 0.532331 0.117093
O O8 0.735690 0.828578 0.909693
O O9 0.500000 0.500000 0.000000
O O10 0.710157 0.429111 0.391087
O O11 0.500000 0.000000 0.500000
O O12 0.899228 0.030738 0.403575
O O13 0.063259 0.592086 0.562868
O O14 0.000000 0.500000 0.500000
O O15 0.108975 0.049717 0.765538
O O16 0.000000 0.500000 0.000000
#
# Coordination Sequence:
#
# PCOD9062059 Si02
#       7
#     2   2   2   2   2   2   2
#     4  12  25  46  73 107 146 185 243 296 356 432
#     4  11  23  47  71 100 144 193 235 294 365 415
#     4  12  29  46  73 106 148 192 236 299 359 426
#     4  11  25  43  70 106 142 187 243 296 354 425
#     4  11  25  45  72 103 143 190 239 296 362 428
#     4  11  24  45  74 103 147 189 237 299 359 429
#     4  12  26  46  73 106 143 189 243 290 360 425
#
# _framework density 22.078469999999999
#
# number of rings (size 3 to 8) (size 9 to 14) (size 15 to 20)
#    0.000    0.571    2.857    5.571    8.000    1.714 
#    0.000    2.857    0.000    0.000    0.000    0.000 
#    0.000    0.000    0.000    0.000    0.000    0.000 
#
# Total GULP energy -78290.585583 kJ/mol
# GULP energy per Si atom -5592.184684 kJ/mol
# Density = 2.202822 g / cm^3
# Si number density = 22.078470 Si / 1000 Ang^3
#
#
#
# Elastic Constant Matrix: (Units=GPa)
#
#
# Indices 1 2 3 4 5 6 
#
# 1 102.0013 32.0825 62.4118 -0.7688 14.8766 35.1684
# 2 32.0825 103.2275 40.9113 -12.3925 -2.1400 12.9167
# 3 62.4118 40.9113 78.2941 -10.1019 -7.7453 15.4450
# 4 -0.7688 -12.3925 -10.1019 40.0684 5.4870 -1.0387
# 5 14.8766 -2.1400 -7.7453 5.4870 33.8789 -1.4315
# 6 35.1684 12.9167 15.4450 -1.0387 -1.4315 41.8909
#
#
#
# Elastic Compliance Matrix: (Units=1/GPa)
#
#
# Indices 1 2 3 4 5 6 
#
# 1 0.040141 0.001925 -0.031284 -0.003705 -0.025058 -0.023706
# 2 0.001925 0.012645 -0.007525 0.002288 -0.002254 -0.002761
# 3 -0.031284 -0.007525 0.041727 0.004861 0.022610 0.014093
# 4 -0.003705 0.002288 0.004861 0.027049 -0.001446 0.001234
# 5 -0.025058 -0.002254 0.022610 -0.001446 0.046413 0.014946
# 6 -0.023706 -0.002761 0.014093 0.001234 0.014946 0.039970
#
#
# Mechanical properties :
#
#
# Convention : Reuss Voigt Hill
#
# Bulk Modulus (GPa) = 48.20820 61.59268 54.90044
# Shear Modulus (GPa) = 17.32338 33.04214 25.18276
#
# Velocity S-wave (km/s) = 2.80416 3.87276 3.38094
# Velocity P-wave (km/s) = 5.68918 6.92498 6.33728
#
# Compressibility (1/GPa) = 0.02074336
#
# Stress axis : x y z
#
# Youngs Moduli (GPa) = 24.91240 79.08404 23.96555
#
# Poissons Ratio (x) = -0.15226 0.74975
# Poissons Ratio (y) = -0.04796 0.18035
# Poissons Ratio (z) = 0.77937 0.59513
#
# Static dielectric constant tensor:
#      x y z
#    x 2.051020 0.129840 -0.058920 
#    y 0.129840 1.873360 0.005350 
#    z -0.058920 0.005350 1.776430 
# 
# From -- ./inp_files/380317.got.cif
#   From: 2010.05.17/outbox.cif.g08.bks.cpg/sg2_191_cif.got.tgz:380317.got - 2010.06.03 11:33:40.
