data_PCOD9062711
_publ_section_title
;
Structure prediction by ZEFSAII (Michael W. Deem and Ramdas Pophale) SiO2 
 PCOD9062711
Probable space group: P -1
;
_chemical_formula_sum "Si O2"
_cell_formula_units_Z 16
_cell_length_a 9.262411
_cell_length_b 17.516156
_cell_length_c 6.456133
_cell_angle_alpha 98.418889
_cell_angle_beta 99.109174
_cell_angle_gamma 47.091205
_cell_volume 756.439638
_symmetry_space_group_name_H-M "P -1"
_symmetry_group_IT_number 2
_symmetry_cell_setting 'triclinic'
loop_
_space_group_symop_operation_xyz
x,y,z
-x,-y,-z
loop_
_atom_site_type_symbol
_atom_site_label
_atom_site_fract_x
_atom_site_fract_y
_atom_site_fract_z
Si Si1 0.852275 0.540576 0.289691
Si Si2 0.715067 0.396032 0.572750
Si Si3 0.555922 0.032780 0.329217
Si Si4 0.822362 0.847762 0.004232
Si Si5 0.997803 0.378622 0.913886
Si Si6 0.595773 0.301231 0.786450
Si Si7 0.196129 0.760499 0.793748
Si Si8 0.220769 0.888755 0.517039
O O1 0.622790 0.619907 0.327131
O O2 0.000000 0.500000 0.500000
O O3 0.864904 0.605758 0.152410
O O4 0.909225 0.444745 0.131580
O O5 0.500000 0.500000 0.500000
O O6 0.836764 0.420830 0.714715
O O7 0.701696 0.336900 0.725233
O O8 0.809388 0.316089 0.371495
O O9 0.628847 0.093381 0.416447
O O10 0.500000 0.000000 0.500000
O O11 0.735692 0.928778 0.204523
O O12 0.361478 0.101928 0.170047
O O13 0.897227 0.739106 0.061522
O O14 0.998496 0.828911 0.915677
O O15 0.709654 0.184008 0.696443
O O16 0.615138 0.305166 0.037203
O O17 0.217265 0.826425 0.675068
O O18 0.000000 0.000000 0.500000
#
# Coordination Sequence:
#
# PCOD9062711 Si02
#       8
#     2   2   2   2   2   2   2   2
#     4  11  27  44  67 100 139 183 224 282 344 402
#     4  11  24  42  69 100 134 180 227 281 335 400
#     4  11  27  45  71 101 138 176 230 279 344 407
#     4  11  26  44  70 103 131 182 228 282 341 407
#     4  11  26  43  69  99 138 174 232 277 339 410
#     4  11  25  42  68 103 134 181 229 274 345 404
#     4  11  25  44  71  99 141 175 230 281 343 403
#     4  11  26  44  70 101 140 179 225 284 341 406
#
# _framework density 21.151720999999998
#
# number of rings (size 3 to 8) (size 9 to 14) (size 15 to 20)
#    0.000    1.000    1.250    3.000   12.250    6.000 
#    0.000    0.000    0.000    0.000    0.000    0.000 
#    0.000    0.000    0.000    0.000    0.000    0.000 
#
# Total GULP energy -89475.672708 kJ/mol
# GULP energy per Si atom -5592.229544 kJ/mol
# Density = 2.110358 g / cm^3
# Si number density = 21.151721 Si / 1000 Ang^3
#
#
#
# Elastic Constant Matrix: (Units=GPa)
#
#
# Indices 1 2 3 4 5 6 
#
# 1 94.9495 17.4048 21.9141 11.1245 2.0275 8.4421
# 2 17.4048 76.9947 33.4527 1.9979 5.6225 2.1473
# 3 21.9141 33.4527 109.0060 0.6431 9.6836 -0.0045
# 4 11.1245 1.9979 0.6431 24.1501 -0.2469 1.0414
# 5 2.0275 5.6225 9.6836 -0.2469 34.9752 -0.4713
# 6 8.4421 2.1473 -0.0045 1.0414 -0.4713 37.8736
#
#
#
# Elastic Compliance Matrix: (Units=1/GPa)
#
#
# Indices 1 2 3 4 5 6 
#
# 1 0.012118 -0.001719 -0.001880 -0.005283 0.000024 -0.002458
# 2 -0.001719 0.015334 -0.004252 -0.000355 -0.001197 -0.000492
# 3 -0.001880 -0.004252 0.011052 0.000874 -0.002253 0.000609
# 4 -0.005283 -0.000355 0.000874 0.043852 0.000431 -0.000002
# 5 0.000024 -0.001197 -0.002253 0.000431 0.029415 0.000416
# 6 -0.002458 -0.000492 0.000609 -0.000002 0.000416 0.026985
#
#
# Mechanical properties :
#
#
# Convention : Reuss Voigt Hill
#
# Bulk Modulus (GPa) = 43.85390 47.38814 45.62102
# Shear Modulus (GPa) = 30.85329 33.27836 32.06583
#
# Velocity S-wave (km/s) = 3.82339 3.97081 3.89780
# Velocity P-wave (km/s) = 6.34580 6.59361 6.47089
#
# Compressibility (1/GPa) = 0.02280299
#
# Stress axis : x y z
#
# Youngs Moduli (GPa) = 82.52267 65.21393 90.48472
#
# Poissons Ratio (x) = 0.11208 0.17009
# Poissons Ratio (y) = 0.14183 0.38473
# Poissons Ratio (z) = 0.15512 0.27729
#
# Static dielectric constant tensor:
#      x y z
#    x 1.772090 0.005760 0.001170 
#    y 0.005760 1.747060 -0.004960 
#    z 0.001170 -0.004960 1.791040 
# 
# From -- ./inp_files/48356.got.cif
#   From: 2010.05.17/outbox.cif.g08.bks.cpg/sg2_25_cif.got.tgz:48356.got - 2010.06.03 11:33:40.
