data_PCOD9062977
_publ_section_title
;
Structure prediction by ZEFSAII (Michael W. Deem and Ramdas Pophale) SiO2 
 PCOD9062977
Probable space group: P -1
;
_chemical_formula_sum "Si O2"
_cell_formula_units_Z 15
_cell_length_a 9.524038
_cell_length_b 13.212774
_cell_length_c 9.014018
_cell_angle_alpha 116.092181
_cell_angle_beta 138.912083
_cell_angle_gamma 55.187904
_cell_volume 611.973145
_symmetry_space_group_name_H-M "P -1"
_symmetry_group_IT_number 2
_symmetry_cell_setting 'triclinic'
loop_
_space_group_symop_operation_xyz
x,y,z
-x,-y,-z
loop_
_atom_site_type_symbol
_atom_site_label
_atom_site_fract_x
_atom_site_fract_y
_atom_site_fract_z
Si Si1 0.411098 0.031823 0.282329
Si Si2 0.150070 0.620751 0.804776
Si Si3 0.780323 0.108134 0.467421
Si Si4 0.347065 0.394800 0.604987
Si Si5 0.366869 0.315473 0.096790
Si Si6 0.500000 0.500000 0.500000
Si Si7 0.996808 0.254368 0.944595
Si Si8 0.404710 0.778143 0.067456
O O1 0.351453 0.920094 0.103156
O O2 0.500000 0.000000 0.500000
O O3 0.626814 0.045050 0.381718
O O4 0.185406 0.154460 0.139167
O O5 0.315497 0.502261 0.767609
O O6 0.898550 0.617833 0.596099
O O7 0.167901 0.640159 0.007974
O O8 0.196246 0.734339 0.842924
O O9 0.600966 0.201884 0.268382
O O10 0.000000 0.000000 0.500000
O O11 0.869019 0.188275 0.699522
O O12 0.401983 0.432355 0.511692
O O13 0.516687 0.265778 0.730591
O O14 0.402762 0.433454 0.255990
O O15 0.140527 0.304806 0.980655
O O16 0.381296 0.298006 0.920589
#
# Coordination Sequence:
#
# PCOD9062977 Si02
#       8
#     2   2   2   2   2   1   2   2
#     4  11  25  43  68 101 139 182 225 284 338 396
#     4  11  24  43  68 103 134 177 230 278 335 414
#     4  11  25  46  68  98 140 183 233 284 330 404
#     4  11  26  47  70 100 141 175 224 289 338 407
#     4  11  26  44  69 103 138 181 227 282 340 402
#     4  12  24  50  72  96 142 178 222 288 344 398
#     4  11  24  44  69 100 141 185 231 275 341 409
#     4  12  25  44  71 100 138 179 227 281 345 402
#
# _framework density 24.510878000000002
#
# number of rings (size 3 to 8) (size 9 to 14) (size 15 to 20)
#    0.000    0.800    2.667    3.600    3.733    8.533 
#    0.000    2.000    0.000    0.000    0.000    0.000 
#    0.000    0.000    0.000    0.000    0.000    0.000 
#
# Total GULP energy -83709.153940 kJ/mol
# GULP energy per Si atom -5580.610263 kJ/mol
# Density = 2.445509 g / cm^3
# Si number density = 24.510878 Si / 1000 Ang^3
#
#
#
# Elastic Constant Matrix: (Units=GPa)
#
#
# Indices 1 2 3 4 5 6 
#
# 1 146.6786 63.6418 31.7647 6.7286 -9.0228 16.8365
# 2 63.6418 108.3633 43.9272 27.1879 6.0205 18.3198
# 3 31.7647 43.9272 70.3578 22.0668 -4.4921 8.2240
# 4 6.7286 27.1879 22.0668 56.8318 6.1725 0.0873
# 5 -9.0228 6.0205 -4.4921 6.1725 41.4729 14.8914
# 6 16.8365 18.3198 8.2240 0.0873 14.8914 46.5112
#
#
#
# Elastic Compliance Matrix: (Units=1/GPa)
#
#
# Indices 1 2 3 4 5 6 
#
# 1 0.009853 -0.005582 -0.000942 0.001497 0.003459 -0.002312
# 2 -0.005582 0.016862 -0.006434 -0.004606 -0.002741 -0.002597
# 3 -0.000942 -0.006434 0.020924 -0.005434 0.004629 -0.002296
# 4 0.001497 -0.004606 -0.005434 0.022178 -0.004160 0.003523
# 5 0.003459 -0.002741 0.004629 -0.004160 0.030209 -0.010655
# 6 -0.002312 -0.002597 -0.002296 0.003523 -0.010655 0.027171
#
#
# Mechanical properties :
#
#
# Convention : Reuss Voigt Hill
#
# Bulk Modulus (GPa) = 46.03611 67.11857 56.57734
# Shear Modulus (GPa) = 31.18127 41.36758 36.27442
#
# Velocity S-wave (km/s) = 3.57058 4.11265 3.85116
# Velocity P-wave (km/s) = 5.98510 7.07068 6.55041
#
# Compressibility (1/GPa) = 0.02172208
#
# Stress axis : x y z
#
# Youngs Moduli (GPa) = 101.49244 59.30664 47.79273
#
# Poissons Ratio (x) = 0.33104 0.04502
# Poissons Ratio (y) = 0.56651 0.30751
# Poissons Ratio (z) = 0.09560 0.38159
#
# Static dielectric constant tensor:
#      x y z
#    x 1.954430 -0.023630 0.039880 
#    y -0.023630 1.967490 -0.014270 
#    z 0.039880 -0.014270 1.994360 
# 
# From -- ./inp_files/182035.got.cif
#   From: 2010.05.17/outbox.cif.g08.bks.cpg/sg2_92_cif.got.tgz:182035.got - 2010.06.03 11:33:40.
