data_PCOD9062779
_publ_section_title
;
Structure prediction by ZEFSAII (Michael W. Deem and Ramdas Pophale) SiO2 
 PCOD9062779
Probable space group: P -1
;
_chemical_formula_sum "Si O2"
_cell_formula_units_Z 14
_cell_length_a 14.087227
_cell_length_b 11.328746
_cell_length_c 7.997179
_cell_angle_alpha 66.974616
_cell_angle_beta 67.963813
_cell_angle_gamma 31.197440
_cell_volume 606.215240
_symmetry_space_group_name_H-M "P -1"
_symmetry_group_IT_number 2
_symmetry_cell_setting 'triclinic'
loop_
_space_group_symop_operation_xyz
x,y,z
-x,-y,-z
loop_
_atom_site_type_symbol
_atom_site_label
_atom_site_fract_x
_atom_site_fract_y
_atom_site_fract_z
Si Si1 0.033689 0.254465 0.707112
Si Si2 0.428583 0.687277 0.245759
Si Si3 0.927446 0.915530 0.876765
Si Si4 0.456996 0.145334 0.797365
Si Si5 0.027572 0.573042 0.794793
Si Si6 0.234493 0.254368 0.425900
Si Si7 0.783138 0.171468 0.360576
O O1 0.183771 0.214341 0.635688
O O2 0.841129 0.521981 0.630344
O O3 0.131442 0.050055 0.636965
O O4 0.000883 0.220077 0.923767
O O5 0.487585 0.768915 0.223818
O O6 0.607934 0.415085 0.246208
O O7 0.303651 0.754429 0.438854
O O8 0.289082 0.833061 0.102065
O O9 0.941661 0.793438 0.794030
O O10 0.051369 0.902346 0.738969
O O11 0.245281 0.368320 0.759546
O O12 0.570223 0.976918 0.655137
O O13 0.500000 0.000000 0.000000
O O14 0.904287 0.655565 0.676504
O O15 0.000000 0.500000 0.000000
#
# Coordination Sequence:
#
# PCOD9062779 Si02
#       7
#     2   2   2   2   2   2   2
#     4  11  24  44  64  92 143 173 210 266 331 395
#     4  11  24  42  70  98 126 168 228 273 315 379
#     4  12  22  41  70  97 126 178 215 265 327 388
#     4  12  21  39  71  98 125 163 222 279 316 374
#     4  12  21  40  69  98 123 166 226 268 317 382
#     4  11  24  44  65  97 133 173 213 273 328 383
#     4  11  24  45  64  96 135 171 218 271 322 385
#
# _framework density 23.094107000000001
#
# number of rings (size 3 to 8) (size 9 to 14) (size 15 to 20)
#    0.000    0.571    7.143    0.857    0.000    0.571 
#    0.000    5.714    0.000    0.000    0.000    0.000 
#    0.000    0.000    0.000    0.000    0.000    0.000 
#
# Total GULP energy -78235.181974 kJ/mol
# GULP energy per Si atom -5588.227284 kJ/mol
# Density = 2.304154 g / cm^3
# Si number density = 23.094107 Si / 1000 Ang^3
#
#
#
# Elastic Constant Matrix: (Units=GPa)
#
#
# Indices 1 2 3 4 5 6 
#
# 1 61.3814 23.3141 29.5942 -6.1698 -22.0478 -5.7858
# 2 23.3141 139.6682 1.5670 0.6656 -16.4927 1.4791
# 3 29.5942 1.5670 69.4321 -6.6188 -21.1823 -0.0397
# 4 -6.1698 0.6656 -6.6188 39.8996 2.7871 -2.6970
# 5 -22.0478 -16.4927 -21.1823 2.7871 31.0769 0.2928
# 6 -5.7858 1.4791 -0.0397 -2.6970 0.2928 48.6428
#
#
#
# Elastic Compliance Matrix: (Units=1/GPa)
#
#
# Indices 1 2 3 4 5 6 
#
# 1 0.025422 -0.002852 -0.007054 0.002220 0.011485 0.003159
# 2 -0.002852 0.008066 0.002131 -0.000528 0.003763 -0.000635
# 3 -0.007054 0.002131 0.020561 0.001527 0.010012 -0.000863
# 4 0.002220 -0.000528 0.001527 0.025783 0.000007 0.001711
# 5 0.011485 0.003763 0.010012 0.000007 0.049138 0.000964
# 6 0.003159 -0.000635 -0.000863 0.001711 0.000964 0.021041
#
#
# Mechanical properties :
#
#
# Convention : Reuss Voigt Hill
#
# Bulk Modulus (GPa) = 25.97559 42.15915 34.06737
# Shear Modulus (GPa) = 28.02775 38.32429 33.17602
#
# Velocity S-wave (km/s) = 3.48750 4.07810 3.79431
# Velocity P-wave (km/s) = 5.24300 6.36156 5.82917
#
# Compressibility (1/GPa) = 0.03849768
#
# Stress axis : x y z
#
# Youngs Moduli (GPa) = 39.33553 123.98360 48.63677
#
# Poissons Ratio (x) = 0.35363 0.34309
# Poissons Ratio (y) = 0.11219 -0.10364
# Poissons Ratio (z) = 0.27748 -0.26420
#
# Static dielectric constant tensor:
#      x y z
#    x 2.042360 0.273890 -0.298830 
#    y 0.273890 2.299850 -0.484970 
#    z -0.298830 -0.484970 2.561670 
# 
# From -- ./inp_files/269719.got.cif
#   From: 2010.05.17/outbox.cif.g08.bks.cpg/sg2_135_cif.got.tgz:269719.got - 2010.06.03 11:33:40.
