data_PCOD9062381
_publ_section_title
;
Structure prediction by ZEFSAII (Michael W. Deem and Ramdas Pophale) SiO2 
 PCOD9062381
Probable space group: P -1
;
_chemical_formula_sum "Si O2"
_cell_formula_units_Z 14
_cell_length_a 8.937911
_cell_length_b 18.612636
_cell_length_c 6.885205
_cell_angle_alpha 86.115155
_cell_angle_beta 55.200315
_cell_angle_gamma 50.923341
_cell_volume 649.049185
_symmetry_space_group_name_H-M "P -1"
_symmetry_group_IT_number 2
_symmetry_cell_setting 'triclinic'
loop_
_space_group_symop_operation_xyz
x,y,z
-x,-y,-z
loop_
_atom_site_type_symbol
_atom_site_label
_atom_site_fract_x
_atom_site_fract_y
_atom_site_fract_z
Si Si1 0.521103 0.457711 0.702780
Si Si2 0.702922 0.032963 0.363372
Si Si3 0.357672 0.066563 0.900155
Si Si4 0.084492 0.555951 0.332790
Si Si5 0.493582 0.772026 0.725658
Si Si6 0.758947 0.248247 0.391376
Si Si7 0.825825 0.114603 0.700033
O O1 0.500000 0.500000 0.500000
O O2 0.717010 0.455576 0.673871
O O3 0.651226 0.344831 0.575546
O O4 0.255606 0.512407 0.012223
O O5 0.504027 0.088743 0.679870
O O6 0.683436 0.117619 0.275675
O O7 0.623533 0.005251 0.249082
O O8 0.963264 0.923058 0.282235
O O9 0.061676 0.173079 0.130604
O O10 0.500000 0.000000 0.000000
O O11 0.000000 0.500000 0.500000
O O12 0.808684 0.677644 0.487255
O O13 0.394041 0.727675 0.698767
O O14 0.433122 0.810260 0.987314
O O15 0.764974 0.181691 0.552738
O O16 0.000000 0.000000 0.500000
#
# Coordination Sequence:
#
# PCOD9062381 Si02
#       7
#     2   2   2   2   2   2   2
#     4  11  28  50  78 107 143 186 247 316 368 440
#     4  11  24  40  61  99 139 184 230 277 341 421
#     4  11  24  40  62  96 144 184 228 284 341 421
#     4  11  27  53  75 106 145 186 246 311 377 440
#     4  12  26  42  72 100 139 186 237 290 359 430
#     4  12  25  43  71 103 141 189 239 290 368 424
#     4  12  23  41  67 102 147 187 233 285 347 431
#
# _framework density 21.570012999999999
#
# number of rings (size 3 to 8) (size 9 to 14) (size 15 to 20)
#    0.000    0.571    4.286    3.000    4.000    4.571 
#    0.000    0.000    0.000    0.000    0.000    0.000 
#    0.000    0.000    0.000    0.000    0.000    0.000 
#
# Total GULP energy -77985.351172 kJ/mol
# GULP energy per Si atom -5570.382227 kJ/mol
# Density = 2.152092 g / cm^3
# Si number density = 21.570013 Si / 1000 Ang^3
#
#
#
# Elastic Constant Matrix: (Units=GPa)
#
#
# Indices 1 2 3 4 5 6 
#
# 1 71.2966 13.7114 43.3621 8.9653 9.7391 -4.5543
# 2 13.7114 67.3860 42.5247 8.9546 11.7812 4.0753
# 3 43.3621 42.5247 200.8888 17.0401 -1.9560 -1.9692
# 4 8.9653 8.9546 17.0401 32.6587 -11.0434 -1.8694
# 5 9.7391 11.7812 -1.9560 -11.0434 31.2083 3.2160
# 6 -4.5543 4.0753 -1.9692 -1.8694 3.2160 42.5417
#
#
#
# Elastic Compliance Matrix: (Units=1/GPa)
#
#
# Indices 1 2 3 4 5 6 
#
# 1 0.018148 0.000772 -0.003628 -0.006071 -0.008545 0.002080
# 2 0.000772 0.020044 -0.003908 -0.007300 -0.010476 -0.001547
# 3 -0.003628 -0.003908 0.006653 -0.000432 0.002866 0.000058
# 4 -0.006071 -0.007300 -0.000432 0.040990 0.019088 0.000388
# 5 -0.008545 -0.010476 0.002866 0.019088 0.045846 -0.002406
# 6 0.002080 -0.001547 0.000058 0.000388 -0.002406 0.024079
#
#
# Mechanical properties :
#
#
# Convention : Reuss Voigt Hill
#
# Bulk Modulus (GPa) = 31.93178 59.86310 45.89744
# Shear Modulus (GPa) = 27.82007 37.27994 32.55000
#
# Velocity S-wave (km/s) = 3.59521 4.16182 3.88885
# Velocity P-wave (km/s) = 5.66304 7.13495 6.44118
#
# Compressibility (1/GPa) = 0.03131676
#
# Stress axis : x y z
#
# Youngs Moduli (GPa) = 55.10336 49.89052 150.30055
#
# Poissons Ratio (x) = -0.03851 0.54537
# Poissons Ratio (y) = -0.04254 0.58730
# Poissons Ratio (z) = 0.19994 0.19495
#
# Static dielectric constant tensor:
#      x y z
#    x 1.923340 0.089380 -0.106330 
#    y 0.089380 1.814460 -0.152320 
#    z -0.106330 -0.152320 1.984070 
# 
# From -- ./inp_files/53025.got.cif
#   From: 2010.05.17/outbox.cif.g08.bks.cpg/sg2_27_cif.got.tgz:53025.got - 2010.06.03 11:33:40.
