data_PCOD9062817
_publ_section_title
;
Structure prediction by ZEFSAII (Michael W. Deem and Ramdas Pophale) SiO2 
 PCOD9062817
Probable space group: P -1
;
_chemical_formula_sum "Si O2"
_cell_formula_units_Z 16
_cell_length_a 12.651401
_cell_length_b 9.221692
_cell_length_c 8.741420
_cell_angle_alpha 93.150100
_cell_angle_beta 77.496198
_cell_angle_gamma 130.861192
_cell_volume 747.798025
_symmetry_space_group_name_H-M "P -1"
_symmetry_group_IT_number 2
_symmetry_cell_setting 'triclinic'
loop_
_space_group_symop_operation_xyz
x,y,z
-x,-y,-z
loop_
_atom_site_type_symbol
_atom_site_label
_atom_site_fract_x
_atom_site_fract_y
_atom_site_fract_z
Si Si1 0.046662 0.171227 0.383133
Si Si2 0.701357 0.050250 0.032456
Si Si3 0.400061 0.490540 0.908638
Si Si4 0.248120 0.596614 0.475742
Si Si5 0.147860 0.105070 0.047903
Si Si6 0.765168 0.093288 0.373545
Si Si7 0.505639 0.670938 0.569410
Si Si8 0.641526 0.278691 0.891884
O O1 0.127257 0.368817 0.465160
O O2 0.139871 0.182851 0.216729
O O3 0.908497 0.125196 0.347914
O O4 0.000000 0.000000 0.500000
O O5 0.724623 0.083571 0.208702
O O6 0.531856 0.870216 0.047602
O O7 0.719279 0.212845 0.941823
O O8 0.809055 0.022194 0.938432
O O9 0.494364 0.637514 0.752012
O O10 0.500000 0.500000 0.000000
O O11 0.275471 0.265318 0.899296
O O12 0.312062 0.540861 0.018025
O O13 0.209669 0.724560 0.551021
O O14 0.362541 0.627437 0.557339
O O15 0.325057 0.684101 0.293549
O O16 0.000000 0.000000 0.000000
O O17 0.638287 0.887200 0.483524
O O18 0.500000 0.500000 0.500000
#
# Coordination Sequence:
#
# PCOD9062817 Si02
#       8
#     2   2   2   2   2   2   2   2
#     4  12  29  48  73 101 144 192 238 297 360 433
#     4  11  24  44  71 106 141 189 232 296 355 427
#     4  12  25  44  72 104 141 186 243 297 349 422
#     4  12  26  47  69 107 142 188 240 292 364 429
#     4  12  26  48  72 103 141 188 242 294 358 428
#     4  12  26  48  70 106 148 189 238 293 362 429
#     4  12  26  43  74 107 144 188 239 299 356 420
#     4  11  24  42  72 106 141 182 240 294 359 418
#
# _framework density 21.396151
#
# number of rings (size 3 to 8) (size 9 to 14) (size 15 to 20)
#    0.000    0.250    5.000    3.750    8.750    0.000 
#    0.000    1.250    0.000    0.000    0.000    0.000 
#    0.000    0.000    0.000    0.000    0.000    0.000 
#
# Total GULP energy -89438.256846 kJ/mol
# GULP energy per Si atom -5589.891053 kJ/mol
# Density = 2.134745 g / cm^3
# Si number density = 21.396151 Si / 1000 Ang^3
#
#
#
# Elastic Constant Matrix: (Units=GPa)
#
#
# Indices 1 2 3 4 5 6 
#
# 1 150.3394 43.7744 19.8741 1.5191 14.0851 -18.7522
# 2 43.7744 109.5938 26.0898 3.4021 1.7248 -13.7683
# 3 19.8741 26.0898 85.0092 10.1031 11.0389 -9.8422
# 4 1.5191 3.4021 10.1031 27.6528 -10.8333 -8.5332
# 5 14.0851 1.7248 11.0389 -10.8333 37.4968 4.3937
# 6 -18.7522 -13.7683 -9.8422 -8.5332 4.3937 43.2758
#
#
#
# Elastic Compliance Matrix: (Units=1/GPa)
#
#
# Indices 1 2 3 4 5 6 
#
# 1 0.008165 -0.002780 -0.000241 -0.000444 -0.003330 0.002849
# 2 -0.002780 0.011076 -0.002848 0.000921 0.001439 0.001707
# 3 -0.000241 -0.002848 0.014501 -0.006890 -0.006221 0.001561
# 4 -0.000444 0.000921 -0.006890 0.046292 0.014806 0.006158
# 5 -0.003330 0.001439 -0.006221 0.014806 0.034310 -0.002964
# 6 0.002849 0.001707 0.001561 0.006158 -0.002964 0.026756
#
#
# Mechanical properties :
#
#
# Convention : Reuss Voigt Hill
#
# Bulk Modulus (GPa) = 45.44393 58.26876 51.85635
# Shear Modulus (GPa) = 31.21648 38.69869 34.95758
#
# Velocity S-wave (km/s) = 3.82380 4.25747 4.04645
# Velocity P-wave (km/s) = 6.38597 7.17359 6.79121
#
# Compressibility (1/GPa) = 0.02200514
#
# Stress axis : x y z
#
# Youngs Moduli (GPa) = 122.47806 90.28403 68.95968
#
# Poissons Ratio (x) = 0.25097 0.01659
# Poissons Ratio (y) = 0.34046 0.19641
# Poissons Ratio (z) = 0.02946 0.25715
#
# Static dielectric constant tensor:
#      x y z
#    x 1.732180 -0.039780 -0.001820 
#    y -0.039780 1.911120 -0.028530 
#    z -0.001820 -0.028530 1.762200 
# 
# From -- ./inp_files/243987.got.cif
#   From: 2010.05.17/outbox.cif.g08.bks.cpg/sg2_122_cif.got.tgz:243987.got - 2010.06.03 11:33:40.
