data_PCOD9062837
_publ_section_title
;
Structure prediction by ZEFSAII (Michael W. Deem and Ramdas Pophale) SiO2 
 PCOD9062837
Probable space group: P -1
;
_chemical_formula_sum "Si O2"
_cell_formula_units_Z 14
_cell_length_a 5.205020
_cell_length_b 12.299625
_cell_length_c 9.824455
_cell_angle_alpha 74.229118
_cell_angle_beta 60.915622
_cell_angle_gamma 84.644503
_cell_volume 528.397169
_symmetry_space_group_name_H-M "P -1"
_symmetry_group_IT_number 2
_symmetry_cell_setting 'triclinic'
loop_
_space_group_symop_operation_xyz
x,y,z
-x,-y,-z
loop_
_atom_site_type_symbol
_atom_site_label
_atom_site_fract_x
_atom_site_fract_y
_atom_site_fract_z
Si Si1 0.081889 0.829881 0.984111
Si Si2 0.592263 0.996898 0.709863
Si Si3 0.104880 0.135193 0.675211
Si Si4 0.680357 0.443544 0.643976
Si Si5 0.518261 0.327099 0.445478
Si Si6 0.582882 0.373524 0.992130
Si Si7 0.077293 0.196076 0.259134
O O1 0.149121 0.696911 0.994950
O O2 0.925411 0.845023 0.161081
O O3 0.367060 0.916245 0.884407
O O4 0.936664 0.859293 0.868954
O O5 0.813902 0.901285 0.636299
O O6 0.384252 0.054493 0.634385
O O7 0.797592 0.086563 0.709942
O O8 0.213499 0.254047 0.540602
O O9 0.567015 0.367578 0.573897
O O10 0.486501 0.554495 0.672814
O O11 0.650385 0.373145 0.813518
O O12 0.000000 0.500000 0.500000
O O13 0.772990 0.248005 0.359308
O O14 0.500000 0.500000 0.000000
O O15 0.312360 0.298566 0.147584
#
# Coordination Sequence:
#
# PCOD9062837 Si02
#       7
#     2   2   2   2   2   2   2
#     4  11  24  44  73 106 140 187 239 297 360 423
#     4  11  26  46  73 107 144 188 241 302 355 425
#     4  12  26  45  75 105 143 191 243 294 360 426
#     4  11  24  46  69 103 143 185 240 295 358 426
#     4  11  27  44  70 102 140 192 235 296 355 435
#     4  11  24  42  73 106 142 187 235 300 357 429
#     4  11  25  46  68 104 145 185 240 293 364 423
#
# _framework density 26.495222999999999
#
# number of rings (size 3 to 8) (size 9 to 14) (size 15 to 20)
#    0.000    0.857    1.429    4.286    8.000    6.857 
#    0.000    0.000    0.000    0.000    0.000    0.000 
#    0.000    0.000    0.000    0.000    0.000    0.000 
#
# Total GULP energy -78446.907354 kJ/mol
# GULP energy per Si atom -5603.350525 kJ/mol
# Density = 2.643492 g / cm^3
# Si number density = 26.495223 Si / 1000 Ang^3
#
#
#
# Elastic Constant Matrix: (Units=GPa)
#
#
# Indices 1 2 3 4 5 6 
#
# 1 100.6689 28.2974 -7.0953 -10.9063 8.3518 -1.3747
# 2 28.2974 109.5476 24.7864 -14.6003 -5.6513 2.6112
# 3 -7.0953 24.7864 84.1860 -9.3097 10.6200 -3.9352
# 4 -10.9063 -14.6003 -9.3097 51.1280 -2.6062 3.0180
# 5 8.3518 -5.6513 10.6200 -2.6062 36.6341 -4.8008
# 6 -1.3747 2.6112 -3.9352 3.0180 -4.8008 55.0161
#
#
#
# Elastic Compliance Matrix: (Units=1/GPa)
#
#
# Indices 1 2 3 4 5 6 
#
# 1 0.011649 -0.003598 0.002730 0.001745 -0.003848 0.000226
# 2 -0.003598 0.011433 -0.003957 0.002011 0.003783 -0.000696
# 3 0.002730 -0.003957 0.014143 0.001724 -0.005115 0.000727
# 4 0.001745 0.002011 0.001724 0.020918 0.000768 -0.001009
# 5 -0.003848 0.003783 -0.005115 0.000768 0.030555 0.001983
# 6 0.000226 -0.000696 0.000727 -0.001009 0.001983 0.018496
#
#
# Mechanical properties :
#
#
# Convention : Reuss Voigt Hill
#
# Bulk Modulus (GPa) = 36.26383 42.93107 39.59745
# Shear Modulus (GPa) = 39.67158 45.11658 42.39408
#
# Velocity S-wave (km/s) = 3.87371 4.13100 4.00442
# Velocity P-wave (km/s) = 5.80725 6.24436 6.02977
#
# Compressibility (1/GPa) = 0.02757569
#
# Stress axis : x y z
#
# Youngs Moduli (GPa) = 85.84582 87.46724 70.70432
#
# Poissons Ratio (x) = 0.31471 -0.19303
# Poissons Ratio (y) = 0.30888 0.27976
# Poissons Ratio (z) = -0.23437 0.34608
#
# Static dielectric constant tensor:
#      x y z
#    x 2.088740 -0.044870 -0.018520 
#    y -0.044870 2.126310 0.041210 
#    z -0.018520 0.041210 2.051650 
# 
# From -- ./inp_files/82030.got.cif
#   From: 2010.05.17/outbox.cif.g08.bks.cpg/sg2_42_cif.got.tgz:82030.got - 2010.06.03 11:33:40.
