data_PCOD9062492
_publ_section_title
;
Structure prediction by ZEFSAII (Michael W. Deem and Ramdas Pophale) SiO2 
 PCOD9062492
Probable space group: P -1
;
_chemical_formula_sum "Si O2"
_cell_formula_units_Z 16
_cell_length_a 11.159210
_cell_length_b 9.359352
_cell_length_c 15.632604
_cell_angle_alpha 114.003609
_cell_angle_beta 25.597442
_cell_angle_gamma 115.286753
_cell_volume 636.843266
_symmetry_space_group_name_H-M "P -1"
_symmetry_group_IT_number 2
_symmetry_cell_setting 'triclinic'
loop_
_space_group_symop_operation_xyz
x,y,z
-x,-y,-z
loop_
_atom_site_type_symbol
_atom_site_label
_atom_site_fract_x
_atom_site_fract_y
_atom_site_fract_z
Si Si1 0.105491 0.428173 0.703647
Si Si2 0.146745 0.965747 0.485170
Si Si3 0.656016 0.413668 0.251268
Si Si4 0.470052 0.561926 0.242715
Si Si5 0.788569 0.082629 0.060920
Si Si6 0.933747 0.680205 0.664329
Si Si7 0.905990 0.759137 0.890482
Si Si8 0.228723 0.874704 0.118573
O O1 0.334807 0.371204 0.479974
O O2 0.222405 0.443194 0.729090
O O3 0.817039 0.304615 0.858514
O O4 0.076338 0.609868 0.746679
O O5 0.005691 0.793450 0.564079
O O6 0.045517 0.066810 0.651923
O O7 0.000000 0.000000 0.500000
O O8 0.478107 0.999454 0.267923
O O9 0.644173 0.470692 0.175106
O O10 0.812824 0.260541 0.126469
O O11 0.297531 0.456967 0.255072
O O12 0.659643 0.696500 0.100060
O O13 0.234460 0.623027 0.467980
O O14 0.990761 0.946329 0.904855
O O15 0.777258 0.122204 0.977815
O O16 0.839124 0.757952 0.830934
O O17 0.500000 0.000000 0.000000
#
# Coordination Sequence:
#
# PCOD9062492 Si02
#       8
#     2   2   2   2   2   2   2   2
#     4  11  27  48  76 104 147 197 246 304 354 446
#     4  12  23  41  67 103 152 192 230 295 364 442
#     4  11  25  51  74 103 144 203 251 288 366 431
#     4  11  24  42  73 100 145 198 238 302 360 437
#     4  12  25  42  70 105 145 188 240 301 364 432
#     4  11  24  41  65 109 151 185 238 301 373 426
#     4  12  25  43  69 106 149 185 243 306 368 422
#     4  12  26  42  73 109 142 185 247 302 359 432
#
# _framework density 25.123919999999998
#
# number of rings (size 3 to 8) (size 9 to 14) (size 15 to 20)
#    0.000    0.500    6.250    1.875    1.750    3.500 
#    0.000    0.000    0.000    4.500    0.000    0.000 
#    0.000    0.000    0.000    0.000    0.000    0.000 
#
# Total GULP energy -89390.884824 kJ/mol
# GULP energy per Si atom -5586.930302 kJ/mol
# Density = 2.506674 g / cm^3
# Si number density = 25.123920 Si / 1000 Ang^3
#
#
#
# Elastic Constant Matrix: (Units=GPa)
#
#
# Indices 1 2 3 4 5 6 
#
# 1 50.5474 35.9816 28.9397 -16.4671 21.4082 -5.9386
# 2 35.9816 138.5428 40.4972 -1.8666 6.8812 -12.3876
# 3 28.9397 40.4972 143.0606 -0.8244 17.0240 -2.9509
# 4 -16.4671 -1.8666 -0.8244 45.4996 0.4292 -4.3970
# 5 21.4082 6.8812 17.0240 0.4292 39.8311 10.7116
# 6 -5.9386 -12.3876 -2.9509 -4.3970 10.7116 31.4633
#
#
#
# Elastic Compliance Matrix: (Units=1/GPa)
#
#
# Indices 1 2 3 4 5 6 
#
# 1 0.047253 -0.008076 -0.003555 0.018638 -0.027341 0.017319
# 2 -0.008076 0.009616 -0.001462 -0.002516 0.003142 0.000703
# 3 -0.003555 -0.001462 0.008267 -0.001203 -0.001305 -0.000195
# 4 0.018638 -0.002516 -0.001203 0.029754 -0.012281 0.010753
# 5 -0.027341 0.003142 -0.001305 -0.012281 0.045680 -0.021314
# 6 0.017319 0.000703 -0.000195 0.010753 -0.021314 0.044069
#
#
# Mechanical properties :
#
#
# Convention : Reuss Voigt Hill
#
# Bulk Modulus (GPa) = 25.67308 60.33199 43.00254
# Shear Modulus (GPa) = 22.34050 38.47429 30.40739
#
# Velocity S-wave (km/s) = 2.98520 3.91753 3.48271
# Velocity P-wave (km/s) = 4.70347 6.67298 5.77284
#
# Compressibility (1/GPa) = 0.03895130
#
# Stress axis : x y z
#
# Youngs Moduli (GPa) = 21.16246 103.99686 120.95748
#
# Poissons Ratio (x) = 0.83985 0.42996
# Poissons Ratio (y) = 0.17090 0.17687
# Poissons Ratio (z) = 0.07522 0.15207
#
# Static dielectric constant tensor:
#      x y z
#    x 1.936600 -0.062880 0.051540 
#    y -0.062880 2.095310 0.086400 
#    z 0.051540 0.086400 1.797830 
# 
# From -- ./inp_files/515837.got.cif
#   From: 2010.05.17/outbox.cif.g08.bks.cpg/sg2_258_cif.got.tgz:515837.got - 2010.06.03 11:33:40.
