data_PCOD9062255
_publ_section_title
;
Structure prediction by ZEFSAII (Michael W. Deem and Ramdas Pophale) SiO2 
 PCOD9062255
Probable space group: P -1
;
_chemical_formula_sum "Si O2"
_cell_formula_units_Z 11
_cell_length_a 7.538384
_cell_length_b 12.802602
_cell_length_c 10.022870
_cell_angle_alpha 144.119270
_cell_angle_beta 45.265392
_cell_angle_gamma 131.952709
_cell_volume 391.368044
_symmetry_space_group_name_H-M "P -1"
_symmetry_group_IT_number 2
_symmetry_cell_setting 'triclinic'
loop_
_space_group_symop_operation_xyz
x,y,z
-x,-y,-z
loop_
_atom_site_type_symbol
_atom_site_label
_atom_site_fract_x
_atom_site_fract_y
_atom_site_fract_z
Si Si1 0.500000 0.500000 0.500000
Si Si2 0.517438 0.126425 0.489171
Si Si3 0.014886 0.105447 0.828128
Si Si4 0.602143 0.187253 0.947371
Si Si5 0.070199 0.284732 0.588048
Si Si6 0.894915 0.513034 0.713065
O O1 0.371225 0.332483 0.507607
O O2 0.523913 0.655942 0.771467
O O3 0.220678 0.128371 0.621748
O O4 0.665013 0.332552 0.658461
O O5 0.500000 0.000000 0.500000
O O6 0.586258 0.994304 0.203129
O O7 0.751078 0.125333 0.927711
O O8 0.131858 0.281667 0.038097
O O9 0.987914 0.894641 0.660247
O O10 0.837043 0.269509 0.800016
O O11 0.096874 0.471366 0.675192
O O12 0.000000 0.500000 0.500000
#
# Coordination Sequence:
#
# PCOD9062255 Si02
#       6
#     1   2   2   2   2   2
#     4  12  26  42  80 108 148 200 246 320 374 446
#     4  11  23  48  79 107 149 206 245 311 388 450
#     4  11  25  48  76 107 150 197 258 311 374 455
#     4  11  25  49  77 112 148 198 261 306 384 451
#     4  11  25  48  73 109 152 193 253 321 369 453
#     4  12  27  45  71 116 150 199 256 306 383 456
#
# _framework density 28.106538
#
# number of rings (size 3 to 8) (size 9 to 14) (size 15 to 20)
#    0.000    0.727    5.455    3.273    2.545    5.818 
#    0.000    0.000    0.000    0.000    0.000    0.000 
#    0.000    0.000    0.000    0.000    0.000    0.000 
#
# Total GULP energy -61286.881650 kJ/mol
# GULP energy per Si atom -5571.534695 kJ/mol
# Density = 2.804257 g / cm^3
# Si number density = 28.106538 Si / 1000 Ang^3
#
#
#
# Elastic Constant Matrix: (Units=GPa)
#
#
# Indices 1 2 3 4 5 6 
#
# 1 51.9220 10.5872 7.5245 12.1707 7.4836 16.0213
# 2 10.5872 177.7302 61.2576 13.5039 6.8365 39.0660
# 3 7.5245 61.2576 216.1843 31.3385 13.9612 34.9330
# 4 12.1707 13.5039 31.3385 64.7741 11.2990 20.2422
# 5 7.4836 6.8365 13.9612 11.2990 40.1416 14.4429
# 6 16.0213 39.0660 34.9330 20.2422 14.4429 34.4859
#
#
#
# Elastic Compliance Matrix: (Units=1/GPa)
#
#
# Indices 1 2 3 4 5 6 
#
# 1 0.022943 0.001034 0.001054 -0.001226 -0.000110 -0.012132
# 2 0.001034 0.007960 -0.000985 0.001456 0.002061 -0.010219
# 3 0.001054 -0.000985 0.005784 -0.001412 -0.000069 -0.004376
# 4 -0.001226 0.001456 -0.001412 0.019584 -0.001214 -0.010637
# 5 -0.000110 0.002061 -0.000069 -0.001214 0.030009 -0.014069
# 6 -0.012132 -0.010219 -0.004376 -0.010637 -0.014069 0.062778
#
#
# Mechanical properties :
#
#
# Convention : Reuss Voigt Hill
#
# Bulk Modulus (GPa) = 25.71113 67.17501 46.44307
# Shear Modulus (GPa) = 31.28592 52.31146 41.79869
#
# Velocity S-wave (km/s) = 3.33996 4.31883 3.86054
# Velocity P-wave (km/s) = 4.90320 6.98725 6.03586
#
# Compressibility (1/GPa) = 0.03889367
#
# Stress axis : x y z
#
# Youngs Moduli (GPa) = 43.58679 125.62107 172.88533
#
# Poissons Ratio (x) = -0.12992 -0.18214
# Poissons Ratio (y) = -0.04508 0.17023
# Poissons Ratio (z) = -0.04592 0.12369
#
# Static dielectric constant tensor:
#      x y z
#    x 1.516010 -0.330790 0.274250 
#    y -0.330790 2.111520 0.094910 
#    z 0.274250 0.094910 1.997240 
# 
# From -- ./inp_files/183478.got.cif
#   From: 2010.05.17/outbox.cif.g08.bks.cpg/sg2_92_cif.got.tgz:183478.got - 2010.06.03 11:33:40.
