data_PCOD9062403
_publ_section_title
;
Structure prediction by ZEFSAII (Michael W. Deem and Ramdas Pophale) SiO2 
 PCOD9062403
Probable space group: P -1
;
_chemical_formula_sum "Si O2"
_cell_formula_units_Z 15
_cell_length_a 4.881327
_cell_length_b 14.252057
_cell_length_c 17.159318
_cell_angle_alpha 29.997834
_cell_angle_beta 75.791118
_cell_angle_gamma 68.664798
_cell_volume 549.687130
_symmetry_space_group_name_H-M "P -1"
_symmetry_group_IT_number 2
_symmetry_cell_setting 'triclinic'
loop_
_space_group_symop_operation_xyz
x,y,z
-x,-y,-z
loop_
_atom_site_type_symbol
_atom_site_label
_atom_site_fract_x
_atom_site_fract_y
_atom_site_fract_z
Si Si1 0.342349 0.195240 0.219213
Si Si2 0.813807 0.172266 0.997124
Si Si3 0.774146 0.369421 0.329670
Si Si4 0.090064 0.407441 0.694819
Si Si5 0.594491 0.094846 0.789607
Si Si6 0.000000 0.000000 0.500000
Si Si7 0.913539 0.428636 0.948474
Si Si8 0.369388 0.205770 0.564004
O O1 0.204054 0.084599 0.370476
O O2 0.348125 0.388478 0.127842
O O3 0.623786 0.018112 0.295005
O O4 0.096239 0.281440 0.107561
O O5 0.088455 0.979757 0.138322
O O6 0.899313 0.274659 0.840825
O O7 0.800244 0.320398 0.964380
O O8 0.534930 0.092234 0.064469
O O9 0.790339 0.506193 0.300828
O O10 0.018547 0.157126 0.456849
O O11 0.840561 0.478711 0.170761
O O12 0.478595 0.308652 0.408595
O O13 0.359638 0.269505 0.726275
O O14 0.905305 0.611959 0.518743
O O15 0.600602 0.161079 0.652155
#
# Coordination Sequence:
#
# PCOD9062403 Si02
#       8
#     2   2   2   2   2   1   2   2
#     4   9  17  36  66 100 138 179 231 280 351 409
#     4  11  26  47  72 101 137 184 238 285 346 411
#     4   9  21  39  64  92 136 173 227 274 349 404
#     4  11  26  42  68  98 138 183 232 289 345 413
#     4  12  27  46  71 102 138 186 236 289 343 409
#     4   8  16  34  60  94 130 178 208 288 330 416
#     4   9  18  39  70  97 136 183 230 288 339 420
#     4  11  24  40  67 100 139 179 229 289 350 413
#
# _framework density 27.288249
#
# number of rings (size 3 to 8) (size 9 to 14) (size 15 to 20)
#    0.000    1.867    1.333    1.200    7.467    0.533 
#    0.000   11.333    2.933    0.000    0.000    0.000 
#    0.000    0.000    0.000    0.000    0.000    0.000 
#
# Total GULP energy -83670.580831 kJ/mol
# GULP energy per Si atom -5578.038722 kJ/mol
# Density = 2.722614 g / cm^3
# Si number density = 27.288249 Si / 1000 Ang^3
#
#
#
# Elastic Constant Matrix: (Units=GPa)
#
#
# Indices 1 2 3 4 5 6 
#
# 1 62.0416 4.9710 31.2995 2.3554 -11.8752 5.2928
# 2 4.9710 150.2371 49.1715 -29.6138 -2.3060 11.8017
# 3 31.2995 49.1715 75.9339 -41.5348 14.4366 -45.2672
# 4 2.3554 -29.6138 -41.5348 33.8292 -5.5522 -15.6865
# 5 -11.8752 -2.3060 14.4366 -5.5522 49.9262 7.8665
# 6 5.2928 11.8017 -45.2672 -15.6865 7.8665 3.4274
#
#
#
# Elastic Compliance Matrix: (Units=1/GPa)
#
#
# Indices 1 2 3 4 5 6 
#
# 1 0.015125 -0.000711 0.001195 0.004166 0.002326 0.008610
# 2 -0.000711 0.008190 -0.000312 0.007567 0.000945 0.001241
# 3 0.001195 -0.000312 0.001112 -0.005361 0.001606 -0.014306
# 4 0.004166 0.007567 -0.005361 0.023008 0.008040 -0.016440
# 5 0.002326 0.000945 0.001606 0.008040 0.020356 0.004445
# 6 0.008610 0.001241 -0.014306 -0.016440 0.004445 -0.000196
#
#
# Mechanical properties :
#
#
# Convention : Reuss Voigt Hill
#
# Bulk Modulus (GPa) = 40.36805 51.01075 45.68940
# Shear Modulus (GPa) = 66.21837 30.95458 48.58647
#
# Velocity S-wave (km/s) = 4.93142 3.37167 4.22416
# Velocity P-wave (km/s) = 6.87390 5.82164 6.36954
#
# Compressibility (1/GPa) = 0.02477206
#
# Stress axis : x y z
#
# Youngs Moduli (GPa) = 66.11732 122.09558 899.15719
#
# Poissons Ratio (x) = 0.08682 -1.07484
# Poissons Ratio (y) = 0.04702 0.28034
# Poissons Ratio (z) = -0.07904 0.03807
#
# Static dielectric constant tensor:
#      x y z
#    x 2.124960 -0.079120 0.026750 
#    y -0.079120 2.313480 -0.054120 
#    z 0.026750 -0.054120 2.142390 
# 
# From -- ./inp_files/39468.got.cif
#   From: 2010.05.17/outbox.cif.g08.bks.cpg/sg2_20_cif.got.tgz:39468.got - 2010.06.03 11:33:40.
