data_PCOD9062051
_publ_section_title
;
Structure prediction by ZEFSAII (Michael W. Deem and Ramdas Pophale) SiO2 
 PCOD9062051
Probable space group: P -1
;
_chemical_formula_sum "Si O2"
_cell_formula_units_Z 13
_cell_length_a 15.048702
_cell_length_b 9.009021
_cell_length_c 7.230565
_cell_angle_alpha 74.750956
_cell_angle_beta 122.248238
_cell_angle_gamma 141.604739
_cell_volume 491.933879
_symmetry_space_group_name_H-M "P -1"
_symmetry_group_IT_number 2
_symmetry_cell_setting 'triclinic'
loop_
_space_group_symop_operation_xyz
x,y,z
-x,-y,-z
loop_
_atom_site_type_symbol
_atom_site_label
_atom_site_fract_x
_atom_site_fract_y
_atom_site_fract_z
Si Si1 0.500000 0.000000 0.000000
Si Si2 0.654344 0.792785 0.807211
Si Si3 0.200247 0.732098 0.195513
Si Si4 0.305930 0.488023 0.910966
Si Si5 0.183516 0.786057 0.589728
Si Si6 0.701209 0.488295 0.539435
Si Si7 0.090026 0.988131 0.309146
O O1 0.443315 0.754980 0.073114
O O2 0.303459 0.823774 0.836063
O O3 0.471159 0.618002 0.567535
O O4 0.806753 0.924986 0.792452
O O5 0.707423 0.017615 0.882159
O O6 0.641969 0.629946 0.975323
O O7 0.230834 0.808683 0.420624
O O8 0.278729 0.652620 0.293725
O O9 0.000000 0.500000 0.000000
O O10 0.309148 0.546501 0.681820
O O11 0.111576 0.273229 0.838600
O O12 0.000000 0.500000 0.500000
O O13 0.165789 0.947769 0.546345
O O14 0.862221 0.784736 0.654528
#
# Coordination Sequence:
#
# PCOD9062051 Si02
#       7
#     1   2   2   2   2   2   2
#     4  12  24  44  76 108 154 190 258 308 372 448
#     4  11  26  46  70 112 152 193 251 307 394 441
#     4  11  25  47  71 106 151 198 246 310 377 450
#     4  12  25  46  77 111 146 204 251 310 376 450
#     4  11  23  47  70 111 144 201 249 307 375 447
#     4  12  24  47  73 111 150 194 257 310 370 460
#     4  11  24  46  74 105 156 192 254 305 382 455
#
# _framework density 26.426316
#
# number of rings (size 3 to 8) (size 9 to 14) (size 15 to 20)
#    0.000    0.615    3.077    4.154    0.000    4.923 
#    8.308    0.000    0.000    0.000    0.000    0.000 
#    0.000    0.000    0.000    0.000    0.000    0.000 
#
# Total GULP energy -72633.907198 kJ/mol
# GULP energy per Si atom -5587.223631 kJ/mol
# Density = 2.636617 g / cm^3
# Si number density = 26.426316 Si / 1000 Ang^3
#
#
#
# Elastic Constant Matrix: (Units=GPa)
#
#
# Indices 1 2 3 4 5 6 
#
# 1 89.8712 33.6190 26.7693 -12.1930 13.3686 6.2212
# 2 33.6190 176.4918 41.2891 -1.5760 35.1586 -29.3972
# 3 26.7693 41.2891 94.7853 -25.0592 49.9751 -11.3810
# 4 -12.1930 -1.5760 -25.0592 57.1361 0.2805 26.0799
# 5 13.3686 35.1586 49.9751 0.2805 58.3208 -6.0092
# 6 6.2212 -29.3972 -11.3810 26.0799 -6.0092 61.4662
#
#
#
# Elastic Compliance Matrix: (Units=1/GPa)
#
#
# Indices 1 2 3 4 5 6 
#
# 1 0.013758 -0.002904 -0.001945 0.004279 -0.000270 -0.004983
# 2 -0.002904 0.007848 -0.001950 -0.003533 -0.001862 0.005003
# 3 -0.001945 -0.001950 0.025935 0.012513 -0.021002 -0.003296
# 4 0.004279 -0.003533 0.012513 0.030097 -0.011126 -0.013664
# 5 -0.000270 -0.001862 -0.021002 -0.011126 0.036748 0.003562
# 6 -0.004983 0.005003 -0.003296 -0.013664 0.003562 0.024702
#
#
# Mechanical properties :
#
#
# Convention : Reuss Voigt Hill
#
# Bulk Modulus (GPa) = 29.46176 62.72255 46.09216
# Shear Modulus (GPa) = 30.48765 52.68267 41.58516
#
# Velocity S-wave (km/s) = 3.40028 4.46978 3.97120
# Velocity P-wave (km/s) = 5.15642 7.10106 6.20539
#
# Compressibility (1/GPa) = 0.03394231
#
# Stress axis : x y z
#
# Youngs Moduli (GPa) = 72.68299 127.41985 38.55854
#
# Poissons Ratio (x) = 0.36998 0.07501
# Poissons Ratio (y) = 0.21104 0.07520
# Poissons Ratio (z) = 0.14140 0.24851
#
# Static dielectric constant tensor:
#      x y z
#    x 2.062200 -0.104960 -0.054720 
#    y -0.104960 2.018130 0.020040 
#    z -0.054720 0.020040 2.150230 
# 
# From -- ./inp_files/187384.got.cif
#   From: 2010.05.17/outbox.cif.g08.bks.cpg/sg2_94_cif.got.tgz:187384.got - 2010.06.03 11:33:40.
