data_PCOD9062229
_publ_section_title
;
Structure prediction by ZEFSAII (Michael W. Deem and Ramdas Pophale) SiO2 
 PCOD9062229
Probable space group: P -1
;
_chemical_formula_sum "Si O2"
_cell_formula_units_Z 15
_cell_length_a 8.699102
_cell_length_b 11.016010
_cell_length_c 10.071943
_cell_angle_alpha 85.689126
_cell_angle_beta 103.346594
_cell_angle_gamma 40.372216
_cell_volume 557.978817
_symmetry_space_group_name_H-M "P -1"
_symmetry_group_IT_number 2
_symmetry_cell_setting 'triclinic'
loop_
_space_group_symop_operation_xyz
x,y,z
-x,-y,-z
loop_
_atom_site_type_symbol
_atom_site_label
_atom_site_fract_x
_atom_site_fract_y
_atom_site_fract_z
Si Si1 0.000000 0.500000 0.500000
Si Si2 0.520150 0.295618 0.821581
Si Si3 0.550611 0.985870 0.324707
Si Si4 0.899623 0.054447 0.676308
Si Si5 0.282216 0.006370 0.898737
Si Si6 0.449301 0.302091 0.386801
Si Si7 0.778249 0.400857 0.914646
Si Si8 0.045715 0.702057 0.743788
O O1 0.804185 0.559215 0.580309
O O2 0.767527 0.749452 0.411379
O O3 0.714013 0.131628 0.758212
O O4 0.634485 0.359048 0.871706
O O5 0.210667 0.504988 0.699833
O O6 0.552331 0.183269 0.957062
O O7 0.596851 0.083717 0.402733
O O8 0.256903 0.139239 0.304499
O O9 0.553436 0.013664 0.166753
O O10 0.682404 0.232387 0.512854
O O11 0.096006 0.035384 0.767516
O O12 0.061317 0.832300 0.693670
O O13 0.070034 0.207981 0.928186
O O14 0.363705 0.412615 0.220740
O O15 0.810718 0.403883 0.076539
#
# Coordination Sequence:
#
# PCOD9062229 Si02
#       8
#     1   2   2   2   2   2   2   2
#     4  12  26  52  68  98 154 192 226 306 358 426
#     4  11  24  44  77 109 146 188 240 311 351 426
#     4  12  29  48  74 108 148 188 247 294 366 435
#     4  11  25  46  73 105 144 194 245 290 368 426
#     4  11  23  48  74 108 148 190 241 308 353 427
#     4  12  28  47  72 108 147 192 241 300 362 435
#     4  11  23  48  75 110 146 187 247 302 360 422
#     4  12  25  45  77 106 141 197 243 293 366 431
#
# _framework density 26.882740999999999
#
# number of rings (size 3 to 8) (size 9 to 14) (size 15 to 20)
#    0.000    0.533    5.333    2.400    3.733    5.333 
#    0.000    0.000    0.000    0.000    0.000    0.000 
#    0.000    0.000    0.000    0.000    0.000    0.000 
#
# Total GULP energy -83997.377737 kJ/mol
# GULP energy per Si atom -5599.825182 kJ/mol
# Density = 2.682155 g / cm^3
# Si number density = 26.882741 Si / 1000 Ang^3
#
#
#
# Elastic Constant Matrix: (Units=GPa)
#
#
# Indices 1 2 3 4 5 6 
#
# 1 95.9733 42.1708 49.2333 -11.5986 -8.7629 -20.7935
# 2 42.1708 190.8507 34.6215 -27.0091 -8.5720 -24.0415
# 3 49.2333 34.6215 147.4662 -27.8554 -26.6380 -9.3683
# 4 -11.5986 -27.0091 -27.8554 46.2496 -8.9167 -7.4889
# 5 -8.7629 -8.5720 -26.6380 -8.9167 46.4695 4.9340
# 6 -20.7935 -24.0415 -9.3683 -7.4889 4.9340 50.2313
#
#
#
# Elastic Compliance Matrix: (Units=1/GPa)
#
#
# Indices 1 2 3 4 5 6 
#
# 1 0.014271 -0.001761 -0.003940 0.000864 -0.000202 0.004478
# 2 -0.001761 0.006650 0.000357 0.004462 0.001634 0.003025
# 3 -0.003940 0.000357 0.010602 0.007036 0.006653 0.000913
# 4 0.000864 0.004462 0.007036 0.031897 0.010339 0.007545
# 5 -0.000202 0.001634 0.006653 0.010339 0.027498 0.000780
# 6 0.004478 0.003025 0.000913 0.007545 0.000780 0.024428
#
#
# Mechanical properties :
#
#
# Convention : Reuss Voigt Hill
#
# Bulk Modulus (GPa) = 47.99877 76.26017 62.12947
# Shear Modulus (GPa) = 37.60025 49.14106 43.37065
#
# Velocity S-wave (km/s) = 3.74395 4.28012 4.02098
# Velocity P-wave (km/s) = 6.04840 7.27016 6.68724
#
# Compressibility (1/GPa) = 0.02083387
#
# Stress axis : x y z
#
# Youngs Moduli (GPa) = 70.07344 150.37630 94.32442
#
# Poissons Ratio (x) = 0.26486 0.37162
# Poissons Ratio (y) = 0.12342 -0.03366
# Poissons Ratio (z) = 0.27608 -0.05367
#
# Static dielectric constant tensor:
#      x y z
#    x 2.040500 -0.018860 -0.006530 
#    y -0.018860 2.058740 0.054410 
#    z -0.006530 0.054410 2.052990 
# 
# From -- ./inp_files/390039.got.cif
#   From: 2010.05.17/outbox.cif.g08.bks.cpg/sg2_196_cif.got.tgz:390039.got - 2010.06.03 11:33:40.
