data_PCOD9062046
_publ_section_title
;
Structure prediction by ZEFSAII (Michael W. Deem and Ramdas Pophale) SiO2 
 PCOD9062046
Probable space group: P -1
;
_chemical_formula_sum "Si O2"
_cell_formula_units_Z 16
_cell_length_a 8.669507
_cell_length_b 11.846004
_cell_length_c 19.687970
_cell_angle_alpha 41.452015
_cell_angle_beta 42.184510
_cell_angle_gamma 73.948191
_cell_volume 699.976294
_symmetry_space_group_name_H-M "P -1"
_symmetry_group_IT_number 2
_symmetry_cell_setting 'triclinic'
loop_
_space_group_symop_operation_xyz
x,y,z
-x,-y,-z
loop_
_atom_site_type_symbol
_atom_site_label
_atom_site_fract_x
_atom_site_fract_y
_atom_site_fract_z
Si Si1 0.390960 0.270363 0.415237
Si Si2 0.545070 0.483204 0.913023
Si Si3 0.258048 0.017482 0.948576
Si Si4 0.578026 0.865126 0.387798
Si Si5 0.735459 0.754247 0.027534
Si Si6 0.908682 0.326913 0.549706
Si Si7 0.981649 0.525208 0.293802
Si Si8 0.674557 0.895287 0.630249
O O1 0.460451 0.201471 0.491127
O O2 0.630827 0.524484 0.198328
O O3 0.343979 0.117581 0.438603
O O4 0.088570 0.235734 0.540307
O O5 0.373435 0.294021 0.994535
O O6 0.495617 0.649285 0.824928
O O7 0.866425 0.542981 0.775141
O O8 0.500000 0.500000 0.000000
O O9 0.357201 0.153781 0.925430
O O10 0.556344 0.140229 0.751546
O O11 0.128558 0.773353 0.119655
O O12 0.000000 0.000000 0.000000
O O13 0.372209 0.627883 0.527618
O O14 0.434713 0.978243 0.363598
O O15 0.917371 0.045624 0.179075
O O16 0.026836 0.465556 0.379586
O O17 0.000000 0.500000 0.500000
O O18 0.000000 0.000000 0.500000
#
# Coordination Sequence:
#
# PCOD9062046 Si02
#       8
#     2   2   2   2   2   2   2   2
#     4  11  25  46  72 109 147 186 253 301 376 445
#     4  11  26  46  76 106 148 194 250 307 371 445
#     4  12  28  47  78 113 154 196 251 313 374 441
#     4  12  27  44  77 104 150 200 240 312 377 431
#     4  11  26  49  70 116 150 188 254 311 365 453
#     4  12  25  47  79 105 146 202 243 308 377 443
#     4  12  27  49  73 111 149 196 254 304 369 455
#     4  11  23  47  70 103 144 189 250 303 362 447
#
# _framework density 22.857917
#
# number of rings (size 3 to 8) (size 9 to 14) (size 15 to 20)
#    0.000    0.500    5.000    1.875    5.250    8.000 
#    0.000    0.000    0.000    0.000    0.000    0.000 
#    0.000    0.000    0.000    0.000    0.000    0.000 
#
# Total GULP energy -89336.141925 kJ/mol
# GULP energy per Si atom -5583.508870 kJ/mol
# Density = 2.280589 g / cm^3
# Si number density = 22.857917 Si / 1000 Ang^3
#
#
#
# Elastic Constant Matrix: (Units=GPa)
#
#
# Indices 1 2 3 4 5 6 
#
# 1 98.6519 31.5560 31.8659 5.5324 8.1611 2.2222
# 2 31.5560 97.0232 52.1737 3.5093 16.1498 16.6159
# 3 31.8659 52.1737 138.9032 -1.4316 -12.3750 -6.3835
# 4 5.5324 3.5093 -1.4316 29.0892 0.6475 12.7241
# 5 8.1611 16.1498 -12.3750 0.6475 36.1197 -2.4949
# 6 2.2222 16.6159 -6.3835 12.7241 -2.4949 35.0677
#
#
#
# Elastic Compliance Matrix: (Units=1/GPa)
#
#
# Indices 1 2 3 4 5 6 
#
# 1 0.011859 -0.002490 -0.001965 -0.002339 -0.002145 0.000767
# 2 -0.002490 0.019805 -0.008510 0.003600 -0.012167 -0.012947
# 3 -0.001965 -0.008510 0.011969 -0.001494 0.008895 0.007510
# 4 -0.002339 0.003600 -0.001494 0.041963 -0.003540 -0.017307
# 5 -0.002145 -0.012167 0.008895 -0.003540 0.037514 0.011474
# 6 0.000767 -0.012947 0.007510 -0.017307 0.011474 0.043065
#
#
# Mechanical properties :
#
#
# Convention : Reuss Voigt Hill
#
# Bulk Modulus (GPa) = 56.48755 62.86329 59.67542
# Shear Modulus (GPa) = 25.25172 34.65418 29.95295
#
# Velocity S-wave (km/s) = 3.32735 3.89790 3.62387
# Velocity P-wave (km/s) = 6.28711 6.91517 6.60861
#
# Compressibility (1/GPa) = 0.01770302
#
# Stress axis : x y z
#
# Youngs Moduli (GPa) = 84.32193 50.49252 83.55186
#
# Poissons Ratio (x) = 0.12573 0.16421
# Poissons Ratio (y) = 0.20996 0.71099
# Poissons Ratio (z) = 0.16572 0.42967
#
# Static dielectric constant tensor:
#      x y z
#    x 1.824630 0.051170 -0.090750 
#    y 0.051170 1.844950 0.008140 
#    z -0.090750 0.008140 1.878710 
# 
# From -- ./inp_files/589452.got.cif
#   From: 2010.05.17/outbox.cif.g08.bks.cpg/sg2_295_cif.got.tgz:589452.got - 2010.06.03 11:33:40.
