data_PCOD9062107
_publ_section_title
;
Structure prediction by ZEFSAII (Michael W. Deem and Ramdas Pophale) SiO2 
 PCOD9062107
Probable space group: P -1
;
_chemical_formula_sum "Si O2"
_cell_formula_units_Z 13
_cell_length_a 11.047587
_cell_length_b 8.721248
_cell_length_c 9.118816
_cell_angle_alpha 87.788875
_cell_angle_beta 103.530497
_cell_angle_gamma 43.880389
_cell_volume 563.409075
_symmetry_space_group_name_H-M "P -1"
_symmetry_group_IT_number 2
_symmetry_cell_setting 'triclinic'
loop_
_space_group_symop_operation_xyz
x,y,z
-x,-y,-z
loop_
_atom_site_type_symbol
_atom_site_label
_atom_site_fract_x
_atom_site_fract_y
_atom_site_fract_z
Si Si1 0.728684 0.092666 0.744531
Si Si2 0.313724 0.952274 0.570759
Si Si3 0.674557 0.847714 0.167578
Si Si4 0.000000 0.000000 0.500000
Si Si5 0.298575 0.489957 0.675006
Si Si6 0.019712 0.312553 0.946056
Si Si7 0.706781 0.457186 0.663905
O O1 0.705070 0.992985 0.609527
O O2 0.526408 0.298349 0.759115
O O3 0.773208 0.217870 0.678498
O O4 0.888914 0.888412 0.905203
O O5 0.117978 0.053108 0.550107
O O6 0.487118 0.671010 0.631485
O O7 0.370682 0.034008 0.693149
O O8 0.750202 0.608567 0.234206
O O9 0.832019 0.805598 0.138769
O O10 0.500000 0.000000 0.000000
O O11 0.165334 0.757221 0.654002
O O12 0.271784 0.488379 0.491906
O O13 0.826670 0.428429 0.822045
O O14 0.000000 0.500000 0.000000
#
# Coordination Sequence:
#
# PCOD9062107 Si02
#       7
#     2   2   2   1   2   2   2
#     4  11  23  49  72 105 142 190 238 295 363 425
#     4  11  25  44  77 103 140 187 243 295 356 426
#     4  12  27  48  69 110 148 190 237 301 358 424
#     4  12  22  44  72 112 130 188 244 298 342 420
#     4  11  24  44  76 100 145 181 243 292 355 425
#     4  12  28  45  71 105 149 192 235 294 365 432
#     4  11  23  47  73 106 141 191 240 294 362 425
#
# _framework density 23.073822
#
# number of rings (size 3 to 8) (size 9 to 14) (size 15 to 20)
#    0.000    0.615    4.615    3.231    4.308    2.462 
#    0.000    1.538    0.000    0.000    0.000    0.000 
#    0.000    0.000    0.000    0.000    0.000    0.000 
#
# Total GULP energy -72468.775440 kJ/mol
# GULP energy per Si atom -5574.521188 kJ/mol
# Density = 2.302130 g / cm^3
# Si number density = 23.073822 Si / 1000 Ang^3
#
#
#
# Elastic Constant Matrix: (Units=GPa)
#
#
# Indices 1 2 3 4 5 6 
#
# 1 59.9592 -0.0706 51.4942 -12.9260 11.2444 -3.7087
# 2 -0.0706 53.2287 8.7623 -13.2706 2.4043 -1.7395
# 3 51.4942 8.7623 105.2529 -29.6409 4.3638 -2.5833
# 4 -12.9260 -13.2706 -29.6409 41.9565 5.4755 1.2070
# 5 11.2444 2.4043 4.3638 5.4755 44.7244 -15.0100
# 6 -3.7087 -1.7395 -2.5833 1.2070 -15.0100 28.1250
#
#
#
# Elastic Compliance Matrix: (Units=1/GPa)
#
#
# Indices 1 2 3 4 5 6 
#
# 1 0.030835 0.002985 -0.014819 0.000891 -0.006845 -0.000802
# 2 0.002985 0.020857 -0.001089 0.007102 -0.002687 -0.000155
# 3 -0.014819 -0.001089 0.019217 0.008568 0.000793 -0.000201
# 4 0.000891 0.007102 0.008568 0.033399 -0.006774 -0.003705
# 5 -0.006845 -0.002687 0.000793 -0.006774 0.030138 0.015379
# 6 -0.000802 -0.000155 -0.000201 -0.003705 0.015379 0.043788
#
#
# Mechanical properties :
#
#
# Convention : Reuss Voigt Hill
#
# Bulk Modulus (GPa) = 22.19115 37.64586 29.91850
# Shear Modulus (GPa) = 22.82051 33.51152 28.16602
#
# Velocity S-wave (km/s) = 3.14828 3.81512 3.49763
# Velocity P-wave (km/s) = 4.78058 5.97977 5.41348
#
# Compressibility (1/GPa) = 0.04506301
#
# Stress axis : x y z
#
# Youngs Moduli (GPa) = 32.43096 47.94521 52.03727
#
# Poissons Ratio (x) = -0.14314 0.77115
# Poissons Ratio (y) = -0.09682 0.05668
# Poissons Ratio (z) = 0.48060 0.05222
#
# Static dielectric constant tensor:
#      x y z
#    x 1.855530 0.044240 0.048170 
#    y 0.044240 1.634500 -0.152270 
#    z 0.048170 -0.152270 1.723790 
# 
# From -- ./inp_files/155144.got.cif
#   From: 2010.05.17/outbox.cif.g08.bks.cpg/sg2_78_cif.got.tgz:155144.got - 2010.06.03 11:33:40.
