data_PCOD9062489
_publ_section_title
;
Structure prediction by ZEFSAII (Michael W. Deem and Ramdas Pophale) SiO2 
 PCOD9062489
Probable space group: P -1
;
_chemical_formula_sum "Si O2"
_cell_formula_units_Z 14
_cell_length_a 16.415292
_cell_length_b 16.121684
_cell_length_c 10.329017
_cell_angle_alpha 145.581147
_cell_angle_beta 33.493314
_cell_angle_gamma 153.214051
_cell_volume 643.231328
_symmetry_space_group_name_H-M "P -1"
_symmetry_group_IT_number 2
_symmetry_cell_setting 'triclinic'
loop_
_space_group_symop_operation_xyz
x,y,z
-x,-y,-z
loop_
_atom_site_type_symbol
_atom_site_label
_atom_site_fract_x
_atom_site_fract_y
_atom_site_fract_z
Si Si1 0.761820 0.830637 0.240853
Si Si2 0.437238 0.615422 0.788915
Si Si3 0.987440 0.594818 0.016724
Si Si4 0.173100 0.661972 0.575829
Si Si5 0.190847 0.983274 0.833128
Si Si6 0.459399 0.597958 0.034331
Si Si7 0.822658 0.974419 0.636372
O O1 0.767436 0.973797 0.320968
O O2 0.762199 0.876814 0.449091
O O3 0.590957 0.605520 0.135287
O O4 0.962186 0.869190 0.006289
O O5 0.500000 0.500000 0.500000
O O6 0.241509 0.535538 0.875783
O O7 0.625762 0.839777 0.808117
O O8 0.388892 0.569217 0.943245
O O9 0.091183 0.809238 0.202955
O O10 0.000000 0.500000 0.000000
O O11 0.090383 0.620667 0.777576
O O12 0.337618 0.642841 0.329664
O O13 0.000000 0.500000 0.500000
O O14 0.240079 0.863979 0.687699
O O15 0.316341 0.202273 0.003525
O O16 0.000000 0.000000 0.500000
#
# Coordination Sequence:
#
# PCOD9062489 Si02
#       7
#     2   2   2   2   2   2   2
#     4  11  24  41  65 105 138 174 228 301 333 410
#     4  12  23  43  73 103 138 187 233 287 351 422
#     4  12  29  47  71 108 143 187 234 294 351 417
#     4  12  24  48  70  94 144 184 226 280 350 416
#     4  11  25  41  68 101 136 182 230 281 355 406
#     4  12  23  44  74  98 136 182 237 279 351 416
#     4  12  24  43  71 101 145 185 237 282 361 419
#
# _framework density 21.765108000000001
#
# number of rings (size 3 to 8) (size 9 to 14) (size 15 to 20)
#    0.000    0.286    5.714    3.429    2.000    1.714 
#    0.000    0.000    0.000    0.000    0.000    0.000 
#    0.000    0.000    0.000    0.000    0.000    0.000 
#
# Total GULP energy -78287.702006 kJ/mol
# GULP energy per Si atom -5591.978715 kJ/mol
# Density = 2.171557 g / cm^3
# Si number density = 21.765108 Si / 1000 Ang^3
#
#
#
# Elastic Constant Matrix: (Units=GPa)
#
#
# Indices 1 2 3 4 5 6 
#
# 1 107.3322 37.2757 50.3137 -6.0622 12.1483 -26.5561
# 2 37.2757 146.2912 37.0877 14.6531 -5.7378 -14.1951
# 3 50.3137 37.0877 96.7383 0.5622 9.3914 -18.9707
# 4 -6.0622 14.6531 0.5622 34.1630 4.7272 0.8324
# 5 12.1483 -5.7378 9.3914 4.7272 31.3115 2.8028
# 6 -26.5561 -14.1951 -18.9707 0.8324 2.8028 52.3545
#
#
#
# Elastic Compliance Matrix: (Units=1/GPa)
#
#
# Indices 1 2 3 4 5 6 
#
# 1 0.014859 -0.002663 -0.005147 0.004548 -0.005861 0.005192
# 2 -0.002663 0.008741 -0.002324 -0.004744 0.004045 0.000036
# 3 -0.005147 -0.002324 0.014636 0.000211 -0.003050 0.002222
# 4 0.004548 -0.004744 0.000211 0.033164 -0.007792 0.000987
# 5 -0.005861 0.004045 -0.003050 -0.007792 0.037479 -0.004864
# 6 0.005192 0.000036 0.002222 0.000987 -0.004864 0.022794
#
#
# Mechanical properties :
#
#
# Convention : Reuss Voigt Hill
#
# Bulk Modulus (GPa) = 55.65489 66.63509 61.14499
# Shear Modulus (GPa) = 31.65995 38.61145 35.13570
#
# Velocity S-wave (km/s) = 3.81808 4.21647 4.02221
# Velocity P-wave (km/s) = 6.71292 7.37474 7.05160
#
# Compressibility (1/GPa) = 0.01796787
#
# Stress axis : x y z
#
# Youngs Moduli (GPa) = 67.29934 114.40676 68.32658
#
# Poissons Ratio (x) = 0.30467 0.35165
# Poissons Ratio (y) = 0.17922 0.15880
# Poissons Ratio (z) = 0.34636 0.26589
#
# Static dielectric constant tensor:
#      x y z
#    x 1.582860 0.572620 -0.070090 
#    y 0.572620 0.315560 0.186790 
#    z -0.070090 0.186790 1.753810 
# 
# From -- ./inp_files/246032.got.cif
#   From: 2010.05.17/outbox.cif.g08.bks.cpg/sg2_124_cif.got.tgz:246032.got - 2010.06.03 11:33:40.
