data_PCOD9062946
_publ_section_title
;
Structure prediction by ZEFSAII (Michael W. Deem and Ramdas Pophale) SiO2 
 PCOD9062946
Probable space group: P -1
;
_chemical_formula_sum "Si O2"
_cell_formula_units_Z 16
_cell_length_a 18.544787
_cell_length_b 9.736781
_cell_length_c 5.200742
_cell_angle_alpha 94.702063
_cell_angle_beta 69.847079
_cell_angle_gamma 122.349662
_cell_volume 738.531172
_symmetry_space_group_name_H-M "P -1"
_symmetry_group_IT_number 2
_symmetry_cell_setting 'triclinic'
loop_
_space_group_symop_operation_xyz
x,y,z
-x,-y,-z
loop_
_atom_site_type_symbol
_atom_site_label
_atom_site_fract_x
_atom_site_fract_y
_atom_site_fract_z
Si Si1 0.985037 0.395113 0.755336
Si Si2 0.224776 0.835534 0.969677
Si Si3 0.686631 0.947194 0.598159
Si Si4 0.061540 0.084643 0.182576
Si Si5 0.291749 0.594632 0.949663
Si Si6 0.145705 0.362169 0.437748
Si Si7 0.230940 0.250138 0.709528
Si Si8 0.504811 0.101138 0.257542
O O1 0.881690 0.241038 0.853756
O O2 0.000000 0.500000 0.500000
O O3 0.066017 0.364598 0.672935
O O4 0.000000 0.500000 0.000000
O O5 0.283900 0.967230 0.143503
O O6 0.252139 0.915753 0.668598
O O7 0.245486 0.690699 0.917212
O O8 0.704851 0.803987 0.497145
O O9 0.582531 0.884977 0.652850
O O10 0.096968 0.274544 0.215100
O O11 0.160365 0.115925 0.985970
O O12 0.000000 0.000000 0.500000
O O13 0.000000 0.000000 0.000000
O O14 0.276240 0.432297 0.802174
O O15 0.398929 0.727272 0.844490
O O16 0.239674 0.528264 0.277389
O O17 0.172155 0.252881 0.545810
O O18 0.500000 0.000000 0.500000
O O19 0.500000 0.000000 0.000000
#
# Coordination Sequence:
#
# PCOD9062946 Si02
#       8
#     2   2   2   2   2   2   2   2
#     4  12  26  42  67 104 143 192 251 295 353 431
#     4  12  26  47  75 105 149 192 244 313 359 430
#     4  12  28  48  73 114 144 183 251 308 369 435
#     4  11  24  43  67  95 141 199 247 283 351 425
#     4  11  25  47  78 102 147 193 242 299 378 434
#     4  11  26  45  70 105 152 194 249 291 373 432
#     4  11  28  46  73 108 156 193 242 305 373 435
#     4  12  25  49  80 111 139 188 246 308 376 445
#
# _framework density 21.664624
#
# number of rings (size 3 to 8) (size 9 to 14) (size 15 to 20)
#    0.000    0.500    5.000    1.500   12.250    0.500 
#    0.000    0.625    0.000    0.000    0.000    0.000 
#    0.000    0.000    0.000    0.000    0.000    0.000 
#
# Total GULP energy -89353.000337 kJ/mol
# GULP energy per Si atom -5584.562521 kJ/mol
# Density = 2.161531 g / cm^3
# Si number density = 21.664624 Si / 1000 Ang^3
#
#
#
# Elastic Constant Matrix: (Units=GPa)
#
#
# Indices 1 2 3 4 5 6 
#
# 1 137.7403 58.8702 59.8259 7.8903 -31.2096 -2.2651
# 2 58.8702 116.9295 41.0032 3.9650 -15.3511 13.1369
# 3 59.8259 41.0032 102.0954 10.3147 -4.2755 8.5999
# 4 7.8903 3.9650 10.3147 48.6341 0.9920 -12.5480
# 5 -31.2096 -15.3511 -4.2755 0.9920 54.6838 2.3759
# 6 -2.2651 13.1369 8.5999 -12.5480 2.3759 50.5002
#
#
#
# Elastic Compliance Matrix: (Units=1/GPa)
#
#
# Indices 1 2 3 4 5 6 
#
# 1 0.012808 -0.003898 -0.005895 -0.000026 0.005654 0.002320
# 2 -0.003898 0.011748 -0.002056 -0.000713 0.001060 -0.003108
# 3 -0.005895 -0.002056 0.014454 -0.002586 -0.002647 -0.002709
# 4 -0.000026 -0.000713 -0.002586 0.022834 -0.001108 0.006350
# 5 0.005654 0.001060 -0.002647 -0.001108 0.021662 -0.000866
# 6 0.002320 -0.003108 -0.002709 0.006350 -0.000866 0.022794
#
#
# Mechanical properties :
#
#
# Convention : Reuss Voigt Hill
#
# Bulk Modulus (GPa) = 65.31405 75.12930 70.22168
# Shear Modulus (GPa) = 37.00907 43.90135 40.45521
#
# Velocity S-wave (km/s) = 4.13761 4.50645 4.32596
# Velocity P-wave (km/s) = 7.28283 7.86327 7.57861
#
# Compressibility (1/GPa) = 0.01531064
#
# Stress axis : x y z
#
# Youngs Moduli (GPa) = 78.07924 85.11876 69.18714
#
# Poissons Ratio (x) = 0.33182 0.40788
# Poissons Ratio (y) = 0.30438 0.14223
# Poissons Ratio (z) = 0.46030 0.17498
#
# Static dielectric constant tensor:
#      x y z
#    x 1.814420 0.010310 0.012710 
#    y 0.010310 1.824060 -0.004100 
#    z 0.012710 -0.004100 1.828560 
# 
# From -- ./inp_files/107096.got.cif
#   From: 2010.05.17/outbox.cif.g08.bks.cpg/sg2_54_cif.got.tgz:107096.got - 2010.06.03 11:33:40.
