data_PCOD9062333
_publ_section_title
;
Structure prediction by ZEFSAII (Michael W. Deem and Ramdas Pophale) SiO2 
 PCOD9062333
Probable space group: P -1
;
_chemical_formula_sum "Si O2"
_cell_formula_units_Z 16
_cell_length_a 8.415980
_cell_length_b 11.416052
_cell_length_c 18.560345
_cell_angle_alpha 60.479023
_cell_angle_beta 154.546052
_cell_angle_gamma 111.147116
_cell_volume 649.806234
_symmetry_space_group_name_H-M "P -1"
_symmetry_group_IT_number 2
_symmetry_cell_setting 'triclinic'
loop_
_space_group_symop_operation_xyz
x,y,z
-x,-y,-z
loop_
_atom_site_type_symbol
_atom_site_label
_atom_site_fract_x
_atom_site_fract_y
_atom_site_fract_z
Si Si1 0.753521 0.202008 0.387740
Si Si2 0.347733 0.087749 0.538439
Si Si3 0.619975 0.642098 0.345813
Si Si4 0.048674 0.693502 0.797469
Si Si5 0.142798 0.406686 0.699263
Si Si6 0.516450 0.857772 0.011026
Si Si7 0.034543 0.878801 0.106226
Si Si8 0.398949 0.418872 0.073930
O O1 0.400679 0.305534 0.171939
O O2 0.016220 0.142163 0.444861
O O3 0.022716 0.282586 0.518334
O O4 0.667807 0.071202 0.434670
O O5 0.725134 0.089375 0.737001
O O6 0.275395 0.199969 0.410863
O O7 0.603735 0.618650 0.261550
O O8 0.252095 0.738305 0.200856
O O9 0.746273 0.498942 0.483250
O O10 0.392855 0.647978 0.893285
O O11 0.165813 0.784933 0.882496
O O12 0.034648 0.542368 0.869323
O O13 0.156953 0.260136 0.784325
O O14 0.309278 0.496358 0.797965
O O15 0.621143 0.881017 0.964887
O O16 0.500000 0.000000 0.000000
O O17 0.000000 0.000000 0.000000
#
# Coordination Sequence:
#
# PCOD9062333 Si02
#       8
#     2   2   2   2   2   2   2   2
#     4   8  15  27  54  80 109 144 196 226 277 349
#     4   9  18  31  53  81 109 148 193 236 278 343
#     4   9  18  35  60  88 116 154 195 241 291 349
#     4   9  18  33  57  81 110 154 196 233 287 356
#     4   9  18  35  60  88 117 156 193 238 292 354
#     4  11  24  38  59  87 120 157 196 241 301 353
#     4  11  24  37  56  88 124 152 196 247 293 342
#     4   8  15  30  52  85 106 146 200 230 273 345
#
# _framework density 24.622724000000002
#
# number of rings (size 3 to 8) (size 9 to 14) (size 15 to 20)
#    0.000    2.750    0.000    1.500    8.750    0.500 
#    0.000    0.625    0.000    0.750   13.000    0.000 
#    0.000    0.000    0.000    0.000    0.000    0.000 
#
# Total GULP energy -89356.220918 kJ/mol
# GULP energy per Si atom -5584.763807 kJ/mol
# Density = 2.456668 g / cm^3
# Si number density = 24.622724 Si / 1000 Ang^3
#
#
#
# Elastic Constant Matrix: (Units=GPa)
#
#
# Indices 1 2 3 4 5 6 
#
# 1 54.6654 23.0793 14.4014 -4.6005 -5.3397 -15.7297
# 2 23.0793 133.8996 46.0542 -18.3148 -8.1329 -19.0222
# 3 14.4014 46.0542 94.9007 -10.5275 -20.9899 13.2802
# 4 -4.6005 -18.3148 -10.5275 41.9759 3.3011 -16.8318
# 5 -5.3397 -8.1329 -20.9899 3.3011 29.6760 -4.8789
# 6 -15.7297 -19.0222 13.2802 -16.8318 -4.8789 31.0786
#
#
#
# Elastic Compliance Matrix: (Units=1/GPa)
#
#
# Indices 1 2 3 4 5 6 
#
# 1 0.028314 0.003907 -0.007761 0.013844 0.003760 0.028126
# 2 0.003907 0.015299 -0.009626 0.013900 0.000328 0.023035
# 3 -0.007761 -0.009626 0.020140 -0.009590 0.007590 -0.022429
# 4 0.013844 0.013900 -0.009590 0.047056 0.001742 0.045371
# 5 0.003760 0.000328 0.007590 0.001742 0.040655 0.006186
# 6 0.028126 0.023035 -0.022429 0.045371 0.006186 0.095638
#
#
# Mechanical properties :
#
#
# Convention : Reuss Voigt Hill
#
# Bulk Modulus (GPa) = 27.18007 50.05949 38.61978
# Shear Modulus (GPa) = 17.46247 33.87483 25.66865
#
# Velocity S-wave (km/s) = 2.66597 3.71314 3.23225
# Velocity P-wave (km/s) = 4.53201 6.22559 5.44505
#
# Compressibility (1/GPa) = 0.03679167
#
# Stress axis : x y z
#
# Youngs Moduli (GPa) = 35.31859 65.36193 49.65201
#
# Poissons Ratio (x) = -0.25535 0.38535
# Poissons Ratio (y) = -0.13798 0.47797
# Poissons Ratio (z) = 0.27411 0.62920
#
# Static dielectric constant tensor:
#      x y z
#    x 1.974080 0.059630 0.041410 
#    y 0.059630 2.019210 0.013760 
#    z 0.041410 0.013760 1.997910 
# 
# From -- ./inp_files/559113.got.cif
#   From: 2010.05.17/outbox.cif.g08.bks.cpg/sg2_280_cif.got.tgz:559113.got - 2010.06.03 11:33:40.
