data_PCOD9062851
_publ_section_title
;
Structure prediction by ZEFSAII (Michael W. Deem and Ramdas Pophale) SiO2 
 PCOD9062851
Probable space group: P -1
;
_chemical_formula_sum "Si O2"
_cell_formula_units_Z 16
_cell_length_a 10.036478
_cell_length_b 11.938265
_cell_length_c 8.054427
_cell_angle_alpha 106.867286
_cell_angle_beta 116.462774
_cell_angle_gamma 58.080969
_cell_volume 731.425934
_symmetry_space_group_name_H-M "P -1"
_symmetry_group_IT_number 2
_symmetry_cell_setting 'triclinic'
loop_
_space_group_symop_operation_xyz
x,y,z
-x,-y,-z
loop_
_atom_site_type_symbol
_atom_site_label
_atom_site_fract_x
_atom_site_fract_y
_atom_site_fract_z
Si Si1 0.975954 0.969283 0.733358
Si Si2 0.285556 0.414865 0.551790
Si Si3 0.519864 0.011025 0.316886
Si Si4 0.155492 0.371281 0.102792
Si Si5 0.859332 0.297279 0.497985
Si Si6 0.792425 0.722268 0.245863
Si Si7 0.631555 0.215076 0.537873
Si Si8 0.852333 0.893153 0.958528
O O1 0.053557 0.846304 0.600912
O O2 0.953545 0.907278 0.865024
O O3 0.791796 0.089125 0.648774
O O4 0.096726 0.037286 0.838336
O O5 0.227369 0.398456 0.325255
O O6 0.224689 0.570640 0.604419
O O7 0.209957 0.362013 0.632206
O O8 0.485612 0.316039 0.620735
O O9 0.672906 0.875580 0.284169
O O10 0.500000 0.000000 0.500000
O O11 0.547689 0.138733 0.355566
O O12 0.346650 0.032513 0.149749
O O13 0.102155 0.258362 0.064796
O O14 0.268286 0.316266 0.974867
O O15 0.000000 0.500000 0.000000
O O16 0.710328 0.296821 0.523625
O O17 0.016696 0.301960 0.676836
#
# Coordination Sequence:
#
# PCOD9062851 Si02
#       8
#     2   2   2   2   2   2   2   2
#     4  11  24  42  74 101 144 194 238 302 371 428
#     4  12  26  49  73 105 149 196 241 303 365 443
#     4  12  21  44  74 104 143 193 248 300 363 441
#     4  12  26  42  69 108 144 184 247 302 356 433
#     4  12  25  42  70 105 142 191 243 291 366 441
#     4  12  25  44  78 106 140 198 248 297 368 436
#     4  12  24  44  72 102 146 190 238 297 374 422
#     4  11  24  44  67 107 148 181 240 315 356 426
#
# _framework density 21.875078999999999
#
# number of rings (size 3 to 8) (size 9 to 14) (size 15 to 20)
#    0.000    0.250    6.250    2.625    3.500    1.500 
#    0.000    0.000    0.000    3.750    0.000    0.000 
#    0.000    0.000    0.000    0.000    0.000    0.000 
#
# Total GULP energy -89410.784264 kJ/mol
# GULP energy per Si atom -5588.174017 kJ/mol
# Density = 2.182529 g / cm^3
# Si number density = 21.875079 Si / 1000 Ang^3
#
#
#
# Elastic Constant Matrix: (Units=GPa)
#
#
# Indices 1 2 3 4 5 6 
#
# 1 101.1456 18.2721 27.2181 1.7173 9.9926 13.2970
# 2 18.2721 117.1143 20.1833 -13.8275 18.1114 10.6661
# 3 27.2181 20.1833 82.3932 3.7207 6.8410 -3.7783
# 4 1.7173 -13.8275 3.7207 21.5322 4.6309 -3.2179
# 5 9.9926 18.1114 6.8410 4.6309 35.9050 -4.6787
# 6 13.2970 10.6661 -3.7783 -3.2179 -4.6787 29.2310
#
#
#
# Elastic Compliance Matrix: (Units=1/GPa)
#
#
# Indices 1 2 3 4 5 6 
#
# 1 0.012198 -0.000182 -0.003982 -0.000675 -0.003318 -0.006602
# 2 -0.000182 0.011591 -0.002807 0.008751 -0.006998 -0.004666
# 3 -0.003982 -0.002807 0.014435 -0.003488 0.000803 0.004446
# 4 -0.000675 0.008751 -0.003488 0.055141 -0.010537 0.001047
# 5 -0.003318 -0.006998 0.000803 -0.010537 0.034625 0.008548
# 6 -0.006602 -0.004666 0.004446 0.001047 0.008548 0.040974
#
#
# Mechanical properties :
#
#
# Convention : Reuss Voigt Hill
#
# Bulk Modulus (GPa) = 41.18373 48.00002 44.59187
# Shear Modulus (GPa) = 26.17783 32.99895 29.58839
#
# Velocity S-wave (km/s) = 3.46308 3.88818 3.68177
# Velocity P-wave (km/s) = 5.90409 6.49212 6.20507
#
# Compressibility (1/GPa) = 0.02428144
#
# Stress axis : x y z
#
# Youngs Moduli (GPa) = 81.97816 86.27111 69.27751
#
# Poissons Ratio (x) = 0.01573 0.27585
# Poissons Ratio (y) = 0.01495 0.19449
# Poissons Ratio (z) = 0.32642 0.24219
#
# Static dielectric constant tensor:
#      x y z
#    x 1.814540 -0.007590 -0.036140 
#    y -0.007590 1.824480 0.012410 
#    z -0.036140 0.012410 1.878490 
# 
# From -- ./inp_files/188791.got.cif
#   From: 2010.05.17/outbox.cif.g08.bks.cpg/sg2_95_cif.got.tgz:188791.got - 2010.06.03 11:33:40.
