data_PCOD9062241
_publ_section_title
;
Structure prediction by ZEFSAII (Michael W. Deem and Ramdas Pophale) SiO2 
 PCOD9062241
Probable space group: P -1
;
_chemical_formula_sum "Si O2"
_cell_formula_units_Z 16
_cell_length_a 17.967704
_cell_length_b 8.319137
_cell_length_c 5.651814
_cell_angle_alpha 113.871986
_cell_angle_beta 72.976327
_cell_angle_gamma 69.645099
_cell_volume 624.872179
_symmetry_space_group_name_H-M "P -1"
_symmetry_group_IT_number 2
_symmetry_cell_setting 'triclinic'
loop_
_space_group_symop_operation_xyz
x,y,z
-x,-y,-z
loop_
_atom_site_type_symbol
_atom_site_label
_atom_site_fract_x
_atom_site_fract_y
_atom_site_fract_z
Si Si1 0.941198 0.308775 0.152466
Si Si2 0.761481 0.755160 0.532003
Si Si3 0.117999 0.767672 0.341294
Si Si4 0.853380 0.917521 0.242043
Si Si5 0.574716 0.452551 0.710547
Si Si6 0.680382 0.513607 0.033287
Si Si7 0.569369 0.797179 0.662571
Si Si8 0.283391 0.862196 0.880811
O O1 0.855997 0.544533 0.380219
O O2 0.934580 0.217751 0.357470
O O3 0.928084 0.219816 0.860841
O O4 0.043208 0.267070 0.018058
O O5 0.787242 0.837120 0.323973
O O6 0.673942 0.732892 0.591585
O O7 0.734956 0.938954 0.847492
O O8 0.140845 0.946382 0.470205
O O9 0.215382 0.544562 0.112677
O O10 0.805733 0.069183 0.154905
O O11 0.538580 0.638672 0.672051
O O12 0.626488 0.225803 0.418881
O O13 0.500000 0.500000 0.000000
O O14 0.654865 0.460068 0.777577
O O15 0.594908 0.740827 0.325769
O O16 0.690451 0.337985 0.103200
O O17 0.500000 0.000000 0.000000
#
# Coordination Sequence:
#
# PCOD9062241 Si02
#       8
#     2   2   2   2   2   2   2   2
#     4  12  29  47  77 113 153 200 260 320 380 445
#     4  12  27  46  71 106 155 196 245 314 385 450
#     4  12  24  49  77 109 149 200 259 313 374 450
#     4  12  27  46  76 107 148 199 256 309 378 455
#     4  11  26  47  76 106 142 194 254 311 377 458
#     4  11  23  48  76 101 150 195 250 309 379 454
#     4  11  28  46  74 110 147 190 248 309 387 451
#     4  11  25  44  74 104 147 196 253 305 380 449
#
# _framework density 25.605239000000001
#
# number of rings (size 3 to 8) (size 9 to 14) (size 15 to 20)
#    0.000    0.500    3.750    2.625    8.750    3.000 
#    0.000    0.000    0.000    0.000    0.000    0.000 
#    0.000    0.000    0.000    0.000    0.000    0.000 
#
# Total GULP energy -89443.460136 kJ/mol
# GULP energy per Si atom -5590.216259 kJ/mol
# Density = 2.554696 g / cm^3
# Si number density = 25.605239 Si / 1000 Ang^3
#
#
#
# Elastic Constant Matrix: (Units=GPa)
#
#
# Indices 1 2 3 4 5 6 
#
# 1 86.6310 17.0895 36.5439 -4.4757 -15.4008 -2.2605
# 2 17.0895 69.9986 32.5919 2.5188 -1.3162 2.1689
# 3 36.5439 32.5919 143.5481 7.6264 -13.2309 7.1738
# 4 -4.4757 2.5188 7.6264 48.8760 1.6236 -1.7323
# 5 -15.4008 -1.3162 -13.2309 1.6236 49.9148 -0.5268
# 6 -2.2605 2.1689 7.1738 -1.7323 -0.5268 37.8457
#
#
#
# Elastic Compliance Matrix: (Units=1/GPa)
#
#
# Indices 1 2 3 4 5 6 
#
# 1 0.013937 -0.002087 -0.002935 0.001786 0.003426 0.001638
# 2 -0.002087 0.016307 -0.003217 -0.000512 -0.001055 -0.000487
# 3 -0.002935 -0.003217 0.008738 -0.001572 0.001359 -0.001700
# 4 0.001786 -0.000512 -0.001572 0.020962 -0.000546 0.001386
# 5 0.003426 -0.001055 0.001359 -0.000546 0.021444 0.000281
# 6 0.001638 -0.000487 -0.001700 0.001386 0.000281 0.026938
#
#
# Mechanical properties :
#
#
# Convention : Reuss Voigt Hill
#
# Bulk Modulus (GPa) = 44.43601 52.51427 48.47514
# Shear Modulus (GPa) = 37.79124 41.59079 39.69102
#
# Velocity S-wave (km/s) = 3.84594 4.03464 3.94142
# Velocity P-wave (km/s) = 6.09209 6.50063 6.29967
#
# Compressibility (1/GPa) = 0.02250427
#
# Stress axis : x y z
#
# Youngs Moduli (GPa) = 71.75074 61.32374 114.44723
#
# Poissons Ratio (x) = 0.12795 0.33593
# Poissons Ratio (y) = 0.14971 0.36817
# Poissons Ratio (z) = 0.21061 0.19727
#
# Static dielectric constant tensor:
#      x y z
#    x 2.063120 -0.034570 0.015930 
#    y -0.034570 2.095600 -0.037690 
#    z 0.015930 -0.037690 2.104260 
# 
# From -- ./inp_files/107356.got.cif
#   From: 2010.05.17/outbox.cif.g08.bks.cpg/sg2_54_cif.got.tgz:107356.got - 2010.06.03 11:33:40.
