data_PCOD9062362
_publ_section_title
;
Structure prediction by ZEFSAII (Michael W. Deem and Ramdas Pophale) SiO2 
 PCOD9062362
Probable space group: P -1
;
_chemical_formula_sum "Si O2"
_cell_formula_units_Z 16
_cell_length_a 9.078733
_cell_length_b 11.489862
_cell_length_c 14.811625
_cell_angle_alpha 130.445223
_cell_angle_beta 52.797005
_cell_angle_gamma 138.746542
_cell_volume 753.985220
_symmetry_space_group_name_H-M "P -1"
_symmetry_group_IT_number 2
_symmetry_cell_setting 'triclinic'
loop_
_space_group_symop_operation_xyz
x,y,z
-x,-y,-z
loop_
_atom_site_type_symbol
_atom_site_label
_atom_site_fract_x
_atom_site_fract_y
_atom_site_fract_z
Si Si1 0.402910 0.878971 0.255575
Si Si2 0.605715 0.657644 0.117838
Si Si3 0.593157 0.615040 0.305316
Si Si4 0.981816 0.555714 0.136619
Si Si5 0.372049 0.837751 0.831599
Si Si6 0.911733 0.020365 0.946925
Si Si7 0.860994 0.017734 0.480668
Si Si8 0.760109 0.792327 0.717522
O O1 0.548230 0.806835 0.198361
O O2 0.229919 0.723751 0.166700
O O3 0.563661 0.089801 0.259047
O O4 0.242646 0.877188 0.389311
O O5 0.522571 0.576947 0.207643
O O6 0.879941 0.780160 0.072028
O O7 0.500000 0.500000 0.000000
O O8 0.827052 0.631771 0.231515
O O9 0.654159 0.810351 0.417926
O O10 0.403424 0.433940 0.341590
O O11 0.842246 0.373133 0.164072
O O12 0.000000 0.500000 0.000000
O O13 0.597594 0.860606 0.794839
O O14 0.305024 0.973379 0.960380
O O15 0.855533 0.860178 0.816956
O O16 0.000000 0.000000 0.000000
O O17 0.000000 0.000000 0.500000
O O18 0.037429 0.119611 0.384476
#
# Coordination Sequence:
#
# PCOD9062362 Si02
#       8
#     2   2   2   2   2   2   2   2
#     4  12  26  44  69 100 136 186 231 278 344 405
#     4  12  25  46  68 101 144 178 224 285 350 410
#     4  11  24  44  67  98 136 181 225 284 344 398
#     4  11  24  39  66 101 136 173 229 286 344 409
#     4  11  24  39  67 101 133 178 225 279 350 403
#     4  12  23  41  66 101 141 174 224 283 346 416
#     4  12  24  46  71  98 140 183 238 282 330 410
#     4  11  25  43  70 101 136 180 232 283 343 403
#
# _framework density 21.220576000000001
#
# number of rings (size 3 to 8) (size 9 to 14) (size 15 to 20)
#    0.000    0.500    5.000    3.375    5.250    2.000 
#    0.000    0.625    0.000    0.000    0.000    0.000 
#    0.000    0.000    0.000    0.000    0.000    0.000 
#
# Total GULP energy -89454.435860 kJ/mol
# GULP energy per Si atom -5590.902241 kJ/mol
# Density = 2.117228 g / cm^3
# Si number density = 21.220576 Si / 1000 Ang^3
#
#
#
# Elastic Constant Matrix: (Units=GPa)
#
#
# Indices 1 2 3 4 5 6 
#
# 1 69.9547 19.6774 33.4434 -8.9945 -5.2647 -14.1985
# 2 19.6774 92.2577 40.1773 -25.4209 1.9930 -1.4373
# 3 33.4434 40.1773 124.4587 -8.6488 -3.9644 6.8755
# 4 -8.9945 -25.4209 -8.6488 21.7142 1.6813 5.6297
# 5 -5.2647 1.9930 -3.9644 1.6813 27.8309 -3.5591
# 6 -14.1985 -1.4373 6.8755 5.6297 -3.5591 31.0410
#
#
#
# Elastic Compliance Matrix: (Units=1/GPa)
#
#
# Indices 1 2 3 4 5 6 
#
# 1 0.019808 -0.001549 -0.005167 0.001298 0.004373 0.010399
# 2 -0.001549 0.018720 -0.004136 0.020739 -0.003876 -0.003131
# 3 -0.005167 -0.004136 0.010928 -0.001448 0.000365 -0.004671
# 4 0.001298 0.020739 -0.001448 0.074095 -0.007511 -0.012424
# 5 0.004373 -0.003876 0.000365 -0.007511 0.038503 0.007517
# 6 0.010399 -0.003131 -0.004671 -0.012424 0.007517 0.040977
#
#
# Mechanical properties :
#
#
# Convention : Reuss Voigt Hill
#
# Bulk Modulus (GPa) = 36.03588 52.58525 44.31056
# Shear Modulus (GPa) = 21.36871 29.00876 25.18874
#
# Velocity S-wave (km/s) = 3.17674 3.70132 3.44902
# Velocity P-wave (km/s) = 5.52033 6.56510 6.06525
#
# Compressibility (1/GPa) = 0.02775012
#
# Stress axis : x y z
#
# Youngs Moduli (GPa) = 50.48502 53.41821 91.51044
#
# Poissons Ratio (x) = 0.08275 0.47288
# Poissons Ratio (y) = 0.07821 0.37851
# Poissons Ratio (z) = 0.26088 0.22095
#
# Static dielectric constant tensor:
#      x y z
#    x 1.874840 0.052940 0.149750 
#    y 0.052940 1.833230 0.100430 
#    z 0.149750 0.100430 1.952370 
# 
# From -- ./inp_files/271704.got.cif
#   From: 2010.05.17/outbox.cif.g08.bks.cpg/sg2_136_cif.got.tgz:271704.got - 2010.06.03 11:33:40.
