data_PCOD9062368
_publ_section_title
;
Structure prediction by ZEFSAII (Michael W. Deem and Ramdas Pophale) SiO2 
 PCOD9062368
Probable space group: P -1
;
_chemical_formula_sum "Si O2"
_cell_formula_units_Z 16
_cell_length_a 12.252423
_cell_length_b 10.686309
_cell_length_c 9.450841
_cell_angle_alpha 82.911753
_cell_angle_beta 83.361334
_cell_angle_gamma 144.911290
_cell_volume 653.037988
_symmetry_space_group_name_H-M "P -1"
_symmetry_group_IT_number 2
_symmetry_cell_setting 'triclinic'
loop_
_space_group_symop_operation_xyz
x,y,z
-x,-y,-z
loop_
_atom_site_type_symbol
_atom_site_label
_atom_site_fract_x
_atom_site_fract_y
_atom_site_fract_z
Si Si1 0.179420 0.117478 0.161365
Si Si2 0.473289 0.185934 0.130677
Si Si3 0.488804 0.807163 0.189172
Si Si4 0.239044 0.766892 0.418621
Si Si5 0.377485 0.497103 0.576881
Si Si6 0.857693 0.719530 0.631537
Si Si7 0.729076 0.026607 0.381723
Si Si8 0.165368 0.319792 0.905652
O O1 0.137618 0.136435 0.320959
O O2 0.042164 0.881222 0.127940
O O3 0.393426 0.252037 0.115743
O O4 0.149194 0.212933 0.056454
O O5 0.709985 0.431631 0.112376
O O6 0.316441 0.964459 0.291044
O O7 0.471229 0.117551 0.988096
O O8 0.359057 0.775349 0.313782
O O9 0.346129 0.545275 0.238307
O O10 0.695233 0.988330 0.223764
O O11 0.281327 0.845670 0.564490
O O12 0.000000 0.500000 0.500000
O O13 0.500000 0.500000 0.500000
O O14 0.191203 0.339807 0.519457
O O15 0.307528 0.392787 0.756072
O O16 0.533450 0.763390 0.510922
O O17 0.061314 0.840064 0.625531
#
# Coordination Sequence:
#
# PCOD9062368 Si02
#       8
#     2   2   2   2   2   2   2   2
#     4  11  26  42  70 105 150 186 228 285 356 441
#     4  12  26  47  74 106 145 189 236 296 360 425
#     4  11  26  46  75 103 139 193 243 292 360 422
#     4  12  26  52  77 101 140 187 247 308 358 412
#     4  11  24  39  68 106 146 188 230 283 358 428
#     4  11  24  43  71 108 149 182 239 289 351 432
#     4  11  25  45  73 103 142 190 236 298 360 418
#     4  11  24  41  66 104 147 183 228 278 358 427
#
# _framework density 24.500872999999999
#
# number of rings (size 3 to 8) (size 9 to 14) (size 15 to 20)
#    0.000    0.750    3.750    2.625    8.750    1.000 
#    2.250    0.625    0.000    0.000    0.000    0.000 
#    0.000    0.000    0.000    0.000    0.000    0.000 
#
# Total GULP energy -89388.503932 kJ/mol
# GULP energy per Si atom -5586.781496 kJ/mol
# Density = 2.444511 g / cm^3
# Si number density = 24.500873 Si / 1000 Ang^3
#
#
#
# Elastic Constant Matrix: (Units=GPa)
#
#
# Indices 1 2 3 4 5 6 
#
# 1 70.6880 30.4100 2.9337 25.5194 -12.9941 9.9363
# 2 30.4100 183.4678 47.8084 27.7417 8.4974 20.0319
# 3 2.9337 47.8084 85.9162 20.9981 -2.7722 5.5159
# 4 25.5194 27.7417 20.9981 36.0946 -8.8981 7.6979
# 5 -12.9941 8.4974 -2.7722 -8.8981 26.3746 5.3063
# 6 9.9363 20.0319 5.5159 7.6979 5.3063 37.3599
#
#
#
# Elastic Compliance Matrix: (Units=1/GPa)
#
#
# Indices 1 2 3 4 5 6 
#
# 1 0.021988 -0.002853 0.004552 -0.013166 0.008490 -0.003484
# 2 -0.002853 0.007648 -0.003568 -0.002633 -0.004813 -0.001589
# 3 0.004552 -0.003568 0.015774 -0.009165 0.001961 -0.000016
# 4 -0.013166 -0.002633 -0.009165 0.048097 0.010663 -0.005158
# 5 0.008490 -0.004813 0.001961 0.010663 0.049296 -0.009166
# 6 -0.003484 -0.001589 -0.000016 -0.005158 -0.009166 0.030912
#
#
# Mechanical properties :
#
#
# Convention : Reuss Voigt Hill
#
# Bulk Modulus (GPa) = 23.99702 55.81958 39.90830
# Shear Modulus (GPa) = 26.13092 37.22714 31.67903
#
# Velocity S-wave (km/s) = 3.26932 3.90220 3.59970
# Velocity P-wave (km/s) = 4.90580 6.56773 5.79664
#
# Compressibility (1/GPa) = 0.04167184
#
# Stress axis : x y z
#
# Youngs Moduli (GPa) = 45.47863 130.75843 63.39704
#
# Poissons Ratio (x) = 0.37304 -0.28858
# Poissons Ratio (y) = 0.12975 0.22620
# Poissons Ratio (z) = -0.20702 0.46655
#
# Static dielectric constant tensor:
#      x y z
#    x 1.939300 0.046250 0.082840 
#    y 0.046250 1.957180 -0.055160 
#    z 0.082840 -0.055160 1.976600 
# 
# From -- ./inp_files/307540.got.cif
#   From: 2010.05.17/outbox.cif.g08.bks.cpg/sg2_154_cif.got.tgz:307540.got - 2010.06.03 11:33:40.
