data_PCOD9062083
_publ_section_title
;
Structure prediction by ZEFSAII (Michael W. Deem and Ramdas Pophale) SiO2 
 PCOD9062083
Probable space group: P -1
;
_chemical_formula_sum "Si O2"
_cell_formula_units_Z 16
_cell_length_a 12.466848
_cell_length_b 8.919706
_cell_length_c 11.595174
_cell_angle_alpha 59.640603
_cell_angle_beta 122.835979
_cell_angle_gamma 75.022823
_cell_volume 634.411652
_symmetry_space_group_name_H-M "P -1"
_symmetry_group_IT_number 2
_symmetry_cell_setting 'triclinic'
loop_
_space_group_symop_operation_xyz
x,y,z
-x,-y,-z
loop_
_atom_site_type_symbol
_atom_site_label
_atom_site_fract_x
_atom_site_fract_y
_atom_site_fract_z
Si Si1 0.306306 0.444899 0.042287
Si Si2 0.044403 0.255210 0.665112
Si Si3 0.805994 0.369749 0.845013
Si Si4 0.083864 0.139078 0.475652
Si Si5 0.624711 0.364305 0.281408
Si Si6 0.533847 0.139544 0.895019
Si Si7 0.808626 0.192130 0.686775
Si Si8 0.380156 0.140386 0.577171
O O1 0.253004 0.592269 0.073032
O O2 0.464015 0.419437 0.100085
O O3 0.428846 0.146238 0.240858
O O4 0.118892 0.613377 0.792996
O O5 0.074459 0.132308 0.608912
O O6 0.000000 0.500000 0.500000
O O7 0.908049 0.267898 0.658042
O O8 0.245722 0.056418 0.920643
O O9 0.732654 0.318685 0.719505
O O10 0.730718 0.634650 0.666818
O O11 0.028759 0.111498 0.077231
O O12 0.229587 0.149307 0.529272
O O13 0.183327 0.873697 0.579268
O O14 0.556555 0.624813 0.167405
O O15 0.668216 0.260498 0.480772
O O16 0.436863 0.207690 0.689803
O O17 0.500000 0.000000 0.000000
#
# Coordination Sequence:
#
# PCOD9062083 Si02
#       8
#     2   2   2   2   2   2   2   2
#     4  11  25  47  73 113 140 198 241 297 371 427
#     4  12  25  46  76 110 148 190 245 302 367 440
#     4  11  23  47  72 102 149 189 248 298 356 436
#     4  11  25  49  75 108 150 189 238 304 372 436
#     4  11  25  48  72 107 147 186 247 298 365 432
#     4  12  24  47  73 109 146 188 243 300 365 436
#     4  11  24  46  72 106 143 198 240 301 366 422
#     4  11  24  47  74 109 146 190 242 301 367 432
#
# _framework density 25.220217999999999
#
# number of rings (size 3 to 8) (size 9 to 14) (size 15 to 20)
#    0.000    0.750    3.750    3.375    0.000    2.000 
#    9.000    0.000    0.000    0.000    0.000    0.000 
#    0.000    0.000    0.000    0.000    0.000    0.000 
#
# Total GULP energy -89556.790079 kJ/mol
# GULP energy per Si atom -5597.299380 kJ/mol
# Density = 2.516282 g / cm^3
# Si number density = 25.220218 Si / 1000 Ang^3
#
#
#
# Elastic Constant Matrix: (Units=GPa)
#
#
# Indices 1 2 3 4 5 6 
#
# 1 38.8143 4.8990 34.4922 5.2047 8.0236 -1.8123
# 2 4.8990 125.3774 41.2412 -25.0676 4.8848 -9.7200
# 3 34.4922 41.2412 173.4625 -12.9793 17.2272 11.1021
# 4 5.2047 -25.0676 -12.9793 51.5824 6.7397 -8.1817
# 5 8.0236 4.8848 17.2272 6.7397 44.4078 7.5278
# 6 -1.8123 -9.7200 11.1021 -8.1817 7.5278 40.2808
#
#
#
# Elastic Compliance Matrix: (Units=1/GPa)
#
#
# Indices 1 2 3 4 5 6 
#
# 1 0.033200 0.000611 -0.006914 -0.003811 -0.003382 0.003405
# 2 0.000611 0.010175 -0.002243 0.005290 -0.001931 0.004536
# 3 -0.006914 -0.002243 0.008083 0.001428 -0.001429 -0.002523
# 4 -0.003811 0.005290 0.001428 0.024449 -0.005288 0.006666
# 5 -0.003382 -0.001931 -0.001429 -0.005288 0.025734 -0.006108
# 6 0.003405 0.004536 -0.002523 0.006666 -0.006108 0.029264
#
#
# Mechanical properties :
#
#
# Convention : Reuss Voigt Hill
#
# Bulk Modulus (GPa) = 29.09933 55.43545 42.26739
# Shear Modulus (GPa) = 31.35706 44.38899 37.87303
#
# Velocity S-wave (km/s) = 3.52991 4.19985 3.87937
# Velocity P-wave (km/s) = 5.30819 6.74882 6.07139
#
# Compressibility (1/GPa) = 0.03436505
#
# Stress axis : x y z
#
# Youngs Moduli (GPa) = 30.12060 98.28407 123.71152
#
# Poissons Ratio (x) = -0.06004 0.85534
# Poissons Ratio (y) = -0.01840 0.27751
# Poissons Ratio (z) = 0.20825 0.22047
#
# Static dielectric constant tensor:
#      x y z
#    x 2.098590 0.005020 0.039270 
#    y 0.005020 1.986840 -0.014070 
#    z 0.039270 -0.014070 2.202300 
# 
# From -- ./inp_files/447219.got.cif
#   From: 2010.05.17/outbox.cif.g08.bks.cpg/sg2_224_cif.got.tgz:447219.got - 2010.06.03 11:33:40.
