data_PCOD9062554
_publ_section_title
;
Structure prediction by ZEFSAII (Michael W. Deem and Ramdas Pophale) SiO2 
 PCOD9062554
Probable space group: P -1
;
_chemical_formula_sum "Si O2"
_cell_formula_units_Z 16
_cell_length_a 12.422008
_cell_length_b 13.913016
_cell_length_c 6.430379
_cell_angle_alpha 51.255935
_cell_angle_beta 73.992814
_cell_angle_gamma 53.104811
_cell_volume 684.244904
_symmetry_space_group_name_H-M "P -1"
_symmetry_group_IT_number 2
_symmetry_cell_setting 'triclinic'
loop_
_space_group_symop_operation_xyz
x,y,z
-x,-y,-z
loop_
_atom_site_type_symbol
_atom_site_label
_atom_site_fract_x
_atom_site_fract_y
_atom_site_fract_z
Si Si1 0.185673 0.810447 0.484993
Si Si2 0.364168 0.321430 0.092867
Si Si3 0.025614 0.626346 0.342532
Si Si4 0.089013 0.126735 0.266575
Si Si5 0.562178 0.071647 0.002751
Si Si6 0.532176 0.326839 0.377312
Si Si7 0.795510 0.814945 0.505177
Si Si8 0.293767 0.562151 0.449933
O O1 0.050990 0.825118 0.611412
O O2 0.319357 0.709334 0.696668
O O3 0.237501 0.725810 0.350437
O O4 0.859413 0.019800 0.699592
O O5 0.464153 0.172639 0.106148
O O6 0.449408 0.331907 0.216581
O O7 0.253824 0.293550 0.277011
O O8 0.307623 0.460488 0.777273
O O9 0.948502 0.714916 0.472853
O O10 0.000000 0.500000 0.500000
O O11 0.180830 0.571510 0.349533
O O12 0.950476 0.737449 0.042659
O O13 0.200919 0.102524 0.403990
O O14 0.699504 0.936515 0.218610
O O15 0.565498 0.188207 0.693763
O O16 0.500000 0.000000 0.000000
O O17 0.435483 0.475405 0.366825
#
# Coordination Sequence:
#
# PCOD9062554 Si02
#       8
#     2   2   2   2   2   2   2   2
#     4  11  25  50  70 100 144 190 239 285 345 426
#     4  11  25  42  72 105 141 182 234 293 361 413
#     4  12  27  45  73 104 143 182 236 296 356 415
#     4  11  27  48  71 104 141 190 236 288 352 418
#     4  11  24  41  69 110 142 176 234 294 355 418
#     4  11  24  46  71 102 144 188 233 290 355 416
#     4  12  24  43  73 103 140 184 231 296 356 416
#     4  11  26  46  67 108 137 187 241 289 347 415
#
# _framework density 23.383438000000002
#
# number of rings (size 3 to 8) (size 9 to 14) (size 15 to 20)
#    0.000    0.750    2.500    3.750    8.750    2.000 
#    9.000    0.000    0.000    0.000    0.000    0.000 
#    0.000    0.000    0.000    0.000    0.000    0.000 
#
# Total GULP energy -89629.228903 kJ/mol
# GULP energy per Si atom -5601.826806 kJ/mol
# Density = 2.333022 g / cm^3
# Si number density = 23.383438 Si / 1000 Ang^3
#
#
#
# Elastic Constant Matrix: (Units=GPa)
#
#
# Indices 1 2 3 4 5 6 
#
# 1 112.9588 42.7335 38.7706 -5.9695 28.7883 13.4773
# 2 42.7335 131.4598 24.2633 -8.0418 12.5130 18.7333
# 3 38.7706 24.2633 109.3106 -13.1089 14.9686 15.0537
# 4 -5.9695 -8.0418 -13.1089 25.5882 5.8115 3.2153
# 5 28.7883 12.5130 14.9686 5.8115 29.8739 1.8226
# 6 13.4773 18.7333 15.0537 3.2153 1.8226 52.2181
#
#
#
# Elastic Compliance Matrix: (Units=1/GPa)
#
#
# Indices 1 2 3 4 5 6 
#
# 1 0.014078 -0.002477 -0.001925 0.004577 -0.012331 -0.002042
# 2 -0.002477 0.009184 -0.000187 0.002958 -0.001776 -0.002722
# 3 -0.001925 -0.000187 0.011874 0.007152 -0.005217 -0.003117
# 4 0.004577 0.002958 0.007152 0.049790 -0.018509 -0.006724
# 5 -0.012331 -0.001776 -0.005217 -0.018509 0.052032 0.004647
# 6 -0.002042 -0.002722 -0.003117 -0.006724 0.004647 0.021804
#
#
# Mechanical properties :
#
#
# Convention : Reuss Voigt Hill
#
# Bulk Modulus (GPa) = 38.52298 62.80710 50.66504
# Shear Modulus (GPa) = 28.31352 38.06683 33.19018
#
# Velocity S-wave (km/s) = 3.48348 4.03915 3.77156
# Velocity P-wave (km/s) = 5.71750 6.97646 6.37812
#
# Compressibility (1/GPa) = 0.02595853
#
# Stress axis : x y z
#
# Youngs Moduli (GPa) = 71.03038 108.88039 84.21772
#
# Poissons Ratio (x) = 0.26965 0.16213
# Poissons Ratio (y) = 0.17591 0.01579
# Poissons Ratio (z) = 0.13674 0.02041
#
# Static dielectric constant tensor:
#      x y z
#    x 1.873900 -0.023150 -0.031430 
#    y -0.023150 1.897470 0.040430 
#    z -0.031430 0.040430 1.856320 
# 
# From -- ./inp_files/77398.got.cif
#   From: 2010.05.17/outbox.cif.g08.bks.cpg/sg2_39_cif.got.tgz:77398.got - 2010.06.03 11:33:40.
