data_PCOD9062164
_publ_section_title
;
Structure prediction by ZEFSAII (Michael W. Deem and Ramdas Pophale) SiO2 
 PCOD9062164
Probable space group: P -1
;
_chemical_formula_sum "Si O2"
_cell_formula_units_Z 16
_cell_length_a 14.858090
_cell_length_b 11.831283
_cell_length_c 7.426573
_cell_angle_alpha 93.257877
_cell_angle_beta 66.064263
_cell_angle_gamma 145.061583
_cell_volume 580.847207
_symmetry_space_group_name_H-M "P -1"
_symmetry_group_IT_number 2
_symmetry_cell_setting 'triclinic'
loop_
_space_group_symop_operation_xyz
x,y,z
-x,-y,-z
loop_
_atom_site_type_symbol
_atom_site_label
_atom_site_fract_x
_atom_site_fract_y
_atom_site_fract_z
Si Si1 0.123140 0.334277 0.726771
Si Si2 0.686199 0.898150 0.627789
Si Si3 0.192321 0.652327 0.751751
Si Si4 0.538705 0.651872 0.370060
Si Si5 0.065836 0.679700 0.560347
Si Si6 0.173606 0.389342 0.119431
Si Si7 0.554707 0.163777 0.093966
Si Si8 0.221643 0.177855 0.158926
O O1 0.116759 0.460825 0.698700
O O2 0.334975 0.512509 0.489952
O O3 0.105698 0.309799 0.955925
O O4 0.976677 0.094477 0.743945
O O5 0.650818 0.842677 0.439903
O O6 0.431589 0.675065 0.883269
O O7 0.703631 0.798297 0.712676
O O8 0.949477 0.193561 0.403193
O O9 0.202859 0.767860 0.621196
O O10 0.370679 0.804308 0.762543
O O11 0.000000 0.500000 0.000000
O O12 0.500000 0.500000 0.500000
O O13 0.640948 0.726533 0.107905
O O14 0.000000 0.500000 0.500000
O O15 0.294109 0.949789 0.286799
O O16 0.803505 0.444622 0.834222
O O17 0.200834 0.290351 0.170243
O O18 0.500000 0.000000 0.000000
#
# Coordination Sequence:
#
# PCOD9062164 Si02
#       8
#     2   2   2   2   2   2   2   2
#     4  11  23  49  78 116 152 207 262 319 396 476
#     4  12  28  50  71 116 157 198 267 325 386 477
#     4  11  23  47  78 105 151 205 257 322 396 456
#     4  12  26  50  77 112 159 204 260 320 394 469
#     4  12  26  47  77 114 151 200 265 326 390 474
#     4  11  23  48  76 110 154 199 262 322 381 477
#     4  11  24  45  74 109 152 198 257 321 387 458
#     4  12  28  50  82 112 160 211 254 328 403 457
#
# _framework density 27.545971000000002
#
# number of rings (size 3 to 8) (size 9 to 14) (size 15 to 20)
#    0.000    0.500    6.250    2.625    3.500    3.000 
#    9.000    0.000    0.000    0.000    0.000    0.000 
#    0.000    0.000    0.000    0.000    0.000    0.000 
#
# Total GULP energy -89326.435476 kJ/mol
# GULP energy per Si atom -5582.902217 kJ/mol
# Density = 2.748328 g / cm^3
# Si number density = 27.545971 Si / 1000 Ang^3
#
#
#
# Elastic Constant Matrix: (Units=GPa)
#
#
# Indices 1 2 3 4 5 6 
#
# 1 217.4823 72.4197 71.5446 0.4774 -23.8730 -29.9855
# 2 72.4197 213.0304 55.3361 -25.9110 -11.8325 -24.2472
# 3 71.5446 55.3361 196.5044 -3.4719 -43.7482 -12.7511
# 4 0.4774 -25.9110 -3.4719 46.4121 -3.8784 1.1898
# 5 -23.8730 -11.8325 -43.7482 -3.8784 63.8605 6.9716
# 6 -29.9855 -24.2472 -12.7511 1.1898 6.9716 40.3898
#
#
#
# Elastic Compliance Matrix: (Units=1/GPa)
#
#
# Indices 1 2 3 4 5 6 
#
# 1 0.006051 -0.001403 -0.001495 -0.000989 0.000579 0.003107
# 2 -0.001403 0.006080 -0.001033 0.003262 -0.000149 0.002212
# 3 -0.001495 -0.001033 0.006790 0.000284 0.003949 -0.000276
# 4 -0.000989 0.003262 0.000284 0.023543 0.001826 0.000305
# 5 0.000579 -0.000149 0.003949 0.001826 0.018852 -0.001721
# 6 0.003107 0.002212 -0.000276 0.000305 -0.001721 0.028594
#
#
# Mechanical properties :
#
#
# Convention : Reuss Voigt Hill
#
# Bulk Modulus (GPa) = 90.42832 113.95756 102.19294
# Shear Modulus (GPa) = 49.28041 58.64693 53.96367
#
# Velocity S-wave (km/s) = 4.23427 4.61918 4.43091
# Velocity P-wave (km/s) = 7.53690 8.36115 7.95970
#
# Compressibility (1/GPa) = 0.01105848
#
# Stress axis : x y z
#
# Youngs Moduli (GPa) = 165.25446 164.47883 147.26520
#
# Poissons Ratio (x) = 0.23080 0.22017
# Poissons Ratio (y) = 0.23189 0.15216
# Poissons Ratio (z) = 0.24706 0.16995
#
# Static dielectric constant tensor:
#      x y z
#    x 2.049010 0.152240 -0.132170 
#    y 0.152240 2.237350 -0.387610 
#    z -0.132170 -0.387610 2.771100 
# 
# From -- ./inp_files/335720.got.cif
#   From: 2010.05.17/outbox.cif.g08.bks.cpg/sg2_168_cif.got.tgz:335720.got - 2010.06.03 11:33:40.
