data_PCOD9062826
_publ_section_title
;
Structure prediction by ZEFSAII (Michael W. Deem and Ramdas Pophale) SiO2 
 PCOD9062826
Probable space group: P -1
;
_chemical_formula_sum "Si O2"
_cell_formula_units_Z 10
_cell_length_a 9.778012
_cell_length_b 16.387108
_cell_length_c 16.710976
_cell_angle_alpha 154.676087
_cell_angle_beta 153.932160
_cell_angle_gamma 40.397395
_cell_volume 484.876628
_symmetry_space_group_name_H-M "P -1"
_symmetry_group_IT_number 2
_symmetry_cell_setting 'triclinic'
loop_
_space_group_symop_operation_xyz
x,y,z
-x,-y,-z
loop_
_atom_site_type_symbol
_atom_site_label
_atom_site_fract_x
_atom_site_fract_y
_atom_site_fract_z
Si Si1 0.775832 0.112558 0.131238
Si Si2 0.265662 0.441112 0.900994
Si Si3 0.423334 0.705244 0.661884
Si Si4 0.511107 0.143767 0.557581
Si Si5 0.360730 0.091401 0.737724
O O1 0.617955 0.095609 0.946292
O O2 0.679282 0.894400 0.927336
O O3 0.623067 0.250268 0.229983
O O4 0.161422 0.184339 0.398710
O O5 0.761094 0.354061 0.893372
O O6 0.397724 0.311026 0.918095
O O7 0.922393 0.308556 0.572710
O O8 0.500000 0.500000 0.000000
O O9 0.500000 0.500000 0.500000
O O10 0.589446 0.039018 0.426918
O O11 0.500000 0.000000 0.500000
O O12 0.000000 0.000000 0.500000
#
# Coordination Sequence:
#
# PCOD9062826 Si02
#       5
#     2   2   2   2   2
#     4  11  25  45  66 105 140 181 227 286 343 405
#     4  12  24  46  71 102 132 185 234 276 346 414
#     4  11  24  42  72  99 140 180 231 279 346 409
#     4  12  25  45  75  98 141 184 229 282 345 412
#     4  12  27  46  70 104 145 175 231 295 339 402
#
# _framework density 20.623804
#
# number of rings (size 3 to 8) (size 9 to 14) (size 15 to 20)
#    0.000    0.400    6.000    1.800    5.600    3.200 
#    0.000    0.000    0.000    0.000    0.000    0.000 
#    0.000    0.000    0.000    0.000    0.000    0.000 
#
# Total GULP energy -55976.114743 kJ/mol
# GULP energy per Si atom -5597.611474 kJ/mol
# Density = 2.057686 g / cm^3
# Si number density = 20.623804 Si / 1000 Ang^3
#
#
#
# Elastic Constant Matrix: (Units=GPa)
#
#
# Indices 1 2 3 4 5 6 
#
# 1 123.3400 44.4679 24.8930 8.6393 -32.3366 6.1971
# 2 44.4679 70.2137 0.6142 13.8577 -19.3076 3.8880
# 3 24.8930 0.6142 78.3574 6.3121 -18.0003 2.7963
# 4 8.6393 13.8577 6.3121 52.3114 -7.0026 -9.6830
# 5 -32.3366 -19.3076 -18.0003 -7.0026 52.4767 1.2518
# 6 6.1971 3.8880 2.7963 -9.6830 1.2518 25.9698
#
#
#
# Elastic Compliance Matrix: (Units=1/GPa)
#
#
# Indices 1 2 3 4 5 6 
#
# 1 0.012195 -0.006494 -0.002811 0.000293 0.004241 -0.001730
# 2 -0.006494 0.020689 0.003412 -0.004993 0.004209 -0.003980
# 3 -0.002811 0.003412 0.014898 -0.002098 0.004412 -0.002439
# 4 0.000293 -0.004993 -0.002098 0.022407 0.000393 0.009239
# 5 0.004241 0.004209 0.004412 0.000393 0.024860 -0.003169
# 6 -0.001730 -0.003980 -0.002439 0.009239 -0.003169 0.043375
#
#
# Mechanical properties :
#
#
# Convention : Reuss Voigt Hill
#
# Bulk Modulus (GPa) = 27.78145 45.76236 36.77191
# Shear Modulus (GPa) = 30.82484 39.61398 35.21941
#
# Velocity S-wave (km/s) = 3.87023 4.38744 4.13692
# Velocity P-wave (km/s) = 5.78545 6.92123 6.37867
#
# Compressibility (1/GPa) = 0.03599524
#
# Stress axis : x y z
#
# Youngs Moduli (GPa) = 82.00269 48.33572 67.12423
#
# Poissons Ratio (x) = 0.31391 0.18867
# Poissons Ratio (y) = 0.53255 -0.22904
# Poissons Ratio (z) = 0.23049 -0.16493
#
# Static dielectric constant tensor:
#      x y z
#    x 1.725210 -0.023880 -0.005610 
#    y -0.023880 1.724410 0.003070 
#    z -0.005610 0.003070 1.712010 
# 
# From -- ./inp_files/132683.got.cif
#   From: 2010.05.17/outbox.cif.g08.bks.cpg/sg2_67_cif.got.tgz:132683.got - 2010.06.03 11:33:40.
