data_PCOD9062560
_publ_section_title
;
Structure prediction by ZEFSAII (Michael W. Deem and Ramdas Pophale) SiO2 
 PCOD9062560
Probable space group: P -1
;
_chemical_formula_sum "Si O2"
_cell_formula_units_Z 14
_cell_length_a 18.510548
_cell_length_b 8.694174
_cell_length_c 6.677220
_cell_angle_alpha 85.150263
_cell_angle_beta 94.076654
_cell_angle_gamma 140.773731
_cell_volume 677.095222
_symmetry_space_group_name_H-M "P -1"
_symmetry_group_IT_number 2
_symmetry_cell_setting 'triclinic'
loop_
_space_group_symop_operation_xyz
x,y,z
-x,-y,-z
loop_
_atom_site_type_symbol
_atom_site_label
_atom_site_fract_x
_atom_site_fract_y
_atom_site_fract_z
Si Si1 0.750458 0.524338 0.571764
Si Si2 0.456338 0.776155 0.128538
Si Si3 0.600960 0.764299 0.385594
Si Si4 0.808989 0.270469 0.508503
Si Si5 0.007561 0.449619 0.785856
Si Si6 0.298535 0.341710 0.836184
Si Si7 0.090781 0.044011 0.127939
O O1 0.639479 0.339787 0.713012
O O2 0.780195 0.400429 0.526087
O O3 0.726719 0.587358 0.363979
O O4 0.849653 0.765751 0.699606
O O5 0.550886 0.831999 0.257277
O O6 0.397573 0.573562 0.970437
O O7 0.500000 0.000000 0.000000
O O8 0.500000 0.500000 0.500000
O O9 0.661030 0.751644 0.239460
O O10 0.696702 0.980154 0.537306
O O11 0.913988 0.394260 0.654416
O O12 0.863895 0.329866 0.295166
O O13 0.970483 0.211127 0.781925
O O14 0.000000 0.500000 0.000000
O O15 0.187806 0.153208 0.976499
O O16 0.000000 0.000000 0.000000
#
# Coordination Sequence:
#
# PCOD9062560 Si02
#       7
#     2   2   2   2   2   2   2
#     4  11  24  44  65  99 138 175 230 280 343 409
#     4  11  26  43  67  98 134 181 227 280 337 403
#     4  12  25  45  70  99 138 184 229 281 340 406
#     4  11  26  42  69  98 135 180 223 283 345 404
#     4  11  24  45  67  99 136 174 227 283 344 406
#     4  11  24  43  67  97 134 177 228 279 341 407
#     4  11  24  41  69  99 133 177 226 286 344 411
#
# _framework density 20.676559000000001
#
# number of rings (size 3 to 8) (size 9 to 14) (size 15 to 20)
#    0.000    0.857    1.429    4.714    4.000   10.286 
#    0.000    0.000    0.000    0.000    0.000    0.000 
#    0.000    0.000    0.000    0.000    0.000    0.000 
#
# Total GULP energy -78340.056993 kJ/mol
# GULP energy per Si atom -5595.718357 kJ/mol
# Density = 2.062950 g / cm^3
# Si number density = 20.676559 Si / 1000 Ang^3
#
#
#
# Elastic Constant Matrix: (Units=GPa)
#
#
# Indices 1 2 3 4 5 6 
#
# 1 126.9742 23.8895 17.8165 12.7668 -1.1494 -7.6597
# 2 23.8895 92.5596 5.4797 -7.9990 -13.9788 4.9918
# 3 17.8165 5.4797 68.6836 4.6549 -12.5651 2.7254
# 4 12.7668 -7.9990 4.6549 27.7915 -10.3805 6.9940
# 5 -1.1494 -13.9788 -12.5651 -10.3805 35.4618 0.9092
# 6 -7.6597 4.9918 2.7254 6.9940 0.9092 21.4146
#
#
#
# Elastic Compliance Matrix: (Units=1/GPa)
#
#
# Indices 1 2 3 4 5 6 
#
# 1 0.010754 -0.004857 -0.003145 -0.010285 -0.005922 0.008990
# 2 -0.004857 0.015175 0.001476 0.012746 0.010336 -0.010064
# 3 -0.003145 0.001476 0.016595 0.003083 0.007388 -0.004901
# 4 -0.010285 0.012746 0.003083 0.059757 0.023982 -0.027577
# 5 -0.005922 0.010336 0.007388 0.023982 0.042107 -0.015088
# 6 0.008990 -0.010064 -0.004901 -0.027577 -0.015088 0.062529
#
#
# Mechanical properties :
#
#
# Convention : Reuss Voigt Hill
#
# Bulk Modulus (GPa) = 33.93189 42.50987 38.22088
# Shear Modulus (GPa) = 21.75868 33.00237 27.38053
#
# Velocity S-wave (km/s) = 3.24749 3.99949 3.64295
# Velocity P-wave (km/s) = 5.52341 6.47549 6.01830
#
# Compressibility (1/GPa) = 0.02947080
#
# Stress axis : x y z
#
# Youngs Moduli (GPa) = 92.99182 65.89587 60.26032
#
# Poissons Ratio (x) = 0.32008 0.18952
# Poissons Ratio (y) = 0.45169 -0.08893
# Poissons Ratio (z) = 0.29245 -0.09725
#
# Static dielectric constant tensor:
#      x y z
#    x 1.632440 -0.029880 -0.018900 
#    y -0.029880 1.711230 -0.031250 
#    z -0.018900 -0.031250 1.723510 
# 
# From -- ./inp_files/26742.got.cif
#   From: 2010.05.17/outbox.cif.g08.bks.cpg/sg2_14_cif.got.tgz:26742.got - 2010.06.03 11:33:40.
