data_PCOD9062275
_publ_section_title
;
Structure prediction by ZEFSAII (Michael W. Deem and Ramdas Pophale) SiO2 
 PCOD9062275
Probable space group: P -1
;
_chemical_formula_sum "Si O2"
_cell_formula_units_Z 16
_cell_length_a 8.998024
_cell_length_b 20.622231
_cell_length_c 9.275765
_cell_angle_alpha 58.656135
_cell_angle_beta 102.200951
_cell_angle_gamma 53.177825
_cell_volume 757.682359
_symmetry_space_group_name_H-M "P -1"
_symmetry_group_IT_number 2
_symmetry_cell_setting 'triclinic'
loop_
_space_group_symop_operation_xyz
x,y,z
-x,-y,-z
loop_
_atom_site_type_symbol
_atom_site_label
_atom_site_fract_x
_atom_site_fract_y
_atom_site_fract_z
Si Si1 0.188973 0.688748 0.366792
Si Si2 0.280411 0.303201 0.408991
Si Si3 0.191714 0.127606 0.366581
Si Si4 0.876653 0.387457 0.833608
Si Si5 0.819927 0.138878 0.216752
Si Si6 0.206257 0.854652 0.127878
Si Si7 0.262506 0.138322 0.687298
Si Si8 0.242229 0.375210 0.999403
O O1 0.535844 0.539358 0.615848
O O2 0.090162 0.673227 0.238524
O O3 0.104088 0.811183 0.170475
O O4 0.033593 0.734272 0.430727
O O5 0.487986 0.266103 0.592199
O O6 0.334609 0.193412 0.589737
O O7 0.342262 0.295411 0.263622
O O8 0.954844 0.468940 0.181549
O O9 0.232265 0.104478 0.572783
O O10 0.004662 0.137135 0.260598
O O11 0.500000 0.000000 0.500000
O O12 0.019854 0.276478 0.116899
O O13 0.043222 0.396463 0.856366
O O14 0.514430 0.279940 0.068673
O O15 0.774320 0.133794 0.048991
O O16 0.000000 0.000000 0.500000
O O17 0.000000 0.000000 0.000000
O O18 0.500000 0.000000 0.000000
#
# Coordination Sequence:
#
# PCOD9062275 Si02
#       8
#     2   2   2   2   2   2   2   2
#     4  11  26  45  73 105 138 185 234 283 354 408
#     4  11  26  45  70 106 143 184 226 293 353 408
#     4  12  27  48  71  98 142 184 235 289 342 411
#     4  11  23  49  72 100 142 184 230 294 341 413
#     4  12  29  45  72 104 134 190 233 282 348 420
#     4  12  26  46  69 101 146 181 231 288 346 414
#     4  12  28  44  72 103 139 188 234 288 346 421
#     4  11  25  48  73 102 143 182 232 288 351 415
#
# _framework density 21.117028000000001
#
# number of rings (size 3 to 8) (size 9 to 14) (size 15 to 20)
#    0.000    0.500    3.750    3.000   10.500    1.000 
#    0.000    0.000    0.000    0.000    0.000    0.000 
#    0.000    0.000    0.000    0.000    0.000    0.000 
#
# Total GULP energy -89592.215681 kJ/mol
# GULP energy per Si atom -5599.513480 kJ/mol
# Density = 2.106896 g / cm^3
# Si number density = 21.117028 Si / 1000 Ang^3
#
#
#
# Elastic Constant Matrix: (Units=GPa)
#
#
# Indices 1 2 3 4 5 6 
#
# 1 88.7767 40.0123 28.3325 -1.0352 11.4855 -2.5850
# 2 40.0123 159.1481 54.4852 17.8399 10.9003 -24.5037
# 3 28.3325 54.4852 97.0214 12.6800 -0.8188 -4.5393
# 4 -1.0352 17.8399 12.6800 40.3597 8.5348 0.4867
# 5 11.4855 10.9003 -0.8188 8.5348 38.3729 -5.7336
# 6 -2.5850 -24.5037 -4.5393 0.4867 -5.7336 38.1486
#
#
#
# Elastic Compliance Matrix: (Units=1/GPa)
#
#
# Indices 1 2 3 4 5 6 
#
# 1 0.014134 -0.002888 -0.003110 0.003608 -0.004578 -0.002001
# 2 -0.002888 0.009544 -0.003866 -0.003051 -0.000436 0.005448
# 3 -0.003110 -0.003866 0.013821 -0.003337 0.002983 -0.000559
# 4 0.003608 -0.003051 -0.003337 0.028839 -0.007232 -0.003567
# 5 -0.004578 -0.000436 0.002983 -0.007232 0.029876 0.004347
# 6 -0.002001 0.005448 -0.000559 -0.003567 0.004347 0.030209
#
#
# Mechanical properties :
#
#
# Convention : Reuss Voigt Hill
#
# Bulk Modulus (GPa) = 56.26846 65.62293 60.94570
# Shear Modulus (GPa) = 32.87823 38.18398 35.53110
#
# Velocity S-wave (km/s) = 3.95011 4.25692 4.10638
# Velocity P-wave (km/s) = 6.89263 7.43674 7.16985
#
# Compressibility (1/GPa) = 0.01777194
#
# Stress axis : x y z
#
# Youngs Moduli (GPa) = 70.74933 104.77824 72.35121
#
# Poissons Ratio (x) = 0.30261 0.22498
# Poissons Ratio (y) = 0.20433 0.27973
# Poissons Ratio (z) = 0.22000 0.40510
#
# Static dielectric constant tensor:
#      x y z
#    x 1.765340 0.023800 -0.002720 
#    y 0.023800 1.746650 -0.012640 
#    z -0.002720 -0.012640 1.762060 
# 
# From -- ./inp_files/223456.got.cif
#   From: 2010.05.17/outbox.cif.g08.bks.cpg/sg2_112_cif.got.tgz:223456.got - 2010.06.03 11:33:40.
