data_PCOD9062441
_publ_section_title
;
Structure prediction by ZEFSAII (Michael W. Deem and Ramdas Pophale) SiO2 
 PCOD9062441
Probable space group: P -1
;
_chemical_formula_sum "Si O2"
_cell_formula_units_Z 14
_cell_length_a 11.413221
_cell_length_b 6.566030
_cell_length_c 11.398911
_cell_angle_alpha 114.543459
_cell_angle_beta 126.294858
_cell_angle_gamma 71.446972
_cell_volume 623.232467
_symmetry_space_group_name_H-M "P -1"
_symmetry_group_IT_number 2
_symmetry_cell_setting 'triclinic'
loop_
_space_group_symop_operation_xyz
x,y,z
-x,-y,-z
loop_
_atom_site_type_symbol
_atom_site_label
_atom_site_fract_x
_atom_site_fract_y
_atom_site_fract_z
Si Si1 0.387591 0.381334 0.993949
Si Si2 0.746063 0.994976 0.327628
Si Si3 0.098106 0.093458 0.241594
Si Si4 0.504449 0.691805 0.700350
Si Si5 0.397169 0.220081 0.454878
Si Si6 0.902609 0.358073 0.994759
Si Si7 0.976939 0.241249 0.431559
O O1 0.330261 0.173880 0.840652
O O2 0.500000 0.500000 0.000000
O O3 0.464800 0.294446 0.140364
O O4 0.240158 0.526814 0.992805
O O5 0.890214 0.860834 0.433154
O O6 0.623262 0.116890 0.366859
O O7 0.813773 0.212011 0.367239
O O8 0.235967 0.202041 0.401773
O O9 0.989260 0.093481 0.285393
O O10 0.146265 0.848184 0.160854
O O11 0.015335 0.246655 0.130813
O O12 0.464473 0.441364 0.592177
O O13 0.626927 0.745921 0.692444
O O14 0.500000 0.000000 0.500000
O O15 0.000000 0.500000 0.000000
O O16 0.000000 0.500000 0.500000
#
# Coordination Sequence:
#
# PCOD9062441 Si02
#       7
#     2   2   2   2   2   2   2
#     4  12  28  45  73 103 150 198 238 302 371 437
#     4  11  26  44  67 103 142 183 237 296 358 434
#     4  11  24  40  74  95 132 182 234 295 352 424
#     4  11  26  44  67 103 142 183 237 296 358 434
#     4  11  24  44  72 102 140 183 241 297 365 432
#     4  11  25  47  68 100 139 182 247 294 359 424
#     4  11  24  44  72 102 140 183 241 297 365 432
#
# _framework density 22.463529000000001
#
# number of rings (size 3 to 8) (size 9 to 14) (size 15 to 20)
#    0.000    0.857    0.000    5.571   10.000    6.857 
#    0.000    0.000    0.000    0.000    0.000    0.000 
#    0.000    0.000    0.000    0.000    0.000    0.000 
#
# Total GULP energy -78134.140238 kJ/mol
# GULP energy per Si atom -5581.010017 kJ/mol
# Density = 2.241240 g / cm^3
# Si number density = 22.463529 Si / 1000 Ang^3
#
#
#
# Elastic Constant Matrix: (Units=GPa)
#
#
# Indices 1 2 3 4 5 6 
#
# 1 117.2471 36.2420 20.2549 3.6945 1.6574 1.9942
# 2 36.2420 110.9015 43.3933 22.7221 8.0778 -10.2602
# 3 20.2549 43.3933 91.3443 0.8614 -4.3824 19.2902
# 4 3.6945 22.7221 0.8614 27.6365 0.4049 -3.5099
# 5 1.6574 8.0778 -4.3824 0.4049 34.0005 -0.9487
# 6 1.9942 -10.2602 19.2902 -3.5099 -0.9487 41.0531
#
#
#
# Elastic Compliance Matrix: (Units=1/GPa)
#
#
# Indices 1 2 3 4 5 6 
#
# 1 0.009610 -0.003444 -0.000268 0.001415 0.000268 -0.001074
# 2 -0.003444 0.017362 -0.009213 -0.012485 -0.004782 0.007658
# 3 -0.000268 -0.009213 0.017638 0.005731 0.004128 -0.009992
# 4 0.001415 -0.012485 0.005731 0.045795 0.003038 -0.001896
# 5 0.000268 -0.004782 0.004128 0.003038 0.030970 -0.002173
# 6 -0.001074 0.007658 -0.009992 -0.001896 -0.002173 0.030807
#
#
# Mechanical properties :
#
#
# Convention : Reuss Voigt Hill
#
# Bulk Modulus (GPa) = 53.30893 57.69704 55.50298
# Shear Modulus (GPa) = 27.13167 35.17820 31.15493
#
# Velocity S-wave (km/s) = 3.47913 3.96158 3.72817
# Velocity P-wave (km/s) = 6.31838 6.83125 6.57982
#
# Compressibility (1/GPa) = 0.01875858
#
# Stress axis : x y z
#
# Youngs Moduli (GPa) = 104.05915 57.59648 56.69637
#
# Poissons Ratio (x) = 0.19839 0.01521
# Poissons Ratio (y) = 0.35843 0.52234
# Poissons Ratio (z) = 0.02791 0.53064
#
# Static dielectric constant tensor:
#      x y z
#    x 1.895930 -0.030190 0.015270 
#    y -0.030190 1.870770 -0.084000 
#    z 0.015270 -0.084000 1.847000 
# 
# From -- ./inp_files/68484.got.cif
#   From: 2010.05.17/outbox.cif.g08.bks.cpg/sg2_35_cif.got.tgz:68484.got - 2010.06.03 11:33:40.
