data_PCOD9062811
_publ_section_title
;
Structure prediction by ZEFSAII (Michael W. Deem and Ramdas Pophale) SiO2 
 PCOD9062811
Probable space group: P -1
;
_chemical_formula_sum "Si O2"
_cell_formula_units_Z 14
_cell_length_a 10.908320
_cell_length_b 8.010278
_cell_length_c 6.906557
_cell_angle_alpha 74.686248
_cell_angle_beta 109.453689
_cell_angle_gamma 108.435134
_cell_volume 531.258965
_symmetry_space_group_name_H-M "P -1"
_symmetry_group_IT_number 2
_symmetry_cell_setting 'triclinic'
loop_
_space_group_symop_operation_xyz
x,y,z
-x,-y,-z
loop_
_atom_site_type_symbol
_atom_site_label
_atom_site_fract_x
_atom_site_fract_y
_atom_site_fract_z
Si Si1 0.950755 0.001270 0.254461
Si Si2 0.442862 0.240367 0.000012
Si Si3 0.367356 0.448417 0.566155
Si Si4 0.910030 0.618988 0.189320
Si Si5 0.808465 0.303585 0.537961
Si Si6 0.770967 0.766592 0.780423
Si Si7 0.298446 0.893211 0.795724
O O1 0.088367 0.081368 0.185449
O O2 0.841890 0.120231 0.158833
O O3 0.000000 0.000000 0.500000
O O4 0.883725 0.795312 0.227446
O O5 0.409187 0.405556 0.816824
O O6 0.646445 0.792179 0.839219
O O7 0.385315 0.079094 0.867989
O O8 0.598830 0.235574 0.101398
O O9 0.500000 0.500000 0.500000
O O10 0.307456 0.618502 0.465822
O O11 0.270831 0.288925 0.443109
O O12 0.867478 0.442749 0.350777
O O13 0.071110 0.674373 0.255750
O O14 0.824333 0.604574 0.955363
O O15 0.747093 0.119701 0.450163
#
# Coordination Sequence:
#
# PCOD9062811 Si02
#       7
#     2   2   2   2   2   2   2
#     4  12  23  47  76 107 144 187 240 303 352 421
#     4  11  26  51  71 104 147 189 246 290 352 438
#     4  12  28  48  72 104 146 194 236 293 359 431
#     4  11  24  42  72 105 143 181 236 292 361 420
#     4  11  24  45  72 108 145 185 233 305 356 420
#     4  12  26  46  79 103 142 198 238 291 366 422
#     4  11  24  44  80 102 141 194 234 297 360 416
#
# _framework density 26.352494
#
# number of rings (size 3 to 8) (size 9 to 14) (size 15 to 20)
#    0.000    0.571    4.286    3.000    4.000    2.857 
#    2.571    4.286    0.000    0.000    0.000    0.000 
#    0.000    0.000    0.000    0.000    0.000    0.000 
#
# Total GULP energy -78281.695894 kJ/mol
# GULP energy per Si atom -5591.549707 kJ/mol
# Density = 2.629251 g / cm^3
# Si number density = 26.352494 Si / 1000 Ang^3
#
#
#
# Elastic Constant Matrix: (Units=GPa)
#
#
# Indices 1 2 3 4 5 6 
#
# 1 200.3881 30.5794 49.6484 -5.0580 41.6169 -13.3603
# 2 30.5794 70.2799 3.1387 19.1844 -3.2297 -8.5610
# 3 49.6484 3.1387 124.3346 7.2103 20.7172 1.2823
# 4 -5.0580 19.1844 7.2103 39.3234 0.5849 0.8444
# 5 41.6169 -3.2297 20.7172 0.5849 49.3560 -1.3634
# 6 -13.3603 -8.5610 1.2823 0.8444 -1.3634 46.9592
#
#
#
# Elastic Compliance Matrix: (Units=1/GPa)
#
#
# Indices 1 2 3 4 5 6 
#
# 1 0.007534 -0.004255 -0.002161 0.003500 -0.005732 0.001197
# 2 -0.004255 0.019381 0.001010 -0.010313 0.004626 0.002615
# 3 -0.002161 0.001010 0.009368 -0.002443 -0.002034 -0.000702
# 4 0.003500 -0.010313 -0.002443 0.031436 -0.003014 -0.001470
# 5 -0.005732 0.004626 -0.002034 -0.003014 0.026289 0.000086
# 6 0.001197 0.002615 -0.000702 -0.001470 0.000086 0.022161
#
#
# Mechanical properties :
#
#
# Convention : Reuss Voigt Hill
#
# Bulk Modulus (GPa) = 39.25973 62.41506 50.83740
# Shear Modulus (GPa) = 36.90842 47.90345 42.40593
#
# Velocity S-wave (km/s) = 3.74647 4.26819 4.01581
# Velocity P-wave (km/s) = 5.80043 6.93008 6.39027
#
# Compressibility (1/GPa) = 0.02547139
#
# Stress axis : x y z
#
# Youngs Moduli (GPa) = 132.73824 51.59660 106.74432
#
# Poissons Ratio (x) = 0.21952 0.23069
# Poissons Ratio (y) = 0.56474 -0.10780
# Poissons Ratio (z) = 0.28686 -0.05211
#
# Static dielectric constant tensor:
#      x y z
#    x 2.039540 0.032500 0.011470 
#    y 0.032500 1.902810 0.037220 
#    z 0.011470 0.037220 2.098410 
# 
# From -- ./inp_files/243175.got.cif
#   From: 2010.05.17/outbox.cif.g08.bks.cpg/sg2_122_cif.got.tgz:243175.got - 2010.06.03 11:33:40.
