data_PCOD9062288
_publ_section_title
;
Structure prediction by ZEFSAII (Michael W. Deem and Ramdas Pophale) SiO2 
 PCOD9062288
Probable space group: P -1
;
_chemical_formula_sum "Si O2"
_cell_formula_units_Z 16
_cell_length_a 9.088264
_cell_length_b 8.965157
_cell_length_c 11.593881
_cell_angle_alpha 138.255201
_cell_angle_beta 96.195936
_cell_angle_gamma 83.712435
_cell_volume 624.682434
_symmetry_space_group_name_H-M "P -1"
_symmetry_group_IT_number 2
_symmetry_cell_setting 'triclinic'
loop_
_space_group_symop_operation_xyz
x,y,z
-x,-y,-z
loop_
_atom_site_type_symbol
_atom_site_label
_atom_site_fract_x
_atom_site_fract_y
_atom_site_fract_z
Si Si1 0.216210 0.332698 0.425361
Si Si2 0.795540 0.428810 0.879005
Si Si3 0.258158 0.590140 0.876644
Si Si4 0.011035 0.016923 0.373439
Si Si5 0.780415 0.132095 0.236335
Si Si6 0.531058 0.023211 0.820680
Si Si7 0.071275 0.254531 0.116484
Si Si8 0.511969 0.767070 0.304789
O O1 0.137500 0.304282 0.276573
O O2 0.361450 0.391745 0.719460
O O3 0.115773 0.202868 0.434443
O O4 0.372380 0.193368 0.341480
O O5 0.912135 0.221424 0.789327
O O6 0.850430 0.601797 0.892513
O O7 0.644061 0.345759 0.765896
O O8 0.763109 0.499847 0.047245
O O9 0.096609 0.650113 0.852701
O O10 0.224826 0.596408 0.606666
O O11 0.354128 0.812780 0.014722
O O12 0.853583 0.062383 0.325455
O O13 0.000000 0.000000 0.500000
O O14 0.613615 0.048558 0.165146
O O15 0.887581 0.995510 0.074852
O O16 0.473904 0.171498 0.793077
O O17 0.500000 0.000000 0.500000
#
# Coordination Sequence:
#
# PCOD9062288 Si02
#       8
#     2   2   2   2   2   2   2   2
#     4  12  28  55  77 121 171 214 271 334 414 493
#     4  11  23  49  74 114 155 209 280 331 400 478
#     4  11  23  49  78 114 164 210 274 342 399 480
#     4  12  27  50  81 116 159 212 275 340 401 482
#     4  12  27  50  82 121 166 218 268 334 410 489
#     4  11  25  50  76 113 165 215 270 327 405 490
#     4  12  27  49  86 120 166 216 273 339 413 481
#     4  11  25  42  76 115 159 209 271 339 403 470
#
# _framework density 25.613014
#
# number of rings (size 3 to 8) (size 9 to 14) (size 15 to 20)
#    0.000    0.500    3.750    4.875    5.250    3.500 
#    4.500    1.250    0.000    0.000    0.000    0.000 
#    0.000    0.000    0.000    0.000    0.000    0.000 
#
# Total GULP energy -89758.291791 kJ/mol
# GULP energy per Si atom -5609.893237 kJ/mol
# Density = 2.555472 g / cm^3
# Si number density = 25.613014 Si / 1000 Ang^3
#
#
#
# Elastic Constant Matrix: (Units=GPa)
#
#
# Indices 1 2 3 4 5 6 
#
# 1 163.9152 58.5169 61.3963 4.4088 -1.9552 -38.0653
# 2 58.5169 159.2465 62.6046 -0.4762 -2.9875 -29.6149
# 3 61.3963 62.6046 97.9552 2.1264 -11.5653 -7.6943
# 4 4.4088 -0.4762 2.1264 52.6165 -14.4864 -10.6619
# 5 -1.9552 -2.9875 -11.5653 -14.4864 36.0482 8.1126
# 6 -38.0653 -29.6149 -7.6943 -10.6619 8.1126 44.7951
#
#
#
# Elastic Compliance Matrix: (Units=1/GPa)
#
#
# Indices 1 2 3 4 5 6 
#
# 1 0.010315 0.000208 -0.006325 0.000206 -0.003273 0.008459
# 2 0.000208 0.009727 -0.006137 0.000979 -0.002148 0.006175
# 3 -0.006325 -0.006137 0.018300 0.000071 0.006734 -0.007491
# 4 0.000206 0.000979 0.000071 0.022130 0.007959 0.004660
# 5 -0.003273 -0.002148 0.006734 0.007959 0.034405 -0.007382
# 6 0.008459 0.006175 -0.007491 0.004660 -0.007382 0.034754
#
#
# Mechanical properties :
#
#
# Convention : Reuss Voigt Hill
#
# Bulk Modulus (GPa) = 72.27931 87.35030 79.81481
# Shear Modulus (GPa) = 31.49611 42.59855 37.04733
#
# Velocity S-wave (km/s) = 3.51050 4.08261 3.80732
# Velocity P-wave (km/s) = 6.68674 7.51009 7.11035
#
# Compressibility (1/GPa) = 0.01383522
#
# Stress axis : x y z
#
# Youngs Moduli (GPa) = 96.94443 102.81058 54.64361
#
# Poissons Ratio (x) = -0.02143 0.34562
# Poissons Ratio (y) = -0.02020 0.33534
# Poissons Ratio (z) = 0.61318 0.63093
#
# Static dielectric constant tensor:
#      x y z
#    x 1.980190 0.057740 -0.059280 
#    y 0.057740 2.019120 0.013020 
#    z -0.059280 0.013020 2.067630 
# 
# From -- ./inp_files/216470.got.cif
#   From: 2010.05.17/outbox.cif.g08.bks.cpg/sg2_109_cif.got.tgz:216470.got - 2010.06.03 11:33:40.
