data_PCOD9062759
_publ_section_title
;
Structure prediction by ZEFSAII (Michael W. Deem and Ramdas Pophale) SiO2 
 PCOD9062759
Probable space group: P -1
;
_chemical_formula_sum "Si O2"
_cell_formula_units_Z 14
_cell_length_a 13.909988
_cell_length_b 13.681313
_cell_length_c 5.278832
_cell_angle_alpha 88.029385
_cell_angle_beta 82.556596
_cell_angle_gamma 147.430930
_cell_volume 516.475660
_symmetry_space_group_name_H-M "P -1"
_symmetry_group_IT_number 2
_symmetry_cell_setting 'triclinic'
loop_
_space_group_symop_operation_xyz
x,y,z
-x,-y,-z
loop_
_atom_site_type_symbol
_atom_site_label
_atom_site_fract_x
_atom_site_fract_y
_atom_site_fract_z
Si Si1 0.406313 0.838718 0.869522
Si Si2 0.890974 0.501906 0.623826
Si Si3 0.674172 0.901022 0.580257
Si Si4 0.409073 0.393587 0.322919
Si Si5 0.021279 0.268944 0.720364
Si Si6 0.785570 0.148821 0.204389
Si Si7 0.174789 0.225416 0.969169
O O1 0.549719 0.881135 0.735893
O O2 0.316439 0.836849 0.701466
O O3 0.248851 0.650058 0.100142
O O4 0.500000 0.000000 0.000000
O O5 0.000000 0.500000 0.500000
O O6 0.048948 0.707661 0.665722
O O7 0.812573 0.515279 0.455558
O O8 0.585201 0.719436 0.651585
O O9 0.691279 0.961604 0.285485
O O10 0.874031 0.072895 0.638296
O O11 0.646471 0.632632 0.335361
O O12 0.500000 0.500000 0.000000
O O13 0.209136 0.250899 0.261170
O O14 0.885411 0.234389 0.894919
O O15 0.108257 0.274926 0.904547
O O16 0.000000 0.000000 0.000000
#
# Coordination Sequence:
#
# PCOD9062759 Si02
#       7
#     2   2   2   2   2   2   2
#     4  12  23  44  69 103 150 192 243 309 369 440
#     4  11  24  43  69 101 146 195 249 298 362 453
#     4  11  25  45  72 108 148 195 249 308 379 451
#     4  11  28  50  76 115 148 194 258 318 386 454
#     4  11  24  47  72 108 141 199 250 301 382 448
#     4  11  24  42  70 103 148 192 242 299 374 450
#     4  11  26  50  79 105 152 193 256 321 381 452
#
# _framework density 27.106795000000002
#
# number of rings (size 3 to 8) (size 9 to 14) (size 15 to 20)
#    0.000    0.857    4.286    1.714    4.000    4.000 
#    2.571    0.000    0.000    0.000    0.000    0.000 
#    0.000    0.000    0.000    0.000    0.000    0.000 
#
# Total GULP energy -77943.918640 kJ/mol
# GULP energy per Si atom -5567.422760 kJ/mol
# Density = 2.704510 g / cm^3
# Si number density = 27.106795 Si / 1000 Ang^3
#
#
#
# Elastic Constant Matrix: (Units=GPa)
#
#
# Indices 1 2 3 4 5 6 
#
# 1 164.7311 29.1849 62.2222 -15.9261 26.1780 -15.8783
# 2 29.1849 102.4657 68.6165 3.9336 15.6294 -13.0097
# 3 62.2222 68.6165 147.9054 -12.5619 29.8813 -4.7013
# 4 -15.9261 3.9336 -12.5619 57.1087 -6.2579 9.8192
# 5 26.1780 15.6294 29.8813 -6.2579 70.3279 -19.4876
# 6 -15.8783 -13.0097 -4.7013 9.8192 -19.4876 43.7833
#
#
#
# Elastic Compliance Matrix: (Units=1/GPa)
#
#
# Indices 1 2 3 4 5 6 
#
# 1 0.007578 0.000119 -0.002888 0.001051 -0.001034 0.001778
# 2 0.000119 0.015366 -0.007470 -0.003430 0.000773 0.004920
# 3 -0.002888 -0.007470 0.012218 0.002728 -0.003336 -0.004052
# 4 0.001051 -0.003430 0.002728 0.019435 -0.000413 -0.004887
# 5 -0.001034 0.000773 -0.003336 -0.000413 0.017908 0.007560
# 6 0.001778 0.004920 -0.004052 -0.004887 0.007560 0.028972
#
#
# Mechanical properties :
#
#
# Convention : Reuss Voigt Hill
#
# Bulk Modulus (GPa) = 68.10210 81.68326 74.89268
# Shear Modulus (GPa) = 39.41670 51.24921 45.33295
#
# Velocity S-wave (km/s) = 3.81744 4.35287 4.09392
# Velocity P-wave (km/s) = 6.67897 7.44732 7.07358
#
# Compressibility (1/GPa) = 0.01468383
#
# Stress axis : x y z
#
# Youngs Moduli (GPa) = 131.96732 65.07852 81.84327
#
# Poissons Ratio (x) = -0.00774 0.23640
# Poissons Ratio (y) = -0.01570 0.61134
# Poissons Ratio (z) = 0.38118 0.48612
#
# Static dielectric constant tensor:
#      x y z
#    x 3.753040 2.047640 -1.788500 
#    y 2.047640 4.218600 -1.752650 
#    z -1.788500 -1.752650 3.132700 
# 
# From -- ./inp_files/97773.got.cif
#   From: 2010.05.17/outbox.cif.g08.bks.cpg/sg2_49_cif.got.tgz:97773.got - 2010.06.03 11:33:40.
