data_PCOD9062132
_publ_section_title
;
Structure prediction by ZEFSAII (Michael W. Deem and Ramdas Pophale) SiO2 
 PCOD9062132
Probable space group: P -1
;
_chemical_formula_sum "Si O2"
_cell_formula_units_Z 16
_cell_length_a 15.850563
_cell_length_b 18.677487
_cell_length_c 9.158126
_cell_angle_alpha 150.129481
_cell_angle_beta 36.204395
_cell_angle_gamma 143.199858
_cell_volume 749.095194
_symmetry_space_group_name_H-M "P -1"
_symmetry_group_IT_number 2
_symmetry_cell_setting 'triclinic'
loop_
_space_group_symop_operation_xyz
x,y,z
-x,-y,-z
loop_
_atom_site_type_symbol
_atom_site_label
_atom_site_fract_x
_atom_site_fract_y
_atom_site_fract_z
Si Si1 0.963127 0.080094 0.337264
Si Si2 0.261418 0.248015 0.660106
Si Si3 0.820161 0.000876 0.921422
Si Si4 0.943896 0.592871 0.120880
Si Si5 0.957849 0.325756 0.190622
Si Si6 0.449586 0.126718 0.718696
Si Si7 0.382997 0.055650 0.358383
Si Si8 0.625194 0.464360 0.169013
O O1 0.060831 0.258501 0.524363
O O2 0.786301 0.063646 0.576307
O O3 0.015771 0.006156 0.273442
O O4 0.000000 0.000000 0.000000
O O5 0.338529 0.189920 0.580663
O O6 0.359253 0.419061 0.778921
O O7 0.244762 0.119661 0.331193
O O8 0.101765 0.275699 0.938224
O O9 0.829067 0.173309 0.168847
O O10 0.719757 0.923493 0.065948
O O11 0.782091 0.503540 0.111053
O O12 0.052288 0.655957 0.938378
O O13 0.000000 0.500000 0.000000
O O14 0.000000 0.500000 0.500000
O O15 0.455263 0.112108 0.512959
O O16 0.500000 0.000000 0.500000
O O17 0.558111 0.290909 0.908070
O O18 0.500000 0.000000 0.000000
O O19 0.500000 0.500000 0.500000
#
# Coordination Sequence:
#
# PCOD9062132 Si02
#       8
#     2   2   2   2   2   2   2   2
#     4  12  24  45  80 110 142 198 261 310 375 458
#     4  11  23  47  75 100 149 196 244 318 379 445
#     4  12  22  48  75 104 145 202 255 308 376 455
#     4  11  27  45  73 109 150 193 248 325 376 447
#     4  11  25  42  71 111 147 191 252 315 377 444
#     4  12  28  46  75 104 152 204 248 308 384 467
#     4  12  28  46  73 117 152 195 254 317 387 459
#     4  11  24  48  72 104 144 197 254 303 388 446
#
# _framework density 21.359100000000002
#
# number of rings (size 3 to 8) (size 9 to 14) (size 15 to 20)
#    0.000    0.500    6.250    1.875    7.000    0.500 
#    0.000    0.000    0.000    0.000    0.000    0.000 
#    0.000    0.000    0.000    0.000    0.000    0.000 
#
# Total GULP energy -89230.435323 kJ/mol
# GULP energy per Si atom -5576.902208 kJ/mol
# Density = 2.131049 g / cm^3
# Si number density = 21.359100 Si / 1000 Ang^3
#
#
#
# Elastic Constant Matrix: (Units=GPa)
#
#
# Indices 1 2 3 4 5 6 
#
# 1 164.3722 54.2052 68.5921 22.3562 2.1223 -22.5110
# 2 54.2052 122.0174 63.6490 27.2480 10.6795 -9.6424
# 3 68.5921 63.6490 145.2135 25.9117 18.0251 -11.5943
# 4 22.3562 27.2480 25.9117 53.4625 3.5476 -9.5344
# 5 2.1223 10.6795 18.0251 3.5476 39.6177 11.3509
# 6 -22.5110 -9.6424 -11.5943 -9.5344 11.3509 38.8625
#
#
#
# Elastic Compliance Matrix: (Units=1/GPa)
#
#
# Indices 1 2 3 4 5 6 
#
# 1 0.008419 -0.001909 -0.002825 -0.000626 0.000468 0.003270
# 2 -0.001909 0.011736 -0.003457 -0.003365 -0.001280 0.000323
# 3 -0.002825 -0.003457 0.010654 -0.001695 -0.004026 0.001444
# 4 -0.000626 -0.003365 -0.001695 0.022355 -0.001498 0.004219
# 5 0.000468 -0.001280 -0.004026 -0.001498 0.030546 -0.010537
# 6 0.003270 0.000323 0.001444 0.004219 -0.010537 0.032249
#
#
# Mechanical properties :
#
#
# Convention : Reuss Voigt Hill
#
# Bulk Modulus (GPa) = 69.32062 89.38843 79.35452
# Shear Modulus (GPa) = 36.45602 42.73232 39.59417
#
# Velocity S-wave (km/s) = 4.13584 4.47773 4.31018
# Velocity P-wave (km/s) = 7.43856 8.28701 7.87422
#
# Compressibility (1/GPa) = 0.01442572
#
# Stress axis : x y z
#
# Youngs Moduli (GPa) = 118.77491 85.20762 93.86229
#
# Poissons Ratio (x) = 0.16267 0.26520
# Poissons Ratio (y) = 0.22675 0.32450
# Poissons Ratio (z) = 0.33559 0.29458
#
# Static dielectric constant tensor:
#      x y z
#    x 1.775010 0.057240 0.009460 
#    y 0.057240 1.913980 -0.056580 
#    z 0.009460 -0.056580 1.796210 
# 
# From -- ./inp_files/318198.got.cif
#   From: 2010.05.17/outbox.cif.g08.bks.cpg/sg2_160_cif.got.tgz:318198.got - 2010.06.03 11:33:40.
