data_PCOD9062408
_publ_section_title
;
Structure prediction by ZEFSAII (Michael W. Deem and Ramdas Pophale) SiO2 
 PCOD9062408
Probable space group: P -1
;
_chemical_formula_sum "Si O2"
_cell_formula_units_Z 16
_cell_length_a 11.739584
_cell_length_b 9.410139
_cell_length_c 13.436781
_cell_angle_alpha 129.136419
_cell_angle_beta 49.353152
_cell_angle_gamma 101.953457
_cell_volume 819.398990
_symmetry_space_group_name_H-M "P -1"
_symmetry_group_IT_number 2
_symmetry_cell_setting 'triclinic'
loop_
_space_group_symop_operation_xyz
x,y,z
-x,-y,-z
loop_
_atom_site_type_symbol
_atom_site_label
_atom_site_fract_x
_atom_site_fract_y
_atom_site_fract_z
Si Si1 0.425482 0.733822 0.667165
Si Si2 0.930233 0.555605 0.170514
Si Si3 0.980423 0.704676 0.651138
Si Si4 0.092589 0.775771 0.825687
Si Si5 0.173760 0.854831 0.459355
Si Si6 0.848396 0.232491 0.786060
Si Si7 0.350983 0.928773 0.018179
Si Si8 0.394594 0.073023 0.492187
O O1 0.500000 0.500000 0.500000
O O2 0.267104 0.780218 0.712393
O O3 0.391418 0.809153 0.835867
O O4 0.518028 0.860732 0.618611
O O5 0.896133 0.374620 0.158745
O O6 0.767748 0.737570 0.325256
O O7 0.073214 0.603390 0.165551
O O8 0.000000 0.500000 0.000000
O O9 0.000000 0.500000 0.500000
O O10 0.020255 0.696292 0.740370
O O11 0.119429 0.757062 0.539152
O O12 0.805755 0.872536 0.813411
O O13 0.000000 0.000000 0.000000
O O14 0.207052 0.747518 0.287418
O O15 0.327020 0.907026 0.423535
O O16 0.010397 0.041524 0.618895
O O17 0.714929 0.198411 0.920972
O O18 0.500000 0.000000 0.000000
O O19 0.500000 0.000000 0.500000
#
# Coordination Sequence:
#
# PCOD9062408 Si02
#       8
#     2   2   2   2   2   2   2   2
#     4  12  25  43  67 100 138 178 223 274 341 399
#     4  11  24  40  67  95 129 173 222 268 332 398
#     4  11  24  41  68  96 130 177 226 272 333 402
#     4  12  25  44  69  97 136 179 227 278 326 402
#     4   9  19  39  63  92 125 169 215 267 327 390
#     4   9  19  38  65  90 126 167 217 267 324 395
#     4  11  24  42  66  98 134 174 220 279 340 398
#     4  11  24  41  65  96 133 171 214 276 336 393
#
# _framework density 19.526508
#
# number of rings (size 3 to 8) (size 9 to 14) (size 15 to 20)
#    0.000    1.250    2.500    3.000    7.000    2.000 
#    0.000    0.000    0.000    3.000    0.000    0.000 
#    0.000    0.000    0.000    0.000    0.000    0.000 
#
# Total GULP energy -89069.624732 kJ/mol
# GULP energy per Si atom -5566.851546 kJ/mol
# Density = 1.948207 g / cm^3
# Si number density = 19.526508 Si / 1000 Ang^3
#
#
#
# Elastic Constant Matrix: (Units=GPa)
#
#
# Indices 1 2 3 4 5 6 
#
# 1 129.3807 32.3913 52.2671 -1.2313 4.1765 12.9847
# 2 32.3913 77.9935 38.6390 -9.0187 1.8057 13.4516
# 3 52.2671 38.6390 112.9571 -4.6898 10.6139 3.9227
# 4 -1.2313 -9.0187 -4.6898 41.0989 5.4847 -1.4808
# 5 4.1765 1.8057 10.6139 5.4847 36.8442 -5.4679
# 6 12.9847 13.4516 3.9227 -1.4808 -5.4679 34.7792
#
#
#
# Elastic Compliance Matrix: (Units=1/GPa)
#
#
# Indices 1 2 3 4 5 6 
#
# 1 0.010045 -0.001830 -0.003935 -0.000616 -0.000218 -0.002659
# 2 -0.001830 0.017192 -0.004668 0.003064 -0.000547 -0.005395
# 3 -0.003935 -0.004668 0.012515 0.000715 -0.002822 0.001450
# 4 -0.000616 0.003064 0.000715 0.025604 -0.004187 -0.000604
# 5 -0.000218 -0.000547 -0.002822 -0.004187 0.029379 0.005052
# 6 -0.002659 -0.005395 0.001450 -0.000604 0.005052 0.032437
#
#
# Mechanical properties :
#
#
# Convention : Reuss Voigt Hill
#
# Bulk Modulus (GPa) = 52.94934 62.99179 57.97056
# Shear Modulus (GPa) = 32.39774 35.68006 34.03890
#
# Velocity S-wave (km/s) = 4.07771 4.27929 4.17971
# Velocity P-wave (km/s) = 7.02465 7.53300 7.28326
#
# Compressibility (1/GPa) = 0.01888598
#
# Stress axis : x y z
#
# Youngs Moduli (GPa) = 99.55335 58.16800 79.90562
#
# Poissons Ratio (x) = 0.10645 0.31440
# Poissons Ratio (y) = 0.18218 0.37300
# Poissons Ratio (z) = 0.39171 0.27153
#
# Static dielectric constant tensor:
#      x y z
#    x 1.649180 0.017150 -0.012320 
#    y 0.017150 1.666540 0.001760 
#    z -0.012320 0.001760 1.688500 
# 
# From -- ./inp_files/419671.got.cif
#   From: 2010.05.17/outbox.cif.g08.bks.cpg/sg2_210_cif.got.tgz:419671.got - 2010.06.03 11:33:40.
