data_PCOD9062254
_publ_section_title
;
Structure prediction by ZEFSAII (Michael W. Deem and Ramdas Pophale) SiO2 
 PCOD9062254
Probable space group: P -1
;
_chemical_formula_sum "Si O2"
_cell_formula_units_Z 12
_cell_length_a 11.363511
_cell_length_b 7.954668
_cell_length_c 8.672024
_cell_angle_alpha 54.419158
_cell_angle_beta 62.074529
_cell_angle_gamma 43.347633
_cell_volume 436.181429
_symmetry_space_group_name_H-M "P -1"
_symmetry_group_IT_number 2
_symmetry_cell_setting 'triclinic'
loop_
_space_group_symop_operation_xyz
x,y,z
-x,-y,-z
loop_
_atom_site_type_symbol
_atom_site_label
_atom_site_fract_x
_atom_site_fract_y
_atom_site_fract_z
Si Si1 0.388657 0.426948 0.531433
Si Si2 0.490447 0.105080 0.117738
Si Si3 0.813721 0.642292 0.653057
Si Si4 0.985762 0.321234 0.228246
Si Si5 0.369360 0.855711 0.715428
Si Si6 0.020818 0.038021 0.789823
O O1 0.500000 0.500000 0.500000
O O2 0.200494 0.562062 0.646542
O O3 0.491044 0.121907 0.676446
O O4 0.444233 0.389940 0.336356
O O5 0.305218 0.362854 0.146419
O O6 0.622613 0.125384 0.114244
O O7 0.500000 0.000000 0.000000
O O8 0.899830 0.723582 0.673115
O O9 0.287681 0.147690 0.537475
O O10 0.941320 0.345157 0.666428
O O11 0.051844 0.055092 0.237358
O O12 0.000000 0.500000 0.000000
O O13 0.227006 0.839080 0.750612
O O14 0.000000 0.000000 0.000000
#
# Coordination Sequence:
#
# PCOD9062254 Si02
#       6
#     2   2   2   2   2   2
#     4  11  23  48  78 112 155 197 255 319 382 459
#     4  11  26  49  78 107 154 206 254 322 395 455
#     4  11  25  48  75 115 156 199 257 327 386 453
#     4  12  25  48  82 115 160 204 260 321 384 466
#     4  11  26  52  75 111 159 200 258 327 386 458
#     4  12  26  46  79 115 155 205 259 317 389 459
#
# _framework density 27.511489000000001
#
# number of rings (size 3 to 8) (size 9 to 14) (size 15 to 20)
#    0.000    0.667    3.333    4.500    2.333    2.000 
#   12.000    1.667    0.000    0.000    0.000    0.000 
#    0.000    0.000    0.000    0.000    0.000    0.000 
#
# Total GULP energy -67021.316663 kJ/mol
# GULP energy per Si atom -5585.109722 kJ/mol
# Density = 2.744887 g / cm^3
# Si number density = 27.511489 Si / 1000 Ang^3
#
#
#
# Elastic Constant Matrix: (Units=GPa)
#
#
# Indices 1 2 3 4 5 6 
#
# 1 213.3475 65.7305 57.3078 13.8227 33.0846 23.6202
# 2 65.7305 118.8013 50.6525 33.2965 7.6843 11.8005
# 3 57.3078 50.6525 132.1310 24.0769 32.1057 1.5872
# 4 13.8227 33.2965 24.0769 49.6052 13.9752 -9.0737
# 5 33.0846 7.6843 32.1057 13.9752 54.4330 17.0054
# 6 23.6202 11.8005 1.5872 -9.0737 17.0054 56.6851
#
#
#
# Elastic Compliance Matrix: (Units=1/GPa)
#
#
# Indices 1 2 3 4 5 6 
#
# 1 0.006437 -0.003272 -0.001104 0.001621 -0.002958 -0.000823
# 2 -0.003272 0.014732 -0.003919 -0.009776 0.006309 -0.005051
# 3 -0.001104 -0.003919 0.011033 -0.000193 -0.006098 0.002766
# 4 0.001621 -0.009776 -0.000193 0.031025 -0.010411 0.009454
# 5 -0.002958 0.006309 -0.006098 -0.010411 0.028733 -0.010196
# 6 -0.000823 -0.005051 0.002766 0.009454 -0.010196 0.023531
#
#
# Mechanical properties :
#
#
# Convention : Reuss Voigt Hill
#
# Bulk Modulus (GPa) = 64.05602 90.18459 77.12030
# Shear Modulus (GPa) = 36.42024 51.51726 43.96875
#
# Velocity S-wave (km/s) = 3.64238 4.33202 4.00208
# Velocity P-wave (km/s) = 6.40493 7.60748 7.03196
#
# Compressibility (1/GPa) = 0.01561134
#
# Stress axis : x y z
#
# Youngs Moduli (GPa) = 155.36127 67.87789 90.63508
#
# Poissons Ratio (x) = 0.22208 0.10008
# Poissons Ratio (y) = 0.50831 0.35524
# Poissons Ratio (z) = 0.17155 0.26604
#
# Static dielectric constant tensor:
#      x y z
#    x 2.222480 -0.093240 -0.091630 
#    y -0.093240 2.296190 0.154410 
#    z -0.091630 0.154410 2.301890 
# 
# From -- ./inp_files/242398.got.cif
#   From: 2010.05.17/outbox.cif.g08.bks.cpg/sg2_122_cif.got.tgz:242398.got - 2010.06.03 11:33:40.
