data_PCOD9062361
_publ_section_title
;
Structure prediction by ZEFSAII (Michael W. Deem and Ramdas Pophale) SiO2 
 PCOD9062361
Probable space group: P -1
;
_chemical_formula_sum "Si O2"
_cell_formula_units_Z 16
_cell_length_a 9.374747
_cell_length_b 7.885760
_cell_length_c 15.520293
_cell_angle_alpha 108.262741
_cell_angle_beta 54.525417
_cell_angle_gamma 68.816795
_cell_volume 631.564597
_symmetry_space_group_name_H-M "P -1"
_symmetry_group_IT_number 2
_symmetry_cell_setting 'triclinic'
loop_
_space_group_symop_operation_xyz
x,y,z
-x,-y,-z
loop_
_atom_site_type_symbol
_atom_site_label
_atom_site_fract_x
_atom_site_fract_y
_atom_site_fract_z
Si Si1 0.915510 0.619121 0.193293
Si Si2 0.663727 0.664712 0.858355
Si Si3 0.318610 0.898094 0.183210
Si Si4 0.876892 0.314962 0.320218
Si Si5 0.807477 0.076090 0.004924
Si Si6 0.007841 0.860264 0.396527
Si Si7 0.390748 0.841778 0.537777
Si Si8 0.712154 0.538121 0.110112
O O1 0.792759 0.538333 0.176353
O O2 0.108782 0.435611 0.172813
O O3 0.722543 0.911814 0.331146
O O4 0.069205 0.590844 0.054970
O O5 0.427137 0.895236 0.916643
O O6 0.832577 0.430157 0.695925
O O7 0.485034 0.738663 0.015782
O O8 0.156922 0.843125 0.260747
O O9 0.488917 0.810289 0.191645
O O10 0.115211 0.191178 0.275783
O O11 0.679641 0.606796 0.411544
O O12 0.722189 0.269874 0.414959
O O13 0.005965 0.118375 0.165368
O O14 0.655929 0.369690 0.096067
O O15 0.000000 0.000000 0.000000
O O16 0.000000 0.000000 0.500000
O O17 0.727415 0.035280 0.494174
#
# Coordination Sequence:
#
# PCOD9062361 Si02
#       8
#     2   2   2   2   2   2   2   2
#     4   9  18  32  56  79  99 139 170 224 255 306
#     4   9  18  33  52  75 100 135 178 211 260 305
#     4   9  17  31  52  72  99 138 172 216 253 302
#     4   9  18  30  49  75 101 136 166 210 263 304
#     4  11  21  31  52  78 103 134 172 224 258 301
#     4  10  18  26  48  76 102 130 170 220 252 300
#     4   9  17  31  48  72 109 132 164 207 264 312
#     4  10  18  32  54  80 104 126 186 218 255 303
#
# _framework density 25.333911000000001
#
# number of rings (size 3 to 8) (size 9 to 14) (size 15 to 20)
#    0.000    2.500    2.500    0.375    5.250    0.000 
#    0.000    1.250    0.000    6.750    0.000    0.000 
#    0.000    0.000    0.000    0.000    0.000    0.000 
#
# Total GULP energy -89081.522360 kJ/mol
# GULP energy per Si atom -5567.595147 kJ/mol
# Density = 2.527625 g / cm^3
# Si number density = 25.333911 Si / 1000 Ang^3
#
#
#
# Elastic Constant Matrix: (Units=GPa)
#
#
# Indices 1 2 3 4 5 6 
#
# 1 126.7490 32.0488 62.4124 17.1154 -13.2111 -40.6731
# 2 32.0488 81.4925 40.7364 38.2111 -6.6375 -29.1840
# 3 62.4124 40.7364 128.3536 38.7331 -21.0642 -26.4672
# 4 17.1154 38.2111 38.7331 43.9753 -7.5870 -7.8086
# 5 -13.2111 -6.6375 -21.0642 -7.5870 48.5864 11.6933
# 6 -40.6731 -29.1840 -26.4672 -7.8086 11.6933 47.7879
#
#
#
# Elastic Compliance Matrix: (Units=1/GPa)
#
#
# Indices 1 2 3 4 5 6 
#
# 1 0.012823 0.000108 -0.004751 0.000528 -0.000537 0.008567
# 2 0.000108 0.027091 0.000372 -0.021929 -0.002894 0.013968
# 3 -0.004751 0.000372 0.013708 -0.009799 0.002814 0.001486
# 4 0.000528 -0.021929 -0.009799 0.048788 0.003210 -0.011183
# 5 -0.000537 -0.002894 0.002814 0.003210 0.023160 -0.005809
# 6 0.008567 0.013968 0.001486 -0.011183 -0.005809 0.037165
#
#
# Mechanical properties :
#
#
# Convention : Reuss Voigt Hill
#
# Bulk Modulus (GPa) = 22.18168 67.44338 44.81253
# Shear Modulus (GPa) = 26.83796 41.49640 34.16718
#
# Velocity S-wave (km/s) = 3.25833 4.05159 3.67641
# Velocity P-wave (km/s) = 4.78856 6.96898 5.97901
#
# Compressibility (1/GPa) = 0.04508224
#
# Stress axis : x y z
#
# Youngs Moduli (GPa) = 77.98326 36.91225 72.94838
#
# Poissons Ratio (x) = -0.00400 0.34656
# Poissons Ratio (y) = -0.00846 -0.02713
# Poissons Ratio (z) = 0.37047 -0.01373
#
# Static dielectric constant tensor:
#      x y z
#    x 2.211120 0.101820 -0.056400 
#    y 0.101820 2.171860 0.033200 
#    z -0.056400 0.033200 1.966990 
# 
# From -- ./inp_files/332404.got.cif
#   From: 2010.05.17/outbox.cif.g08.bks.cpg/sg2_167_cif.got.tgz:332404.got - 2010.06.03 11:33:40.
