data_PCOD9062178
_publ_section_title
;
Structure prediction by ZEFSAII (Michael W. Deem and Ramdas Pophale) SiO2 
 PCOD9062178
Probable space group: P -1
;
_chemical_formula_sum "Si O2"
_cell_formula_units_Z 16
_cell_length_a 9.995248
_cell_length_b 13.912116
_cell_length_c 25.017073
_cell_angle_alpha 18.344419
_cell_angle_beta 39.141471
_cell_angle_gamma 41.850601
_cell_volume 690.452768
_symmetry_space_group_name_H-M "P -1"
_symmetry_group_IT_number 2
_symmetry_cell_setting 'triclinic'
loop_
_space_group_symop_operation_xyz
x,y,z
-x,-y,-z
loop_
_atom_site_type_symbol
_atom_site_label
_atom_site_fract_x
_atom_site_fract_y
_atom_site_fract_z
Si Si1 0.011976 0.243322 0.416686
Si Si2 0.954073 0.096523 0.890058
Si Si3 0.259302 0.070041 0.526729
Si Si4 0.303009 0.733047 0.923894
Si Si5 0.863117 0.359356 0.665251
Si Si6 0.519924 0.110992 0.827512
Si Si7 0.444843 0.685490 0.471535
Si Si8 0.112616 0.332445 0.103909
O O1 0.998311 0.617612 0.235943
O O2 0.784371 0.170838 0.548790
O O3 0.000000 0.000000 0.500000
O O4 0.218470 0.148721 0.436131
O O5 0.289198 0.986426 0.979163
O O6 0.966452 0.178683 0.779228
O O7 0.141968 0.827953 0.972923
O O8 0.079032 0.842147 0.718006
O O9 0.500000 0.000000 0.500000
O O10 0.216673 0.349300 0.431478
O O11 0.406176 0.040173 0.710009
O O12 0.500000 0.500000 0.000000
O O13 0.183067 0.576190 0.996106
O O14 0.670419 0.179269 0.795163
O O15 0.000000 0.500000 0.500000
O O16 0.464469 0.436455 0.644009
O O17 0.680023 0.884439 0.862629
O O18 0.500000 0.500000 0.500000
O O19 0.000000 0.500000 0.000000
#
# Coordination Sequence:
#
# PCOD9062178 Si02
#       8
#     2   2   2   2   2   2   2   2
#     4  11  27  49  78 112 157 201 267 322 394 461
#     4  11  27  49  76 118 158 201 267 331 392 481
#     4  11  27  48  76 112 157 201 262 322 388 471
#     4  12  27  49  79 110 159 205 265 329 401 466
#     4  11  23  47  81 107 150 208 260 315 397 472
#     4  12  27  47  79 111 158 209 263 326 405 469
#     4  12  26  50  78 107 152 211 266 322 394 477
#     4  12  29  47  74 119 159 203 264 323 398 469
#
# _framework density 23.173200000000001
#
# number of rings (size 3 to 8) (size 9 to 14) (size 15 to 20)
#    0.000    0.500    2.500    4.125   10.500    1.500 
#    2.250    0.000    0.000    0.000    0.000    0.000 
#    0.000    0.000    0.000    0.000    0.000    0.000 
#
# Total GULP energy -89235.533166 kJ/mol
# GULP energy per Si atom -5577.220823 kJ/mol
# Density = 2.312046 g / cm^3
# Si number density = 23.173200 Si / 1000 Ang^3
#
#
#
# Elastic Constant Matrix: (Units=GPa)
#
#
# Indices 1 2 3 4 5 6 
#
# 1 81.7026 170.7068 21.4179 -46.3152 -22.6153 -5.0625
# 2 170.7068 42.1048 104.9025 22.8494 -25.9056 -8.1367
# 3 21.4179 104.9025 96.4079 -22.4861 -36.0559 -6.3783
# 4 -46.3152 22.8494 -22.4861 24.3205 5.5914 -17.2325
# 5 -22.6153 -25.9056 -36.0559 5.5914 60.5468 -4.4097
# 6 -5.0625 -8.1367 -6.3783 -17.2325 -4.4097 53.7423
#
#
#
# Elastic Compliance Matrix: (Units=1/GPa)
#
#
# Indices 1 2 3 4 5 6 
#
# 1 0.003219 0.003919 -0.006167 -0.003945 -0.000512 -0.001142
# 2 0.003919 0.001098 0.001351 0.010109 0.002104 0.004110
# 3 -0.006167 0.001351 0.011598 -0.003271 0.005513 0.000404
# 4 -0.003945 0.010109 -0.003271 0.028207 -0.000992 0.009734
# 5 -0.000512 0.002104 0.005513 -0.000992 0.020768 0.002310
# 6 -0.001142 0.004110 0.000404 0.009734 0.002310 0.022481
#
#
# Mechanical properties :
#
#
# Convention : Reuss Voigt Hill
#
# Bulk Modulus (GPa) = 70.81329 90.47440 80.64385
# Shear Modulus (GPa) = 53.26441 22.60113 37.93277
#
# Velocity S-wave (km/s) = 4.79950 3.12639 4.05028
# Velocity P-wave (km/s) = 7.83188 7.22218 7.53320
#
# Compressibility (1/GPa) = 0.01412164
#
# Stress axis : x y z
#
# Youngs Moduli (GPa) = 310.66993 910.62225 86.22229
#
# Poissons Ratio (x) = -3.56871 0.53171
# Poissons Ratio (y) = -1.21751 -0.11649
# Poissons Ratio (z) = 1.91580 -1.23030
#
# Static dielectric constant tensor:
#      x y z
#    x 1.907030 -0.039010 0.169100 
#    y -0.039010 1.816790 -0.037690 
#    z 0.169100 -0.037690 1.990250 
# 
# From -- ./inp_files/617236.got.cif
#   From: 2010.05.17/outbox.cif.g08.bks.cpg/sg2_309_cif.got.tgz:617236.got - 2010.06.03 11:33:40.
