data_PCOD9062915
_publ_section_title
;
Structure prediction by ZEFSAII (Michael W. Deem and Ramdas Pophale) SiO2 
 PCOD9062915
Probable space group: P -1
;
_chemical_formula_sum "Si O2"
_cell_formula_units_Z 16
_cell_length_a 9.323135
_cell_length_b 17.795888
_cell_length_c 5.809596
_cell_angle_alpha 118.719033
_cell_angle_beta 122.248841
_cell_angle_gamma 71.450583
_cell_volume 712.439107
_symmetry_space_group_name_H-M "P -1"
_symmetry_group_IT_number 2
_symmetry_cell_setting 'triclinic'
loop_
_space_group_symop_operation_xyz
x,y,z
-x,-y,-z
loop_
_atom_site_type_symbol
_atom_site_label
_atom_site_fract_x
_atom_site_fract_y
_atom_site_fract_z
Si Si1 0.460032 0.046857 0.783006
Si Si2 0.733245 0.336700 0.704320
Si Si3 0.034520 0.771318 0.927176
Si Si4 0.930989 0.910373 0.386416
Si Si5 0.074853 0.385159 0.631826
Si Si6 0.581790 0.581857 0.288647
Si Si7 0.748390 0.175061 0.173757
Si Si8 0.795334 0.502869 0.718399
O O1 0.257422 0.074114 0.647949
O O2 0.500000 0.000000 0.500000
O O3 0.586791 0.122617 0.999251
O O4 0.500000 0.000000 0.000000
O O5 0.565268 0.341898 0.724880
O O6 0.711689 0.270264 0.383698
O O7 0.753533 0.430580 0.758216
O O8 0.894609 0.299553 0.932758
O O9 0.193484 0.816994 0.027846
O O10 0.958409 0.713775 0.578258
O O11 0.918644 0.844722 0.064654
O O12 0.082036 0.868349 0.617415
O O13 0.000000 0.000000 0.500000
O O14 0.244342 0.398836 0.656478
O O15 0.903745 0.448559 0.532802
O O16 0.108583 0.422271 0.968457
O O17 0.632745 0.554640 0.549775
O O18 0.500000 0.500000 0.000000
#
# Coordination Sequence:
#
# PCOD9062915 Si02
#       8
#     2   2   2   2   2   2   2   2
#     4  12  28  50  81 117 150 193 249 309 377 458
#     4  11  25  44  65 100 140 179 240 297 364 427
#     4  11  26  46  70 102 143 192 238 300 374 436
#     4  11  25  49  78 109 146 189 245 298 378 450
#     4  11  25  40  65  95 136 184 239 293 358 435
#     4  12  25  40  65  95 131 185 241 301 357 426
#     4  11  26  48  74 104 152 193 235 313 365 450
#     4  11  24  43  66  94 134 188 243 293 362 433
#
# _framework density 22.458058000000001
#
# number of rings (size 3 to 8) (size 9 to 14) (size 15 to 20)
#    0.000    0.750    3.750    2.250    8.750    1.000 
#    2.250    0.000    0.000    0.000    0.000    0.000 
#    0.000    0.000    0.000    0.000    0.000    0.000 
#
# Total GULP energy -89336.253788 kJ/mol
# GULP energy per Si atom -5583.515862 kJ/mol
# Density = 2.240694 g / cm^3
# Si number density = 22.458058 Si / 1000 Ang^3
#
#
#
# Elastic Constant Matrix: (Units=GPa)
#
#
# Indices 1 2 3 4 5 6 
#
# 1 183.4210 38.1236 30.1526 26.8921 3.5030 -6.1586
# 2 38.1236 74.5087 32.7062 15.6920 1.1792 2.6687
# 3 30.1526 32.7062 98.9160 27.7544 -0.0302 -4.7815
# 4 26.8921 15.6920 27.7544 26.3841 -4.2171 -2.7463
# 5 3.5030 1.1792 -0.0302 -4.2171 44.4959 8.6512
# 6 -6.1586 2.6687 -4.7815 -2.7463 8.6512 45.4192
#
#
#
# Elastic Compliance Matrix: (Units=1/GPa)
#
#
# Indices 1 2 3 4 5 6 
#
# 1 0.006833 -0.002436 0.000489 -0.006126 -0.001246 0.000988
# 2 -0.002436 0.017306 -0.003993 -0.003853 -0.000255 -0.001952
# 3 0.000489 -0.003993 0.015392 -0.014423 -0.001551 0.001345
# 4 -0.006126 -0.003853 -0.014423 0.062684 0.006429 0.000443
# 5 -0.001246 -0.000255 -0.001551 0.006429 0.024064 -0.004512
# 6 0.000988 -0.001952 0.001345 0.000443 -0.004512 0.023294
#
#
# Mechanical properties :
#
#
# Convention : Reuss Voigt Hill
#
# Bulk Modulus (GPa) = 36.16499 62.09007 49.12753
# Shear Modulus (GPa) = 29.29630 40.31739 34.80685
#
# Velocity S-wave (km/s) = 3.61569 4.24161 3.94110
# Velocity P-wave (km/s) = 5.79390 7.18996 6.52935
#
# Compressibility (1/GPa) = 0.02765105
#
# Stress axis : x y z
#
# Youngs Moduli (GPa) = 146.34624 57.78351 64.96814
#
# Poissons Ratio (x) = 0.14078 -0.03177
# Poissons Ratio (y) = 0.35655 0.25940
# Poissons Ratio (z) = -0.07156 0.23071
#
# Static dielectric constant tensor:
#      x y z
#    x 2.071320 -0.160120 -0.019880 
#    y -0.160120 1.990830 -0.024490 
#    z -0.019880 -0.024490 1.886810 
# 
# From -- ./inp_files/49174.got.cif
#   From: 2010.05.17/outbox.cif.g08.bks.cpg/sg2_25_cif.got.tgz:49174.got - 2010.06.03 11:33:40.
