data_PCOD9062519
_publ_section_title
;
Structure prediction by ZEFSAII (Michael W. Deem and Ramdas Pophale) SiO2 
 PCOD9062519
Probable space group: P -1
;
_chemical_formula_sum "Si O2"
_cell_formula_units_Z 16
_cell_length_a 11.238629
_cell_length_b 8.880293
_cell_length_c 14.038902
_cell_angle_alpha 72.992240
_cell_angle_beta 149.986368
_cell_angle_gamma 98.394498
_cell_volume 653.117864
_symmetry_space_group_name_H-M "P -1"
_symmetry_group_IT_number 2
_symmetry_cell_setting 'triclinic'
loop_
_space_group_symop_operation_xyz
x,y,z
-x,-y,-z
loop_
_atom_site_type_symbol
_atom_site_label
_atom_site_fract_x
_atom_site_fract_y
_atom_site_fract_z
Si Si1 0.004017 0.689058 0.471824
Si Si2 0.561834 0.707880 0.280845
Si Si3 0.507118 0.232452 0.219151
Si Si4 0.113882 0.147327 0.190331
Si Si5 0.511561 0.061116 0.637485
Si Si6 0.735282 0.457987 0.602944
Si Si7 0.935310 0.847501 0.187185
Si Si8 0.821394 0.448019 0.002983
O O1 0.782510 0.765536 0.374028
O O2 0.955198 0.775087 0.320039
O O3 0.000000 0.500000 0.500000
O O4 0.272038 0.705440 0.686160
O O5 0.463185 0.821754 0.280860
O O6 0.662446 0.538259 0.435868
O O7 0.368712 0.663258 0.080824
O O8 0.619639 0.075083 0.387945
O O9 0.318816 0.179107 0.026453
O O10 0.345935 0.372438 0.148046
O O11 0.346168 0.148370 0.420261
O O12 0.959861 0.331128 0.035782
O O13 0.232502 0.048713 0.199352
O O14 0.964463 0.029489 0.160116
O O15 0.500000 0.500000 0.500000
O O16 0.848012 0.268721 0.701982
O O17 0.957520 0.534571 0.779185
#
# Coordination Sequence:
#
# PCOD9062519 Si02
#       8
#     2   2   2   2   2   2   2   2
#     4  12  24  46  73 100 142 189 237 297 341 411
#     4  12  25  45  71 100 140 186 232 286 353 408
#     4  11  25  46  73 105 141 185 238 285 353 416
#     4  11  24  46  74 102 147 180 231 291 353 426
#     4  11  25  46  72 105 143 189 225 289 361 418
#     4  11  24  41  67 104 141 178 229 286 351 414
#     4  11  24  44  70 105 140 184 236 287 349 415
#     4  11  25  43  71 106 136 183 233 285 342 424
#
# _framework density 24.497872999999998
#
# number of rings (size 3 to 8) (size 9 to 14) (size 15 to 20)
#    0.000    0.750    5.000    1.500    1.750    7.000 
#    0.000    1.250    0.000    0.000    0.000    0.000 
#    0.000    0.000    0.000    0.000    0.000    0.000 
#
# Total GULP energy -89459.862440 kJ/mol
# GULP energy per Si atom -5591.241402 kJ/mol
# Density = 2.444212 g / cm^3
# Si number density = 24.497873 Si / 1000 Ang^3
#
#
#
# Elastic Constant Matrix: (Units=GPa)
#
#
# Indices 1 2 3 4 5 6 
#
# 1 83.9375 5.7667 31.3853 19.5030 5.2823 5.9145
# 2 5.7667 120.1325 42.6701 5.2187 -3.4501 3.3211
# 3 31.3853 42.6701 114.7024 29.6522 13.3770 3.9115
# 4 19.5030 5.2187 29.6522 46.4392 5.3192 10.4580
# 5 5.2823 -3.4501 13.3770 5.3192 24.1923 3.4583
# 6 5.9145 3.3211 3.9115 10.4580 3.4583 40.1185
#
#
#
# Elastic Compliance Matrix: (Units=1/GPa)
#
#
# Indices 1 2 3 4 5 6 
#
# 1 0.013949 0.000563 -0.002973 -0.003803 -0.000373 -0.000790
# 2 0.000563 0.010026 -0.004651 0.001440 0.003727 -0.001156
# 3 -0.002973 -0.004651 0.013654 -0.006616 -0.006362 0.001765
# 4 -0.003803 0.001440 -0.006616 0.028701 -0.000711 -0.006334
# 5 -0.000373 0.003727 -0.006362 -0.000711 0.046112 -0.003423
# 6 -0.000790 -0.001156 0.001765 -0.006334 -0.003423 0.026912
#
#
# Mechanical properties :
#
#
# Convention : Reuss Voigt Hill
#
# Bulk Modulus (GPa) = 42.54173 53.15737 47.84955
# Shear Modulus (GPa) = 30.99585 38.08000 34.53793
#
# Velocity S-wave (km/s) = 3.56089 3.94689 3.75885
# Velocity P-wave (km/s) = 5.85745 6.52047 6.19783
#
# Compressibility (1/GPa) = 0.02350633
#
# Stress axis : x y z
#
# Youngs Moduli (GPa) = 71.68879 99.74431 73.23899
#
# Poissons Ratio (x) = -0.05611 0.21771
# Poissons Ratio (y) = -0.04033 0.34065
# Poissons Ratio (z) = 0.21310 0.46393
#
# Static dielectric constant tensor:
#      x y z
#    x 1.963390 -0.003560 0.060810 
#    y -0.003560 1.951590 0.000990 
#    z 0.060810 0.000990 2.052030 
# 
# From -- ./inp_files/515561.got.cif
#   From: 2010.05.17/outbox.cif.g08.bks.cpg/sg2_258_cif.got.tgz:515561.got - 2010.06.03 11:33:40.
