data_PCOD9062209
_publ_section_title
;
Structure prediction by ZEFSAII (Michael W. Deem and Ramdas Pophale) SiO2 
 PCOD9062209
Probable space group: P -1
;
_chemical_formula_sum "Si O2"
_cell_formula_units_Z 16
_cell_length_a 20.195408
_cell_length_b 8.820281
_cell_length_c 11.526605
_cell_angle_alpha 130.488546
_cell_angle_beta 44.281449
_cell_angle_gamma 148.737543
_cell_volume 739.983451
_symmetry_space_group_name_H-M "P -1"
_symmetry_group_IT_number 2
_symmetry_cell_setting 'triclinic'
loop_
_space_group_symop_operation_xyz
x,y,z
-x,-y,-z
loop_
_atom_site_type_symbol
_atom_site_label
_atom_site_fract_x
_atom_site_fract_y
_atom_site_fract_z
Si Si1 0.129963 0.930778 0.519171
Si Si2 0.681107 0.151749 0.786873
Si Si3 0.604497 0.264749 0.166773
Si Si4 0.874168 0.960245 0.161457
Si Si5 0.143764 0.292459 0.312142
Si Si6 0.877875 0.155062 0.005640
Si Si7 0.615253 0.005843 0.249174
Si Si8 0.308381 0.518890 0.455983
O O1 0.101703 0.896314 0.674844
O O2 0.236983 0.270886 0.518252
O O3 0.202425 0.837301 0.348862
O O4 0.987141 0.760625 0.547774
O O5 0.743093 0.436568 0.781880
O O6 0.544298 0.870288 0.748139
O O7 0.636932 0.154310 0.970491
O O8 0.729737 0.615471 0.181789
O O9 0.595987 0.131904 0.231116
O O10 0.868886 0.093834 0.123116
O O11 0.000000 0.000000 0.000000
O O12 0.212805 0.369528 0.388114
O O13 0.094302 0.007766 0.177635
O O14 0.730623 0.019863 0.082840
O O15 0.000000 0.500000 0.000000
O O16 0.672427 0.227969 0.394123
O O17 0.464260 0.686635 0.312471
#
# Coordination Sequence:
#
# PCOD9062209 Si02
#       8
#     2   2   2   2   2   2   2   2
#     4  12  26  44  72 100 144 188 238 287 357 413
#     4  11  26  44  73 108 138 187 235 294 357 412
#     4  11  23  48  72 101 147 184 240 291 342 426
#     4  12  24  47  73 100 141 185 238 290 348 423
#     4  12  25  49  66 105 147 181 236 297 346 426
#     4  12  27  45  76 106 136 189 235 289 359 424
#     4  11  25  46  74 100 146 189 235 287 356 418
#     4  11  26  46  68 106 145 186 235 294 348 420
#
# _framework density 21.622105999999999
#
# number of rings (size 3 to 8) (size 9 to 14) (size 15 to 20)
#    0.000    0.500    5.000    2.250    5.250    1.000 
#    0.000    0.000    0.000    0.000    0.000    0.000 
#    0.000    0.000    0.000    0.000    0.000    0.000 
#
# Total GULP energy -89622.659189 kJ/mol
# GULP energy per Si atom -5601.416199 kJ/mol
# Density = 2.157289 g / cm^3
# Si number density = 21.622106 Si / 1000 Ang^3
#
#
#
# Elastic Constant Matrix: (Units=GPa)
#
#
# Indices 1 2 3 4 5 6 
#
# 1 94.1252 32.1860 35.7591 -1.3027 9.1216 8.2106
# 2 32.1860 105.5143 9.5550 -19.8220 1.7289 7.3973
# 3 35.7591 9.5550 77.2064 -5.4319 -5.5836 7.2689
# 4 -1.3027 -19.8220 -5.4319 31.5368 -0.6381 3.2695
# 5 9.1216 1.7289 -5.5836 -0.6381 44.4081 -6.4913
# 6 8.2106 7.3973 7.2689 3.2695 -6.4913 22.2297
#
#
#
# Elastic Compliance Matrix: (Units=1/GPa)
#
#
# Indices 1 2 3 4 5 6 
#
# 1 0.015326 -0.004373 -0.006824 -0.003090 -0.004285 -0.002771
# 2 -0.004373 0.012554 0.001470 0.008406 0.000094 -0.004252
# 3 -0.006824 0.001470 0.016720 0.003907 0.003047 -0.003121
# 4 -0.003090 0.008406 0.003907 0.038427 0.000100 -0.008556
# 5 -0.004285 0.000094 0.003047 0.000100 0.024922 0.007818
# 6 -0.002771 -0.004252 -0.003121 -0.008556 0.007818 0.051985
#
#
# Mechanical properties :
#
#
# Convention : Reuss Voigt Hill
#
# Bulk Modulus (GPa) = 39.76647 47.98290 43.87469
# Shear Modulus (GPa) = 26.62832 32.92463 29.77648
#
# Velocity S-wave (km/s) = 3.51313 3.90645 3.71500
# Velocity P-wave (km/s) = 5.90657 6.52587 6.22393
#
# Compressibility (1/GPa) = 0.02514681
#
# Stress axis : x y z
#
# Youngs Moduli (GPa) = 65.24777 79.65614 59.80888
#
# Poissons Ratio (x) = 0.34836 0.40812
# Poissons Ratio (y) = 0.28534 -0.08794
# Poissons Ratio (z) = 0.44523 -0.11712
#
# Static dielectric constant tensor:
#      x y z
#    x 1.761810 0.017900 0.003640 
#    y 0.017900 1.780890 -0.005240 
#    z 0.003640 -0.005240 1.769520 
# 
# From -- ./inp_files/208381.got.cif
#   From: 2010.05.17/outbox.cif.g08.bks.cpg/sg2_105_cif.got.tgz:208381.got - 2010.06.03 11:33:40.
