data_PCOD9062220
_publ_section_title
;
Structure prediction by ZEFSAII (Michael W. Deem and Ramdas Pophale) SiO2 
 PCOD9062220
Probable space group: P -1
;
_chemical_formula_sum "Si O2"
_cell_formula_units_Z 13
_cell_length_a 11.131119
_cell_length_b 8.783405
_cell_length_c 6.183352
_cell_angle_alpha 100.169962
_cell_angle_beta 97.815528
_cell_angle_gamma 102.555194
_cell_volume 571.167668
_symmetry_space_group_name_H-M "P -1"
_symmetry_group_IT_number 2
_symmetry_cell_setting 'triclinic'
loop_
_space_group_symop_operation_xyz
x,y,z
-x,-y,-z
loop_
_atom_site_type_symbol
_atom_site_label
_atom_site_fract_x
_atom_site_fract_y
_atom_site_fract_z
Si Si1 0.754043 0.572798 0.831436
Si Si2 0.602689 0.707355 0.478172
Si Si3 0.234536 0.032211 0.728132
Si Si4 0.230106 0.783663 0.341073
Si Si5 0.024847 0.146597 0.876448
Si Si6 0.404558 0.037464 0.158139
Si Si7 0.500000 0.500000 0.000000
O O1 0.701747 0.641656 0.622919
O O2 0.771470 0.398793 0.734733
O O3 0.883567 0.693970 0.963858
O O4 0.652368 0.560084 0.997604
O O5 0.670525 0.853155 0.379587
O O6 0.536272 0.797369 0.662416
O O7 0.520404 0.577201 0.269633
O O8 0.106551 0.085963 0.698224
O O9 0.230536 0.854404 0.601093
O O10 0.288690 0.059442 0.989710
O O11 0.104893 0.819732 0.219362
O O12 0.349713 0.890870 0.267235
O O13 0.000000 0.000000 0.000000
O O14 0.500000 0.000000 0.000000
#
# Coordination Sequence:
#
# PCOD9062220 Si02
#       7
#     2   2   2   2   2   2   1
#     4  12  27  46  71 112 146 186 241 299 374 418
#     4  11  24  47  73 106 143 197 238 293 369 439
#     4  11  23  48  73 105 140 197 240 297 358 436
#     4  11  27  42  74 109 146 186 242 306 355 429
#     4  12  22  51  75 100 145 196 247 291 359 439
#     4  11  25  45  75 106 144 192 247 295 361 438
#     4  12  26  46  72 102 152 188 234 302 356 434
#
# _framework density 22.760390999999998
#
# number of rings (size 3 to 8) (size 9 to 14) (size 15 to 20)
#    0.000    0.615    4.615    2.308    6.462    2.462 
#    0.000    1.538    0.000    0.000    0.000    0.000 
#    0.000    0.000    0.000    0.000    0.000    0.000 
#
# Total GULP energy -72514.855465 kJ/mol
# GULP energy per Si atom -5578.065805 kJ/mol
# Density = 2.270859 g / cm^3
# Si number density = 22.760391 Si / 1000 Ang^3
#
#
#
# Elastic Constant Matrix: (Units=GPa)
#
#
# Indices 1 2 3 4 5 6 
#
# 1 86.9827 16.6745 27.6446 20.1865 0.6615 -0.5861
# 2 16.6745 110.3464 40.5608 31.6455 -4.8339 -11.3392
# 3 27.6446 40.5608 129.7884 42.1703 0.2102 -8.8604
# 4 20.1865 31.6455 42.1703 42.3535 -6.5982 0.3200
# 5 0.6615 -4.8339 0.2102 -6.5982 32.1340 4.2404
# 6 -0.5861 -11.3392 -8.8604 0.3200 4.2404 34.7784
#
#
#
# Elastic Compliance Matrix: (Units=1/GPa)
#
#
# Indices 1 2 3 4 5 6 
#
# 1 0.013096 -0.000115 -0.000989 -0.005391 -0.001408 0.000152
# 2 -0.000115 0.012138 -0.000807 -0.008299 -0.000382 0.003873
# 3 -0.000989 -0.000807 0.012130 -0.011491 -0.002973 0.003279
# 4 -0.005391 -0.008299 -0.011491 0.045311 0.009200 -0.007263
# 5 -0.001408 -0.000382 -0.002973 0.009200 0.033672 -0.005096
# 6 0.000152 0.003873 0.003279 -0.007263 -0.005096 0.031542
#
#
# Mechanical properties :
#
#
# Convention : Reuss Voigt Hill
#
# Bulk Modulus (GPa) = 29.81427 55.20857 42.51142
# Shear Modulus (GPa) = 30.69526 38.00237 34.34881
#
# Velocity S-wave (km/s) = 3.67635 4.09059 3.88899
# Velocity P-wave (km/s) = 5.58107 6.82786 6.23571
#
# Compressibility (1/GPa) = 0.03354099
#
# Stress axis : x y z
#
# Youngs Moduli (GPa) = 76.35986 82.38737 82.44063
#
# Poissons Ratio (x) = 0.00949 0.08153
# Poissons Ratio (y) = 0.00880 0.06654
# Poissons Ratio (z) = 0.07551 0.06650
#
# Static dielectric constant tensor:
#      x y z
#    x 1.901070 -0.004410 -0.003810 
#    y -0.004410 1.865510 0.010950 
#    z -0.003810 0.010950 1.853350 
# 
# From -- ./inp_files/19464.got.cif
#   From: 2010.05.17/outbox.cif.g08.bks.cpg/sg2_10_cif.got.tgz:19464.got - 2010.06.03 11:33:40.
