data_PCOD9062581
_publ_section_title
;
Structure prediction by ZEFSAII (Michael W. Deem and Ramdas Pophale) SiO2 
 PCOD9062581
Probable space group: P -1
;
_chemical_formula_sum "Si O2"
_cell_formula_units_Z 15
_cell_length_a 13.082527
_cell_length_b 13.008499
_cell_length_c 10.038003
_cell_angle_alpha 134.829485
_cell_angle_beta 147.482818
_cell_angle_gamma 55.509939
_cell_volume 649.483540
_symmetry_space_group_name_H-M "P -1"
_symmetry_group_IT_number 2
_symmetry_cell_setting 'triclinic'
loop_
_space_group_symop_operation_xyz
x,y,z
-x,-y,-z
loop_
_atom_site_type_symbol
_atom_site_label
_atom_site_fract_x
_atom_site_fract_y
_atom_site_fract_z
Si Si1 0.105403 0.357991 0.527922
Si Si2 0.426945 0.809122 0.269003
Si Si3 0.408282 0.136975 0.089144
Si Si4 0.207385 0.659254 0.297277
Si Si5 0.082477 0.843154 0.088497
Si Si6 0.902089 0.672018 0.195581
Si Si7 0.500000 0.500000 0.000000
Si Si8 0.256226 0.006348 0.080038
O O1 0.018829 0.235883 0.221019
O O2 0.067320 0.329528 0.614885
O O3 0.000000 0.500000 0.500000
O O4 0.329504 0.389281 0.774937
O O5 0.420619 0.637685 0.120059
O O6 0.632193 0.886498 0.593237
O O7 0.336111 0.854101 0.069621
O O8 0.295989 0.874077 0.299879
O O9 0.580582 0.263117 0.406263
O O10 0.317422 0.073999 0.068537
O O11 0.238680 0.205416 0.885329
O O12 0.500000 0.000000 0.000000
O O13 0.099158 0.689426 0.344277
O O14 0.194759 0.486499 0.100299
O O15 0.087328 0.732148 0.115534
O O16 0.966602 0.977507 0.128148
#
# Coordination Sequence:
#
# PCOD9062581 Si02
#       8
#     2   2   2   2   2   2   1   2
#     4  12  25  42  71 113 143 175 233 299 357 411
#     4  11  24  41  71 102 139 184 229 290 353 410
#     4  12  28  47  69 102 148 190 240 291 356 432
#     4  11  24  48  76 102 140 191 241 292 354 422
#     4  12  22  46  74 103 140 184 235 295 349 423
#     4  11  26  46  74 106 142 190 238 293 359 422
#     4  12  24  42  70 106 142 176 224 294 350 414
#     4  11  25  45  66 102 139 187 233 286 350 426
#
# _framework density 23.095275000000001
#
# number of rings (size 3 to 8) (size 9 to 14) (size 15 to 20)
#    0.000    0.533    6.667    0.800    1.867    2.667 
#    2.400    0.000    0.000    0.000    0.000    0.000 
#    0.000    0.000    0.000    0.000    0.000    0.000 
#
# Total GULP energy -83681.360578 kJ/mol
# GULP energy per Si atom -5578.757372 kJ/mol
# Density = 2.304271 g / cm^3
# Si number density = 23.095275 Si / 1000 Ang^3
#
#
#
# Elastic Constant Matrix: (Units=GPa)
#
#
# Indices 1 2 3 4 5 6 
#
# 1 145.6384 22.3302 22.0578 -25.0035 -10.9565 14.3205
# 2 22.3302 91.0342 1.1502 -19.0545 -21.9099 -1.2492
# 3 22.0578 1.1502 42.8976 -3.0318 -6.1488 3.8197
# 4 -25.0035 -19.0545 -3.0318 35.0394 10.5265 -3.8041
# 5 -10.9565 -21.9099 -6.1488 10.5265 28.7865 -8.7145
# 6 14.3205 -1.2492 3.8197 -3.8041 -8.7145 45.2922
#
#
#
# Elastic Compliance Matrix: (Units=1/GPa)
#
#
# Indices 1 2 3 4 5 6 
#
# 1 0.008713 -0.001285 -0.004036 0.005265 -0.001122 -0.002224
# 2 -0.001285 0.014761 0.001803 0.004467 0.010419 0.003041
# 3 -0.004036 0.001803 0.026080 -0.001421 0.005974 0.000157
# 4 0.005265 0.004467 -0.001421 0.037153 -0.008464 0.000070
# 5 -0.001122 0.010419 0.005974 -0.008464 0.049311 0.008915
# 6 -0.002224 0.003041 0.000157 0.000070 0.008915 0.024574
#
#
# Mechanical properties :
#
#
# Convention : Reuss Voigt Hill
#
# Bulk Modulus (GPa) = 23.51918 41.18296 32.35107
# Shear Modulus (GPa) = 27.50250 37.42575 32.46412
#
# Velocity S-wave (km/s) = 3.45458 4.02990 3.75328
# Velocity P-wave (km/s) = 5.11056 6.28681 5.72895
#
# Compressibility (1/GPa) = 0.04251848
#
# Stress axis : x y z
#
# Youngs Moduli (GPa) = 114.77385 67.74404 38.34300
#
# Poissons Ratio (x) = 0.08704 0.15477
# Poissons Ratio (y) = 0.14746 -0.06914
# Poissons Ratio (z) = 0.46327 -0.12215
#
# Static dielectric constant tensor:
#      x y z
#    x 1.879860 -0.002150 0.029460 
#    y -0.002150 1.908630 -0.019970 
#    z 0.029460 -0.019970 1.851750 
# 
# From -- ./inp_files/244296.got.cif
#   From: 2010.05.17/outbox.cif.g08.bks.cpg/sg2_123_cif.got.tgz:244296.got - 2010.06.03 11:33:40.
