data_PCOD9062509
_publ_section_title
;
Structure prediction by ZEFSAII (Michael W. Deem and Ramdas Pophale) SiO2 
 PCOD9062509
Probable space group: P -1
;
_chemical_formula_sum "Si O2"
_cell_formula_units_Z 16
_cell_length_a 11.861808
_cell_length_b 20.348394
_cell_length_c 17.546154
_cell_angle_alpha 20.073975
_cell_angle_beta 30.854780
_cell_angle_gamma 40.994044
_cell_volume 712.840640
_symmetry_space_group_name_H-M "P -1"
_symmetry_group_IT_number 2
_symmetry_cell_setting 'triclinic'
loop_
_space_group_symop_operation_xyz
x,y,z
-x,-y,-z
loop_
_atom_site_type_symbol
_atom_site_label
_atom_site_fract_x
_atom_site_fract_y
_atom_site_fract_z
Si Si1 0.580838 0.222698 0.241078
Si Si2 0.469776 0.430062 0.217565
Si Si3 0.008758 0.440544 0.176584
Si Si4 0.064273 0.257702 0.887755
Si Si5 0.637988 0.309311 0.790011
Si Si6 0.001421 0.216148 0.794166
Si Si7 0.713393 0.095225 0.828114
Si Si8 0.114904 0.231840 0.196885
O O1 0.448060 0.256637 0.356171
O O2 0.500000 0.000000 0.500000
O O3 0.540869 0.375940 0.034597
O O4 0.853057 0.276731 0.040740
O O5 0.257264 0.360948 0.472487
O O6 0.719306 0.472652 0.062427
O O7 0.988107 0.300957 0.265833
O O8 0.879422 0.297034 0.475034
O O9 0.907272 0.622583 0.017952
O O10 0.266698 0.464899 0.543289
O O11 0.961992 0.220027 0.902523
O O12 0.151745 0.070097 0.061862
O O13 0.635390 0.155656 0.889690
O O14 0.818024 0.282934 0.777300
O O15 0.384507 0.268388 0.015329
O O16 0.000000 0.000000 0.000000
O O17 0.500000 0.000000 0.000000
O O18 0.000000 0.000000 0.500000
#
# Coordination Sequence:
#
# PCOD9062509 Si02
#       8
#     2   2   2   2   2   2   2   2
#     4  11  24  41  66  99 138 178 223 271 343 410
#     4  11  25  43  67 101 141 175 223 285 340 409
#     4  11  26  47  70 102 141 177 230 286 338 408
#     4  12  25  45  70 104 140 182 230 283 350 412
#     4  12  26  46  72 103 140 182 234 284 344 412
#     4  12  25  45  71 104 143 182 227 287 349 410
#     4  12  27  47  71 102 140 185 234 288 340 407
#     4  11  27  47  72 102 134 183 233 282 341 403
#
# _framework density 22.445409999999999
#
# number of rings (size 3 to 8) (size 9 to 14) (size 15 to 20)
#    0.000    0.500    2.500    4.875    5.250    8.000 
#    0.000    0.000    0.000    0.000    0.000    0.000 
#    0.000    0.000    0.000    0.000    0.000    0.000 
#
# Total GULP energy -89687.665661 kJ/mol
# GULP energy per Si atom -5605.479104 kJ/mol
# Density = 2.239432 g / cm^3
# Si number density = 22.445410 Si / 1000 Ang^3
#
#
#
# Elastic Constant Matrix: (Units=GPa)
#
#
# Indices 1 2 3 4 5 6 
#
# 1 86.2236 22.6649 19.6632 -1.8486 -0.0804 -15.3953
# 2 22.6649 95.8966 31.4138 -12.8665 10.2290 -7.8179
# 3 19.6632 31.4138 105.2370 -9.6362 -11.6719 -13.9293
# 4 -1.8486 -12.8665 -9.6362 52.0300 -0.8819 -3.3826
# 5 -0.0804 10.2290 -11.6719 -0.8819 34.9319 -1.7698
# 6 -15.3953 -7.8179 -13.9293 -3.3826 -1.7698 34.1156
#
#
#
# Elastic Compliance Matrix: (Units=1/GPa)
#
#
# Indices 1 2 3 4 5 6 
#
# 1 0.013394 -0.002491 -0.001007 0.000017 0.000682 0.005099
# 2 -0.002491 0.013129 -0.003747 0.002401 -0.005025 0.000332
# 3 -0.001007 -0.003747 0.012094 0.001633 0.005383 0.004066
# 4 0.000017 0.002401 0.001633 0.020338 0.000522 0.003268
# 5 0.000682 -0.005025 0.005383 0.000522 0.032068 0.003070
# 6 0.005099 0.000332 0.004066 0.003268 0.003070 0.033833
#
#
# Mechanical properties :
#
#
# Convention : Reuss Voigt Hill
#
# Bulk Modulus (GPa) = 41.44739 48.31568 44.88154
# Shear Modulus (GPa) = 33.92440 38.45653 36.19047
#
# Velocity S-wave (km/s) = 3.89191 4.14374 4.01980
# Velocity P-wave (km/s) = 6.22109 6.66833 6.44859
#
# Compressibility (1/GPa) = 0.02412697
#
# Stress axis : x y z
#
# Youngs Moduli (GPa) = 74.66298 76.16580 82.68660
#
# Poissons Ratio (x) = 0.18969 0.08326
# Poissons Ratio (y) = 0.18595 0.30986
# Poissons Ratio (z) = 0.07518 0.28542
#
# Static dielectric constant tensor:
#      x y z
#    x 1.794320 -0.027100 -0.046120 
#    y -0.027100 1.724770 -0.057810 
#    z -0.046120 -0.057810 1.756860 
# 
# From -- ./inp_files/570669.got.cif
#   From: 2010.05.17/outbox.cif.g08.bks.cpg/sg2_286_cif.got.tgz:570669.got - 2010.06.03 11:33:40.
