data_PCOD9062853
_publ_section_title
;
Structure prediction by ZEFSAII (Michael W. Deem and Ramdas Pophale) SiO2 
 PCOD9062853
Probable space group: P -1
;
_chemical_formula_sum "Si O2"
_cell_formula_units_Z 16
_cell_length_a 8.887289
_cell_length_b 5.301891
_cell_length_c 14.099334
_cell_angle_alpha 83.172486
_cell_angle_beta 103.658384
_cell_angle_gamma 80.930197
_cell_volume 629.001650
_symmetry_space_group_name_H-M "P -1"
_symmetry_group_IT_number 2
_symmetry_cell_setting 'triclinic'
loop_
_space_group_symop_operation_xyz
x,y,z
-x,-y,-z
loop_
_atom_site_type_symbol
_atom_site_label
_atom_site_fract_x
_atom_site_fract_y
_atom_site_fract_z
Si Si1 0.116347 0.497557 0.330565
Si Si2 0.473157 0.414539 0.890467
Si Si3 0.358794 0.240314 0.237542
Si Si4 0.847266 0.255152 0.239274
Si Si5 0.249005 0.019690 0.058948
Si Si6 0.329832 0.069600 0.640970
Si Si7 0.673040 0.398572 0.482005
Si Si8 0.018351 0.131314 0.876259
O O1 0.274225 0.323458 0.319084
O O2 0.181003 0.637946 0.421291
O O3 0.977610 0.335369 0.324959
O O4 0.051472 0.686687 0.227240
O O5 0.564607 0.551748 0.817568
O O6 0.296758 0.513049 0.820763
O O7 0.571179 0.121553 0.918450
O O8 0.500000 0.500000 0.000000
O O9 0.493383 0.993803 0.289577
O O10 0.236632 0.173257 0.147233
O O11 0.778255 0.025803 0.290806
O O12 0.922393 0.140504 0.156697
O O13 0.122075 0.837563 0.068372
O O14 0.174209 0.180909 0.951143
O O15 0.328143 0.864475 0.564003
O O16 0.296353 0.364577 0.590359
O O17 0.500000 0.500000 0.500000
#
# Coordination Sequence:
#
# PCOD9062853 Si02
#       8
#     2   2   2   2   2   2   2   2
#     4  12  27  45  78 105 151 198 256 323 382 462
#     4  11  24  45  67 105 149 200 252 308 373 450
#     4  11  25  43  74 106 143 200 254 313 371 462
#     4  11  27  47  71 111 156 196 248 320 392 445
#     4  11  24  42  74 103 150 200 255 302 376 460
#     4  11  29  50  78 116 153 195 261 323 388 463
#     4  12  28  51  83 113 150 204 261 319 392 463
#     4  11  25  43  69 112 148 197 250 314 378 457
#
# _framework density 25.437135000000001
#
# number of rings (size 3 to 8) (size 9 to 14) (size 15 to 20)
#    0.000    0.750    5.000    0.375   10.500    3.000 
#    0.000    0.000    0.000    0.000    0.000    0.000 
#    0.000    0.000    0.000    0.000    0.000    0.000 
#
# Total GULP energy -89499.713649 kJ/mol
# GULP energy per Si atom -5593.732103 kJ/mol
# Density = 2.537924 g / cm^3
# Si number density = 25.437135 Si / 1000 Ang^3
#
#
#
# Elastic Constant Matrix: (Units=GPa)
#
#
# Indices 1 2 3 4 5 6 
#
# 1 87.8223 5.1387 17.5569 -0.4334 -11.2873 -6.4588
# 2 5.1387 32.4251 17.3018 7.0241 -7.1521 1.0817
# 3 17.5569 17.3018 126.6317 7.1593 22.8208 11.2199
# 4 -0.4334 7.0241 7.1593 56.2801 8.3587 -5.1697
# 5 -11.2873 -7.1521 22.8208 8.3587 43.2291 2.9588
# 6 -6.4588 1.0817 11.2199 -5.1697 2.9588 26.1860
#
#
#
# Elastic Compliance Matrix: (Units=1/GPa)
#
#
# Indices 1 2 3 4 5 6 
#
# 1 0.012876 0.000503 -0.003069 0.000079 0.004780 0.003946
# 2 0.000503 0.038183 -0.006918 -0.005632 0.011249 -0.000872
# 3 -0.003069 -0.006918 0.010989 0.000158 -0.007483 -0.004303
# 4 0.000079 -0.005632 0.000158 0.019637 -0.005109 0.004638
# 5 0.004780 0.011249 -0.007483 -0.005109 0.031222 -0.000616
# 6 0.003946 -0.000872 -0.004303 0.004638 -0.000616 0.042026
#
#
# Mechanical properties :
#
#
# Convention : Reuss Voigt Hill
#
# Bulk Modulus (GPa) = 23.21405 36.31931 29.76668
# Shear Modulus (GPa) = 26.55885 38.93115 32.74500
#
# Velocity S-wave (km/s) = 3.23476 3.91639 3.59178
# Velocity P-wave (km/s) = 4.80597 5.89575 5.37853
#
# Compressibility (1/GPa) = 0.04307736
#
# Stress axis : x y z
#
# Youngs Moduli (GPa) = 77.66542 26.18983 91.00376
#
# Poissons Ratio (x) = -0.01317 0.27932
# Poissons Ratio (y) = -0.03905 0.62959
# Poissons Ratio (z) = 0.23838 0.18119
#
# Static dielectric constant tensor:
#      x y z
#    x 4.503530 -0.085550 0.056000 
#    y -0.085550 2.052070 0.000890 
#    z 0.056000 0.000890 2.011260 
# 
# From -- ./inp_files/38110.got.cif
#   From: 2010.05.17/outbox.cif.g08.bks.cpg/sg2_20_cif.got.tgz:38110.got - 2010.06.03 11:33:40.
