data_PCOD9062169
_publ_section_title
;
Structure prediction by ZEFSAII (Michael W. Deem and Ramdas Pophale) SiO2 
 PCOD9062169
Probable space group: P -1
;
_chemical_formula_sum "Si O2"
_cell_formula_units_Z 14
_cell_length_a 5.159540
_cell_length_b 18.962120
_cell_length_c 5.241075
_cell_angle_alpha 80.698304
_cell_angle_beta 88.715789
_cell_angle_gamma 95.832652
_cell_volume 503.008712
_symmetry_space_group_name_H-M "P -1"
_symmetry_group_IT_number 2
_symmetry_cell_setting 'triclinic'
loop_
_space_group_symop_operation_xyz
x,y,z
-x,-y,-z
loop_
_atom_site_type_symbol
_atom_site_label
_atom_site_fract_x
_atom_site_fract_y
_atom_site_fract_z
Si Si1 0.536274 0.678993 0.666191
Si Si2 0.064934 0.724007 0.913220
Si Si3 0.791126 0.461063 0.219169
Si Si4 0.868169 0.850269 0.123440
Si Si5 0.847805 0.607835 0.342269
Si Si6 0.615158 0.884484 0.611305
Si Si7 0.726368 0.030799 0.771673
O O1 0.793745 0.711467 0.780577
O O2 0.444333 0.597643 0.814937
O O3 0.638523 0.662332 0.392289
O O4 0.303742 0.725879 0.710573
O O5 0.050910 0.791830 0.056681
O O6 0.048296 0.651516 0.121927
O O7 0.700076 0.532186 0.306254
O O8 0.965588 0.415536 0.423868
O O9 0.000000 0.500000 0.000000
O O10 0.644135 0.850875 0.910721
O O11 0.750070 0.841314 0.413710
O O12 0.039979 0.927197 0.099444
O O13 0.362193 0.907860 0.457335
O O14 0.760724 0.963851 0.625780
O O15 0.500000 0.000000 0.000000
#
# Coordination Sequence:
#
# PCOD9062169 Si02
#       7
#     2   2   2   2   2   2   2
#     4  12  26  51  72 112 150 200 261 325 389 482
#     4  12  31  50  75 108 162 207 262 320 402 490
#     4  11  23  47  78 112 146 196 261 334 396 471
#     4  12  29  49  75 114 161 211 263 328 403 490
#     4  11  25  47  78 110 148 205 256 330 404 469
#     4  11  26  47  77 115 150 203 258 328 395 470
#     4  11  25  47  83 117 155 199 265 338 396 473
#
# _framework density 27.832519000000001
#
# number of rings (size 3 to 8) (size 9 to 14) (size 15 to 20)
#    0.000    0.571    4.286    1.286   10.000    2.286 
#    2.571    0.000    0.000    0.000    0.000    0.000 
#    0.000    0.000    0.000    0.000    0.000    0.000 
#
# Total GULP energy -78377.739901 kJ/mol
# GULP energy per Si atom -5598.409993 kJ/mol
# Density = 2.776917 g / cm^3
# Si number density = 27.832519 Si / 1000 Ang^3
#
#
#
# Elastic Constant Matrix: (Units=GPa)
#
#
# Indices 1 2 3 4 5 6 
#
# 1 119.5795 28.3077 45.3065 16.2031 -0.7030 4.6971
# 2 28.3077 152.6904 25.1667 42.5007 -0.3921 -18.4139
# 3 45.3065 25.1667 138.1189 1.0260 0.7764 -5.1422
# 4 16.2031 42.5007 1.0260 62.6060 -10.5970 -8.0927
# 5 -0.7030 -0.3921 0.7764 -10.5970 46.2769 4.4527
# 6 4.6971 -18.4139 -5.1422 -8.0927 4.4527 41.8259
#
#
#
# Elastic Compliance Matrix: (Units=1/GPa)
#
#
# Indices 1 2 3 4 5 6 
#
# 1 0.010231 -0.001039 -0.003240 -0.002216 -0.000073 -0.002426
# 2 -0.001039 0.008828 -0.001108 -0.005576 -0.001483 0.002946
# 3 -0.003240 -0.001108 0.008539 0.001619 0.000050 0.001234
# 4 -0.002216 -0.005576 0.001619 0.021296 0.004612 0.001622
# 5 -0.000073 -0.001483 0.000050 0.004612 0.022860 -0.002180
# 6 -0.002426 0.002946 0.001234 0.001622 -0.002180 0.026176
#
#
# Mechanical properties :
#
#
# Convention : Reuss Voigt Hill
#
# Bulk Modulus (GPa) = 59.44214 67.55005 63.49610
# Shear Modulus (GPa) = 43.73992 50.91563 47.32778
#
# Velocity S-wave (km/s) = 3.96857 4.28174 4.12812
# Velocity P-wave (km/s) = 6.51174 6.98336 6.75167
#
# Compressibility (1/GPa) = 0.01682308
#
# Stress axis : x y z
#
# Youngs Moduli (GPa) = 97.73945 113.27581 117.11505
#
# Poissons Ratio (x) = 0.11766 0.37949
# Poissons Ratio (y) = 0.10153 0.12981
# Poissons Ratio (z) = 0.31670 0.12555
#
# Static dielectric constant tensor:
#      x y z
#    x 2.180430 -0.049090 -0.012470 
#    y -0.049090 2.230810 0.040430 
#    z -0.012470 0.040430 2.234650 
# 
# From -- ./inp_files/7610.got.cif
#   From: 2010.05.17/outbox.cif.g08.bks.cpg/sg2_4_cif.got.tgz:7610.got - 2010.06.03 11:33:40.
