data_PCOD9062124
_publ_section_title
;
Structure prediction by ZEFSAII (Michael W. Deem and Ramdas Pophale) SiO2 
 PCOD9062124
Probable space group: P -1
;
_chemical_formula_sum "Si O2"
_cell_formula_units_Z 12
_cell_length_a 8.685212
_cell_length_b 8.455860
_cell_length_c 9.665195
_cell_angle_alpha 118.451288
_cell_angle_beta 99.234751
_cell_angle_gamma 49.653675
_cell_volume 463.908999
_symmetry_space_group_name_H-M "P -1"
_symmetry_group_IT_number 2
_symmetry_cell_setting 'triclinic'
loop_
_space_group_symop_operation_xyz
x,y,z
-x,-y,-z
loop_
_atom_site_type_symbol
_atom_site_label
_atom_site_fract_x
_atom_site_fract_y
_atom_site_fract_z
Si Si1 0.977232 0.554227 0.352461
Si Si2 0.382779 0.912545 0.500590
Si Si3 0.543562 0.277917 0.843745
Si Si4 0.986301 0.146838 0.186065
Si Si5 0.678219 0.097059 0.206996
Si Si6 0.711149 0.705734 0.961401
O O1 0.848920 0.835873 0.437940
O O2 0.903595 0.406071 0.246614
O O3 0.000000 0.500000 0.500000
O O4 0.148571 0.453596 0.215880
O O5 0.500000 0.000000 0.500000
O O6 0.441628 0.716636 0.317514
O O7 0.432075 0.833329 0.632016
O O8 0.500000 0.500000 0.000000
O O9 0.364298 0.296794 0.896688
O O10 0.773276 0.023601 0.803041
O O11 0.820904 0.164383 0.262217
O O12 0.000000 0.000000 0.000000
O O13 0.509655 0.181980 0.098659
O O14 0.814925 0.817085 0.072771
#
# Coordination Sequence:
#
# PCOD9062124 Si02
#       6
#     2   2   2   2   2   2
#     4  12  26  47  76 106 151 190 238 301 364 431
#     4  12  27  47  75 110 144 189 247 298 359 431
#     4  12  28  48  74 107 150 186 246 307 360 427
#     4  12  24  46  74 109 140 192 243 294 357 434
#     4  11  24  44  79 105 146 191 249 294 360 435
#     4  11  23  47  74 105 144 200 235 296 372 430
#
# _framework density 25.867142000000001
#
# number of rings (size 3 to 8) (size 9 to 14) (size 15 to 20)
#    0.000    0.333    6.667    2.000    4.667    2.667 
#    0.000    2.500    0.000    0.000    0.000    0.000 
#    0.000    0.000    0.000    0.000    0.000    0.000 
#
# Total GULP energy -66801.821090 kJ/mol
# GULP energy per Si atom -5566.818424 kJ/mol
# Density = 2.580827 g / cm^3
# Si number density = 25.867142 Si / 1000 Ang^3
#
#
#
# Elastic Constant Matrix: (Units=GPa)
#
#
# Indices 1 2 3 4 5 6 
#
# 1 121.2265 25.4879 32.6928 12.5406 -34.2627 15.2135
# 2 25.4879 66.9703 34.3665 -17.0407 2.9817 -5.1501
# 3 32.6928 34.3665 212.1301 -11.8229 -14.2986 3.3596
# 4 12.5406 -17.0407 -11.8229 40.8505 9.7146 5.1966
# 5 -34.2627 2.9817 -14.2986 9.7146 43.8349 2.4372
# 6 15.2135 -5.1501 3.3596 5.1966 2.4372 29.1349
#
#
#
# Elastic Compliance Matrix: (Units=1/GPa)
#
#
# Indices 1 2 3 4 5 6 
#
# 1 0.019723 -0.012957 -0.000225 -0.014843 0.020159 -0.011602
# 2 -0.012957 0.027267 -0.002782 0.017358 -0.017307 0.010259
# 3 -0.000225 -0.002782 0.005348 0.000182 0.001783 -0.001172
# 4 -0.014843 0.017358 0.000182 0.040901 -0.022085 0.005350
# 5 0.020159 -0.017307 0.001783 -0.022085 0.045984 -0.013699
# 6 -0.011602 0.010259 -0.001172 0.005350 -0.013699 0.042522
#
#
# Mechanical properties :
#
#
# Convention : Reuss Voigt Hill
#
# Bulk Modulus (GPa) = 48.99725 65.04680 57.02203
# Shear Modulus (GPa) = 22.67802 43.28272 32.98037
#
# Velocity S-wave (km/s) = 2.96414 4.09500 3.57458
# Velocity P-wave (km/s) = 5.54057 6.89636 6.25530
#
# Compressibility (1/GPa) = 0.02040931
#
# Stress axis : x y z
#
# Youngs Moduli (GPa) = 50.70215 36.67407 186.97226
#
# Poissons Ratio (x) = 0.47520 0.04211
# Poissons Ratio (y) = 0.65696 0.52019
# Poissons Ratio (z) = 0.01142 0.10203
#
# Static dielectric constant tensor:
#      x y z
#    x 2.061320 0.016840 -0.008980 
#    y 0.016840 2.779420 0.010050 
#    z -0.008980 0.010050 2.036560 
# 
# From -- ./inp_files/151087.got.cif
#   From: 2010.05.17/outbox.cif.g08.bks.cpg/sg2_76_cif.got.tgz:151087.got - 2010.06.03 11:33:40.
