data_PCOD9062729
_publ_section_title
;
Structure prediction by ZEFSAII (Michael W. Deem and Ramdas Pophale) SiO2 
 PCOD9062729
Probable space group: P -1
;
_chemical_formula_sum "Si O2"
_cell_formula_units_Z 10
_cell_length_a 9.019174
_cell_length_b 5.028465
_cell_length_c 12.178913
_cell_angle_alpha 49.094465
_cell_angle_beta 118.766966
_cell_angle_gamma 104.305978
_cell_volume 364.002214
_symmetry_space_group_name_H-M "P -1"
_symmetry_group_IT_number 2
_symmetry_cell_setting 'triclinic'
loop_
_space_group_symop_operation_xyz
x,y,z
-x,-y,-z
loop_
_atom_site_type_symbol
_atom_site_label
_atom_site_fract_x
_atom_site_fract_y
_atom_site_fract_z
Si Si1 0.380700 0.354647 0.327358
Si Si2 0.652983 0.807746 0.315734
Si Si3 0.005156 0.387141 0.846059
Si Si4 0.350555 0.642101 0.992465
Si Si5 0.143790 0.680100 0.618461
O O1 0.479209 0.669055 0.329347
O O2 0.375609 0.469624 0.166659
O O3 0.181552 0.395143 0.276524
O O4 0.500000 0.000000 0.500000
O O5 0.795315 0.475552 0.435392
O O6 0.707074 0.116738 0.327810
O O7 0.639927 0.947885 0.146760
O O8 0.069986 0.379166 0.746977
O O9 0.159405 0.559993 0.913746
O O10 0.000000 0.000000 0.000000
O O11 0.500000 0.500000 0.000000
O O12 0.000000 0.000000 0.500000
#
# Coordination Sequence:
#
# PCOD9062729 Si02
#       5
#     2   2   2   2   2
#     4  12  25  43  70 111 148 185 243 319 373 421
#     4  11  24  45  71 101 142 199 245 291 365 456
#     4  11  24  42  69 105 142 190 244 304 364 437
#     4  11  24  47  74 102 145 204 250 293 367 462
#     4  11  24  45  71 103 144 194 245 299 365 442
#
# _framework density 27.472360999999999
#
# number of rings (size 3 to 8) (size 9 to 14) (size 15 to 20)
#    0.000    0.800    0.000    7.800    0.000    4.800 
#    0.000    6.000    0.000    0.000    0.000    0.000 
#    0.000    0.000    0.000    0.000    0.000    0.000 
#
# Total GULP energy -55892.203860 kJ/mol
# GULP energy per Si atom -5589.220386 kJ/mol
# Density = 2.740983 g / cm^3
# Si number density = 27.472361 Si / 1000 Ang^3
#
#
#
# Elastic Constant Matrix: (Units=GPa)
#
#
# Indices 1 2 3 4 5 6 
#
# 1 217.1838 60.7999 53.6194 5.5547 22.8981 19.4426
# 2 60.7999 112.4711 35.7660 -2.5225 -2.8145 25.1410
# 3 53.6194 35.7660 137.3423 6.4074 8.4625 19.7603
# 4 5.5547 -2.5225 6.4074 44.2059 3.3747 -2.2986
# 5 22.8981 -2.8145 8.4625 3.3747 60.1296 -0.8640
# 6 19.4426 25.1410 19.7603 -2.2986 -0.8640 60.0355
#
#
#
# Elastic Compliance Matrix: (Units=1/GPa)
#
#
# Indices 1 2 3 4 5 6 
#
# 1 0.006011 -0.002787 -0.001406 -0.000562 -0.002195 -0.000370
# 2 -0.002787 0.011745 -0.001630 0.000946 0.001738 -0.003418
# 3 -0.001406 -0.001630 0.008606 -0.001201 -0.000710 -0.001751
# 4 -0.000562 0.000946 -0.001201 0.023040 -0.000851 0.001051
# 5 -0.002195 0.001738 -0.000710 -0.000851 0.017702 0.000439
# 6 -0.000370 -0.003418 -0.001751 0.001051 0.000439 0.018831
#
#
# Mechanical properties :
#
#
# Convention : Reuss Voigt Hill
#
# Bulk Modulus (GPa) = 67.95536 85.26309 76.60923
# Shear Modulus (GPa) = 48.78733 53.99497 51.39115
#
# Velocity S-wave (km/s) = 4.21868 4.43813 4.32979
# Velocity P-wave (km/s) = 6.96558 7.57403 7.27617
#
# Compressibility (1/GPa) = 0.01471554
#
# Stress axis : x y z
#
# Youngs Moduli (GPa) = 166.37007 85.14351 116.19574
#
# Poissons Ratio (x) = 0.23730 0.16339
# Poissons Ratio (y) = 0.46367 0.18939
# Poissons Ratio (z) = 0.23394 0.13878
#
# Static dielectric constant tensor:
#      x y z
#    x 2.232550 -0.029630 0.205390 
#    y -0.029630 2.169060 -0.004490 
#    z 0.205390 -0.004490 2.589010 
# 
# From -- ./inp_files/229979.got.cif
#   From: 2010.05.17/outbox.cif.g08.bks.cpg/sg2_115_cif.got.tgz:229979.got - 2010.06.03 11:33:40.
