data_PCOD9062170
_publ_section_title
;
Structure prediction by ZEFSAII (Michael W. Deem and Ramdas Pophale) SiO2 
 PCOD9062170
Probable space group: P -1
;
_chemical_formula_sum "Si O2"
_cell_formula_units_Z 10
_cell_length_a 5.073364
_cell_length_b 11.496223
_cell_length_c 10.217648
_cell_angle_alpha 139.821398
_cell_angle_beta 86.594340
_cell_angle_gamma 90.394047
_cell_volume 383.117911
_symmetry_space_group_name_H-M "P -1"
_symmetry_group_IT_number 2
_symmetry_cell_setting 'triclinic'
loop_
_space_group_symop_operation_xyz
x,y,z
-x,-y,-z
loop_
_atom_site_type_symbol
_atom_site_label
_atom_site_fract_x
_atom_site_fract_y
_atom_site_fract_z
Si Si1 0.237256 0.118385 0.646544
Si Si2 0.319406 0.414501 0.696135
Si Si3 0.741979 0.424917 0.515442
Si Si4 0.034698 0.214422 0.016031
Si Si5 0.146664 0.151812 0.245150
O O1 0.257592 0.311871 0.741610
O O2 0.197217 0.158793 0.835008
O O3 0.500000 0.000000 0.500000
O O4 0.000000 0.000000 0.500000
O O5 0.625216 0.453664 0.689810
O O6 0.262112 0.262951 0.456778
O O7 0.135856 0.596660 0.837685
O O8 0.500000 0.500000 0.500000
O O9 0.831835 0.214148 0.319938
O O10 0.793549 0.798930 0.865365
O O11 0.828882 0.058655 0.910169
O O12 0.000000 0.500000 0.500000
#
# Coordination Sequence:
#
# PCOD9062170 Si02
#       5
#     2   2   2   2   2
#     4  12  28  56  79 110 161 212 262 325 391 465
#     4  12  25  49  83 113 164 201 265 324 392 469
#     4  12  23  45  75 113 160 201 250 323 390 453
#     4  11  24  48  79 122 152 214 259 318 398 470
#     4  11  23  47  78 117 163 194 262 321 393 458
#
# _framework density 26.101624000000001
#
# number of rings (size 3 to 8) (size 9 to 14) (size 15 to 20)
#    0.000    0.400    6.000    2.400    0.000    0.000 
#   10.800    8.000    0.000    0.000    0.000    0.000 
#    0.000    0.000    0.000    0.000    0.000    0.000 
#
# Total GULP energy -55879.444599 kJ/mol
# GULP energy per Si atom -5587.944460 kJ/mol
# Density = 2.604222 g / cm^3
# Si number density = 26.101624 Si / 1000 Ang^3
#
#
#
# Elastic Constant Matrix: (Units=GPa)
#
#
# Indices 1 2 3 4 5 6 
#
# 1 163.7693 50.9428 60.3201 4.4827 -24.5562 19.3101
# 2 50.9428 220.5968 70.3234 3.4090 -17.7899 34.5850
# 3 60.3201 70.3234 158.6553 -3.9452 -17.8113 9.8506
# 4 4.4827 3.4090 -3.9452 72.1782 5.3038 -8.5929
# 5 -24.5562 -17.7899 -17.8113 5.3038 31.7376 -2.8584
# 6 19.3101 34.5850 9.8506 -8.5929 -2.8584 38.0110
#
#
#
# Elastic Compliance Matrix: (Units=1/GPa)
#
#
# Indices 1 2 3 4 5 6 
#
# 1 0.008174 -0.000228 -0.002292 -0.001370 0.004842 -0.003296
# 2 -0.000228 0.006253 -0.002190 -0.001146 0.001829 -0.005127
# 3 -0.002292 -0.002190 0.008266 0.000733 0.001633 0.001303
# 4 -0.001370 -0.001146 0.000733 0.014834 -0.003351 0.004650
# 5 0.004842 0.001829 0.001633 -0.003351 0.037533 -0.002482
# 6 -0.003296 -0.005127 0.001303 0.004650 -0.002482 0.033175
#
#
# Mechanical properties :
#
#
# Convention : Reuss Voigt Hill
#
# Bulk Modulus (GPa) = 75.34748 100.68824 88.01786
# Shear Modulus (GPa) = 40.95752 52.48103 46.71928
#
# Velocity S-wave (km/s) = 3.96555 4.48888 4.23531
# Velocity P-wave (km/s) = 7.06379 8.09481 7.59681
#
# Compressibility (1/GPa) = 0.01327184
#
# Stress axis : x y z
#
# Youngs Moduli (GPa) = 122.34457 159.92354 120.98349
#
# Poissons Ratio (x) = 0.03653 0.27732
# Poissons Ratio (y) = 0.02795 0.26490
# Poissons Ratio (z) = 0.28044 0.35016
#
# Static dielectric constant tensor:
#      x y z
#    x 2.226260 0.043170 0.189060 
#    y 0.043170 2.156130 0.115490 
#    z 0.189060 0.115490 2.269440 
# 
# From -- ./inp_files/1504.got.cif
#   From: 2010.05.17/outbox.cif.g08.bks.cpg/sg2_1_cif.got.tgz:1504.got - 2010.06.03 11:33:40.
