data_PCOD9062987
_publ_section_title
;
Structure prediction by ZEFSAII (Michael W. Deem and Ramdas Pophale) SiO2 
 PCOD9062987
Probable space group: P -1
;
_chemical_formula_sum "Si O2"
_cell_formula_units_Z 16
_cell_length_a 5.128721
_cell_length_b 11.326192
_cell_length_c 12.033506
_cell_angle_alpha 80.357307
_cell_angle_beta 96.867268
_cell_angle_gamma 69.589665
_cell_volume 633.776102
_symmetry_space_group_name_H-M "P -1"
_symmetry_group_IT_number 2
_symmetry_cell_setting 'triclinic'
loop_
_space_group_symop_operation_xyz
x,y,z
-x,-y,-z
loop_
_atom_site_type_symbol
_atom_site_label
_atom_site_fract_x
_atom_site_fract_y
_atom_site_fract_z
Si Si1 0.375251 0.831967 0.066740
Si Si2 0.300857 0.136957 0.315479
Si Si3 0.349351 0.978422 0.842582
Si Si4 0.267174 0.452933 0.941263
Si Si5 0.724269 0.507352 0.604604
Si Si6 0.163954 0.610198 0.688007
Si Si7 0.883474 0.224122 0.710347
Si Si8 0.271430 0.899529 0.465088
O O1 0.602401 0.700235 0.050183
O O2 0.233099 0.788661 0.170785
O O3 0.513575 0.928647 0.107447
O O4 0.211040 0.913542 0.937289
O O5 0.426683 0.134122 0.200725
O O6 0.992012 0.242030 0.305196
O O7 0.494708 0.153999 0.420686
O O8 0.328524 0.991532 0.362379
O O9 0.132260 0.083211 0.734264
O O10 0.175741 0.522545 0.808166
O O11 0.500000 0.500000 0.000000
O O12 0.000000 0.500000 0.000000
O O13 0.500000 0.500000 0.500000
O O14 0.953085 0.576481 0.595476
O O15 0.911931 0.360951 0.679037
O O16 0.486787 0.577204 0.674682
O O17 0.720025 0.220387 0.589207
O O18 0.000000 0.000000 0.500000
#
# Coordination Sequence:
#
# PCOD9062987 Si02
#       8
#     2   2   2   2   2   2   2   2
#     4  11  25  46  69 107 141 187 244 301 375 442
#     4  11  25  43  71 105 144 190 246 303 372 447
#     4  11  24  44  72 104 143 186 242 306 370 439
#     4  12  27  49  75 105 145 197 247 307 371 442
#     4  12  28  47  76 110 148 201 247 310 373 447
#     4  12  27  49  73 107 150 193 252 305 369 451
#     4  12  24  44  75 100 147 186 244 305 371 438
#     4  11  24  43  68 104 143 191 241 302 373 438
#
# _framework density 25.245511
#
# number of rings (size 3 to 8) (size 9 to 14) (size 15 to 20)
#    0.000    0.500    3.750    3.750    5.250    1.000 
#    0.000    0.000    0.000    0.000    0.000    0.000 
#    0.000    0.000    0.000    0.000    0.000    0.000 
#
# Total GULP energy -89443.742782 kJ/mol
# GULP energy per Si atom -5590.233924 kJ/mol
# Density = 2.518805 g / cm^3
# Si number density = 25.245511 Si / 1000 Ang^3
#
#
#
# Elastic Constant Matrix: (Units=GPa)
#
#
# Indices 1 2 3 4 5 6 
#
# 1 75.5707 3.1795 3.8703 7.7413 0.3691 -3.3853
# 2 3.1795 124.9296 25.8675 -1.2615 -1.9591 -8.3113
# 3 3.8703 25.8675 48.6075 -11.8200 4.1887 0.8247
# 4 7.7413 -1.2615 -11.8200 33.2792 3.1256 -6.4906
# 5 0.3691 -1.9591 4.1887 3.1256 42.1604 9.4655
# 6 -3.3853 -8.3113 0.8247 -6.4906 9.4655 37.2522
#
#
#
# Elastic Compliance Matrix: (Units=1/GPa)
#
#
# Indices 1 2 3 4 5 6 
#
# 1 0.013757 0.000091 -0.002113 -0.003857 0.000249 0.000582
# 2 0.000091 0.009218 -0.005307 -0.001267 0.000645 0.001798
# 3 -0.002113 -0.005307 0.026346 0.010152 -0.003770 0.000767
# 4 -0.003857 -0.001267 0.010152 0.036325 -0.005255 0.006806
# 5 0.000249 0.000645 -0.003770 -0.005255 0.026152 -0.007311
# 6 0.000582 0.001798 0.000767 0.006806 -0.007311 0.030325
#
#
# Mechanical properties :
#
#
# Convention : Reuss Voigt Hill
#
# Bulk Modulus (GPa) = 28.84917 34.99357 31.92137
# Shear Modulus (GPa) = 29.70280 36.95106 33.32693
#
# Velocity S-wave (km/s) = 3.43382 3.82994 3.63728
# Velocity P-wave (km/s) = 5.21284 5.78354 5.50559
#
# Compressibility (1/GPa) = 0.03466304
#
# Stress axis : x y z
#
# Youngs Moduli (GPa) = 72.69025 108.48412 37.95661
#
# Poissons Ratio (x) = -0.00988 0.08021
# Poissons Ratio (y) = -0.00662 0.20143
# Poissons Ratio (z) = 0.15360 0.57571
#
# Static dielectric constant tensor:
#      x y z
#    x 2.115850 0.005850 0.093950 
#    y 0.005850 1.964720 0.023780 
#    z 0.093950 0.023780 2.090780 
# 
# From -- ./inp_files/70320.got.cif
#   From: 2010.05.17/outbox.cif.g08.bks.cpg/sg2_36_cif.got.tgz:70320.got - 2010.06.03 11:33:40.
