data_PCOD9062434
_publ_section_title
;
Structure prediction by ZEFSAII (Michael W. Deem and Ramdas Pophale) SiO2 
 PCOD9062434
Probable space group: P -1
;
_chemical_formula_sum "Si O2"
_cell_formula_units_Z 14
_cell_length_a 8.568714
_cell_length_b 25.088589
_cell_length_c 18.101386
_cell_angle_alpha 19.086861
_cell_angle_beta 31.858019
_cell_angle_gamma 43.261147
_cell_volume 605.984779
_symmetry_space_group_name_H-M "P -1"
_symmetry_group_IT_number 2
_symmetry_cell_setting 'triclinic'
loop_
_space_group_symop_operation_xyz
x,y,z
-x,-y,-z
loop_
_atom_site_type_symbol
_atom_site_label
_atom_site_fract_x
_atom_site_fract_y
_atom_site_fract_z
Si Si1 0.549445 0.195010 0.248365
Si Si2 0.392338 0.263258 0.517182
Si Si3 0.764155 0.597864 0.828250
Si Si4 0.633530 0.341435 0.860819
Si Si5 0.253979 0.293642 0.854565
Si Si6 0.468218 0.644310 0.490340
Si Si7 0.631021 0.111304 0.030128
O O1 0.500000 0.000000 0.500000
O O2 0.278587 0.223895 0.365982
O O3 0.569064 0.296020 0.031248
O O4 0.898040 0.273451 0.046327
O O5 0.648154 0.450804 0.133851
O O6 0.435816 0.268279 0.581787
O O7 0.014631 0.227585 0.701418
O O8 0.438921 0.095480 0.683162
O O9 0.500000 0.500000 0.000000
O O10 0.133992 0.646888 0.595233
O O11 0.416007 0.437379 0.791344
O O12 0.599570 0.173328 0.044643
O O13 0.000000 0.500000 0.500000
O O14 0.500000 0.500000 0.500000
O O15 0.262474 0.265862 0.799099
O O16 0.388272 0.166093 0.008166
#
# Coordination Sequence:
#
# PCOD9062434 Si02
#       7
#     2   2   2   2   2   2   2
#     4  12  28  45  71 105 144 176 233 295 348 406
#     4  11  24  44  65 102 138 182 224 287 346 407
#     4  12  27  46  66  99 143 179 222 287 354 410
#     4  12  21  46  72  98 133 187 234 277 343 423
#     4  12  23  45  73 102 134 186 234 282 347 419
#     4  12  24  43  75  93 133 190 228 270 346 420
#     4  11  24  40  72 102 135 174 240 285 329 419
#
# _framework density 23.102893000000002
#
# number of rings (size 3 to 8) (size 9 to 14) (size 15 to 20)
#    0.000    0.286    5.714    3.000    4.000    0.571 
#    0.000    1.429    0.000    0.000    0.000    0.000 
#    0.000    0.000    0.000    0.000    0.000    0.000 
#
# Total GULP energy -78397.260474 kJ/mol
# GULP energy per Si atom -5599.804320 kJ/mol
# Density = 2.305031 g / cm^3
# Si number density = 23.102893 Si / 1000 Ang^3
#
#
#
# Elastic Constant Matrix: (Units=GPa)
#
#
# Indices 1 2 3 4 5 6 
#
# 1 90.9370 20.8155 -19.6153 -1.1478 1.1364 -6.5910
# 2 20.8155 146.7773 5.0623 -26.4787 -10.5057 -16.0837
# 3 -19.6153 5.0623 24.5267 -14.6157 -7.5856 -4.2484
# 4 -1.1478 -26.4787 -14.6157 36.6189 3.6564 -9.8572
# 5 1.1364 -10.5057 -7.5856 3.6564 19.7780 -3.4610
# 6 -6.5910 -16.0837 -4.2484 -9.8572 -3.4610 51.5611
#
#
#
# Elastic Compliance Matrix: (Units=1/GPa)
#
#
# Indices 1 2 3 4 5 6 
#
# 1 0.016418 0.000019 0.022755 0.010661 0.006958 0.006485
# 2 0.000019 0.009793 0.008100 0.011299 0.007334 0.006377
# 3 0.022755 0.008100 0.104392 0.051549 0.038132 0.026451
# 4 0.010661 0.011299 0.051549 0.060504 0.017806 0.021897
# 5 0.006958 0.007334 0.038132 0.017806 0.067890 0.014280
# 6 0.006485 0.006377 0.026451 0.021897 0.014280 0.029537
#
#
# Mechanical properties :
#
#
# Convention : Reuss Voigt Hill
#
# Bulk Modulus (GPa) = 5.19886 30.52956 17.86421
# Shear Modulus (GPa) = 17.18782 38.65682 27.92232
#
# Velocity S-wave (km/s) = 2.73054 4.09497 3.48027
# Velocity P-wave (km/s) = 3.49232 5.96671 4.88866
#
# Compressibility (1/GPa) = 0.19235004
#
# Stress axis : x y z
#
# Youngs Moduli (GPa) = 60.90789 102.11240 9.57926
#
# Poissons Ratio (x) = -0.00190 -0.21797
# Poissons Ratio (y) = -0.00114 -0.07759
# Poissons Ratio (z) = -1.38595 -0.82709
#
# Static dielectric constant tensor:
#      x y z
#    x 1.860510 0.014150 -0.004620 
#    y 0.014150 1.859120 -0.012920 
#    z -0.004620 -0.012920 1.852820 
# 
# From -- ./inp_files/155888.got.cif
#   From: 2010.05.17/outbox.cif.g08.bks.cpg/sg2_78_cif.got.tgz:155888.got - 2010.06.03 11:33:40.
