data_PCOD9062460
_publ_section_title
;
Structure prediction by ZEFSAII (Michael W. Deem and Ramdas Pophale) SiO2 
 PCOD9062460
Probable space group: P -1
;
_chemical_formula_sum "Si O2"
_cell_formula_units_Z 12
_cell_length_a 5.016636
_cell_length_b 14.867702
_cell_length_c 7.625552
_cell_angle_alpha 96.797875
_cell_angle_beta 92.831192
_cell_angle_gamma 67.430130
_cell_volume 521.501245
_symmetry_space_group_name_H-M "P -1"
_symmetry_group_IT_number 2
_symmetry_cell_setting 'triclinic'
loop_
_space_group_symop_operation_xyz
x,y,z
-x,-y,-z
loop_
_atom_site_type_symbol
_atom_site_label
_atom_site_fract_x
_atom_site_fract_y
_atom_site_fract_z
Si Si1 0.891863 0.913854 0.815681
Si Si2 0.090514 0.442464 0.265266
Si Si3 0.901638 0.285805 0.363432
Si Si4 0.573580 0.419689 0.686996
Si Si5 0.470335 0.675309 0.998640
Si Si6 0.445475 0.883376 0.048704
O O1 0.733684 0.884488 0.968515
O O2 0.932390 0.831029 0.653092
O O3 0.203321 0.907703 0.891572
O O4 0.689767 0.026682 0.800818
O O5 0.102558 0.347920 0.355566
O O6 0.767096 0.520315 0.290643
O O7 0.289898 0.501086 0.336669
O O8 0.214826 0.398019 0.070160
O O9 0.697844 0.333048 0.531104
O O10 0.717894 0.303941 0.180591
O O11 0.340675 0.627101 0.129169
O O12 0.486388 0.776099 0.089408
#
# Coordination Sequence:
#
# PCOD9062460 Si02
#       6
#     2   2   2   2   2   2
#     4   9  18  34  59  86 111 147 193 237 288 348
#     4  12  24  42  59  88 119 162 198 240 288 350
#     4  11  24  41  63  87 119 159 195 242 296 346
#     4  12  28  38  59  90 123 152 204 242 284 348
#     4  11  24  41  63  87 119 159 195 242 296 346
#     4   9  18  34  59  86 111 147 193 237 288 348
#
# _framework density 23.010490999999998
#
# number of rings (size 3 to 8) (size 9 to 14) (size 15 to 20)
#    0.000    1.333    3.333    2.000    4.667    0.000 
#    0.000    0.833    0.000    0.000    0.000   14.000 
#    0.000    0.000    0.000    0.000    0.000    0.000 
#
# Total GULP energy -67086.160134 kJ/mol
# GULP energy per Si atom -5590.513344 kJ/mol
# Density = 2.295812 g / cm^3
# Si number density = 23.010491 Si / 1000 Ang^3
#
#
#
# Elastic Constant Matrix: (Units=GPa)
#
#
# Indices 1 2 3 4 5 6 
#
# 1 117.7802 26.1908 34.1530 16.6366 -12.3458 8.1819
# 2 26.1908 128.9332 59.5622 60.7120 -20.1696 -11.5950
# 3 34.1530 59.5622 97.6179 25.6768 -30.5048 -11.3373
# 4 16.6366 60.7120 25.6768 47.0795 -8.7235 -12.7529
# 5 -12.3458 -20.1696 -30.5048 -8.7235 21.1044 10.0732
# 6 8.1819 -11.5950 -11.3373 -12.7529 10.0732 31.3761
#
#
#
# Elastic Compliance Matrix: (Units=1/GPa)
#
#
# Indices 1 2 3 4 5 6 
#
# 1 0.010672 0.001953 -0.002511 -0.005830 0.005454 -0.007089
# 2 0.001953 0.025118 -0.006983 -0.030284 0.006411 -0.008117
# 3 -0.002511 -0.006983 0.023038 0.001882 0.026591 -0.001373
# 4 -0.005830 -0.030284 0.001882 0.064724 -0.013160 0.021541
# 5 0.005454 0.006411 0.026591 -0.013160 0.102994 -0.027860
# 6 -0.007089 -0.008117 -0.001373 0.021541 -0.027860 0.047924
#
#
# Mechanical properties :
#
#
# Convention : Reuss Voigt Hill
#
# Bulk Modulus (GPa) = 22.85908 64.90480 43.88194
# Shear Modulus (GPa) = 16.44019 34.87370 25.65695
#
# Velocity S-wave (km/s) = 2.67585 3.89724 3.34280
# Velocity P-wave (km/s) = 4.41618 6.96557 5.83189
#
# Compressibility (1/GPa) = 0.04374629
#
# Stress axis : x y z
#
# Youngs Moduli (GPa) = 93.70515 39.81187 43.40690
#
# Poissons Ratio (x) = -0.07775 0.10899
# Poissons Ratio (y) = -0.18299 0.30310
# Poissons Ratio (z) = 0.23528 0.27800
#
# Static dielectric constant tensor:
#      x y z
#    x 1.883420 -0.021850 0.041520 
#    y -0.021850 1.892800 0.045610 
#    z 0.041520 0.045610 1.869660 
# 
# From -- ./inp_files/131784.got.cif
#   From: 2010.05.17/outbox.cif.g08.bks.cpg/sg2_66_cif.got.tgz:131784.got - 2010.06.03 11:33:40.
