data_PCOD9062253
_publ_section_title
;
Structure prediction by ZEFSAII (Michael W. Deem and Ramdas Pophale) SiO2 
 PCOD9062253
Probable space group: P -1
;
_chemical_formula_sum "Si O2"
_cell_formula_units_Z 14
_cell_length_a 7.306282
_cell_length_b 11.758416
_cell_length_c 9.337257
_cell_angle_alpha 126.695152
_cell_angle_beta 72.019783
_cell_angle_gamma 91.746221
_cell_volume 599.186720
_symmetry_space_group_name_H-M "P -1"
_symmetry_group_IT_number 2
_symmetry_cell_setting 'triclinic'
loop_
_space_group_symop_operation_xyz
x,y,z
-x,-y,-z
loop_
_atom_site_type_symbol
_atom_site_label
_atom_site_fract_x
_atom_site_fract_y
_atom_site_fract_z
Si Si1 0.169502 0.731322 0.866661
Si Si2 0.238923 0.136424 0.780556
Si Si3 0.327388 0.813146 0.603512
Si Si4 0.657007 0.163633 0.836691
Si Si5 0.316026 0.596759 0.194732
Si Si6 0.961744 0.538275 0.372550
Si Si7 0.756780 0.835771 0.534989
O O1 0.184865 0.794864 0.753344
O O2 0.187185 0.558729 0.720589
O O3 0.334903 0.774433 0.960039
O O4 0.957731 0.796171 0.035893
O O5 0.439759 0.164129 0.826954
O O6 0.232164 0.188421 0.657271
O O7 0.259433 0.961982 0.645038
O O8 0.359856 0.674728 0.388487
O O9 0.536888 0.826435 0.626507
O O10 0.756127 0.269525 0.794600
O O11 0.777240 0.999318 0.681630
O O12 0.158372 0.501909 0.202375
O O13 0.500000 0.500000 0.000000
O O14 0.895079 0.708885 0.490871
O O15 0.000000 0.500000 0.500000
#
# Coordination Sequence:
#
# PCOD9062253 Si02
#       7
#     2   2   2   2   2   2   2
#     4  12  28  44  73 112 149 198 240 304 373 434
#     4  11  23  48  78 110 147 190 249 309 359 450
#     4  11  24  47  74 109 147 191 242 302 376 430
#     4  11  25  47  80 111 146 193 254 301 367 436
#     4  12  25  46  78 102 146 198 240 303 365 433
#     4  12  29  48  70 109 152 193 248 304 373 439
#     4  11  25  47  77 105 147 197 251 300 365 449
#
# _framework density 23.365002
#
# number of rings (size 3 to 8) (size 9 to 14) (size 15 to 20)
#    0.000    0.571    4.286    3.000    4.000    8.571 
#    0.000    0.000    0.000    0.000    0.000    0.000 
#    0.000    0.000    0.000    0.000    0.000    0.000 
#
# Total GULP energy -78405.661029 kJ/mol
# GULP energy per Si atom -5600.404359 kJ/mol
# Density = 2.331182 g / cm^3
# Si number density = 23.365002 Si / 1000 Ang^3
#
#
#
# Elastic Constant Matrix: (Units=GPa)
#
#
# Indices 1 2 3 4 5 6 
#
# 1 78.7063 51.4065 37.6090 -4.8033 10.9397 4.7208
# 2 51.4065 154.1600 66.4044 -7.0691 -1.5701 -6.0949
# 3 37.6090 66.4044 112.2585 -8.8731 10.9847 2.2212
# 4 -4.8033 -7.0691 -8.8731 40.0354 7.4750 -1.3091
# 5 10.9397 -1.5701 10.9847 7.4750 44.6674 -7.0387
# 6 4.7208 -6.0949 2.2212 -1.3091 -7.0387 25.7604
#
#
#
# Elastic Compliance Matrix: (Units=1/GPa)
#
#
# Indices 1 2 3 4 5 6 
#
# 1 0.018508 -0.005428 -0.002223 0.001579 -0.005366 -0.005870
# 2 -0.005428 0.010661 -0.004989 -0.000419 0.003783 0.004960
# 3 -0.002223 -0.004989 0.013212 0.002384 -0.003721 -0.002808
# 4 0.001579 -0.000419 0.002384 0.026636 -0.005565 -0.000761
# 5 -0.005366 0.003783 -0.003721 -0.005565 0.027153 0.009336
# 6 -0.005870 0.004960 -0.002808 -0.000761 0.009336 0.043823
#
#
# Mechanical properties :
#
#
# Convention : Reuss Voigt Hill
#
# Bulk Modulus (GPa) = 58.48156 72.88495 65.68326
# Shear Modulus (GPa) = 29.24412 34.73964 31.99188
#
# Velocity S-wave (km/s) = 3.54166 3.86012 3.70431
# Velocity P-wave (km/s) = 6.46594 7.15046 6.81680
#
# Compressibility (1/GPa) = 0.01709941
#
# Stress axis : x y z
#
# Youngs Moduli (GPa) = 54.03185 93.79575 75.68630
#
# Poissons Ratio (x) = 0.50914 0.16829
# Poissons Ratio (y) = 0.29329 0.37763
# Poissons Ratio (z) = 0.12014 0.46799
#
# Static dielectric constant tensor:
#      x y z
#    x 1.927380 -0.007290 -0.002010 
#    y -0.007290 1.853570 0.036690 
#    z -0.002010 0.036690 1.869280 
# 
# From -- ./inp_files/182254.got.cif
#   From: 2010.05.17/outbox.cif.g08.bks.cpg/sg2_92_cif.got.tgz:182254.got - 2010.06.03 11:33:40.
