data_PCOD9062339
_publ_section_title
;
Structure prediction by ZEFSAII (Michael W. Deem and Ramdas Pophale) SiO2 
 PCOD9062339
Probable space group: P -1
;
_chemical_formula_sum "Si O2"
_cell_formula_units_Z 16
_cell_length_a 11.729336
_cell_length_b 13.675214
_cell_length_c 14.299637
_cell_angle_alpha 147.666516
_cell_angle_beta 135.323883
_cell_angle_gamma 45.953827
_cell_volume 834.917196
_symmetry_space_group_name_H-M "P -1"
_symmetry_group_IT_number 2
_symmetry_cell_setting 'triclinic'
loop_
_space_group_symop_operation_xyz
x,y,z
-x,-y,-z
loop_
_atom_site_type_symbol
_atom_site_label
_atom_site_fract_x
_atom_site_fract_y
_atom_site_fract_z
Si Si1 0.317811 0.538991 0.373061
Si Si2 0.282932 0.901843 0.737276
Si Si3 0.121270 0.835144 0.999993
Si Si4 0.485063 0.970614 0.175237
Si Si5 0.162500 0.195625 0.056012
Si Si6 0.194019 0.495391 0.625169
Si Si7 0.538669 0.366787 0.214115
Si Si8 0.611933 0.937657 0.604655
O O1 0.500000 0.500000 0.500000
O O2 0.216122 0.739299 0.516012
O O3 0.221971 0.380872 0.213187
O O4 0.379999 0.519694 0.286318
O O5 0.411203 0.793243 0.804848
O O6 0.381762 0.977842 0.775229
O O7 0.165490 0.068079 0.862274
O O8 0.193357 0.652213 0.830406
O O9 0.010824 0.774848 0.967796
O O10 0.260387 0.930559 0.199203
O O11 0.000000 0.000000 0.000000
O O12 0.303101 0.081792 0.118984
O O13 0.493188 0.035102 0.337953
O O14 0.500146 0.748222 0.990469
O O15 0.299005 0.555491 0.648989
O O16 0.288206 0.279775 0.525579
O O17 0.000000 0.500000 0.500000
O O18 0.500000 0.000000 0.500000
#
# Coordination Sequence:
#
# PCOD9062339 Si02
#       8
#     2   2   2   2   2   2   2   2
#     4  10  18  26  47  84 127 151 190 241 328 369
#     4  10  19  28  54  88 128 155 191 257 328 363
#     4  12  23  40  63  94 129 164 214 274 316 371
#     4  11  17  37  57  84 128 163 202 262 312 372
#     4  11  19  32  53  90 127 150 196 266 320 356
#     4  12  24  38  67  97 127 166 217 267 321 372
#     4  10  18  32  54  92 126 151 200 266 326 361
#     4  12  28  45  63  91 132 178 217 258 321 386
#
# _framework density 19.163575999999999
#
# number of rings (size 3 to 8) (size 9 to 14) (size 15 to 20)
#    0.000    1.000    7.500    2.250    5.250    0.500 
#    0.000    0.000    0.000    0.750    0.000    2.625 
#    0.000    0.000    0.000    0.000    0.000    0.000 
#
# Total GULP energy -89241.408011 kJ/mol
# GULP energy per Si atom -5577.588001 kJ/mol
# Density = 1.911996 g / cm^3
# Si number density = 19.163576 Si / 1000 Ang^3
#
#
#
# Elastic Constant Matrix: (Units=GPa)
#
#
# Indices 1 2 3 4 5 6 
#
# 1 164.6425 32.2298 66.7638 9.0320 -4.6889 2.3596
# 2 32.2298 48.7545 51.7287 2.3908 -11.5248 5.8359
# 3 66.7638 51.7287 157.3744 27.8877 -12.0104 -0.9814
# 4 9.0320 2.3908 27.8877 28.8658 -2.3547 -4.5731
# 5 -4.6889 -11.5248 -12.0104 -2.3547 39.3357 5.3790
# 6 2.3596 5.8359 -0.9814 -4.5731 5.3790 8.5676
#
#
#
# Elastic Compliance Matrix: (Units=1/GPa)
#
#
# Indices 1 2 3 4 5 6 
#
# 1 0.007533 -0.002492 -0.002441 0.000124 -0.000535 -0.000255
# 2 -0.002492 0.043813 -0.013510 0.005563 0.013718 -0.036348
# 3 -0.002441 -0.013510 0.013561 -0.010245 -0.001681 0.007015
# 4 0.000124 0.005563 -0.010245 0.047275 -0.001554 0.021212
# 5 -0.000535 0.013718 -0.001681 -0.001554 0.033002 -0.030938
# 6 -0.000255 -0.036348 0.007015 0.021212 -0.030938 0.173098
#
#
# Mechanical properties :
#
#
# Convention : Reuss Voigt Hill
#
# Bulk Modulus (GPa) = 35.68629 74.69067 55.18848
# Shear Modulus (GPa) = 13.71710 30.02376 21.87043
#
# Velocity S-wave (km/s) = 2.67833 3.96246 3.38190
# Velocity P-wave (km/s) = 5.31290 7.74563 6.64160
#
# Compressibility (1/GPa) = 0.02802197
#
# Stress axis : x y z
#
# Youngs Moduli (GPa) = 132.74796 22.82436 73.73883
#
# Poissons Ratio (x) = 0.05688 0.18000
# Poissons Ratio (y) = 0.33081 0.99619
# Poissons Ratio (z) = 0.32404 0.30835
#
# Static dielectric constant tensor:
#      x y z
#    x 1.713780 0.001520 -0.037890 
#    y 0.001520 1.647550 0.046850 
#    z -0.037890 0.046850 1.737840 
# 
# From -- ./inp_files/521954.got.cif
#   From: 2010.05.17/outbox.cif.g08.bks.cpg/sg2_261_cif.got.tgz:521954.got - 2010.06.03 11:33:40.
