data_PCOD9062213
_publ_section_title
;
Structure prediction by ZEFSAII (Michael W. Deem and Ramdas Pophale) SiO2 
 PCOD9062213
Probable space group: P -1
;
_chemical_formula_sum "Si O2"
_cell_formula_units_Z 16
_cell_length_a 5.575705
_cell_length_b 8.688822
_cell_length_c 18.827542
_cell_angle_alpha 68.225560
_cell_angle_beta 120.764691
_cell_angle_gamma 114.834856
_cell_volume 696.885866
_symmetry_space_group_name_H-M "P -1"
_symmetry_group_IT_number 2
_symmetry_cell_setting 'triclinic'
loop_
_space_group_symop_operation_xyz
x,y,z
-x,-y,-z
loop_
_atom_site_type_symbol
_atom_site_label
_atom_site_fract_x
_atom_site_fract_y
_atom_site_fract_z
Si Si1 0.788698 0.435043 0.679797
Si Si2 0.190765 0.342709 0.158839
Si Si3 0.184797 0.717719 0.148529
Si Si4 0.270666 0.765345 0.696412
Si Si5 0.793004 0.098270 0.488285
Si Si6 0.701816 0.690424 0.975944
Si Si7 0.659605 0.058620 0.180883
Si Si8 0.901977 0.622569 0.408537
O O1 0.873969 0.314238 0.771897
O O2 0.446157 0.415433 0.640294
O O3 0.949320 0.637783 0.682317
O O4 0.919236 0.389563 0.633429
O O5 0.160432 0.524786 0.149898
O O6 0.516016 0.344912 0.228062
O O7 0.138914 0.333137 0.068564
O O8 0.986199 0.162509 0.190160
O O9 0.495294 0.864408 0.164682
O O10 0.932673 0.768539 0.059021
O O11 0.293483 0.804345 0.609681
O O12 0.344951 0.922369 0.737154
O O13 0.982738 0.197690 0.564865
O O14 0.500000 0.000000 0.500000
O O15 0.000000 0.000000 0.500000
O O16 0.516268 0.818541 0.902927
O O17 0.500000 0.500000 0.000000
O O18 0.000000 0.500000 0.500000
#
# Coordination Sequence:
#
# PCOD9062213 Si02
#       8
#     2   2   2   2   2   2   2   2
#     4  12  26  48  77 109 146 200 253 314 381 449
#     4  11  24  49  73 106 145 201 247 312 381 454
#     4  12  25  44  76 109 148 191 258 308 381 453
#     4  11  26  49  72 100 156 194 245 312 387 447
#     4  12  30  47  76 111 154 199 251 320 385 447
#     4  11  23  48  72 104 149 199 245 313 382 455
#     4  11  26  45  72 107 150 192 250 312 376 453
#     4  12  27  48  77 108 144 197 259 305 375 458
#
# _framework density 22.959284
#
# number of rings (size 3 to 8) (size 9 to 14) (size 15 to 20)
#    0.000    0.500    3.750    3.375    7.000    0.500 
#   11.250    0.000    0.000    0.000    0.000    0.000 
#    0.000    0.000    0.000    0.000    0.000    0.000 
#
# Total GULP energy -89422.753930 kJ/mol
# GULP energy per Si atom -5588.922121 kJ/mol
# Density = 2.290703 g / cm^3
# Si number density = 22.959284 Si / 1000 Ang^3
#
#
#
# Elastic Constant Matrix: (Units=GPa)
#
#
# Indices 1 2 3 4 5 6 
#
# 1 106.9347 27.4647 42.8022 8.6345 -8.2708 9.8276
# 2 27.4647 90.6920 15.5800 13.8862 -4.4915 29.0451
# 3 42.8022 15.5800 145.9931 4.6681 -12.5323 5.5902
# 4 8.6345 13.8862 4.6681 34.9552 9.2247 2.2454
# 5 -8.2708 -4.4915 -12.5323 9.2247 40.8392 0.3852
# 6 9.8276 29.0451 5.5902 2.2454 0.3852 39.1612
#
#
#
# Elastic Compliance Matrix: (Units=1/GPa)
#
#
# Indices 1 2 3 4 5 6 
#
# 1 0.011454 -0.002426 -0.002881 -0.001865 0.001596 -0.000573
# 2 -0.002426 0.016428 -0.000192 -0.005890 0.002693 -0.011237
# 3 -0.002881 -0.000192 0.007921 -0.000784 0.002005 -0.000240
# 4 -0.001865 -0.005890 -0.000784 0.033662 -0.008899 0.003106
# 5 0.001596 0.002693 0.002005 -0.008899 0.027754 -0.002447
# 6 -0.000573 -0.011237 -0.000240 0.003106 -0.002447 0.033894
#
#
# Mechanical properties :
#
#
# Convention : Reuss Voigt Hill
#
# Bulk Modulus (GPa) = 40.31302 57.25706 48.78504
# Shear Modulus (GPa) = 33.24925 40.17597 36.71261
#
# Velocity S-wave (km/s) = 3.80963 4.18769 4.00313
# Velocity P-wave (km/s) = 6.07846 6.95522 6.53156
#
# Compressibility (1/GPa) = 0.02480588
#
# Stress axis : x y z
#
# Youngs Moduli (GPa) = 87.30371 60.87214 126.24464
#
# Poissons Ratio (x) = 0.14766 0.36368
# Poissons Ratio (y) = 0.21178 0.02426
# Poissons Ratio (z) = 0.25150 0.01170
#
# Static dielectric constant tensor:
#      x y z
#    x 1.880180 -0.010710 -0.008710 
#    y -0.010710 1.721990 -0.074980 
#    z -0.008710 -0.074980 1.863270 
# 
# From -- ./inp_files/49183.got.cif
#   From: 2010.05.17/outbox.cif.g08.bks.cpg/sg2_25_cif.got.tgz:49183.got - 2010.06.03 11:33:40.
