data_PCOD9062740
_publ_section_title
;
Structure prediction by ZEFSAII (Michael W. Deem and Ramdas Pophale) SiO2 
 PCOD9062740
Probable space group: P -1
;
_chemical_formula_sum "Si O2"
_cell_formula_units_Z 14
_cell_length_a 16.631380
_cell_length_b 14.111806
_cell_length_c 8.069374
_cell_angle_alpha 65.784688
_cell_angle_beta 74.946856
_cell_angle_gamma 22.362042
_cell_volume 616.863112
_symmetry_space_group_name_H-M "P -1"
_symmetry_group_IT_number 2
_symmetry_cell_setting 'triclinic'
loop_
_space_group_symop_operation_xyz
x,y,z
-x,-y,-z
loop_
_atom_site_type_symbol
_atom_site_label
_atom_site_fract_x
_atom_site_fract_y
_atom_site_fract_z
Si Si1 0.738726 0.750837 0.126566
Si Si2 0.837665 0.304875 0.697367
Si Si3 0.524061 0.591621 0.362685
Si Si4 0.080947 0.236194 0.089878
Si Si5 0.310685 0.642948 0.927180
Si Si6 0.724855 0.605218 0.753866
Si Si7 0.263786 0.207258 0.550122
O O1 0.695187 0.775779 0.319743
O O2 0.941474 0.449424 0.159858
O O3 0.804114 0.797199 0.038750
O O4 0.500000 0.000000 0.000000
O O5 0.686358 0.456841 0.508981
O O6 0.844788 0.416346 0.666195
O O7 0.740033 0.373118 0.876892
O O8 0.080261 0.972575 0.780998
O O9 0.500000 0.500000 0.500000
O O10 0.611145 0.494006 0.194334
O O11 0.281187 0.928126 0.254512
O O12 0.893100 0.392874 0.969218
O O13 0.500000 0.500000 0.000000
O O14 0.715146 0.742018 0.652993
O O15 0.454535 0.896491 0.678749
O O16 0.000000 0.500000 0.500000
#
# Coordination Sequence:
#
# PCOD9062740 Si02
#       7
#     2   2   2   2   2   2   2
#     4  11  24  45  69 102 138 185 230 286 358 420
#     4  11  27  45  73 103 136 187 242 295 354 426
#     4  12  27  48  73 105 146 189 244 295 356 428
#     4  11  26  44  69 103 144 181 235 293 350 428
#     4  11  24  49  73  97 140 183 236 299 356 413
#     4  11  25  43  67 104 137 179 237 286 356 428
#     4  11  24  42  69  98 141 182 224 289 356 427
#
# _framework density 22.695471000000001
#
# number of rings (size 3 to 8) (size 9 to 14) (size 15 to 20)
#    0.000    0.857    4.286    1.286    8.000    2.286 
#    0.000    0.000    0.000    0.000    0.000    0.000 
#    0.000    0.000    0.000    0.000    0.000    0.000 
#
# Total GULP energy -78071.261628 kJ/mol
# GULP energy per Si atom -5576.518688 kJ/mol
# Density = 2.264382 g / cm^3
# Si number density = 22.695471 Si / 1000 Ang^3
#
#
#
# Elastic Constant Matrix: (Units=GPa)
#
#
# Indices 1 2 3 4 5 6 
#
# 1 55.9336 24.5850 29.9220 -12.0320 9.6782 7.4041
# 2 24.5850 150.0105 63.3151 -28.0091 -3.5351 8.4213
# 3 29.9220 63.3151 137.2046 -36.3034 24.3226 8.7790
# 4 -12.0320 -28.0091 -36.3034 57.5091 -0.0735 -1.6107
# 5 9.6782 -3.5351 24.3226 -0.0735 44.9235 -2.4611
# 6 7.4041 8.4213 8.7790 -1.6107 -2.4611 39.2898
#
#
#
# Elastic Compliance Matrix: (Units=1/GPa)
#
#
# Indices 1 2 3 4 5 6 
#
# 1 0.021538 -0.002079 -0.002373 0.001900 -0.003693 -0.003236
# 2 -0.002079 0.009014 -0.003849 0.001518 0.003221 -0.000416
# 3 -0.002373 -0.003849 0.012244 0.005303 -0.006503 -0.001653
# 4 0.001900 0.001518 0.005303 0.021836 -0.003190 -0.001173
# 5 -0.003693 0.003221 -0.006503 -0.003190 0.026990 0.003018
# 6 -0.003236 -0.000416 -0.001653 -0.001173 0.003018 0.026661
#
#
# Mechanical properties :
#
#
# Convention : Reuss Voigt Hill
#
# Bulk Modulus (GPa) = 38.17692 64.31034 51.24363
# Shear Modulus (GPa) = 34.81486 43.36625 39.09056
#
# Velocity S-wave (km/s) = 3.92088 4.37600 4.15468
# Velocity P-wave (km/s) = 6.11193 7.34372 6.75595
#
# Compressibility (1/GPa) = 0.02619383
#
# Stress axis : x y z
#
# Youngs Moduli (GPa) = 46.43013 110.93671 81.67307
#
# Poissons Ratio (x) = 0.23060 0.19383
# Poissons Ratio (y) = 0.09651 0.31436
# Poissons Ratio (z) = 0.11019 0.42700
#
# Static dielectric constant tensor:
#      x y z
#    x 2.077140 -0.004200 -0.199550 
#    y -0.004200 1.882920 -0.057540 
#    z -0.199550 -0.057540 2.050360 
# 
# From -- ./inp_files/49089.got.cif
#   From: 2010.05.17/outbox.cif.g08.bks.cpg/sg2_25_cif.got.tgz:49089.got - 2010.06.03 11:33:40.
