data_PCOD9062043
_publ_section_title
;
Structure prediction by ZEFSAII (Michael W. Deem and Ramdas Pophale) SiO2 
 PCOD9062043
Probable space group: P -1
;
_chemical_formula_sum "Si O2"
_cell_formula_units_Z 16
_cell_length_a 9.687644
_cell_length_b 9.000806
_cell_length_c 14.142045
_cell_angle_alpha 136.338250
_cell_angle_beta 111.420890
_cell_angle_gamma 67.786462
_cell_volume 780.014530
_symmetry_space_group_name_H-M "P -1"
_symmetry_group_IT_number 2
_symmetry_cell_setting 'triclinic'
loop_
_space_group_symop_operation_xyz
x,y,z
-x,-y,-z
loop_
_atom_site_type_symbol
_atom_site_label
_atom_site_fract_x
_atom_site_fract_y
_atom_site_fract_z
Si Si1 0.925773 0.546667 0.106506
Si Si2 0.420645 0.023449 0.389346
Si Si3 0.901635 0.724679 0.617326
Si Si4 0.629528 0.429162 0.923141
Si Si5 0.644008 0.813583 0.952360
Si Si6 0.819493 0.562873 0.722917
Si Si7 0.161236 0.987555 0.769506
Si Si8 0.625366 0.283383 0.443079
O O1 0.046206 0.490336 0.192989
O O2 0.862277 0.805710 0.211636
O O3 0.787746 0.416641 0.011713
O O4 0.000000 0.500000 0.000000
O O5 0.385040 0.795243 0.235644
O O6 0.500000 0.000000 0.500000
O O7 0.262773 0.195019 0.432259
O O8 0.537063 0.108399 0.386472
O O9 0.870112 0.683217 0.699942
O O10 0.000000 0.500000 0.500000
O O11 0.006513 0.903294 0.707926
O O12 0.500000 0.500000 0.000000
O O13 0.625322 0.618548 0.930009
O O14 0.778569 0.924600 0.078505
O O15 0.685490 0.715117 0.814994
O O16 0.500000 0.000000 0.000000
O O17 0.754842 0.351234 0.573785
O O18 0.289466 0.803878 0.671666
O O19 0.500000 0.500000 0.500000
#
# Coordination Sequence:
#
# PCOD9062043 Si02
#       8
#     2   2   2   2   2   2   2   2
#     4  11  23  47  70 101 142 184 238 290 356 429
#     4  12  27  45  76 104 143 190 240 301 359 425
#     4  12  27  47  68 111 146 185 246 299 355 426
#     4  11  25  46  71 108 142 179 240 300 352 427
#     4  11  25  44  72 105 140 190 238 289 368 429
#     4  12  25  45  75 100 144 192 234 298 355 423
#     4  11  24  44  71  99 142 184 236 297 353 429
#     4  12  24  47  70 104 144 188 236 291 363 426
#
# _framework density 20.512438
#
# number of rings (size 3 to 8) (size 9 to 14) (size 15 to 20)
#    0.000    0.500    5.000    3.750    3.500    5.000 
#    0.000    0.000    0.000    0.000    0.000    0.000 
#    0.000    0.000    0.000    0.000    0.000    0.000 
#
# Total GULP energy -89507.360747 kJ/mol
# GULP energy per Si atom -5594.210047 kJ/mol
# Density = 2.046575 g / cm^3
# Si number density = 20.512438 Si / 1000 Ang^3
#
#
#
# Elastic Constant Matrix: (Units=GPa)
#
#
# Indices 1 2 3 4 5 6 
#
# 1 123.5602 27.5693 41.5156 -4.1598 9.3507 5.1844
# 2 27.5693 93.2577 34.3651 -9.0568 7.9858 -14.9087
# 3 41.5156 34.3651 119.1781 3.9218 13.4170 -0.0426
# 4 -4.1598 -9.0568 3.9218 29.5741 -3.5587 0.4443
# 5 9.3507 7.9858 13.4170 -3.5587 56.5013 -0.7968
# 6 5.1844 -14.9087 -0.0426 0.4443 -0.7968 37.7104
#
#
#
# Elastic Compliance Matrix: (Units=1/GPa)
#
#
# Indices 1 2 3 4 5 6 
#
# 1 0.009639 -0.002030 -0.002738 0.001055 -0.000622 -0.002156
# 2 -0.002030 0.013950 -0.003401 0.004294 -0.000477 0.005730
# 3 -0.002738 -0.003401 0.010627 -0.003037 -0.001795 -0.000958
# 4 0.001055 0.004294 -0.003037 0.035929 0.002219 0.001173
# 5 -0.000622 -0.000477 -0.001795 0.002219 0.018439 0.000258
# 6 -0.002156 0.005730 -0.000958 0.001173 0.000258 0.029070
#
#
# Mechanical properties :
#
#
# Convention : Reuss Voigt Hill
#
# Bulk Modulus (GPa) = 55.93224 60.32181 58.12702
# Shear Modulus (GPa) = 35.72683 40.26021 37.99352
#
# Velocity S-wave (km/s) = 4.17791 4.43507 4.30841
# Velocity P-wave (km/s) = 7.11336 7.46309 7.29032
#
# Compressibility (1/GPa) = 0.01787878
#
# Stress axis : x y z
#
# Youngs Moduli (GPa) = 103.74420 71.68396 94.10066
#
# Poissons Ratio (x) = 0.14549 0.25765
# Poissons Ratio (y) = 0.21056 0.32004
# Poissons Ratio (z) = 0.28405 0.24380
#
# Static dielectric constant tensor:
#      x y z
#    x 1.729000 -0.015870 0.010530 
#    y -0.015870 1.684430 -0.003160 
#    z 0.010530 -0.003160 1.721440 
# 
# From -- ./inp_files/495918.got.cif
#   From: 2010.05.17/outbox.cif.g08.bks.cpg/sg2_248_cif.got.tgz:495918.got - 2010.06.03 11:33:40.
