data_PCOD9062029
_publ_section_title
;
Structure prediction by ZEFSAII (Michael W. Deem and Ramdas Pophale) SiO2 
 PCOD9062029
Probable space group: P -1
;
_chemical_formula_sum "Si O2"
_cell_formula_units_Z 14
_cell_length_a 11.759655
_cell_length_b 8.146230
_cell_length_c 7.763186
_cell_angle_alpha 63.227198
_cell_angle_beta 86.315055
_cell_angle_gamma 112.804731
_cell_volume 585.718696
_symmetry_space_group_name_H-M "P -1"
_symmetry_group_IT_number 2
_symmetry_cell_setting 'triclinic'
loop_
_space_group_symop_operation_xyz
x,y,z
-x,-y,-z
loop_
_atom_site_type_symbol
_atom_site_label
_atom_site_fract_x
_atom_site_fract_y
_atom_site_fract_z
Si Si1 0.286297 0.631864 0.284989
Si Si2 0.191265 0.121658 0.201448
Si Si3 0.511625 0.162484 0.567044
Si Si4 0.986990 0.700820 0.965854
Si Si5 0.038630 0.319740 0.614095
Si Si6 0.432734 0.414537 0.226381
Si Si7 0.256173 0.974190 0.914206
O O1 0.358131 0.778503 0.369424
O O2 0.175511 0.412939 0.465639
O O3 0.393705 0.583905 0.216248
O O4 0.242133 0.760326 0.102600
O O5 0.303192 0.203587 0.291915
O O6 0.125428 0.273074 0.130827
O O7 0.072751 0.893403 0.347921
O O8 0.248698 0.108433 0.013401
O O9 0.515980 0.362220 0.377189
O O10 0.500000 0.000000 0.500000
O O11 0.387074 0.072951 0.746495
O O12 0.954245 0.698064 0.172992
O O13 0.000000 0.500000 0.000000
O O14 0.128288 0.901697 0.844411
O O15 0.000000 0.500000 0.500000
O O16 0.500000 0.500000 0.000000
#
# Coordination Sequence:
#
# PCOD9062029 Si02
#       7
#     2   2   2   2   2   2   2
#     4  12  25  46  72 103 145 182 237 296 351 425
#     4  11  25  46  73 102 148 184 235 289 357 427
#     4  12  28  45  73 101 137 190 242 293 356 422
#     4  11  25  42  71 105 143 185 229 290 351 431
#     4  11  24  44  72 105 141 184 233 292 359 414
#     4  12  28  47  69 103 141 190 240 295 350 423
#     4  11  23  47  69 103 139 187 233 293 356 412
#
# _framework density 23.902259000000001
#
# number of rings (size 3 to 8) (size 9 to 14) (size 15 to 20)
#    0.000    0.571    2.857    6.000    8.000    0.571 
#    0.000    0.000    0.000    0.000    0.000    0.000 
#    0.000    0.000    0.000    0.000    0.000    0.000 
#
# Total GULP energy -78453.298086 kJ/mol
# GULP energy per Si atom -5603.807006 kJ/mol
# Density = 2.384786 g / cm^3
# Si number density = 23.902259 Si / 1000 Ang^3
#
#
#
# Elastic Constant Matrix: (Units=GPa)
#
#
# Indices 1 2 3 4 5 6 
#
# 1 68.4618 -0.0096 20.9594 0.8239 -1.9186 -10.1587
# 2 -0.0096 95.6545 0.7622 5.4020 -8.9351 -9.4732
# 3 20.9594 0.7622 101.5241 -11.6322 -24.9444 7.8129
# 4 0.8239 5.4020 -11.6322 23.8297 -2.7800 3.3184
# 5 -1.9186 -8.9351 -24.9444 -2.7800 41.1995 -1.0372
# 6 -10.1587 -9.4732 7.8129 3.3184 -1.0372 52.4804
#
#
#
# Elastic Compliance Matrix: (Units=1/GPa)
#
#
# Indices 1 2 3 4 5 6 
#
# 1 0.016668 0.000473 -0.004734 -0.003831 -0.002139 0.004217
# 2 0.000473 0.011041 -0.000113 -0.002637 0.002228 0.002312
# 3 -0.004734 -0.000113 0.014271 0.008671 0.008894 -0.003434
# 4 -0.003831 -0.002637 0.008671 0.048575 0.007641 -0.005429
# 5 -0.002139 0.002228 0.008894 0.007641 0.030526 -0.001216
# 6 0.004217 0.002312 -0.003434 -0.005429 -0.001216 0.021119
#
#
# Mechanical properties :
#
#
# Convention : Reuss Voigt Hill
#
# Bulk Modulus (GPa) = 30.09021 34.34049 32.21535
# Shear Modulus (GPa) = 30.85962 39.76381 35.31171
#
# Velocity S-wave (km/s) = 3.59705 4.08315 3.84779
# Velocity P-wave (km/s) = 5.46515 6.05208 5.76609
#
# Compressibility (1/GPa) = 0.03323340
#
# Stress axis : x y z
#
# Youngs Moduli (GPa) = 59.99595 90.56906 70.07187
#
# Poissons Ratio (x) = -0.04288 0.33170
# Poissons Ratio (y) = -0.02841 0.00793
# Poissons Ratio (z) = 0.28400 0.01025
#
# Static dielectric constant tensor:
#      x y z
#    x 1.890760 -0.052450 -0.265920 
#    y -0.052450 1.693800 -0.619840 
#    z -0.265920 -0.619840 0.208460 
# 
# From -- ./inp_files/237132.got.cif
#   From: 2010.05.17/outbox.cif.g08.bks.cpg/sg2_119_cif.got.tgz:237132.got - 2010.06.03 11:33:40.
