data_PCOD9062395
_publ_section_title
;
Structure prediction by ZEFSAII (Michael W. Deem and Ramdas Pophale) SiO2 
 PCOD9062395
Probable space group: P -1
;
_chemical_formula_sum "Si O2"
_cell_formula_units_Z 15
_cell_length_a 26.329336
_cell_length_b 24.566280
_cell_length_c 5.261422
_cell_angle_alpha 63.162096
_cell_angle_beta 115.463309
_cell_angle_gamma 169.027684
_cell_volume 576.199585
_symmetry_space_group_name_H-M "P -1"
_symmetry_group_IT_number 2
_symmetry_cell_setting 'triclinic'
loop_
_space_group_symop_operation_xyz
x,y,z
-x,-y,-z
loop_
_atom_site_type_symbol
_atom_site_label
_atom_site_fract_x
_atom_site_fract_y
_atom_site_fract_z
Si Si1 0.759089 0.814349 0.393591
Si Si2 0.856166 0.740644 0.112617
Si Si3 0.186326 0.775659 0.547787
Si Si4 0.000000 0.000000 0.000000
Si Si5 0.605564 0.791687 0.075521
Si Si6 0.269336 0.626293 0.326623
Si Si7 0.263679 0.726857 0.752502
Si Si8 0.092711 0.866891 0.508334
O O1 0.500000 0.500000 0.500000
O O2 0.704588 0.827663 0.244038
O O3 0.916018 0.971611 0.127001
O O4 0.913972 0.955806 0.673997
O O5 0.700199 0.541976 0.964876
O O6 0.970747 0.805751 0.375838
O O7 0.700804 0.633799 0.112302
O O8 0.219294 0.740926 0.790581
O O9 0.982549 0.603073 0.621540
O O10 0.020714 0.590431 0.321453
O O11 0.484539 0.119367 0.484110
O O12 0.697716 0.921270 0.258969
O O13 0.754606 0.977476 0.759812
O O14 0.151871 0.439108 0.366355
O O15 0.363626 0.771407 0.002879
O O16 0.500000 0.000000 0.500000
#
# Coordination Sequence:
#
# PCOD9062395 Si02
#       8
#     2   2   2   1   2   2   2   2
#     4  11  24  40  65 103 139 179 239 302 381 450
#     4  11  26  43  69 104 141 188 245 312 375 455
#     4  11  26  46  72 113 149 197 248 313 380 453
#     4  12  22  40  72  98 136 184 232 304 378 440
#     4  11  26  48  71 100 143 192 244 313 371 453
#     4  12  28  46  75 106 155 202 256 312 383 460
#     4  11  25  45  79 115 156 195 251 320 383 454
#     4  11  29  48  71 102 145 196 252 305 375 449
#
# _framework density 26.032647000000001
#
# number of rings (size 3 to 8) (size 9 to 14) (size 15 to 20)
#    0.000    0.800    4.000    1.200    9.333    0.533 
#    0.000    0.000    0.000    0.000    0.000    0.000 
#    0.000    0.000    0.000    0.000    0.000    0.000 
#
# Total GULP energy -83733.245942 kJ/mol
# GULP energy per Si atom -5582.216396 kJ/mol
# Density = 2.597340 g / cm^3
# Si number density = 26.032647 Si / 1000 Ang^3
#
#
#
# Elastic Constant Matrix: (Units=GPa)
#
#
# Indices 1 2 3 4 5 6 
#
# 1 86.3261 43.1064 29.0483 -12.4773 6.4944 -15.5014
# 2 43.1064 177.9160 52.8892 21.9848 -1.9590 -30.4217
# 3 29.0483 52.8892 94.6810 31.1849 -15.7607 -21.9753
# 4 -12.4773 21.9848 31.1849 25.5838 -6.7355 -6.1355
# 5 6.4944 -1.9590 -15.7607 -6.7355 28.1133 -2.0455
# 6 -15.5014 -30.4217 -21.9753 -6.1355 -2.0455 49.7691
#
#
#
# Elastic Compliance Matrix: (Units=1/GPa)
#
#
# Indices 1 2 3 4 5 6 
#
# 1 0.027944 -0.005821 -0.019955 0.041068 -0.008131 0.001063
# 2 -0.005821 0.008441 0.001353 -0.011060 0.000230 0.002590
# 3 -0.019955 0.001353 0.035561 -0.049662 0.013086 0.004729
# 4 0.041068 -0.011060 -0.049662 0.126990 -0.007715 -0.000559
# 5 -0.008131 0.000230 0.013086 -0.007715 0.043259 0.004213
# 6 0.001063 0.002590 0.004729 -0.000559 0.004213 0.024199
#
#
# Mechanical properties :
#
#
# Convention : Reuss Voigt Hill
#
# Bulk Modulus (GPa) = 43.29022 67.66788 55.47905
# Shear Modulus (GPa) = 15.48274 36.28518 25.88396
#
# Velocity S-wave (km/s) = 2.44138 3.73746 3.15665
# Velocity P-wave (km/s) = 4.96109 6.68391 5.88588
#
# Compressibility (1/GPa) = 0.02309991
#
# Stress axis : x y z
#
# Youngs Moduli (GPa) = 35.78597 118.47286 28.12043
#
# Poissons Ratio (x) = 0.68961 0.56114
# Poissons Ratio (y) = 0.20830 -0.03804
# Poissons Ratio (z) = 0.71411 -0.16027
#
# Static dielectric constant tensor:
#      x y z
#    x 2.335200 -0.044900 -0.294060 
#    y -0.044900 2.219540 0.016600 
#    z -0.294060 0.016600 2.288090 
# 
# From -- ./inp_files/13576.got.cif
#   From: 2010.05.17/outbox.cif.g08.bks.cpg/sg2_7_cif.got.tgz:13576.got - 2010.06.03 11:33:40.
