data_PCOD9062127
_publ_section_title
;
Structure prediction by ZEFSAII (Michael W. Deem and Ramdas Pophale) SiO2 
 PCOD9062127
Probable space group: P -1
;
_chemical_formula_sum "Si O2"
_cell_formula_units_Z 15
_cell_length_a 15.680321
_cell_length_b 9.070254
_cell_length_c 11.174739
_cell_angle_alpha 79.971218
_cell_angle_beta 143.770431
_cell_angle_gamma 123.713026
_cell_volume 649.202063
_symmetry_space_group_name_H-M "P -1"
_symmetry_group_IT_number 2
_symmetry_cell_setting 'triclinic'
loop_
_space_group_symop_operation_xyz
x,y,z
-x,-y,-z
loop_
_atom_site_type_symbol
_atom_site_label
_atom_site_fract_x
_atom_site_fract_y
_atom_site_fract_z
Si Si1 0.867404 0.767211 0.032253
Si Si2 0.500000 0.000000 0.000000
Si Si3 0.029381 0.839592 0.959662
Si Si4 0.882558 0.500368 0.642482
Si Si5 0.267060 0.347714 0.715719
Si Si6 0.877691 0.070950 0.487090
Si Si7 0.615773 0.038630 0.506065
Si Si8 0.307519 0.656373 0.025909
O O1 0.069508 0.866123 0.323157
O O2 0.857836 0.752072 0.878328
O O3 0.702962 0.528515 0.932016
O O4 0.879535 0.954390 0.041534
O O5 0.274114 0.916371 0.738124
O O6 0.610938 0.226347 0.025285
O O7 0.958853 0.654097 0.820958
O O8 0.204401 0.923860 0.237938
O O9 0.776262 0.536916 0.426835
O O10 0.713489 0.255213 0.523327
O O11 0.082999 0.563340 0.809520
O O12 0.097285 0.230663 0.645267
O O13 0.215303 0.161586 0.606816
O O14 0.500000 0.500000 0.000000
O O15 0.500000 0.000000 0.500000
O O16 0.462548 0.844404 0.270190
#
# Coordination Sequence:
#
# PCOD9062127 Si02
#       8
#     2   1   2   2   2   2   2   2
#     4  11  25  45  74 105 156 192 241 314 378 445
#     4  12  28  46  76 106 152 192 252 316 382 444
#     4  11  23  47  74 107 147 199 246 309 374 449
#     4  12  24  49  78 103 151 200 251 314 369 458
#     4  11  27  47  78 106 144 202 253 305 375 452
#     4  11  26  49  71 110 151 191 251 313 375 452
#     4  12  25  42  74 107 142 194 257 298 367 444
#     4  12  27  46  73 111 149 201 247 309 383 449
#
# _framework density 23.105288000000002
#
# number of rings (size 3 to 8) (size 9 to 14) (size 15 to 20)
#    0.000    0.533    5.333    2.000    3.733    2.133 
#    0.000    0.000    0.000    0.000    0.000    0.000 
#    0.000    0.000    0.000    0.000    0.000    0.000 
#
# Total GULP energy -83606.358926 kJ/mol
# GULP energy per Si atom -5573.757262 kJ/mol
# Density = 2.305270 g / cm^3
# Si number density = 23.105288 Si / 1000 Ang^3
#
#
#
# Elastic Constant Matrix: (Units=GPa)
#
#
# Indices 1 2 3 4 5 6 
#
# 1 73.7266 48.3941 40.5340 0.6334 28.8218 8.7521
# 2 48.3941 270.2555 90.6572 -16.4321 56.7949 23.8657
# 3 40.5340 90.6572 155.4090 -7.8550 36.0079 1.8943
# 4 0.6334 -16.4321 -7.8550 58.4861 -39.3304 -0.0737
# 5 28.8218 56.7949 36.0079 -39.3304 133.0916 20.0079
# 6 8.7521 23.8657 1.8943 -0.0737 20.0079 31.9797
#
#
#
# Elastic Compliance Matrix: (Units=1/GPa)
#
#
# Indices 1 2 3 4 5 6 
#
# 1 0.017691 -0.001516 -0.003174 -0.003046 -0.002975 -0.001668
# 2 -0.001516 0.005220 -0.002444 0.000774 -0.000561 -0.002983
# 3 -0.003174 -0.002444 0.008917 -0.000255 -0.001195 0.002912
# 4 -0.003046 0.000774 -0.000255 0.022505 0.007727 -0.004511
# 5 -0.002975 -0.000561 -0.001195 0.007727 0.011927 -0.006141
# 6 -0.001668 -0.002983 0.002912 -0.004511 -0.006141 0.037612
#
#
# Mechanical properties :
#
#
# Convention : Reuss Voigt Hill
#
# Bulk Modulus (GPa) = 56.95050 95.39572 76.17311
# Shear Modulus (GPa) = 40.32476 66.03187 53.17831
#
# Velocity S-wave (km/s) = 4.18216 5.35170 4.80267
# Velocity P-wave (km/s) = 6.92982 8.91990 7.98709
#
# Compressibility (1/GPa) = 0.01755911
#
# Stress axis : x y z
#
# Youngs Moduli (GPa) = 56.52596 191.57448 112.14643
#
# Poissons Ratio (x) = 0.29039 0.35599
# Poissons Ratio (y) = 0.08568 0.27411
# Poissons Ratio (z) = 0.17943 0.46825
#
# Static dielectric constant tensor:
#      x y z
#    x 2.198860 0.065690 0.127920 
#    y 0.065690 1.872820 0.008280 
#    z 0.127920 0.008280 1.942480 
# 
# From -- ./inp_files/40347.got.cif
#   From: 2010.05.17/outbox.cif.g08.bks.cpg/sg2_21_cif.got.tgz:40347.got - 2010.06.03 11:33:40.
