data_PCOD9062258
_publ_section_title
;
Structure prediction by ZEFSAII (Michael W. Deem and Ramdas Pophale) SiO2 
 PCOD9062258
Probable space group: P -1
;
_chemical_formula_sum "Si O2"
_cell_formula_units_Z 14
_cell_length_a 9.495146
_cell_length_b 7.257056
_cell_length_c 11.681407
_cell_angle_alpha 56.508646
_cell_angle_beta 122.951105
_cell_angle_gamma 93.681949
_cell_volume 530.323393
_symmetry_space_group_name_H-M "P -1"
_symmetry_group_IT_number 2
_symmetry_cell_setting 'triclinic'
loop_
_space_group_symop_operation_xyz
x,y,z
-x,-y,-z
loop_
_atom_site_type_symbol
_atom_site_label
_atom_site_fract_x
_atom_site_fract_y
_atom_site_fract_z
Si Si1 0.615406 0.377274 0.943902
Si Si2 0.849664 0.013424 0.576944
Si Si3 0.780063 0.509766 0.334353
Si Si4 0.666212 0.965598 0.287201
Si Si5 0.904797 0.499702 0.139185
Si Si6 0.753262 0.363198 0.775151
Si Si7 0.571059 0.156666 0.590433
O O1 0.410270 0.511766 0.778155
O O2 0.705724 0.259688 0.906342
O O3 0.720116 0.548454 0.973802
O O4 0.618495 0.182467 0.105403
O O5 0.883150 0.258577 0.522122
O O6 0.994248 0.223147 0.244650
O O7 0.676789 0.022464 0.572979
O O8 0.809269 0.986979 0.434799
O O9 0.735742 0.725217 0.327802
O O10 0.868109 0.541101 0.243575
O O11 0.508532 0.951858 0.304566
O O12 0.053924 0.611797 0.135327
O O13 0.727429 0.225308 0.700367
O O14 0.593127 0.613327 0.600516
#
# Coordination Sequence:
#
# PCOD9062258 Si02
#       7
#     2   2   2   2   2   2   2
#     4  12  26  51  76 114 157 199 253 311 390 452
#     4  12  26  48  79 114 149 200 259 307 378 453
#     4  12  26  50  79 107 161 196 252 318 373 456
#     4  12  26  47  83 112 145 203 261 304 376 459
#     4  12  28  46  74 118 155 199 251 317 379 448
#     4  11  24  49  77 115 151 202 255 308 383 452
#     4  11  23  48  80 108 151 201 255 311 369 456
#
# _framework density 26.398987999999999
#
# number of rings (size 3 to 8) (size 9 to 14) (size 15 to 20)
#    0.000    0.286    5.714    3.000    0.000    1.714 
#    2.571    1.429    0.000    0.000    0.000    0.000 
#    0.000    0.000    0.000    0.000    0.000    0.000 
#
# Total GULP energy -78545.354151 kJ/mol
# GULP energy per Si atom -5610.382439 kJ/mol
# Density = 2.633890 g / cm^3
# Si number density = 26.398988 Si / 1000 Ang^3
#
#
#
# Elastic Constant Matrix: (Units=GPa)
#
#
# Indices 1 2 3 4 5 6 
#
# 1 178.6546 29.6255 52.1604 6.0108 -17.2015 -7.7668
# 2 29.6255 96.0564 37.6187 19.5831 10.9778 -17.8449
# 3 52.1604 37.6187 87.1850 15.9398 -10.4506 7.0636
# 4 6.0108 19.5831 15.9398 32.3651 -2.6188 0.6686
# 5 -17.2015 10.9778 -10.4506 -2.6188 49.2614 14.0054
# 6 -7.7668 -17.8449 7.0636 0.6686 14.0054 47.5730
#
#
#
# Elastic Compliance Matrix: (Units=1/GPa)
#
#
# Indices 1 2 3 4 5 6 
#
# 1 0.007052 -0.000926 -0.003931 0.001302 0.001653 0.000883
# 2 -0.000926 0.018708 -0.008092 -0.008183 -0.009790 0.011065
# 3 -0.003931 -0.008092 0.019404 -0.003204 0.006797 -0.008514
# 4 0.001302 -0.008183 -0.003204 0.037665 0.004833 -0.004333
# 5 0.001653 -0.009790 0.006797 0.004833 0.028409 -0.012843
# 6 0.000883 0.011065 -0.008514 -0.004333 -0.012843 0.030421
#
#
# Mechanical properties :
#
#
# Convention : Reuss Voigt Hill
#
# Bulk Modulus (GPa) = 51.90542 66.74503 59.32523
# Shear Modulus (GPa) = 28.73889 42.00600 35.37244
#
# Velocity S-wave (km/s) = 3.30303 3.99331 3.66446
# Velocity P-wave (km/s) = 5.85246 6.82643 6.35812
#
# Compressibility (1/GPa) = 0.01926581
#
# Stress axis : x y z
#
# Youngs Moduli (GPa) = 141.79499 53.45321 51.53641
#
# Poissons Ratio (x) = 0.04949 0.20260
# Poissons Ratio (y) = 0.13129 0.41704
# Poissons Ratio (z) = 0.55742 0.43255
#
# Static dielectric constant tensor:
#      x y z
#    x 2.051050 0.047900 0.058390 
#    y 0.047900 2.091460 0.010450 
#    z 0.058390 0.010450 2.071150 
# 
# From -- ./inp_files/381444.got.cif
#   From: 2010.05.17/outbox.cif.g08.bks.cpg/sg2_191_cif.got.tgz:381444.got - 2010.06.03 11:33:40.
