data_PCOD9062468
_publ_section_title
;
Structure prediction by ZEFSAII (Michael W. Deem and Ramdas Pophale) SiO2 
 PCOD9062468
Probable space group: P -1
;
_chemical_formula_sum "Si O2"
_cell_formula_units_Z 14
_cell_length_a 31.106762
_cell_length_b 6.797816
_cell_length_c 28.803459
_cell_angle_alpha 49.293709
_cell_angle_beta 171.167467
_cell_angle_gamma 131.240585
_cell_volume 703.214910
_symmetry_space_group_name_H-M "P -1"
_symmetry_group_IT_number 2
_symmetry_cell_setting 'triclinic'
loop_
_space_group_symop_operation_xyz
x,y,z
-x,-y,-z
loop_
_atom_site_type_symbol
_atom_site_label
_atom_site_fract_x
_atom_site_fract_y
_atom_site_fract_z
Si Si1 0.928808 0.516974 0.780099
Si Si2 0.701427 0.774113 0.850805
Si Si3 0.001253 0.131893 0.747918
Si Si4 0.495518 0.043235 0.933226
Si Si5 0.794432 0.390831 0.838502
Si Si6 0.113798 0.227906 0.676113
Si Si7 0.414126 0.345953 0.074372
O O1 0.623314 0.348866 0.478321
O O2 0.911725 0.820360 0.703574
O O3 0.125872 0.395573 0.972210
O O4 0.066779 0.516754 0.978400
O O5 0.743272 0.075736 0.832757
O O6 0.825069 0.777693 0.034247
O O7 0.723887 0.273820 0.425971
O O8 0.199095 0.202792 0.904039
O O9 0.588727 0.343385 0.973949
O O10 0.169057 0.962972 0.583830
O O11 0.500000 0.000000 0.000000
O O12 0.708413 0.872378 0.161040
O O13 0.500000 0.500000 0.500000
O O14 0.000000 0.500000 0.000000
O O15 0.000000 0.500000 0.500000
O O16 0.316607 0.262386 0.931438
#
# Coordination Sequence:
#
# PCOD9062468 Si02
#       7
#     2   2   2   2   2   2   2
#     4  11  24  43  68  93 132 177 216 268 321 374
#     4  11  24  43  68  93 132 177 216 268 321 374
#     4  11  26  44  64  97 128 168 222 276 316 386
#     4  12  26  43  68  95 129 168 211 263 334 402
#     4  11  24  41  64 102 138 168 218 264 316 382
#     4  12  26  43  68  95 129 168 211 263 334 402
#     4  12  26  43  68  95 130 166 218 272 332 390
#
# _framework density 19.908564999999999
#
# number of rings (size 3 to 8) (size 9 to 14) (size 15 to 20)
#    0.000    0.571    1.429    6.000    2.000   14.857 
#    0.000    0.000    0.000    0.000    0.000    0.000 
#    0.000    0.000    0.000    0.000    0.000    0.000 
#
# Total GULP energy -78398.799262 kJ/mol
# GULP energy per Si atom -5599.914233 kJ/mol
# Density = 1.986325 g / cm^3
# Si number density = 19.908565 Si / 1000 Ang^3
#
#
#
# Elastic Constant Matrix: (Units=GPa)
#
#
# Indices 1 2 3 4 5 6 
#
# 1 122.7664 44.3478 37.6673 -18.3235 4.2787 4.8400
# 2 44.3478 72.4372 35.1889 -4.6560 -22.3636 -1.5230
# 3 37.6673 35.1889 122.8938 -7.6776 1.4875 4.1353
# 4 -18.3235 -4.6560 -7.6776 43.0737 -2.0256 6.8888
# 5 4.2787 -22.3636 1.4875 -2.0256 40.8944 -3.7889
# 6 4.8400 -1.5230 4.1353 6.8888 -3.7889 37.6874
#
#
#
# Elastic Compliance Matrix: (Units=1/GPa)
#
#
# Indices 1 2 3 4 5 6 
#
# 1 0.012735 -0.009163 -0.000805 0.004524 -0.006404 -0.003388
# 2 -0.009163 0.027061 -0.005423 -0.001950 0.016308 0.004861
# 3 -0.000805 -0.005423 0.010098 0.000992 -0.003361 -0.001743
# 4 0.004524 -0.001950 0.000992 0.025963 -0.000808 -0.005596
# 5 -0.006404 0.016308 -0.003361 -0.000808 0.034631 0.005480
# 6 -0.003388 0.004861 -0.001743 -0.005596 0.005480 0.028931
#
#
# Mechanical properties :
#
#
# Convention : Reuss Voigt Hill
#
# Bulk Modulus (GPa) = 52.32458 61.38948 56.85703
# Shear Modulus (GPa) = 28.31726 37.72399 33.02063
#
# Velocity S-wave (km/s) = 3.77552 4.35772 4.07703
# Velocity P-wave (km/s) = 6.73391 7.49816 7.12629
#
# Compressibility (1/GPa) = 0.01911148
#
# Stress axis : x y z
#
# Youngs Moduli (GPa) = 78.52679 36.95407 99.02916
#
# Poissons Ratio (x) = 0.33859 0.07976
# Poissons Ratio (y) = 0.71950 0.53702
# Poissons Ratio (z) = 0.06325 0.20040
#
# Static dielectric constant tensor:
#      x y z
#    x 1.663190 -0.002950 -0.008330 
#    y -0.002950 1.686570 0.010110 
#    z -0.008330 0.010110 1.679220 
# 
# From -- ./inp_files/121059.got.cif
#   From: 2010.05.17/outbox.cif.g08.bks.cpg/sg2_61_cif.got.tgz:121059.got - 2010.06.03 11:33:40.
