data_PCOD9062627
_publ_section_title
;
Structure prediction by ZEFSAII (Michael W. Deem and Ramdas Pophale) SiO2 
 PCOD9062627
Probable space group: P -1
;
_chemical_formula_sum "Si O2"
_cell_formula_units_Z 16
_cell_length_a 11.872589
_cell_length_b 7.864536
_cell_length_c 13.881578
_cell_angle_alpha 68.378993
_cell_angle_beta 33.040364
_cell_angle_gamma 72.013688
_cell_volume 656.980349
_symmetry_space_group_name_H-M "P -1"
_symmetry_group_IT_number 2
_symmetry_cell_setting 'triclinic'
loop_
_space_group_symop_operation_xyz
x,y,z
-x,-y,-z
loop_
_atom_site_type_symbol
_atom_site_label
_atom_site_fract_x
_atom_site_fract_y
_atom_site_fract_z
Si Si1 0.178395 0.107037 0.406226
Si Si2 0.525583 0.559935 0.130546
Si Si3 0.724440 0.820342 0.275651
Si Si4 0.411728 0.040781 0.948789
Si Si5 0.257497 0.836341 0.549625
Si Si6 0.970904 0.897572 0.897729
Si Si7 0.264335 0.467635 0.506056
Si Si8 0.188227 0.521886 0.236260
O O1 0.175003 0.315652 0.332039
O O2 0.404485 0.033894 0.231778
O O3 0.162816 0.028563 0.540926
O O4 0.000000 0.000000 0.500000
O O5 0.618685 0.740978 0.071848
O O6 0.439585 0.439508 0.305060
O O7 0.324360 0.621655 0.198741
O O8 0.681764 0.478804 0.956517
O O9 0.488566 0.870805 0.411963
O O10 0.709748 0.647088 0.392182
O O11 0.856594 0.974233 0.203548
O O12 0.845141 0.795725 0.093518
O O13 0.197391 0.981501 0.066423
O O14 0.500000 0.000000 0.000000
O O15 0.101479 0.771886 0.757960
O O16 0.259857 0.680886 0.497625
O O17 0.043764 0.420942 0.627627
#
# Coordination Sequence:
#
# PCOD9062627 Si02
#       8
#     2   2   2   2   2   2   2   2
#     4  12  22  41  69 102 137 173 223 277 335 404
#     4  11  24  42  62 100 139 175 226 273 344 399
#     4  11  27  47  69  99 137 182 226 285 334 403
#     4  12  22  41  72  99 136 178 221 282 340 399
#     4  12  24  45  71 100 133 177 233 275 338 406
#     4  11  26  47  70 100 135 178 233 279 341 406
#     4  12  25  43  69  97 138 176 230 276 337 400
#     4  11  25  42  64 102 140 181 217 278 341 404
#
# _framework density 24.353847999999999
#
# number of rings (size 3 to 8) (size 9 to 14) (size 15 to 20)
#    0.000    0.500    5.000    2.625    3.500    1.500 
#    0.000    0.000    0.000    0.000    0.000    0.000 
#    0.000    0.000    0.000    0.000    0.000    0.000 
#
# Total GULP energy -89538.494202 kJ/mol
# GULP energy per Si atom -5596.155888 kJ/mol
# Density = 2.429842 g / cm^3
# Si number density = 24.353848 Si / 1000 Ang^3
#
#
#
# Elastic Constant Matrix: (Units=GPa)
#
#
# Indices 1 2 3 4 5 6 
#
# 1 116.3757 32.3878 61.7807 -8.1262 -8.8284 -11.2327
# 2 32.3878 65.5555 24.7491 -15.5702 3.9011 -8.0252
# 3 61.7807 24.7491 162.8198 -4.1096 15.6671 -14.7927
# 4 -8.1262 -15.5702 -4.1096 24.2287 -0.2191 7.1860
# 5 -8.8284 3.9011 15.6671 -0.2191 66.9869 -9.5127
# 6 -11.2327 -8.0252 -14.7927 7.1860 -9.5127 35.8074
#
#
#
# Elastic Compliance Matrix: (Units=1/GPa)
#
#
# Indices 1 2 3 4 5 6 
#
# 1 0.012513 -0.004547 -0.004179 -0.000006 0.003179 0.002026
# 2 -0.004547 0.020723 -0.000978 0.011588 -0.001528 0.000083
# 3 -0.004179 -0.000978 0.008196 -0.001102 -0.002202 0.001492
# 4 -0.000006 0.011588 -0.001102 0.051036 -0.001457 -0.008489
# 5 0.003179 -0.001528 -0.002202 -0.001457 0.016577 0.004441
# 6 0.002026 0.000083 0.001492 -0.008489 0.004441 0.032081
#
#
# Mechanical properties :
#
#
# Convention : Reuss Voigt Hill
#
# Bulk Modulus (GPa) = 45.40332 64.73179 55.06756
# Shear Modulus (GPa) = 29.78414 40.46016 35.12215
#
# Velocity S-wave (km/s) = 3.50090 4.08038 3.80170
# Velocity P-wave (km/s) = 5.91822 6.98833 6.47542
#
# Compressibility (1/GPa) = 0.02202482
#
# Stress axis : x y z
#
# Youngs Moduli (GPa) = 79.91697 48.25503 122.01645
#
# Poissons Ratio (x) = 0.21942 0.50988
# Poissons Ratio (y) = 0.36339 0.11928
# Poissons Ratio (z) = 0.33396 0.04717
#
# Static dielectric constant tensor:
#      x y z
#    x 2.055470 0.019760 0.157920 
#    y 0.019760 1.955290 -0.013480 
#    z 0.157920 -0.013480 2.040510 
# 
# From -- ./inp_files/515278.got.cif
#   From: 2010.05.17/outbox.cif.g08.bks.cpg/sg2_258_cif.got.tgz:515278.got - 2010.06.03 11:33:40.
