data_PCOD9062852
_publ_section_title
;
Structure prediction by ZEFSAII (Michael W. Deem and Ramdas Pophale) SiO2 
 PCOD9062852
Probable space group: P -1
;
_chemical_formula_sum "Si O2"
_cell_formula_units_Z 13
_cell_length_a 11.767630
_cell_length_b 8.924973
_cell_length_c 8.248987
_cell_angle_alpha 85.521779
_cell_angle_beta 39.154199
_cell_angle_gamma 77.299063
_cell_volume 527.600541
_symmetry_space_group_name_H-M "P -1"
_symmetry_group_IT_number 2
_symmetry_cell_setting 'triclinic'
loop_
_space_group_symop_operation_xyz
x,y,z
-x,-y,-z
loop_
_atom_site_type_symbol
_atom_site_label
_atom_site_fract_x
_atom_site_fract_y
_atom_site_fract_z
Si Si1 0.323095 0.575955 0.301197
Si Si2 0.105922 0.201968 0.883341
Si Si3 0.745798 0.823685 0.645417
Si Si4 0.689576 0.128947 0.844246
Si Si5 0.615792 0.618523 0.428468
Si Si6 0.243919 0.851157 0.870599
Si Si7 0.000000 0.500000 0.500000
O O1 0.331701 0.753927 0.294694
O O2 0.329047 0.463596 0.453999
O O3 0.125644 0.600854 0.434259
O O4 0.500000 0.500000 0.000000
O O5 0.179863 0.179732 0.618869
O O6 0.197855 0.334635 0.845827
O O7 0.175342 0.036155 0.907597
O O8 0.885135 0.230597 0.091244
O O9 0.826588 0.657250 0.649551
O O10 0.794836 0.959015 0.685253
O O11 0.522915 0.867080 0.877604
O O12 0.767765 0.181591 0.921390
O O13 0.500000 0.500000 0.500000
O O14 0.457969 0.780158 0.593523
#
# Coordination Sequence:
#
# PCOD9062852 Si02
#       7
#     2   2   2   2   2   2   1
#     4  12  23  43  67 100 136 176 226 282 342 400
#     4  11  24  46  67  99 131 186 230 281 343 410
#     4  11  24  42  74 102 137 179 229 283 349 413
#     4  11  24  43  70 108 134 181 226 283 352 409
#     4  12  27  44  67  99 140 190 222 286 346 411
#     4  11  24  45  71  95 142 176 233 287 339 413
#     4  12  22  42  70  98 134 176 218 288 336 398
#
# _framework density 24.639855000000001
#
# number of rings (size 3 to 8) (size 9 to 14) (size 15 to 20)
#    0.000    0.615    6.154    1.385    2.154    4.308 
#    2.769    0.000    0.000    0.000    0.000    0.000 
#    0.000    0.000    0.000    0.000    0.000    0.000 
#
# Total GULP energy -72379.399600 kJ/mol
# GULP energy per Si atom -5567.646123 kJ/mol
# Density = 2.458377 g / cm^3
# Si number density = 24.639855 Si / 1000 Ang^3
#
#
#
# Elastic Constant Matrix: (Units=GPa)
#
#
# Indices 1 2 3 4 5 6 
#
# 1 108.7185 6.2075 18.7101 -9.6135 -37.5225 9.0522
# 2 6.2075 100.9186 -2.4608 3.5402 -0.5429 -8.4577
# 3 18.7101 -2.4608 44.5653 -8.2937 -19.0113 -12.0877
# 4 -9.6135 3.5402 -8.2937 38.4886 4.4897 -3.3383
# 5 -37.5225 -0.5429 -19.0113 4.4897 29.0839 -2.4707
# 6 9.0522 -8.4577 -12.0877 -3.3383 -2.4707 31.7013
#
#
#
# Elastic Compliance Matrix: (Units=1/GPa)
#
#
# Indices 1 2 3 4 5 6 
#
# 1 0.017266 -0.001142 0.002381 0.002013 0.023305 -0.002299
# 2 -0.001142 0.010390 0.002325 -0.000470 0.000651 0.003986
# 3 0.002381 0.002325 0.040928 0.007282 0.030330 0.018677
# 4 0.002013 -0.000470 0.007282 0.028155 0.003453 0.005310
# 5 0.023305 0.000651 0.030330 0.003453 0.084779 0.012055
# 6 -0.002299 0.003986 0.018677 0.005310 0.012055 0.041884
#
#
# Mechanical properties :
#
#
# Convention : Reuss Voigt Hill
#
# Bulk Modulus (GPa) = 13.20823 33.23512 23.22167
# Shear Modulus (GPa) = 20.70288 35.30447 28.00368
#
# Velocity S-wave (km/s) = 2.90180 3.78937 3.37489
# Velocity P-wave (km/s) = 4.07424 5.71519 4.96300
#
# Compressibility (1/GPa) = 0.07571038
#
# Stress axis : x y z
#
# Youngs Moduli (GPa) = 57.91652 96.24716 24.43336
#
# Poissons Ratio (x) = 0.10990 -0.05817
# Poissons Ratio (y) = 0.06613 -0.05680
# Poissons Ratio (z) = -0.13788 -0.22373
#
# Static dielectric constant tensor:
#      x y z
#    x 2.091850 0.113680 -0.028610 
#    y 0.113680 1.986750 -0.032020 
#    z -0.028610 -0.032020 1.958860 
# 
# From -- ./inp_files/173813.got.cif
#   From: 2010.05.17/outbox.cif.g08.bks.cpg/sg2_87_cif.got.tgz:173813.got - 2010.06.03 11:33:40.
