data_PCOD9062926
_publ_section_title
;
Structure prediction by ZEFSAII (Michael W. Deem and Ramdas Pophale) SiO2 
 PCOD9062926
Probable space group: P -1
;
_chemical_formula_sum "Si O2"
_cell_formula_units_Z 16
_cell_length_a 8.816614
_cell_length_b 14.503000
_cell_length_c 15.398987
_cell_angle_alpha 36.337117
_cell_angle_beta 41.562126
_cell_angle_gamma 67.074132
_cell_volume 650.313862
_symmetry_space_group_name_H-M "P -1"
_symmetry_group_IT_number 2
_symmetry_cell_setting 'triclinic'
loop_
_space_group_symop_operation_xyz
x,y,z
-x,-y,-z
loop_
_atom_site_type_symbol
_atom_site_label
_atom_site_fract_x
_atom_site_fract_y
_atom_site_fract_z
Si Si1 0.620053 0.026647 0.627844
Si Si2 0.005647 0.172494 0.907119
Si Si3 0.645285 0.850721 0.086801
Si Si4 0.138757 0.536214 0.819402
Si Si5 0.425394 0.720266 0.830397
Si Si6 0.773479 0.085575 0.698552
Si Si7 0.663849 0.505081 0.611330
Si Si8 0.713170 0.552588 0.752426
O O1 0.738428 0.244923 0.414313
O O2 0.752628 0.000431 0.677688
O O3 0.622886 0.938870 0.600896
O O4 0.295849 0.904168 0.874475
O O5 0.213321 0.227052 0.856438
O O6 0.117338 0.330099 0.667839
O O7 0.000000 0.000000 0.000000
O O8 0.510976 0.934120 0.140926
O O9 0.411381 0.684686 0.256449
O O10 0.835357 0.998715 0.820199
O O11 0.391038 0.510996 0.725265
O O12 0.000000 0.500000 0.000000
O O13 0.892321 0.383951 0.979115
O O14 0.549467 0.653945 0.754251
O O15 0.436804 0.626821 0.986594
O O16 0.999441 0.302116 0.437576
O O17 0.745880 0.516185 0.667313
#
# Coordination Sequence:
#
# PCOD9062926 Si02
#       8
#     2   2   2   2   2   2   2   2
#     4  12  26  46  74 102 136 185 229 282 349 403
#     4  12  23  43  69  98 141 175 223 285 345 407
#     4  11  25  41  67 103 137 181 225 279 348 409
#     4  12  25  47  71 102 140 176 234 287 333 413
#     4  11  26  48  71  99 137 185 233 285 341 401
#     4  11  24  43  67 100 141 177 229 281 333 417
#     4  12  25  43  70 102 139 180 227 286 347 407
#     4  11  25  46  68  98 142 180 232 286 333 411
#
# _framework density 24.603504999999998
#
# number of rings (size 3 to 8) (size 9 to 14) (size 15 to 20)
#    0.000    0.500    5.000    2.625    3.500    2.500 
#    0.000    0.000    0.000    0.000    0.000    0.000 
#    0.000    0.000    0.000    0.000    0.000    0.000 
#
# Total GULP energy -89564.011982 kJ/mol
# GULP energy per Si atom -5597.750749 kJ/mol
# Density = 2.454751 g / cm^3
# Si number density = 24.603505 Si / 1000 Ang^3
#
#
#
# Elastic Constant Matrix: (Units=GPa)
#
#
# Indices 1 2 3 4 5 6 
#
# 1 84.0998 27.3373 11.2142 5.0024 -18.3563 24.8885
# 2 27.3373 91.5114 17.5972 -20.6715 -5.4129 21.7152
# 3 11.2142 17.5972 84.0615 3.6352 -1.3010 10.3672
# 4 5.0024 -20.6715 3.6352 40.2645 7.0031 -10.6155
# 5 -18.3563 -5.4129 -1.3010 7.0031 33.3175 -0.5151
# 6 24.8885 21.7152 10.3672 -10.6155 -0.5151 46.4721
#
#
#
# Elastic Compliance Matrix: (Units=1/GPa)
#
#
# Indices 1 2 3 4 5 6 
#
# 1 0.019786 -0.005018 0.000315 -0.009909 0.012019 -0.010452
# 2 -0.005018 0.015190 -0.002683 0.008556 -0.002229 -0.001882
# 3 0.000315 -0.002683 0.012893 -0.003416 0.000919 -0.002561
# 4 -0.009909 0.008556 -0.003416 0.035411 -0.011491 0.010033
# 5 0.012019 -0.002229 0.000919 -0.011491 0.038605 -0.007797
# 6 -0.010452 -0.001882 -0.002561 0.010033 -0.007797 0.030772
#
#
# Mechanical properties :
#
#
# Convention : Reuss Voigt Hill
#
# Bulk Modulus (GPa) = 30.21478 41.33001 35.77240
# Shear Modulus (GPa) = 28.01705 37.57908 32.79807
#
# Velocity S-wave (km/s) = 3.37819 3.91242 3.65508
# Velocity P-wave (km/s) = 5.24629 6.10281 5.69069
#
# Compressibility (1/GPa) = 0.03309638
#
# Stress axis : x y z
#
# Youngs Moduli (GPa) = 50.54088 65.83271 77.55856
#
# Poissons Ratio (x) = 0.33037 -0.02440
# Poissons Ratio (y) = 0.25363 0.20807
# Poissons Ratio (z) = -0.01590 0.17661
#
# Static dielectric constant tensor:
#      x y z
#    x 2.151230 0.199820 0.325430 
#    y 0.199820 2.352400 0.495540 
#    z 0.325430 0.495540 2.630440 
# 
# From -- ./inp_files/505233.got.cif
#   From: 2010.05.17/outbox.cif.g08.bks.cpg/sg2_253_cif.got.tgz:505233.got - 2010.06.03 11:33:40.
