data_PCOD9062747
_publ_section_title
;
Structure prediction by ZEFSAII (Michael W. Deem and Ramdas Pophale) SiO2 
 PCOD9062747
Probable space group: P -1
;
_chemical_formula_sum "Si O2"
_cell_formula_units_Z 14
_cell_length_a 8.983522
_cell_length_b 17.310627
_cell_length_c 14.913059
_cell_angle_alpha 157.795820
_cell_angle_beta 132.730242
_cell_angle_gamma 46.622754
_cell_volume 629.287587
_symmetry_space_group_name_H-M "P -1"
_symmetry_group_IT_number 2
_symmetry_cell_setting 'triclinic'
loop_
_space_group_symop_operation_xyz
x,y,z
-x,-y,-z
loop_
_atom_site_type_symbol
_atom_site_label
_atom_site_fract_x
_atom_site_fract_y
_atom_site_fract_z
Si Si1 0.866873 0.962155 0.775920
Si Si2 0.145774 0.267340 0.290688
Si Si3 0.670692 0.403271 0.894057
Si Si4 0.498658 0.547941 0.445229
Si Si5 0.495058 0.296035 0.011030
Si Si6 0.811926 0.945349 0.416136
Si Si7 0.007478 0.646337 0.334074
O O1 0.810685 0.846844 0.718466
O O2 0.948326 0.778661 0.542405
O O3 0.663764 0.132715 0.848602
O O4 0.030524 0.109443 0.020491
O O5 0.352510 0.295198 0.352270
O O6 0.000000 0.500000 0.500000
O O7 0.678676 0.159931 0.628462
O O8 0.500000 0.500000 0.000000
O O9 0.599334 0.509815 0.883119
O O10 0.891107 0.452691 0.069280
O O11 0.500000 0.500000 0.500000
O O12 0.255206 0.604925 0.381647
O O13 0.586111 0.357568 0.207632
O O14 0.315730 0.175173 0.829304
O O15 0.000000 0.000000 0.500000
O O16 0.900199 0.793804 0.369510
#
# Coordination Sequence:
#
# PCOD9062747 Si02
#       7
#     2   2   2   2   2   2   2
#     4  11  25  44  72 100 136 183 239 282 340 418
#     4  11  25  46  69  97 136 187 234 282 342 408
#     4  11  24  44  72 102 139 183 224 285 349 403
#     4  12  27  46  71 101 145 184 229 293 351 406
#     4  11  25  43  69 104 135 180 235 277 337 421
#     4  11  24  42  69  99 140 183 221 280 354 406
#     4  11  26  44  66 109 138 172 240 285 339 420
#
# _framework density 22.247378999999999
#
# number of rings (size 3 to 8) (size 9 to 14) (size 15 to 20)
#    0.000    0.857    1.429    4.286    8.000    9.714 
#    0.000    0.000    0.000    0.000    0.000    0.000 
#    0.000    0.000    0.000    0.000    0.000    0.000 
#
# Total GULP energy -78275.615539 kJ/mol
# GULP energy per Si atom -5591.115396 kJ/mol
# Density = 2.219674 g / cm^3
# Si number density = 22.247379 Si / 1000 Ang^3
#
#
#
# Elastic Constant Matrix: (Units=GPa)
#
#
# Indices 1 2 3 4 5 6 
#
# 1 118.7941 12.4425 34.6022 -19.2579 20.6919 -0.7216
# 2 12.4425 58.3182 33.2450 -2.1652 12.3755 -8.3750
# 3 34.6022 33.2450 98.7513 -12.7463 14.6537 14.8736
# 4 -19.2579 -2.1652 -12.7463 28.8008 -5.7739 -8.5843
# 5 20.6919 12.3755 14.6537 -5.7739 48.0254 -1.6754
# 6 -0.7216 -8.3750 14.8736 -8.5843 -1.6754 30.9548
#
#
#
# Elastic Compliance Matrix: (Units=1/GPa)
#
#
# Indices 1 2 3 4 5 6 
#
# 1 0.010901 0.001093 -0.003497 0.006362 -0.003013 0.003831
# 2 0.001093 0.024996 -0.009924 0.001020 -0.003354 0.011658
# 3 -0.003497 -0.009924 0.016581 0.000852 -0.001262 -0.010566
# 4 0.006362 0.001020 0.000852 0.043553 0.002399 0.012223
# 5 -0.003013 -0.003354 -0.001262 0.002399 0.023713 0.001577
# 6 0.003831 0.011658 -0.010566 0.012223 0.001577 0.044100
#
#
# Mechanical properties :
#
#
# Convention : Reuss Voigt Hill
#
# Bulk Modulus (GPa) = 35.94186 48.49366 42.21776
# Shear Modulus (GPa) = 25.28133 34.59446 29.93790
#
# Velocity S-wave (km/s) = 3.37467 3.94761 3.67233
# Velocity P-wave (km/s) = 5.60135 6.52863 6.08269
#
# Compressibility (1/GPa) = 0.02782271
#
# Stress axis : x y z
#
# Youngs Moduli (GPa) = 91.73173 40.00718 60.30890
#
# Poissons Ratio (x) = -0.04374 0.21088
# Poissons Ratio (y) = -0.10028 0.59853
# Poissons Ratio (z) = 0.32075 0.39705
#
# Static dielectric constant tensor:
#      x y z
#    x 1.795360 -0.048610 0.020400 
#    y -0.048610 1.816040 -0.056250 
#    z 0.020400 -0.056250 1.643450 
# 
# From -- ./inp_files/27819.got.cif
#   From: 2010.05.17/outbox.cif.g08.bks.cpg/sg2_14_cif.got.tgz:27819.got - 2010.06.03 11:33:40.
