data_PCOD9062767
_publ_section_title
;
Structure prediction by ZEFSAII (Michael W. Deem and Ramdas Pophale) SiO2 
 PCOD9062767
Probable space group: P -1
;
_chemical_formula_sum "Si O2"
_cell_formula_units_Z 16
_cell_length_a 11.273722
_cell_length_b 16.739340
_cell_length_c 9.162177
_cell_angle_alpha 136.222128
_cell_angle_beta 42.631347
_cell_angle_gamma 137.995799
_cell_volume 722.643057
_symmetry_space_group_name_H-M "P -1"
_symmetry_group_IT_number 2
_symmetry_cell_setting 'triclinic'
loop_
_space_group_symop_operation_xyz
x,y,z
-x,-y,-z
loop_
_atom_site_type_symbol
_atom_site_label
_atom_site_fract_x
_atom_site_fract_y
_atom_site_fract_z
Si Si1 0.025082 0.646069 0.415394
Si Si2 0.731383 0.749462 0.875523
Si Si3 0.643866 0.899997 0.907735
Si Si4 0.736312 0.934895 0.530416
Si Si5 0.593839 0.248501 0.620158
Si Si6 0.191143 0.786376 0.166560
Si Si7 0.891121 0.361411 0.257461
Si Si8 0.997817 0.156487 0.992973
O O1 0.226214 0.753233 0.452172
O O2 0.064836 0.676224 0.248903
O O3 0.819390 0.649002 0.636556
O O4 0.007180 0.509424 0.302828
O O5 0.713725 0.811256 0.821101
O O6 0.534494 0.709716 0.098475
O O7 0.904409 0.852615 0.956549
O O8 0.658610 0.897602 0.716099
O O9 0.777315 0.047066 0.030836
O O10 0.419095 0.849485 0.084308
O O11 0.565479 0.878202 0.487238
O O12 0.879502 0.872810 0.280191
O O13 0.852692 0.090412 0.624561
O O14 0.710749 0.340392 0.499361
O O15 0.174276 0.725434 0.942679
O O16 0.014420 0.298807 0.145851
#
# Coordination Sequence:
#
# PCOD9062767 Si02
#       8
#     2   2   2   2   2   2   2   2
#     4  12  27  48  71 100 144 187 231 286 337 412
#     4  11  26  44  69 107 141 179 230 288 346 413
#     4  12  22  43  69 101 145 174 231 288 349 412
#     4  11  24  43  73 104 140 178 230 293 346 420
#     4  11  24  48  70 106 133 186 231 284 349 400
#     4  12  25  45  72 102 142 181 231 290 349 406
#     4  12  25  48  72  98 140 190 236 276 341 417
#     4  11  24  42  70 106 138 185 227 285 354 409
#
# _framework density 22.140946
#
# number of rings (size 3 to 8) (size 9 to 14) (size 15 to 20)
#    0.000    0.500    5.000    3.375    1.750    2.000 
#    2.250    0.625    0.000    0.000    0.000    0.000 
#    0.000    0.000    0.000    0.000    0.000    0.000 
#
# Total GULP energy -89372.846800 kJ/mol
# GULP energy per Si atom -5585.802925 kJ/mol
# Density = 2.209055 g / cm^3
# Si number density = 22.140946 Si / 1000 Ang^3
#
#
#
# Elastic Constant Matrix: (Units=GPa)
#
#
# Indices 1 2 3 4 5 6 
#
# 1 76.6612 5.0839 17.1477 1.3049 -8.1846 -10.1670
# 2 5.0839 70.3419 32.4343 -0.0723 -6.5878 -17.5601
# 3 17.1477 32.4343 94.2245 -15.4176 -23.2196 -8.2246
# 4 1.3049 -0.0723 -15.4176 33.4193 -4.4791 -2.6860
# 5 -8.1846 -6.5878 -23.2196 -4.4791 35.4209 -1.6636
# 6 -10.1670 -17.5601 -8.2246 -2.6860 -1.6636 29.8435
#
#
#
# Elastic Compliance Matrix: (Units=1/GPa)
#
#
# Indices 1 2 3 4 5 6 
#
# 1 0.014401 0.001524 -0.002282 -0.000891 0.002248 0.005219
# 2 0.001524 0.019623 -0.006546 -0.002242 -0.000101 0.010054
# 3 -0.002282 -0.006546 0.017860 0.009977 0.011310 0.001821
# 4 -0.000891 -0.002242 0.009977 0.036399 0.010755 0.005002
# 5 0.002248 -0.000101 0.011310 0.010755 0.037831 0.006900
# 6 0.005219 0.010054 0.001821 0.005002 0.006900 0.042539
#
#
# Mechanical properties :
#
#
# Convention : Reuss Voigt Hill
#
# Bulk Modulus (GPa) = 26.82719 38.95105 32.88912
# Shear Modulus (GPa) = 25.55121 32.17418 28.86270
#
# Velocity S-wave (km/s) = 3.40078 3.81616 3.61444
# Velocity P-wave (km/s) = 5.25007 6.08670 5.68380
#
# Compressibility (1/GPa) = 0.03727562
#
# Stress axis : x y z
#
# Youngs Moduli (GPa) = 69.43959 50.96188 55.99051
#
# Poissons Ratio (x) = -0.07765 0.12775
# Poissons Ratio (y) = -0.10580 0.36652
# Poissons Ratio (z) = 0.15843 0.33360
#
# Static dielectric constant tensor:
#      x y z
#    x 1.865020 -0.004110 0.010840 
#    y -0.004110 1.785480 -0.006650 
#    z 0.010840 -0.006650 1.869230 
# 
# From -- ./inp_files/272444.got.cif
#   From: 2010.05.17/outbox.cif.g08.bks.cpg/sg2_137_cif.got.tgz:272444.got - 2010.06.03 11:33:40.
