data_PCOD9062749
_publ_section_title
;
Structure prediction by ZEFSAII (Michael W. Deem and Ramdas Pophale) SiO2 
 PCOD9062749
Probable space group: P -1
;
_chemical_formula_sum "Si O2"
_cell_formula_units_Z 12
_cell_length_a 6.441426
_cell_length_b 14.956545
_cell_length_c 22.560650
_cell_angle_alpha 20.200347
_cell_angle_beta 47.805671
_cell_angle_gamma 57.756032
_cell_volume 514.693201
_symmetry_space_group_name_H-M "P -1"
_symmetry_group_IT_number 2
_symmetry_cell_setting 'triclinic'
loop_
_space_group_symop_operation_xyz
x,y,z
-x,-y,-z
loop_
_atom_site_type_symbol
_atom_site_label
_atom_site_fract_x
_atom_site_fract_y
_atom_site_fract_z
Si Si1 0.862900 0.345701 0.559750
Si Si2 0.856615 0.863905 0.172823
Si Si3 0.911926 0.603647 0.133500
Si Si4 0.729264 0.904600 0.431940
Si Si5 0.984531 0.156482 0.466916
Si Si6 0.364927 0.729660 0.865157
O O1 0.903715 0.581984 0.355095
O O2 0.499575 0.191956 0.727460
O O3 0.000000 0.500000 0.500000
O O4 0.034127 0.153205 0.621915
O O5 0.000000 0.000000 0.000000
O O6 0.037561 0.088426 0.047663
O O7 0.579040 0.368680 0.343550
O O8 0.075582 0.475090 0.231007
O O9 0.072075 0.642657 0.015645
O O10 0.822679 0.911115 0.477767
O O11 0.703204 0.193482 0.235826
O O12 0.643445 0.024855 0.641279
O O13 0.000000 0.000000 0.500000
O O14 0.500000 0.500000 0.000000
#
# Coordination Sequence:
#
# PCOD9062749 Si02
#       6
#     2   2   2   2   2   2
#     4  11  24  44  68 104 139 175 224 276 338 410
#     4  11  24  42  70 100 139 179 219 277 339 403
#     4  11  24  43  67  99 135 177 231 280 335 405
#     4  11  26  42  70  99 136 181 227 282 339 402
#     4  11  24  46  64  95 137 175 228 285 332 396
#     4  11  24  45  65  96 132 178 228 282 334 400
#
# _framework density 23.314859999999999
#
# number of rings (size 3 to 8) (size 9 to 14) (size 15 to 20)
#    0.000    1.000    1.667    4.000    0.000   16.667 
#    0.000    0.000    0.000    0.000    0.000    0.000 
#    0.000    0.000    0.000    0.000    0.000    0.000 
#
# Total GULP energy -67071.738206 kJ/mol
# GULP energy per Si atom -5589.311517 kJ/mol
# Density = 2.326179 g / cm^3
# Si number density = 23.314860 Si / 1000 Ang^3
#
#
#
# Elastic Constant Matrix: (Units=GPa)
#
#
# Indices 1 2 3 4 5 6 
#
# 1 119.6101 24.7696 44.1731 16.5426 25.8141 18.1519
# 2 24.7696 63.5004 14.0344 9.9390 11.6554 4.9422
# 3 44.1731 14.0344 141.3161 21.1375 18.9610 -2.7204
# 4 16.5426 9.9390 21.1375 37.8933 5.0510 1.2788
# 5 25.8141 11.6554 18.9610 5.0510 37.9032 3.3019
# 6 18.1519 4.9422 -2.7204 1.2788 3.3019 35.2799
#
#
#
# Elastic Compliance Matrix: (Units=1/GPa)
#
#
# Indices 1 2 3 4 5 6 
#
# 1 0.012144 -0.002370 -0.002587 -0.002323 -0.005457 -0.005521
# 2 -0.002370 0.017866 -0.000141 -0.003101 -0.003320 -0.000871
# 3 -0.002587 -0.000141 0.008781 -0.003501 -0.002327 0.002373
# 4 -0.002323 -0.003101 -0.003501 0.030129 0.000251 0.000244
# 5 -0.005457 -0.003320 -0.002327 0.000251 0.032245 0.000066
# 6 -0.005521 -0.000871 0.002373 0.000244 0.000066 0.031475
#
#
# Mechanical properties :
#
#
# Convention : Reuss Voigt Hill
#
# Bulk Modulus (GPa) = 34.97254 54.48674 44.72964
# Shear Modulus (GPa) = 32.81542 38.31192 35.56367
#
# Velocity S-wave (km/s) = 3.75572 4.05809 3.90983
# Velocity P-wave (km/s) = 5.81721 6.73633 6.29357
#
# Compressibility (1/GPa) = 0.02859387
#
# Stress axis : x y z
#
# Youngs Moduli (GPa) = 82.34838 55.97180 113.88613
#
# Poissons Ratio (x) = 0.13266 0.29464
# Poissons Ratio (y) = 0.19518 0.01605
# Poissons Ratio (z) = 0.21305 0.00789
#
# Static dielectric constant tensor:
#      x y z
#    x 1.955130 -0.053920 0.004080 
#    y -0.053920 1.837360 -0.041300 
#    z 0.004080 -0.041300 1.835460 
# 
# From -- ./inp_files/3554.got.cif
#   From: 2010.05.17/outbox.cif.g08.bks.cpg/sg2_2_cif.got.tgz:3554.got - 2010.06.03 11:33:40.
