data_PCOD9062249
_publ_section_title
;
Structure prediction by ZEFSAII (Michael W. Deem and Ramdas Pophale) SiO2 
 PCOD9062249
Probable space group: P -1
;
_chemical_formula_sum "Si O2"
_cell_formula_units_Z 15
_cell_length_a 5.118224
_cell_length_b 12.052682
_cell_length_c 25.499602
_cell_angle_alpha 26.027054
_cell_angle_beta 57.223908
_cell_angle_gamma 56.342943
_cell_volume 570.473226
_symmetry_space_group_name_H-M "P -1"
_symmetry_group_IT_number 2
_symmetry_cell_setting 'triclinic'
loop_
_space_group_symop_operation_xyz
x,y,z
-x,-y,-z
loop_
_atom_site_type_symbol
_atom_site_label
_atom_site_fract_x
_atom_site_fract_y
_atom_site_fract_z
Si Si1 0.834710 0.544876 0.921244
Si Si2 0.298920 0.506688 0.429205
Si Si3 0.135530 0.120510 0.485004
Si Si4 0.551473 0.941190 0.259114
Si Si5 0.850889 0.286908 0.755805
Si Si6 0.444547 0.579393 0.102608
Si Si7 0.500000 0.000000 0.000000
Si Si8 0.569991 0.966723 0.650282
O O1 0.802100 0.446634 0.906416
O O2 0.187384 0.435942 0.949262
O O3 0.766638 0.854749 0.803751
O O4 0.500000 0.500000 0.000000
O O5 0.513415 0.648268 0.382570
O O6 0.261639 0.665822 0.312197
O O7 0.426309 0.211793 0.527732
O O8 0.000000 0.500000 0.500000
O O9 0.084853 0.430544 0.355217
O O10 0.447376 0.316131 0.246693
O O11 0.927000 0.017030 0.597160
O O12 0.500000 0.000000 0.500000
O O13 0.604269 0.004248 0.286860
O O14 0.838883 0.940077 0.188137
O O15 0.612899 0.186959 0.862813
O O16 0.367322 0.825841 0.042223
O O17 0.000000 0.000000 0.500000
#
# Coordination Sequence:
#
# PCOD9062249 Si02
#       8
#     2   2   2   2   2   2   1   2
#     4  11  25  46  78 111 157 201 270 324 401 470
#     4  12  22  41  78 114 156 189 250 327 409 471
#     4  12  27  48  75 109 156 207 263 320 396 476
#     4  11  24  42  74 114 149 192 249 329 407 460
#     4  12  27  48  73 112 149 211 260 325 396 474
#     4  11  27  50  76 112 153 217 259 331 391 477
#     4  12  30  54  74 102 164 214 278 310 384 482
#     4  11  23  48  77 118 158 195 261 338 410 477
#
# _framework density 26.293959999999998
#
# number of rings (size 3 to 8) (size 9 to 14) (size 15 to 20)
#    0.000    0.533    2.667    4.800    3.733    5.867 
#    2.400    0.000    0.000    0.000    0.000    0.000 
#    0.000    0.000    0.000    0.000    0.000    0.000 
#
# Total GULP energy -83653.029077 kJ/mol
# GULP energy per Si atom -5576.868605 kJ/mol
# Density = 2.623411 g / cm^3
# Si number density = 26.293960 Si / 1000 Ang^3
#
#
#
# Elastic Constant Matrix: (Units=GPa)
#
#
# Indices 1 2 3 4 5 6 
#
# 1 110.3217 40.3486 22.4151 -7.6300 -19.8469 5.4063
# 2 40.3486 128.1743 44.7353 -12.8618 -16.0002 22.5486
# 3 22.4151 44.7353 142.0820 7.5163 -39.4913 11.8996
# 4 -7.6300 -12.8618 7.5163 44.8508 11.5991 -13.9633
# 5 -19.8469 -16.0002 -39.4913 11.5991 41.7164 -6.6067
# 6 5.4063 22.5486 11.8996 -13.9633 -6.6067 46.8219
#
#
#
# Elastic Compliance Matrix: (Units=1/GPa)
#
#
# Indices 1 2 3 4 5 6 
#
# 1 0.010907 -0.003177 0.000494 -0.000085 0.004583 0.000767
# 2 -0.003177 0.010521 -0.003090 0.002335 -0.001596 -0.003443
# 3 0.000494 -0.003090 0.011611 -0.006274 0.011506 -0.001767
# 4 -0.000085 0.002335 -0.006274 0.029484 -0.012083 0.007567
# 5 0.004583 -0.001596 0.011506 -0.012083 0.039683 -0.000689
# 6 0.000767 -0.003443 -0.001767 0.007567 -0.000689 0.025536
#
#
# Mechanical properties :
#
#
# Convention : Reuss Voigt Hill
#
# Bulk Modulus (GPa) = 46.52798 66.17513 56.35155
# Shear Modulus (GPa) = 34.14048 44.88309 39.51179
#
# Velocity S-wave (km/s) = 3.60726 4.13604 3.88067
# Velocity P-wave (km/s) = 5.92313 6.93045 6.44650
#
# Compressibility (1/GPa) = 0.02149245
#
# Stress axis : x y z
#
# Youngs Moduli (GPa) = 91.68347 95.04388 86.12282
#
# Poissons Ratio (x) = 0.30196 -0.04252
# Poissons Ratio (y) = 0.29129 0.26615
# Poissons Ratio (z) = -0.04526 0.29372
#
# Static dielectric constant tensor:
#      x y z
#    x 2.100520 -0.089800 0.039930 
#    y -0.089800 2.111280 0.015550 
#    z 0.039930 0.015550 2.088280 
# 
# From -- ./inp_files/604363.got.cif
#   From: 2010.05.17/outbox.cif.g08.bks.cpg/sg2_303_cif.got.tgz:604363.got - 2010.06.03 11:33:40.
