data_PCOD9062718
_publ_section_title
;
Structure prediction by ZEFSAII (Michael W. Deem and Ramdas Pophale) SiO2 
 PCOD9062718
Probable space group: P -1
;
_chemical_formula_sum "Si O2"
_cell_formula_units_Z 15
_cell_length_a 19.001524
_cell_length_b 5.099358
_cell_length_c 5.751481
_cell_angle_alpha 90.842808
_cell_angle_beta 102.006268
_cell_angle_gamma 74.310946
_cell_volume 524.282630
_symmetry_space_group_name_H-M "P -1"
_symmetry_group_IT_number 2
_symmetry_cell_setting 'triclinic'
loop_
_space_group_symop_operation_xyz
x,y,z
-x,-y,-z
loop_
_atom_site_type_symbol
_atom_site_label
_atom_site_fract_x
_atom_site_fract_y
_atom_site_fract_z
Si Si1 0.159551 0.350579 0.979525
Si Si2 0.459754 0.329145 0.905926
Si Si3 0.500000 0.500000 0.500000
Si Si4 0.015089 0.763601 0.813960
Si Si5 0.877907 0.027322 0.433305
Si Si6 0.252447 0.950950 0.386759
Si Si7 0.385290 0.084520 0.478997
Si Si8 0.305945 0.495199 0.042986
O O1 0.072598 0.504491 0.966657
O O2 0.155009 0.121805 0.790894
O O3 0.221422 0.492068 0.926686
O O4 0.197810 0.216646 0.238934
O O5 0.438850 0.269001 0.602609
O O6 0.487566 0.474563 0.176003
O O7 0.369655 0.468250 0.894785
O O8 0.500000 0.000000 0.000000
O O9 0.434336 0.783074 0.470034
O O10 0.938332 0.804772 0.624262
O O11 0.072095 0.803595 0.650497
O O12 0.000000 0.000000 0.000000
O O13 0.806174 0.182974 0.533377
O O14 0.314967 0.043571 0.578724
O O15 0.293203 0.752406 0.208306
O O16 0.346096 0.234196 0.225502
#
# Coordination Sequence:
#
# PCOD9062718 Si02
#       8
#     2   2   1   2   2   2   2   2
#     4  11  24  43  69 100 137 183 233 286 345 414
#     4  12  26  46  72 102 139 181 228 287 354 421
#     4  12  28  46  70 102 138 178 232 290 348 420
#     4  11  25  44  67 101 142 182 230 285 345 413
#     4  11  24  42  69 101 139 184 229 284 345 411
#     4  11  25  46  70 101 140 182 235 289 346 419
#     4  11  26  47  71 103 140 183 234 290 351 422
#     4  11  26  47  71 101 140 184 231 288 353 419
#
# _framework density 28.610524999999999
#
# number of rings (size 3 to 8) (size 9 to 14) (size 15 to 20)
#    0.000    0.800    0.000    6.400    0.000   14.933 
#    0.000    0.000    0.000    0.000    0.000    0.000 
#    0.000    0.000    0.000    0.000    0.000    0.000 
#
# Total GULP energy -83858.181007 kJ/mol
# GULP energy per Si atom -5590.545400 kJ/mol
# Density = 2.854541 g / cm^3
# Si number density = 28.610525 Si / 1000 Ang^3
#
#
#
# Elastic Constant Matrix: (Units=GPa)
#
#
# Indices 1 2 3 4 5 6 
#
# 1 207.8415 21.9596 42.4461 18.4216 22.0591 -29.4562
# 2 21.9596 161.3883 39.7147 5.7316 12.2991 -8.1895
# 3 42.4461 39.7147 103.0238 -14.3873 7.6656 -2.0847
# 4 18.4216 5.7316 -14.3873 57.4454 6.0304 0.6152
# 5 22.0591 12.2991 7.6656 6.0304 68.4533 7.3150
# 6 -29.4562 -8.1895 -2.0847 0.6152 7.3150 52.7735
#
#
#
# Elastic Compliance Matrix: (Units=1/GPa)
#
#
# Indices 1 2 3 4 5 6 
#
# 1 0.006339 0.000274 -0.002861 -0.002613 -0.001944 0.003767
# 2 0.000274 0.007078 -0.002938 -0.001434 -0.001043 0.001296
# 3 -0.002861 -0.002938 0.012615 0.004406 -0.000182 -0.001581
# 4 -0.002613 -0.001434 0.004406 0.019609 -0.000950 -0.001604
# 5 -0.001944 -0.001043 -0.000182 -0.000950 0.015895 -0.003446
# 6 0.003767 0.001296 -0.001581 -0.001604 -0.003446 0.021687
#
#
# Mechanical properties :
#
#
# Convention : Reuss Voigt Hill
#
# Bulk Modulus (GPa) = 66.75085 75.61049 71.18067
# Shear Modulus (GPa) = 50.36993 60.27666 55.32330
#
# Velocity S-wave (km/s) = 4.20043 4.59497 4.40212
# Velocity P-wave (km/s) = 6.84882 7.39165 7.12541
#
# Compressibility (1/GPa) = 0.01498108
#
# Stress axis : x y z
#
# Youngs Moduli (GPa) = 157.76552 141.28023 79.27348
#
# Poissons Ratio (x) = -0.03866 0.22680
# Poissons Ratio (y) = -0.04318 0.23288
# Poissons Ratio (z) = 0.45137 0.41504
#
# Static dielectric constant tensor:
#      x y z
#    x 2.108210 -0.141960 0.087410 
#    y -0.141960 2.095630 0.090440 
#    z 0.087410 0.090440 2.324490 
# 
# From -- ./inp_files/9938.got.cif
#   From: 2010.05.17/outbox.cif.g08.bks.cpg/sg2_5_cif.got.tgz:9938.got - 2010.06.03 11:33:40.
