data_PCOD9062804
_publ_section_title
;
Structure prediction by ZEFSAII (Michael W. Deem and Ramdas Pophale) SiO2 
 PCOD9062804
Probable space group: P -1
;
_chemical_formula_sum "Si O2"
_cell_formula_units_Z 14
_cell_length_a 15.893988
_cell_length_b 14.338885
_cell_length_c 10.562168
_cell_angle_alpha 157.931113
_cell_angle_beta 48.725544
_cell_angle_gamma 137.447446
_cell_volume 609.109221
_symmetry_space_group_name_H-M "P -1"
_symmetry_group_IT_number 2
_symmetry_cell_setting 'triclinic'
loop_
_space_group_symop_operation_xyz
x,y,z
-x,-y,-z
loop_
_atom_site_type_symbol
_atom_site_label
_atom_site_fract_x
_atom_site_fract_y
_atom_site_fract_z
Si Si1 0.515224 0.817685 0.143676
Si Si2 0.744179 0.706133 0.769968
Si Si3 0.107129 0.818636 0.929849
Si Si4 0.311296 0.254104 0.687631
Si Si5 0.144988 0.345016 0.167469
Si Si6 0.538334 0.118684 0.250426
Si Si7 0.935537 0.208010 0.780800
O O1 0.500000 0.000000 0.500000
O O2 0.555443 0.939952 0.118482
O O3 0.631782 0.766815 0.007469
O O4 0.384757 0.545128 0.908397
O O5 0.853137 0.796757 0.879638
O O6 0.670807 0.378865 0.424840
O O7 0.798618 0.860994 0.780115
O O8 0.152160 0.642266 0.570872
O O9 0.974885 0.786635 0.968337
O O10 0.090789 0.707352 0.947559
O O11 0.424812 0.173135 0.488020
O O12 0.193255 0.004621 0.425944
O O13 0.260109 0.341543 0.972840
O O14 0.500000 0.000000 0.000000
O O15 0.000000 0.000000 0.500000
O O16 0.000000 0.500000 0.000000
#
# Coordination Sequence:
#
# PCOD9062804 Si02
#       7
#     2   2   2   2   2   2   2
#     4  11  24  46  72 106 147 197 260 318 391 457
#     4  11  24  42  72 102 145 191 255 307 390 451
#     4  11  26  44  74 106 151 197 253 321 381 465
#     4  11  26  45  76 104 152 199 258 315 387 464
#     4  11  24  46  71 111 141 199 255 321 381 463
#     4  11  27  43  69 107 148 197 249 321 388 468
#     4  12  30  52  77 116 156 209 259 322 393 470
#
# _framework density 22.984383999999999
#
# number of rings (size 3 to 8) (size 9 to 14) (size 15 to 20)
#    0.000    0.857    1.429    3.857   10.000    5.714 
#    0.000    0.000    0.000    0.000    0.000    0.000 
#    0.000    0.000    0.000    0.000    0.000    0.000 
#
# Total GULP energy -78085.700713 kJ/mol
# GULP energy per Si atom -5577.550051 kJ/mol
# Density = 2.293207 g / cm^3
# Si number density = 22.984384 Si / 1000 Ang^3
#
#
#
# Elastic Constant Matrix: (Units=GPa)
#
#
# Indices 1 2 3 4 5 6 
#
# 1 126.3778 55.9517 36.1528 5.4809 3.5299 1.4265
# 2 55.9517 163.1450 54.9982 28.0253 17.2045 -17.5696
# 3 36.1528 54.9982 64.9267 6.4607 6.8982 1.8270
# 4 5.4809 28.0253 6.4607 48.2997 12.5243 -1.4848
# 5 3.5299 17.2045 6.8982 12.5243 33.8366 -6.0762
# 6 1.4265 -17.5696 1.8270 -1.4848 -6.0762 40.3873
#
#
#
# Elastic Compliance Matrix: (Units=1/GPa)
#
#
# Indices 1 2 3 4 5 6 
#
# 1 0.010014 -0.002547 -0.003503 0.000640 0.000511 -0.001203
# 2 -0.002547 0.010934 -0.007392 -0.004603 -0.001216 0.004829
# 3 -0.003503 -0.007392 0.023783 0.001951 -0.002243 -0.004434
# 4 0.000640 -0.004603 0.001951 0.024991 -0.007800 -0.002368
# 5 0.000511 -0.001216 -0.002243 -0.007800 0.034257 0.004422
# 6 -0.001203 0.004829 -0.004434 -0.002368 0.004422 0.027682
#
#
# Mechanical properties :
#
#
# Convention : Reuss Voigt Hill
#
# Bulk Modulus (GPa) = 56.03204 72.07278 64.05241
# Shear Modulus (GPa) = 30.39612 38.32784 34.36198
#
# Velocity S-wave (km/s) = 3.64052 4.08801 3.87074
# Velocity P-wave (km/s) = 6.48864 7.32856 6.92135
#
# Compressibility (1/GPa) = 0.01784693
#
# Stress axis : x y z
#
# Youngs Moduli (GPa) = 99.86048 91.45725 42.04624
#
# Poissons Ratio (x) = 0.23295 0.14728
# Poissons Ratio (y) = 0.25435 0.31083
# Poissons Ratio (z) = 0.34978 0.67610
#
# Static dielectric constant tensor:
#      x y z
#    x 1.881980 -0.002530 -0.045330 
#    y -0.002530 1.858680 0.027880 
#    z -0.045330 0.027880 1.955790 
# 
# From -- ./inp_files/308927.got.cif
#   From: 2010.05.17/outbox.cif.g08.bks.cpg/sg2_155_cif.got.tgz:308927.got - 2010.06.03 11:33:40.
