data_PCOD9062861
_publ_section_title
;
Structure prediction by ZEFSAII (Michael W. Deem and Ramdas Pophale) SiO2 
 PCOD9062861
Probable space group: P -1
;
_chemical_formula_sum "Si O2"
_cell_formula_units_Z 16
_cell_length_a 4.926538
_cell_length_b 22.322010
_cell_length_c 15.786998
_cell_angle_alpha 22.925205
_cell_angle_beta 84.490635
_cell_angle_gamma 93.837055
_cell_volume 616.749256
_symmetry_space_group_name_H-M "P -1"
_symmetry_group_IT_number 2
_symmetry_cell_setting 'triclinic'
loop_
_space_group_symop_operation_xyz
x,y,z
-x,-y,-z
loop_
_atom_site_type_symbol
_atom_site_label
_atom_site_fract_x
_atom_site_fract_y
_atom_site_fract_z
Si Si1 0.855853 0.137872 0.899779
Si Si2 0.409394 0.763183 0.379884
Si Si3 0.999694 0.715916 0.797743
Si Si4 0.634864 0.794737 0.078154
Si Si5 0.292511 0.767557 0.901556
Si Si6 0.336224 0.662078 0.693812
Si Si7 0.849396 0.948448 0.387993
Si Si8 0.363954 0.419631 0.785290
O O1 0.802711 0.224346 0.704413
O O2 0.656996 0.176234 0.928269
O O3 0.178282 0.188043 0.864466
O O4 0.691317 0.939249 0.147237
O O5 0.251832 0.722089 0.529686
O O6 0.505121 0.610327 0.559658
O O7 0.211112 0.762415 0.812314
O O8 0.158954 0.684543 0.750523
O O9 0.914065 0.867428 0.576338
O O10 0.728178 0.534199 0.056590
O O11 0.556595 0.621404 0.256877
O O12 0.861380 0.932540 0.827867
O O13 0.329296 0.940385 0.720982
O O14 0.546830 0.702149 0.998076
O O15 0.989459 0.634891 0.126192
O O16 0.666181 0.792790 0.535694
#
# Coordination Sequence:
#
# PCOD9062861 Si02
#       8
#     2   2   2   2   2   2   2   2
#     4  11  26  47  77 110 137 189 244 291 360 433
#     4  11  25  47  74 106 149 184 239 301 360 421
#     4  11  25  43  71 105 142 190 244 289 355 426
#     4  11  24  48  74 107 144 186 240 292 359 426
#     4  11  26  45  71 106 143 189 242 286 353 424
#     4  11  24  45  67 106 140 193 229 302 350 425
#     4  11  24  42  74  99 147 189 237 296 351 420
#     4  11  26  46  73 105 147 189 231 300 359 419
#
# _framework density 25.942471999999999
#
# number of rings (size 3 to 8) (size 9 to 14) (size 15 to 20)
#    0.000    1.000    2.500    3.000    5.250    7.500 
#    2.250    0.000    0.000    0.000    0.000    0.000 
#    0.000    0.000    0.000    0.000    0.000    0.000 
#
# Total GULP energy -89776.689378 kJ/mol
# GULP energy per Si atom -5611.043086 kJ/mol
# Density = 2.588343 g / cm^3
# Si number density = 25.942472 Si / 1000 Ang^3
#
#
#
# Elastic Constant Matrix: (Units=GPa)
#
#
# Indices 1 2 3 4 5 6 
#
# 1 55.1193 13.6893 5.6419 -0.9810 1.7599 5.3898
# 2 13.6893 153.6801 27.4238 15.7575 7.2946 18.0877
# 3 5.6419 27.4238 -28.5449 84.6372 -7.9091 3.6623
# 4 -0.9810 15.7575 84.6372 2.0301 15.3922 10.4248
# 5 1.7599 7.2946 -7.9091 15.3922 25.9835 11.8409
# 6 5.3898 18.0877 3.6623 10.4248 11.8409 45.4237
#
#
#
# Elastic Compliance Matrix: (Units=1/GPa)
#
#
# Indices 1 2 3 4 5 6 
#
# 1 0.018604 -0.001555 0.000651 -0.000411 0.000367 -0.001642
# 2 -0.001555 0.007342 -0.001096 -0.002537 0.000177 -0.002115
# 3 0.000651 -0.001096 0.001140 0.011982 -0.006078 -0.000898
# 4 -0.000411 -0.002537 0.011982 0.005155 0.002077 -0.001632
# 5 0.000367 0.000177 -0.006078 0.002077 0.040146 -0.010566
# 6 -0.001642 -0.002115 -0.000898 -0.001632 -0.010566 0.026253
#
#
# Mechanical properties :
#
#
# Convention : Reuss Voigt Hill
#
# Bulk Modulus (GPa) = 43.31881 30.41828 36.86855
# Shear Modulus (GPa) = 45.31654 23.58742 34.45198
#
# Velocity S-wave (km/s) = 4.18402 3.01860 3.64815
# Velocity P-wave (km/s) = 6.33053 4.88876 5.65578
#
# Compressibility (1/GPa) = 0.02308466
#
# Stress axis : x y z
#
# Youngs Moduli (GPa) = 53.75296 136.20885 877.07458
#
# Poissons Ratio (x) = 0.21184 -0.57063
# Poissons Ratio (y) = 0.08360 0.96107
# Poissons Ratio (z) = -0.03497 0.14925
#
# Static dielectric constant tensor:
#      x y z
#    x 1.994840 -0.011140 -0.023470 
#    y -0.011140 2.032060 0.020250 
#    z -0.023470 0.020250 2.031750 
# 
# From -- ./inp_files/551203.got.cif
#   From: 2010.05.17/outbox.cif.g08.bks.cpg/sg2_276_cif.got.tgz:551203.got - 2010.06.03 11:33:40.
