data_PCOD9062885
_publ_section_title
;
Structure prediction by ZEFSAII (Michael W. Deem and Ramdas Pophale) SiO2 
 PCOD9062885
Probable space group: P -1
;
_chemical_formula_sum "Si O2"
_cell_formula_units_Z 16
_cell_length_a 11.310479
_cell_length_b 20.316159
_cell_length_c 6.758881
_cell_angle_alpha 77.376697
_cell_angle_beta 100.038583
_cell_angle_gamma 149.412053
_cell_volume 770.905283
_symmetry_space_group_name_H-M "P -1"
_symmetry_group_IT_number 2
_symmetry_cell_setting 'triclinic'
loop_
_space_group_symop_operation_xyz
x,y,z
-x,-y,-z
loop_
_atom_site_type_symbol
_atom_site_label
_atom_site_fract_x
_atom_site_fract_y
_atom_site_fract_z
Si Si1 0.866598 0.619833 0.038482
Si Si2 0.755805 0.104018 0.437299
Si Si3 0.345652 0.043911 0.852528
Si Si4 0.787007 0.489816 0.441990
Si Si5 0.330674 0.719477 0.505615
Si Si6 0.977784 0.810439 0.153072
Si Si7 0.538926 0.459076 0.696995
Si Si8 0.734284 0.229459 0.164417
O O1 0.732012 0.518514 0.241563
O O2 0.997950 0.747869 0.085032
O O3 0.688977 0.556901 0.860525
O O4 0.045096 0.648491 0.988676
O O5 0.844958 0.219551 0.320873
O O6 0.898068 0.139692 0.631848
O O7 0.500000 0.000000 0.500000
O O8 0.722858 0.041579 0.280548
O O9 0.484000 0.166417 0.680855
O O10 0.532519 0.111573 0.029522
O O11 0.107455 0.931278 0.986496
O O12 0.680858 0.366465 0.440601
O O13 0.681040 0.467651 0.626997
O O14 0.067046 0.617372 0.449875
O O15 0.367937 0.768841 0.703855
O O16 0.705885 0.686651 0.198704
O O17 0.500000 0.500000 0.500000
#
# Coordination Sequence:
#
# PCOD9062885 Si02
#       8
#     2   2   2   2   2   2   2   2
#     4  12  23  40  67  99 130 171 216 269 328 389
#     4  12  21  35  60  98 133 165 210 271 329 381
#     4  12  23  37  64  96 134 167 211 268 330 387
#     4  11  25  43  67  94 132 178 220 266 321 387
#     4  11  24  43  64  97 135 172 218 271 322 383
#     4  12  25  38  64 100 133 170 213 269 331 390
#     4  12  26  44  67  97 135 172 219 270 325 389
#     4  12  21  36  63  98 133 163 211 269 332 382
#
# _framework density 20.754819000000001
#
# number of rings (size 3 to 8) (size 9 to 14) (size 15 to 20)
#    0.000    0.250    7.500    3.000    0.000    1.500 
#    0.000    0.625    0.000    3.750    0.000    0.000 
#    0.000    0.000    0.000    0.000    0.000    0.000 
#
# Total GULP energy -89271.564518 kJ/mol
# GULP energy per Si atom -5579.472782 kJ/mol
# Density = 2.070758 g / cm^3
# Si number density = 20.754819 Si / 1000 Ang^3
#
#
#
# Elastic Constant Matrix: (Units=GPa)
#
#
# Indices 1 2 3 4 5 6 
#
# 1 40.3429 27.1551 23.0229 -1.0422 -10.3152 -4.3281
# 2 27.1551 115.8810 54.6947 -15.5334 -9.6839 3.9233
# 3 23.0229 54.6947 119.7243 7.6114 -17.8585 -4.1279
# 4 -1.0422 -15.5334 7.6114 50.0593 5.7582 -10.5892
# 5 -10.3152 -9.6839 -17.8585 5.7582 18.8659 -3.4521
# 6 -4.3281 3.9233 -4.1279 -10.5892 -3.4521 35.8929
#
#
#
# Elastic Compliance Matrix: (Units=1/GPa)
#
#
# Indices 1 2 3 4 5 6 
#
# 1 0.034573 -0.006830 -0.000770 -0.001927 0.016324 0.005828
# 2 -0.006830 0.013340 -0.005793 0.004965 -0.004232 -0.001890
# 3 -0.000770 -0.005793 0.013107 -0.004684 0.010754 0.001700
# 4 -0.001927 0.004965 -0.004684 0.024324 -0.009457 0.004953
# 5 0.016324 -0.004232 0.010754 -0.009457 0.074293 0.008023
# 6 0.005828 -0.001890 0.001700 0.004953 0.008023 0.031198
#
#
# Mechanical properties :
#
#
# Convention : Reuss Voigt Hill
#
# Bulk Modulus (GPa) = 29.20942 53.96595 41.58769
# Shear Modulus (GPa) = 21.83082 32.36867 27.09974
#
# Velocity S-wave (km/s) = 3.24673 3.95343 3.61738
# Velocity P-wave (km/s) = 5.30652 6.84818 6.12604
#
# Compressibility (1/GPa) = 0.03423553
#
# Stress axis : x y z
#
# Youngs Moduli (GPa) = 28.92391 74.96171 76.29241
#
# Poissons Ratio (x) = 0.51199 0.05874
# Poissons Ratio (y) = 0.19755 0.44196
# Poissons Ratio (z) = 0.02227 0.43425
#
# Static dielectric constant tensor:
#      x y z
#    x 1.722240 0.019090 -0.044530 
#    y 0.019090 1.879750 -0.174350 
#    z -0.044530 -0.174350 1.965620 
# 
# From -- ./inp_files/69778.got.cif
#   From: 2010.05.17/outbox.cif.g08.bks.cpg/sg2_35_cif.got.tgz:69778.got - 2010.06.03 11:33:40.
