data_PCOD9062971
_publ_section_title
;
Structure prediction by ZEFSAII (Michael W. Deem and Ramdas Pophale) SiO2 
 PCOD9062971
Probable space group: P -1
;
_chemical_formula_sum "Si O2"
_cell_formula_units_Z 16
_cell_length_a 11.578406
_cell_length_b 10.971881
_cell_length_c 16.485590
_cell_angle_alpha 148.204125
_cell_angle_beta 49.431220
_cell_angle_gamma 108.835338
_cell_volume 686.127332
_symmetry_space_group_name_H-M "P -1"
_symmetry_group_IT_number 2
_symmetry_cell_setting 'triclinic'
loop_
_space_group_symop_operation_xyz
x,y,z
-x,-y,-z
loop_
_atom_site_type_symbol
_atom_site_label
_atom_site_fract_x
_atom_site_fract_y
_atom_site_fract_z
Si Si1 0.794775 0.251197 0.771000
Si Si2 0.183554 0.966512 0.870432
Si Si3 0.058194 0.190125 0.357399
Si Si4 0.571279 0.558771 0.883320
Si Si5 0.164321 0.040790 0.628804
Si Si6 0.642513 0.992546 0.022872
Si Si7 0.929600 0.583412 0.957682
Si Si8 0.229522 0.490747 0.473777
O O1 0.683615 0.424603 0.839176
O O2 0.798667 0.477621 0.951596
O O3 0.646323 0.220402 0.869573
O O4 0.000000 0.000000 0.500000
O O5 0.301726 0.925948 0.872753
O O6 0.263532 0.697413 0.623714
O O7 0.109317 0.246847 0.010840
O O8 0.000000 0.000000 0.000000
O O9 0.103136 0.379290 0.497815
O O10 0.885465 0.358663 0.469453
O O11 0.224101 0.039503 0.129648
O O12 0.995518 0.020600 0.340080
O O13 0.640269 0.264778 0.638974
O O14 0.641271 0.726728 0.901708
O O15 0.125801 0.281116 0.717020
O O16 0.122664 0.201137 0.823625
O O17 0.435579 0.221148 0.218039
#
# Coordination Sequence:
#
# PCOD9062971 Si02
#       8
#     2   2   2   2   2   2   2   2
#     4  11  24  47  70 102 144 188 236 298 366 426
#     4  12  24  46  70 106 148 190 240 299 368 433
#     4  11  24  46  72 104 147 186 239 307 351 429
#     4  11  25  42  72 109 141 184 247 298 351 442
#     4  11  24  46  72 107 143 193 245 290 371 430
#     4  12  25  43  73 111 141 193 244 297 367 427
#     4  11  24  44  73 102 146 195 232 299 367 429
#     4  11  24  43  68 102 142 188 239 296 360 424
#
# _framework density 23.319288
#
# number of rings (size 3 to 8) (size 9 to 14) (size 15 to 20)
#    0.000    0.750    5.000    2.250    1.750    2.500 
#    0.000    3.750    0.000    0.000    0.000    0.000 
#    0.000    0.000    0.000    0.000    0.000    0.000 
#
# Total GULP energy -89188.144142 kJ/mol
# GULP energy per Si atom -5574.259009 kJ/mol
# Density = 2.326621 g / cm^3
# Si number density = 23.319288 Si / 1000 Ang^3
#
#
#
# Elastic Constant Matrix: (Units=GPa)
#
#
# Indices 1 2 3 4 5 6 
#
# 1 108.8314 23.4303 43.9973 -2.3506 -3.1619 14.7918
# 2 23.4303 105.0050 44.1685 0.0002 2.8593 6.5562
# 3 43.9973 44.1685 135.8112 -0.3676 -11.7726 12.6198
# 4 -2.3506 0.0002 -0.3676 32.9013 8.7927 -3.4824
# 5 -3.1619 2.8593 -11.7726 8.7927 40.8770 6.1473
# 6 14.7918 6.5562 12.6198 -3.4824 6.1473 24.4505
#
#
#
# Elastic Compliance Matrix: (Units=1/GPa)
#
#
# Indices 1 2 3 4 5 6 
#
# 1 0.011277 -0.001062 -0.002722 -0.000058 0.000986 -0.005389
# 2 -0.001062 0.011284 -0.003492 0.000406 -0.001960 -0.000031
# 3 -0.002722 -0.003492 0.010060 -0.001504 0.003824 -0.003785
# 4 -0.000058 0.000406 -0.001504 0.033551 -0.008842 0.007705
# 5 0.000986 -0.001960 0.003824 -0.008842 0.029284 -0.010666
# 6 -0.005389 -0.000031 -0.003785 0.007705 -0.010666 0.049900
#
#
# Mechanical properties :
#
#
# Convention : Reuss Voigt Hill
#
# Bulk Modulus (GPa) = 55.34024 63.64884 59.49454
# Shear Modulus (GPa) = 30.13298 35.51586 32.82442
#
# Velocity S-wave (km/s) = 3.59861 3.90683 3.75588
# Velocity P-wave (km/s) = 6.40700 6.90687 6.66163
#
# Compressibility (1/GPa) = 0.01807004
#
# Stress axis : x y z
#
# Youngs Moduli (GPa) = 88.67312 88.61839 99.40673
#
# Poissons Ratio (x) = 0.09409 0.27059
# Poissons Ratio (y) = 0.09415 0.34711
# Poissons Ratio (z) = 0.24138 0.30944
#
# Static dielectric constant tensor:
#      x y z
#    x 1.802200 -0.157740 -0.059780 
#    y -0.157740 1.157230 0.168540 
#    z -0.059780 0.168540 1.842560 
# 
# From -- ./inp_files/568969.got.cif
#   From: 2010.05.17/outbox.cif.g08.bks.cpg/sg2_285_cif.got.tgz:568969.got - 2010.06.03 11:33:40.
