data_PCOD9062024
_publ_section_title
;
Structure prediction by ZEFSAII (Michael W. Deem and Ramdas Pophale) SiO2 
 PCOD9062024
Probable space group: P -1
;
_chemical_formula_sum "Si O2"
_cell_formula_units_Z 16
_cell_length_a 11.894554
_cell_length_b 16.892252
_cell_length_c 9.419248
_cell_angle_alpha 135.197797
_cell_angle_beta 50.202072
_cell_angle_gamma 147.663420
_cell_volume 709.198071
_symmetry_space_group_name_H-M "P -1"
_symmetry_group_IT_number 2
_symmetry_cell_setting 'triclinic'
loop_
_space_group_symop_operation_xyz
x,y,z
-x,-y,-z
loop_
_atom_site_type_symbol
_atom_site_label
_atom_site_fract_x
_atom_site_fract_y
_atom_site_fract_z
Si Si1 0.286505 0.339894 0.541737
Si Si2 0.162713 0.156418 0.674475
Si Si3 0.578540 0.167507 0.794117
Si Si4 0.443055 0.299535 0.892084
Si Si5 0.883329 0.829697 0.809097
Si Si6 0.047061 0.648196 0.088732
Si Si7 0.911772 0.643185 0.893668
Si Si8 0.174499 0.794412 0.600090
O O1 0.500000 0.500000 0.500000
O O2 0.319451 0.299794 0.615025
O O3 0.195364 0.199239 0.323738
O O4 0.117979 0.348271 0.715046
O O5 0.303280 0.178344 0.715650
O O6 0.058626 0.207202 0.901870
O O7 0.000000 0.000000 0.500000
O O8 0.480743 0.231988 0.905566
O O9 0.710585 0.208011 0.877293
O O10 0.748746 0.250137 0.634343
O O11 0.389476 0.974429 0.701370
O O12 0.663500 0.473034 0.882865
O O13 0.297368 0.305647 0.104785
O O14 0.043885 0.817004 0.654383
O O15 0.000000 0.000000 0.000000
O O16 0.000000 0.500000 0.000000
O O17 0.017587 0.637539 0.931859
O O18 0.032456 0.678322 0.697774
#
# Coordination Sequence:
#
# PCOD9062024 Si02
#       8
#     2   2   2   2   2   2   2   2
#     4  11  26  43  69 103 132 179 226 283 340 401
#     4  11  25  42  65 101 143 171 219 288 341 400
#     4  11  25  44  70  97 137 186 227 281 348 417
#     4  12  24  44  72 101 135 182 232 279 348 405
#     4  12  22  41  72  99 133 182 231 276 335 413
#     4  11  23  47  68  97 141 179 226 284 345 406
#     4  11  25  44  72 100 136 180 232 287 343 403
#     4  11  25  43  68 100 135 181 232 283 342 415
#
# _framework density 22.560694000000002
#
# number of rings (size 3 to 8) (size 9 to 14) (size 15 to 20)
#    0.000    0.750    5.000    2.625    1.750    2.000 
#    2.250    0.000    0.000    0.000    0.000    0.000 
#    0.000    0.000    0.000    0.000    0.000    0.000 
#
# Total GULP energy -89273.527514 kJ/mol
# GULP energy per Si atom -5579.595470 kJ/mol
# Density = 2.250934 g / cm^3
# Si number density = 22.560694 Si / 1000 Ang^3
#
#
#
# Elastic Constant Matrix: (Units=GPa)
#
#
# Indices 1 2 3 4 5 6 
#
# 1 95.4540 21.3288 5.1166 -0.8423 17.3702 12.0494
# 2 21.3288 85.0883 15.9453 -2.3998 17.5340 13.3405
# 3 5.1166 15.9453 53.6762 -5.0831 15.8739 4.2838
# 4 -0.8423 -2.3998 -5.0831 37.2466 -5.1262 6.2875
# 5 17.3702 17.5340 15.8739 -5.1262 36.0853 3.3888
# 6 12.0494 13.3405 4.2838 6.2875 3.3888 34.2306
#
#
#
# Elastic Compliance Matrix: (Units=1/GPa)
#
#
# Indices 1 2 3 4 5 6 
#
# 1 0.012153 -0.001668 0.001158 0.000162 -0.005217 -0.003286
# 2 -0.001668 0.014251 -0.002303 0.000666 -0.004606 -0.004345
# 3 0.001158 -0.002303 0.022112 0.001997 -0.008715 -0.001781
# 4 0.000162 0.000666 0.001997 0.028672 0.003372 -0.006167
# 5 -0.005217 -0.004606 -0.008715 0.003372 0.036730 0.000466
# 6 -0.003286 -0.004345 -0.001781 -0.006167 0.000466 0.033373
#
#
# Mechanical properties :
#
#
# Convention : Reuss Voigt Hill
#
# Bulk Modulus (GPa) = 23.31576 35.44443 29.38010
# Shear Modulus (GPa) = 29.90160 34.30103 32.10131
#
# Velocity S-wave (km/s) = 3.64453 3.90345 3.77621
# Velocity P-wave (km/s) = 5.29786 6.00505 5.66251
#
# Compressibility (1/GPa) = 0.04288945
#
# Stress axis : x y z
#
# Youngs Moduli (GPa) = 82.28754 70.16858 45.22354
#
# Poissons Ratio (x) = 0.11707 -0.05235
# Poissons Ratio (y) = 0.13729 0.10413
# Poissons Ratio (z) = -0.09525 0.16157
#
# Static dielectric constant tensor:
#      x y z
#    x 1.954260 0.071140 0.068180 
#    y 0.071140 1.968440 0.129350 
#    z 0.068180 0.129350 1.952620 
# 
# From -- ./inp_files/279794.got.cif
#   From: 2010.05.17/outbox.cif.g08.bks.cpg/sg2_140_cif.got.tgz:279794.got - 2010.06.03 11:33:40.
