data_PCOD9062131
_publ_section_title
;
Structure prediction by ZEFSAII (Michael W. Deem and Ramdas Pophale) SiO2 
 PCOD9062131
Probable space group: P -1
;
_chemical_formula_sum "Si O2"
_cell_formula_units_Z 13
_cell_length_a 11.428463
_cell_length_b 9.424882
_cell_length_c 7.911570
_cell_angle_alpha 84.116685
_cell_angle_beta 109.255577
_cell_angle_gamma 43.668068
_cell_volume 473.391583
_symmetry_space_group_name_H-M "P -1"
_symmetry_group_IT_number 2
_symmetry_cell_setting 'triclinic'
loop_
_space_group_symop_operation_xyz
x,y,z
-x,-y,-z
loop_
_atom_site_type_symbol
_atom_site_label
_atom_site_fract_x
_atom_site_fract_y
_atom_site_fract_z
Si Si1 0.255410 0.256001 0.333001
Si Si2 0.500000 0.500000 0.500000
Si Si3 0.745722 0.019459 0.828292
Si Si4 0.603258 0.712555 0.082673
Si Si5 0.889073 0.248266 0.467170
Si Si6 0.192875 0.643097 0.213512
Si Si7 0.769100 0.833313 0.308967
O O1 0.215986 0.453684 0.239869
O O2 0.177172 0.300095 0.479284
O O3 0.500000 0.000000 0.500000
O O4 0.177565 0.202927 0.183244
O O5 0.635831 0.215231 0.609538
O O6 0.381696 0.562109 0.245707
O O7 0.569888 0.147054 0.868430
O O8 0.957249 0.892791 0.018403
O O9 0.764118 0.435253 0.229476
O O10 0.727827 0.745191 0.165980
O O11 0.454221 0.876294 0.832033
O O12 0.747137 0.362020 0.557541
O O13 0.057135 0.206829 0.620608
O O14 0.000000 0.000000 0.500000
#
# Coordination Sequence:
#
# PCOD9062131 Si02
#       7
#     2   1   2   2   2   2   2
#     4  12  23  46  74 106 140 181 234 295 344 412
#     4  12  24  46  72  94 152 180 228 284 362 400
#     4  12  25  47  74 104 139 188 233 290 354 413
#     4  11  23  47  74  99 138 183 232 294 343 411
#     4  12  26  44  68 101 141 186 233 283 347 420
#     4  12  26  48  70 104 143 183 238 291 342 428
#     4  11  24  43  74 100 139 181 234 284 356 397
#
# _framework density 27.461409
#
# number of rings (size 3 to 8) (size 9 to 14) (size 15 to 20)
#    0.000    0.308    7.692    1.385    2.154    0.615 
#    5.538    0.000    0.000    0.000    0.000    0.000 
#    0.000    0.000    0.000    0.000    0.000    0.000 
#
# Total GULP energy -72691.955509 kJ/mol
# GULP energy per Si atom -5591.688885 kJ/mol
# Density = 2.739891 g / cm^3
# Si number density = 27.461409 Si / 1000 Ang^3
#
#
#
# Elastic Constant Matrix: (Units=GPa)
#
#
# Indices 1 2 3 4 5 6 
#
# 1 146.4261 48.6499 53.2873 -9.4604 34.0987 29.1228
# 2 48.6499 159.3976 48.8170 -35.7194 7.9705 39.7537
# 3 53.2873 48.8170 148.4903 -50.8898 48.9340 3.1135
# 4 -9.4604 -35.7194 -50.8898 51.6120 -3.2803 -5.4257
# 5 34.0987 7.9705 48.9340 -3.2803 50.8869 -0.0306
# 6 29.1228 39.7537 3.1135 -5.4257 -0.0306 47.0264
#
#
#
# Elastic Compliance Matrix: (Units=1/GPa)
#
#
# Indices 1 2 3 4 5 6 
#
# 1 0.010049 -0.001322 -0.002398 -0.002262 -0.004370 -0.005211
# 2 -0.001322 0.009757 -0.001353 0.004519 0.000946 -0.006818
# 3 -0.002398 -0.001353 0.018399 0.016166 -0.014830 0.003266
# 4 -0.002262 0.004519 0.016166 0.037330 -0.012331 0.000809
# 5 -0.004370 0.000946 -0.014830 -0.012331 0.035898 0.001489
# 6 -0.005211 -0.006818 0.003266 0.000809 0.001489 0.030134
#
#
# Mechanical properties :
#
#
# Convention : Reuss Voigt Hill
#
# Bulk Modulus (GPa) = 35.63811 83.98026 59.80919
# Shear Modulus (GPa) = 31.04327 50.14238 40.59282
#
# Velocity S-wave (km/s) = 3.36584 4.27772 3.84888
# Velocity P-wave (km/s) = 5.30197 7.41930 6.44814
#
# Compressibility (1/GPa) = 0.02805985
#
# Stress axis : x y z
#
# Youngs Moduli (GPa) = 99.51274 102.48584 54.35153
#
# Poissons Ratio (x) = 0.13544 0.13032
# Poissons Ratio (y) = 0.13151 0.07356
# Poissons Ratio (z) = 0.23860 0.13871
#
# Static dielectric constant tensor:
#      x y z
#    x 2.310900 -0.105850 -0.006700 
#    y -0.105850 2.323450 0.154730 
#    z -0.006700 0.154730 2.223440 
# 
# From -- ./inp_files/183580.got.cif
#   From: 2010.05.17/outbox.cif.g08.bks.cpg/sg2_92_cif.got.tgz:183580.got - 2010.06.03 11:33:40.
