data_PCOD9062096
_publ_section_title
;
Structure prediction by ZEFSAII (Michael W. Deem and Ramdas Pophale) SiO2 
 PCOD9062096
Probable space group: P -1
;
_chemical_formula_sum "Si O2"
_cell_formula_units_Z 16
_cell_length_a 17.889385
_cell_length_b 8.422662
_cell_length_c 6.217945
_cell_angle_alpha 63.268268
_cell_angle_beta 64.519455
_cell_angle_gamma 53.340351
_cell_volume 653.942530
_symmetry_space_group_name_H-M "P -1"
_symmetry_group_IT_number 2
_symmetry_cell_setting 'triclinic'
loop_
_space_group_symop_operation_xyz
x,y,z
-x,-y,-z
loop_
_atom_site_type_symbol
_atom_site_label
_atom_site_fract_x
_atom_site_fract_y
_atom_site_fract_z
Si Si1 0.219556 0.749759 0.957441
Si Si2 0.392529 0.682819 0.528199
Si Si3 0.606868 0.956696 0.414267
Si Si4 0.875548 0.731067 0.585027
Si Si5 0.204559 0.448526 0.498757
Si Si6 0.055494 0.608314 0.959518
Si Si7 0.287097 0.932560 0.120513
Si Si8 0.955219 0.011431 0.307684
O O1 0.324085 0.633478 0.789177
O O2 0.146369 0.861112 0.782432
O O3 0.197496 0.608209 0.228311
O O4 0.227839 0.900883 0.025686
O O5 0.500000 0.500000 0.500000
O O6 0.388645 0.886804 0.511600
O O7 0.348461 0.734428 0.312446
O O8 0.500000 0.000000 0.500000
O O9 0.683919 0.718238 0.507546
O O10 0.642424 0.005763 0.117722
O O11 0.839687 0.695083 0.426662
O O12 0.787398 0.898551 0.729742
O O13 0.954951 0.797651 0.448304
O O14 0.906349 0.521893 0.796005
O O15 0.142201 0.565157 0.714373
O O16 0.001184 0.851472 0.929011
O O17 0.000000 0.500000 0.000000
O O18 0.000000 0.000000 0.500000
#
# Coordination Sequence:
#
# PCOD9062096 Si02
#       8
#     2   2   2   2   2   2   2   2
#     4  11  26  45  73 108 144 195 246 300 374 439
#     4  11  26  44  71 106 147 195 243 299 366 438
#     4  11  26  42  68 109 145 193 246 296 365 436
#     4  12  23  48  74 101 147 189 241 298 370 436
#     4  12  26  46  74 106 145 191 243 305 369 441
#     4  12  27  49  72 108 141 187 243 305 369 436
#     4  11  23  47  72  99 151 195 240 297 367 438
#     4  12  25  48  73 105 143 187 242 304 369 437
#
# _framework density 24.466982000000002
#
# number of rings (size 3 to 8) (size 9 to 14) (size 15 to 20)
#    0.000    0.500    6.250    1.500    3.500    3.000 
#    0.000    3.125    0.000    0.000    0.000    0.000 
#    0.000    0.000    0.000    0.000    0.000    0.000 
#
# Total GULP energy -89324.870824 kJ/mol
# GULP energy per Si atom -5582.804427 kJ/mol
# Density = 2.441129 g / cm^3
# Si number density = 24.466982 Si / 1000 Ang^3
#
#
#
# Elastic Constant Matrix: (Units=GPa)
#
#
# Indices 1 2 3 4 5 6 
#
# 1 153.0185 56.2194 60.2779 14.5390 -8.4501 0.2030
# 2 56.2194 118.9223 62.4422 11.5459 -2.2849 -16.6546
# 3 60.2779 62.4422 166.4651 -19.3184 -16.0812 -6.2377
# 4 14.5390 11.5459 -19.3184 50.4450 1.4865 -5.0758
# 5 -8.4501 -2.2849 -16.0812 1.4865 40.0335 -6.9240
# 6 0.2030 -16.6546 -6.2377 -5.0758 -6.9240 43.6768
#
#
#
# Elastic Compliance Matrix: (Units=1/GPa)
#
#
# Indices 1 2 3 4 5 6 
#
# 1 0.008890 -0.002804 -0.002542 -0.003085 0.000507 -0.001752
# 2 -0.002804 0.012692 -0.004050 -0.003246 -0.000720 0.003783
# 3 -0.002542 -0.004050 0.009375 0.005252 0.002956 0.000885
# 4 -0.003085 -0.003246 0.005252 0.023685 0.000810 0.002408
# 5 0.000507 -0.000720 0.002956 0.000810 0.026984 0.004517
# 6 -0.001752 0.003783 0.000885 0.002408 0.004517 0.025468
#
#
# Mechanical properties :
#
#
# Convention : Reuss Voigt Hill
#
# Bulk Modulus (GPa) = 82.20115 88.47608 85.33862
# Shear Modulus (GPa) = 38.47858 44.12882 41.30370
#
# Velocity S-wave (km/s) = 3.97000 4.25150 4.11316
# Velocity P-wave (km/s) = 7.39488 7.76790 7.58368
#
# Compressibility (1/GPa) = 0.01216528
#
# Stress axis : x y z
#
# Youngs Moduli (GPa) = 112.48305 78.78939 106.66446
#
# Poissons Ratio (x) = 0.22093 0.27115
# Poissons Ratio (y) = 0.31541 0.43199
# Poissons Ratio (z) = 0.28594 0.31909
#
# Static dielectric constant tensor:
#      x y z
#    x 2.034830 0.052430 0.034470 
#    y 0.052430 2.112300 0.083410 
#    z 0.034470 0.083410 1.996260 
# 
# From -- ./inp_files/106244.got.cif
#   From: 2010.05.17/outbox.cif.g08.bks.cpg/sg2_54_cif.got.tgz:106244.got - 2010.06.03 11:33:40.
