data_PCOD9062723
_publ_section_title
;
Structure prediction by ZEFSAII (Michael W. Deem and Ramdas Pophale) SiO2 
 PCOD9062723
Probable space group: P -1
;
_chemical_formula_sum "Si O2"
_cell_formula_units_Z 16
_cell_length_a 6.822044
_cell_length_b 13.776745
_cell_length_c 7.868065
_cell_angle_alpha 95.398591
_cell_angle_beta 102.491367
_cell_angle_gamma 103.891869
_cell_volume 692.495132
_symmetry_space_group_name_H-M "P -1"
_symmetry_group_IT_number 2
_symmetry_cell_setting 'triclinic'
loop_
_space_group_symop_operation_xyz
x,y,z
-x,-y,-z
loop_
_atom_site_type_symbol
_atom_site_label
_atom_site_fract_x
_atom_site_fract_y
_atom_site_fract_z
Si Si1 0.415746 0.220007 0.617460
Si Si2 0.425202 0.467707 0.171529
Si Si3 0.162569 0.626610 0.195210
Si Si4 0.044848 0.327303 0.184423
Si Si5 0.816149 0.603548 0.409082
Si Si6 0.152580 0.030351 0.372216
Si Si7 0.467906 0.955366 0.237325
Si Si8 0.179179 0.905917 0.850610
O O1 0.656594 0.282654 0.674569
O O2 0.285081 0.302168 0.626044
O O3 0.303516 0.144126 0.436511
O O4 0.419671 0.134666 0.744994
O O5 0.264229 0.533805 0.189703
O O6 0.282012 0.354899 0.158122
O O7 0.623719 0.503184 0.337468
O O8 0.500000 0.500000 0.000000
O O9 0.970588 0.603935 0.283261
O O10 0.092507 0.647119 0.993882
O O11 0.074143 0.382929 0.383915
O O12 0.939175 0.211342 0.189316
O O13 0.992503 0.032874 0.193689
O O14 0.308505 0.961607 0.358932
O O15 0.000000 0.000000 0.500000
O O16 0.648140 0.057922 0.258396
O O17 0.314552 0.933960 0.047250
#
# Coordination Sequence:
#
# PCOD9062723 Si02
#       8
#     2   2   2   2   2   2   2   2
#     4  11  24  42  69 103 138 188 235 288 351 415
#     4  11  25  51  74 108 145 182 231 292 360 428
#     4  11  26  48  73 105 143 187 233 290 356 422
#     4  12  24  47  75 102 142 187 236 292 356 418
#     4  11  26  47  74 106 144 181 241 291 352 425
#     4  12  25  42  71  97 142 190 233 293 354 412
#     4  11  25  45  67 100 144 186 237 292 347 412
#     4  11  25  46  65 104 137 185 240 290 348 419
#
# _framework density 23.104855000000001
#
# number of rings (size 3 to 8) (size 9 to 14) (size 15 to 20)
#    0.000    0.750    5.000    1.500    3.500    0.500 
#   11.250    0.000    0.000    0.000    0.000    0.000 
#    0.000    0.000    0.000    0.000    0.000    0.000 
#
# Total GULP energy -89331.387274 kJ/mol
# GULP energy per Si atom -5583.211705 kJ/mol
# Density = 2.305227 g / cm^3
# Si number density = 23.104855 Si / 1000 Ang^3
#
#
#
# Elastic Constant Matrix: (Units=GPa)
#
#
# Indices 1 2 3 4 5 6 
#
# 1 96.4391 32.2136 56.2507 1.2106 14.0648 9.5034
# 2 32.2136 101.3901 16.0411 0.4197 5.3440 32.1136
# 3 56.2507 16.0411 139.9679 -11.9929 16.8564 8.0728
# 4 1.2106 0.4197 -11.9929 29.9986 5.0398 9.8767
# 5 14.0648 5.3440 16.8564 5.0398 44.8669 0.4505
# 6 9.5034 32.1136 8.0728 9.8767 0.4505 36.1982
#
#
#
# Elastic Compliance Matrix: (Units=1/GPa)
#
#
# Indices 1 2 3 4 5 6 
#
# 1 0.015393 -0.004574 -0.005874 -0.003363 -0.001719 0.002266
# 2 -0.004574 0.015772 0.001544 0.005663 -0.001514 -0.014662
# 3 -0.005874 0.001544 0.010420 0.006115 -0.002906 -0.003784
# 4 -0.003363 0.005663 0.006115 0.042540 -0.006525 -0.017031
# 5 -0.001719 -0.001514 -0.002906 -0.006525 0.024793 0.003914
# 6 0.002266 -0.014662 -0.003784 -0.017031 0.003914 0.045481
#
#
# Mechanical properties :
#
#
# Convention : Reuss Voigt Hill
#
# Bulk Modulus (GPa) = 42.05722 60.75642 51.40682
# Shear Modulus (GPa) = 27.75730 37.76552 32.76141
#
# Velocity S-wave (km/s) = 3.46983 4.04731 3.76965
# Velocity P-wave (km/s) = 5.85621 6.94219 6.42220
#
# Compressibility (1/GPa) = 0.02377713
#
# Stress axis : x y z
#
# Youngs Moduli (GPa) = 64.96531 63.40196 95.96612
#
# Poissons Ratio (x) = 0.29003 0.56367
# Poissons Ratio (y) = 0.29718 -0.14817
# Poissons Ratio (z) = 0.38159 -0.09789
#
# Static dielectric constant tensor:
#      x y z
#    x 1.857990 0.003860 -0.001070 
#    y 0.003860 1.924200 -0.007190 
#    z -0.001070 -0.007190 1.920690 
# 
# From -- ./inp_files/135363.got.cif
#   From: 2010.05.17/outbox.cif.g08.bks.cpg/sg2_68_cif.got.tgz:135363.got - 2010.06.03 11:33:40.
