data_PCOD9062901
_publ_section_title
;
Structure prediction by ZEFSAII (Michael W. Deem and Ramdas Pophale) SiO2 
 PCOD9062901
Probable space group: P -1
;
_chemical_formula_sum "Si O2"
_cell_formula_units_Z 16
_cell_length_a 6.800582
_cell_length_b 9.575819
_cell_length_c 21.606097
_cell_angle_alpha 129.155378
_cell_angle_beta 57.323891
_cell_angle_gamma 133.889058
_cell_volume 773.055665
_symmetry_space_group_name_H-M "P -1"
_symmetry_group_IT_number 2
_symmetry_cell_setting 'triclinic'
loop_
_space_group_symop_operation_xyz
x,y,z
-x,-y,-z
loop_
_atom_site_type_symbol
_atom_site_label
_atom_site_fract_x
_atom_site_fract_y
_atom_site_fract_z
Si Si1 0.685518 0.004787 0.830491
Si Si2 0.063951 0.501929 0.917725
Si Si3 0.948014 0.180437 0.083285
Si Si4 0.313304 0.332555 0.184429
Si Si5 0.068658 0.830335 0.412358
Si Si6 0.451055 0.698041 0.365050
Si Si7 0.462848 0.498366 0.431826
Si Si8 0.106211 0.027111 0.339288
O O1 0.881070 0.256525 0.861568
O O2 0.378152 0.934434 0.880733
O O3 0.786622 0.895817 0.831142
O O4 0.701236 0.923461 0.738312
O O5 0.984179 0.645331 0.932401
O O6 0.382329 0.585268 0.872012
O O7 0.000000 0.500000 0.000000
O O8 0.116148 0.294283 0.149358
O O9 0.000000 0.000000 0.000000
O O10 0.345569 0.496581 0.279042
O O11 0.282504 0.807546 0.409601
O O12 0.787184 0.596869 0.385934
O O13 0.191883 0.928488 0.351986
O O14 0.000000 0.000000 0.500000
O O15 0.412874 0.631638 0.425450
O O16 0.778045 0.862733 0.341372
O O17 0.500000 0.500000 0.500000
O O18 0.189483 0.263442 0.407083
#
# Coordination Sequence:
#
# PCOD9062901 Si02
#       8
#     2   2   2   2   2   2   2   2
#     4  11  24  43  69  97 138 176 225 286 336 399
#     4  11  24  44  69  94 140 179 223 282 336 403
#     4  11  26  43  67 103 140 179 230 279 339 407
#     4  11  24  43  66 102 134 175 232 281 339 404
#     4  11  26  46  67 101 140 175 226 286 341 411
#     4  11  26  43  72  99 138 180 229 285 347 407
#     4  11  24  47  69 100 136 175 225 280 344 410
#     4  11  24  45  67 100 134 174 231 280 343 404
#
# _framework density 20.697087
#
# number of rings (size 3 to 8) (size 9 to 14) (size 15 to 20)
#    0.000    1.000    3.750    1.500    3.500    9.500 
#    0.000    0.000    0.000    0.000    0.000    0.000 
#    0.000    0.000    0.000    0.000    0.000    0.000 
#
# Total GULP energy -89225.352980 kJ/mol
# GULP energy per Si atom -5576.584561 kJ/mol
# Density = 2.064998 g / cm^3
# Si number density = 20.697087 Si / 1000 Ang^3
#
#
#
# Elastic Constant Matrix: (Units=GPa)
#
#
# Indices 1 2 3 4 5 6 
#
# 1 980.3194 637.1921 520.4012 68.1569 95.9001 12.2986
# 2 637.1921 533.2228 341.8509 43.4356 59.8093 15.3289
# 3 520.4012 341.8509 332.5065 32.0360 49.9259 5.6906
# 4 68.1569 43.4356 32.0360 46.0385 0.1512 21.3305
# 5 95.9001 59.8093 49.9259 0.1512 34.7605 4.1148
# 6 12.2986 15.3289 5.6906 21.3305 4.1148 33.8047
#
#
#
# Elastic Compliance Matrix: (Units=1/GPa)
#
#
# Indices 1 2 3 4 5 6 
#
# 1 0.010876 -0.005682 -0.009593 -0.006425 -0.007031 0.005145
# 2 -0.005682 0.008667 -0.000422 0.002051 0.001751 -0.003299
# 3 -0.009593 -0.000422 0.018004 0.002611 0.001460 -0.001175
# 4 -0.006425 0.002051 0.002611 0.039197 0.013281 -0.025382
# 5 -0.007031 0.001751 0.001460 0.013281 0.044451 -0.012273
# 6 0.005145 -0.003299 -0.001175 -0.025382 -0.012273 0.046914
#
#
# Mechanical properties :
#
#
# Convention : Reuss Voigt Hill
#
# Bulk Modulus (GPa) = 162.51140 538.32635 350.41888
# Shear Modulus (GPa) = 24.80705 46.02772 35.41739
#
# Velocity S-wave (km/s) = 3.46580 4.72091 4.14118
# Velocity P-wave (km/s) = 9.73166 17.04049 13.87594
#
# Compressibility (1/GPa) = 0.00615341
#
# Stress axis : x y z
#
# Youngs Moduli (GPa) = 91.94641 115.37584 55.54184
#
# Poissons Ratio (x) = 0.65559 0.53282
# Poissons Ratio (y) = 0.52246 0.02343
# Poissons Ratio (z) = 0.88205 0.04867
#
# Static dielectric constant tensor:
#      x y z
#    x 1.676380 -0.015370 -0.035200 
#    y -0.015370 1.723700 -0.014100 
#    z -0.035200 -0.014100 1.627480 
# 
# From -- ./inp_files/48033.got.cif
#   From: 2010.05.17/outbox.cif.g08.bks.cpg/sg2_25_cif.got.tgz:48033.got - 2010.06.03 11:33:40.
