data_PCOD9062095
_publ_section_title
;
Structure prediction by ZEFSAII (Michael W. Deem and Ramdas Pophale) SiO2 
 PCOD9062095
Probable space group: P -1
;
_chemical_formula_sum "Si O2"
_cell_formula_units_Z 16
_cell_length_a 11.698507
_cell_length_b 15.219361
_cell_length_c 8.186862
_cell_angle_alpha 39.883736
_cell_angle_beta 127.232565
_cell_angle_gamma 123.978913
_cell_volume 731.285625
_symmetry_space_group_name_H-M "P -1"
_symmetry_group_IT_number 2
_symmetry_cell_setting 'triclinic'
loop_
_space_group_symop_operation_xyz
x,y,z
-x,-y,-z
loop_
_atom_site_type_symbol
_atom_site_label
_atom_site_fract_x
_atom_site_fract_y
_atom_site_fract_z
Si Si1 0.163823 0.662499 0.719961
Si Si2 0.419227 0.545154 0.020698
Si Si3 0.109743 0.474190 0.487486
Si Si4 0.162480 0.993629 0.714316
Si Si5 0.844357 0.035526 0.858433
Si Si6 0.628272 0.733428 0.416452
Si Si7 0.711485 0.271319 0.911165
Si Si8 0.695044 0.741958 0.093994
O O1 0.167966 0.817723 0.437462
O O2 0.000357 0.578372 0.682919
O O3 0.266636 0.590641 0.794125
O O4 0.233565 0.668355 0.950843
O O5 0.391314 0.414727 0.302999
O O6 0.530888 0.675494 0.002626
O O7 0.500000 0.500000 0.000000
O O8 0.221502 0.611425 0.331041
O O9 0.197786 0.347661 0.773511
O O10 0.000000 0.500000 0.500000
O O11 0.271870 0.141924 0.575517
O O12 0.000000 0.000000 0.500000
O O13 0.165586 0.964227 0.954014
O O14 0.223238 0.868017 0.861349
O O15 0.731644 0.907088 0.866481
O O16 0.000000 0.000000 0.000000
O O17 0.464288 0.761242 0.206713
O O18 0.706769 0.722530 0.326683
#
# Coordination Sequence:
#
# PCOD9062095 Si02
#       8
#     2   2   2   2   2   2   2   2
#     4  12  26  44  70 109 138 186 237 283 357 418
#     4  12  26  43  71 104 140 181 235 288 349 417
#     4  12  25  43  74 103 141 183 240 295 348 408
#     4  11  27  45  74 106 135 186 239 290 353 415
#     4  11  24  45  72  99 146 179 230 293 347 416
#     4  11  25  49  71  99 143 187 231 289 350 425
#     4  12  25  46  73 100 146 187 233 288 354 427
#     4  11  23  47  72  97 138 191 227 286 355 412
#
# _framework density 21.879273999999999
#
# number of rings (size 3 to 8) (size 9 to 14) (size 15 to 20)
#    0.000    0.500    3.750    4.125    5.250    2.500 
#    0.000    0.000    0.000    0.000    0.000    0.000 
#    0.000    0.000    0.000    0.000    0.000    0.000 
#
# Total GULP energy -89557.822927 kJ/mol
# GULP energy per Si atom -5597.363933 kJ/mol
# Density = 2.182948 g / cm^3
# Si number density = 21.879274 Si / 1000 Ang^3
#
#
#
# Elastic Constant Matrix: (Units=GPa)
#
#
# Indices 1 2 3 4 5 6 
#
# 1 97.9088 18.5884 19.7484 -7.3499 21.8827 -3.3347
# 2 18.5884 121.9657 10.1831 1.8775 10.1319 26.4856
# 3 19.7484 10.1831 69.9878 -2.8203 23.5876 6.3563
# 4 -7.3499 1.8775 -2.8203 29.3500 0.5259 4.9468
# 5 21.8827 10.1319 23.5876 0.5259 42.6250 2.0620
# 6 -3.3347 26.4856 6.3563 4.9468 2.0620 37.7748
#
#
#
# Elastic Compliance Matrix: (Units=1/GPa)
#
#
# Indices 1 2 3 4 5 6 
#
# 1 0.012349 -0.001936 -0.001595 0.002710 -0.005158 0.002643
# 2 -0.001936 0.010154 0.000116 0.000121 -0.001134 -0.007264
# 3 -0.001595 0.000116 0.018157 0.002014 -0.009134 -0.003042
# 4 0.002710 0.000121 0.002014 0.035781 -0.002748 -0.004720
# 5 -0.005158 -0.001134 -0.009134 -0.002748 0.031441 0.000520
# 6 0.002643 -0.007264 -0.003042 -0.004720 0.000520 0.032901
#
#
# Mechanical properties :
#
#
# Convention : Reuss Voigt Hill
#
# Bulk Modulus (GPa) = 29.56021 42.98914 36.27468
# Shear Modulus (GPa) = 31.46804 38.03945 34.75375
#
# Velocity S-wave (km/s) = 3.79655 4.17418 3.98984
# Velocity P-wave (km/s) = 5.72349 6.55154 6.15147
#
# Compressibility (1/GPa) = 0.03382925
#
# Stress axis : x y z
#
# Youngs Moduli (GPa) = 80.97691 98.48186 55.07407
#
# Poissons Ratio (x) = 0.19066 0.08786
# Poissons Ratio (y) = 0.15677 -0.00636
# Poissons Ratio (z) = 0.12918 -0.01138
#
# Static dielectric constant tensor:
#      x y z
#    x 1.789130 -0.009860 -0.017510 
#    y -0.009860 1.779770 -0.000490 
#    z -0.017510 -0.000490 1.744300 
# 
# From -- ./inp_files/218269.got.cif
#   From: 2010.05.17/outbox.cif.g08.bks.cpg/sg2_110_cif.got.tgz:218269.got - 2010.06.03 11:33:40.
