data_PCOD9062230
_publ_section_title
;
Structure prediction by ZEFSAII (Michael W. Deem and Ramdas Pophale) SiO2 
 PCOD9062230
Probable space group: P -1
;
_chemical_formula_sum "Si O2"
_cell_formula_units_Z 16
_cell_length_a 11.558260
_cell_length_b 9.053022
_cell_length_c 15.445925
_cell_angle_alpha 31.451606
_cell_angle_beta 90.000000
_cell_angle_gamma 79.072904
_cell_volume 785.687439
_symmetry_space_group_name_H-M "P -1"
_symmetry_group_IT_number 2
_symmetry_cell_setting 'triclinic'
loop_
_space_group_symop_operation_xyz
x,y,z
-x,-y,-z
loop_
_atom_site_type_symbol
_atom_site_label
_atom_site_fract_x
_atom_site_fract_y
_atom_site_fract_z
Si Si1 0.625410 0.581059 0.959471
Si Si2 0.032302 0.804506 0.185253
Si Si3 0.967698 0.195494 0.489760
Si Si4 0.073426 0.746648 0.876676
Si Si5 0.309591 0.579259 0.359686
Si Si6 0.309590 0.579259 0.561055
Si Si7 0.528457 0.043723 0.576767
Si Si8 0.528457 0.043723 0.879510
O O1 0.602962 0.764236 0.958552
O O2 0.602962 0.764236 0.777212
O O3 0.500000 0.500000 0.000000
O O4 0.774844 0.390163 0.054918
O O5 0.178677 0.674098 0.267927
O O6 0.000000 0.500000 0.334428
O O7 0.969587 0.034021 0.149290
O O8 0.000000 0.000000 0.000000
O O9 0.821323 0.325903 0.442025
O O10 0.000000 0.000000 0.500000
O O11 0.030413 0.965978 0.683311
O O12 0.000000 0.500000 0.000000
O O13 0.295189 0.668321 0.415840
O O14 0.395558 0.226148 0.529856
O O15 0.388033 0.751002 0.227265
O O16 0.388033 0.751002 0.521732
O O17 0.395558 0.226148 0.743996
O O18 0.500000 0.000000 0.500000
O O19 0.500000 0.000000 0.000000
#
# Coordination Sequence:
#
# PCOD9062230 Si02
#       8
#     2   2   2   2   2   2   2   2
#     4  12  28  41  68 107 146 182 240 303 365 440
#     4  12  29  47  76 109 149 197 252 311 371 449
#     4  12  29  47  76 109 149 197 252 311 371 449
#     4  12  27  50  76 107 153 199 250 309 376 449
#     4  11  23  48  74  96 141 193 242 297 370 440
#     4  11  23  48  74  96 141 193 242 297 370 440
#     4  11  25  43  71 103 140 186 237 298 368 442
#     4  11  25  43  71 103 140 186 237 298 368 442
#
# _framework density 20.364332999999998
#
# number of rings (size 3 to 8) (size 9 to 14) (size 15 to 20)
#    0.000    0.500    3.750    3.375   14.000    0.000 
#    0.000    0.000    0.000    0.000    0.000    0.000 
#    0.000    0.000    0.000    0.000    0.000    0.000 
#
# Total GULP energy -89272.085953 kJ/mol
# GULP energy per Si atom -5579.505372 kJ/mol
# Density = 2.031798 g / cm^3
# Si number density = 20.364333 Si / 1000 Ang^3
#
#
#
# Elastic Constant Matrix: (Units=GPa)
#
#
# Indices 1 2 3 4 5 6 
#
# 1 204.5940 74.6002 82.1580 -6.7898 23.7328 -13.9629
# 2 74.6002 159.1571 74.3572 18.9544 -3.6176 0.0061
# 3 82.1580 74.3572 126.2318 10.5370 1.2962 1.3681
# 4 -6.7898 18.9544 10.5370 39.3608 -2.2243 2.5082
# 5 23.7328 -3.6176 1.2962 -2.2243 41.1492 -3.4660
# 6 -13.9629 0.0061 1.3681 2.5082 -3.4660 37.3088
#
#
#
# Elastic Compliance Matrix: (Units=1/GPa)
#
#
# Indices 1 2 3 4 5 6 
#
# 1 0.008258 -0.002390 -0.004224 0.003289 -0.004442 0.002612
# 2 -0.002390 0.009723 -0.003863 -0.003922 0.002118 -0.000294
# 3 -0.004224 -0.003863 0.013135 -0.002191 0.001414 -0.001783
# 4 0.003289 -0.003922 -0.002191 0.028452 -0.000691 -0.000665
# 5 -0.004442 0.002118 0.001414 -0.000691 0.027039 0.000844
# 6 0.002612 -0.000294 -0.001783 -0.000665 0.000844 0.027969
#
#
# Mechanical properties :
#
#
# Convention : Reuss Voigt Hill
#
# Bulk Modulus (GPa) = 98.41284 105.80152 102.10718
# Shear Modulus (GPa) = 35.99215 40.82157 38.40686
#
# Velocity S-wave (km/s) = 4.20862 4.48209 4.34751
# Velocity P-wave (km/s) = 8.48809 8.87990 8.68620
#
# Compressibility (1/GPa) = 0.01016128
#
# Stress axis : x y z
#
# Youngs Moduli (GPa) = 121.09158 102.84365 76.13440
#
# Poissons Ratio (x) = 0.24580 0.32161
# Poissons Ratio (y) = 0.28941 0.29413
# Poissons Ratio (z) = 0.51152 0.39732
#
# Static dielectric constant tensor:
#      x y z
#    x 1.753150 0.031870 -0.054360 
#    y 0.031870 1.713420 -0.077190 
#    z -0.054360 -0.077190 1.799660 
# 
# From -- ./inp_files/514817.got.cif
#   From: 2010.05.17/outbox.cif.g08.bks.cpg/sg2_258_cif.got.tgz:514817.got - 2010.06.03 11:33:40.
