data_PCOD9062245
_publ_section_title
;
Structure prediction by ZEFSAII (Michael W. Deem and Ramdas Pophale) SiO2 
 PCOD9062245
Probable space group: P -1
;
_chemical_formula_sum "Si O2"
_cell_formula_units_Z 12
_cell_length_a 5.683886
_cell_length_b 14.471638
_cell_length_c 8.587210
_cell_angle_alpha 42.981832
_cell_angle_beta 93.292015
_cell_angle_gamma 104.494057
_cell_volume 457.705700
_symmetry_space_group_name_H-M "P -1"
_symmetry_group_IT_number 2
_symmetry_cell_setting 'triclinic'
loop_
_space_group_symop_operation_xyz
x,y,z
-x,-y,-z
loop_
_atom_site_type_symbol
_atom_site_label
_atom_site_fract_x
_atom_site_fract_y
_atom_site_fract_z
Si Si1 0.220807 0.436581 0.147524
Si Si2 0.191845 0.155443 0.328895
Si Si3 0.899867 0.388573 0.457961
Si Si4 0.178220 0.330192 0.804363
Si Si5 0.273386 0.091313 0.945922
Si Si6 0.422737 0.879917 0.393814
O O1 0.158033 0.267973 0.318752
O O2 0.174935 0.456184 0.306656
O O3 0.500000 0.500000 0.000000
O O4 0.000000 0.500000 0.000000
O O5 0.448190 0.133053 0.423811
O O6 0.162783 0.240556 0.069547
O O7 0.000000 0.000000 0.500000
O O8 0.770081 0.507911 0.340631
O O9 0.754992 0.272864 0.473261
O O10 0.932111 0.311547 0.713978
O O11 0.327238 0.255945 0.789522
O O12 0.403743 0.086807 0.793142
O O13 0.317404 0.011368 0.203510
O O14 0.000000 0.000000 0.000000
#
# Coordination Sequence:
#
# PCOD9062245 Si02
#       6
#     2   2   2   2   2   2
#     4  12  27  57  84 117 170 224 279 344 428 504
#     4  12  28  49  77 121 164 213 278 348 410 495
#     4  11  25  51  82 115 159 220 277 338 425 502
#     4  11  25  47  76 118 164 199 282 345 409 494
#     4  11  23  48  76 114 163 215 274 338 420 498
#     4  11  26  47  81 111 164 227 270 337 427 506
#
# _framework density 26.217721000000001
#
# number of rings (size 3 to 8) (size 9 to 14) (size 15 to 20)
#    0.000    0.667    3.333    3.000    4.667    1.333 
#    9.000    0.000    0.000    0.000    0.000    0.000 
#    0.000    0.000    0.000    0.000    0.000    0.000 
#
# Total GULP energy -66952.275706 kJ/mol
# GULP energy per Si atom -5579.356309 kJ/mol
# Density = 2.615805 g / cm^3
# Si number density = 26.217721 Si / 1000 Ang^3
#
#
#
# Elastic Constant Matrix: (Units=GPa)
#
#
# Indices 1 2 3 4 5 6 
#
# 1 106.8730 45.8737 60.7414 -5.1822 17.9968 12.3973
# 2 45.8737 122.5665 48.1317 -23.2099 12.8667 -1.4474
# 3 60.7414 48.1317 170.0401 2.0898 54.1312 25.6967
# 4 -5.1822 -23.2099 2.0898 60.9518 1.1867 15.9455
# 5 17.9968 12.8667 54.1312 1.1867 66.6606 2.2855
# 6 12.3973 -1.4474 25.6967 15.9455 2.2855 38.0230
#
#
#
# Elastic Compliance Matrix: (Units=1/GPa)
#
#
# Indices 1 2 3 4 5 6 
#
# 1 0.013048 -0.003517 -0.003277 0.000507 -0.000110 -0.002380
# 2 -0.003517 0.011023 -0.002348 0.003540 0.000610 0.001632
# 3 -0.003277 -0.002348 0.010979 0.000184 -0.007372 -0.006075
# 4 0.000507 0.003540 0.000184 0.020033 -0.001035 -0.008494
# 5 -0.000110 0.000610 -0.007372 -0.001035 0.020774 0.004227
# 6 -0.002380 0.001632 -0.006075 -0.008494 0.004227 0.034551
#
#
# Mechanical properties :
#
#
# Convention : Reuss Voigt Hill
#
# Bulk Modulus (GPa) = 59.64567 78.77478 69.21023
# Shear Modulus (GPa) = 37.23525 49.44260 43.33892
#
# Velocity S-wave (km/s) = 3.77268 4.34734 4.07017
# Velocity P-wave (km/s) = 6.46352 7.43712 6.96735
#
# Compressibility (1/GPa) = 0.01676568
#
# Stress axis : x y z
#
# Youngs Moduli (GPa) = 76.63809 90.71973 91.08410
#
# Poissons Ratio (x) = 0.31909 0.29848
# Poissons Ratio (y) = 0.26956 0.21386
# Poissons Ratio (z) = 0.25115 0.21300
#
# Static dielectric constant tensor:
#      x y z
#    x 2.309140 -0.077730 -0.012930 
#    y -0.077730 2.068240 0.044320 
#    z -0.012930 0.044320 2.236590 
# 
# From -- ./inp_files/132739.got.cif
#   From: 2010.05.17/outbox.cif.g08.bks.cpg/sg2_67_cif.got.tgz:132739.got - 2010.06.03 11:33:40.
