data_PCOD9062728
_publ_section_title
;
Structure prediction by ZEFSAII (Michael W. Deem and Ramdas Pophale) SiO2 
 PCOD9062728
Probable space group: P -1
;
_chemical_formula_sum "Si O2"
_cell_formula_units_Z 15
_cell_length_a 14.348684
_cell_length_b 8.984334
_cell_length_c 9.667656
_cell_angle_alpha 52.394404
_cell_angle_beta 46.931624
_cell_angle_gamma 80.364761
_cell_volume 650.932373
_symmetry_space_group_name_H-M "P -1"
_symmetry_group_IT_number 2
_symmetry_cell_setting 'triclinic'
loop_
_space_group_symop_operation_xyz
x,y,z
-x,-y,-z
loop_
_atom_site_type_symbol
_atom_site_label
_atom_site_fract_x
_atom_site_fract_y
_atom_site_fract_z
Si Si1 0.316586 0.772086 0.009375
Si Si2 0.411041 0.270747 0.284146
Si Si3 0.054480 0.342591 0.261785
Si Si4 0.338429 0.846489 0.243901
Si Si5 0.829060 0.971235 0.561614
Si Si6 0.308632 0.563231 0.692677
Si Si7 0.635951 0.767421 0.337297
Si Si8 0.000000 0.500000 0.500000
O O1 0.464180 0.802711 0.775160
O O2 0.302276 0.986294 0.884664
O O3 0.334504 0.729922 0.174454
O O4 0.165018 0.591121 0.232153
O O5 0.283181 0.120350 0.398946
O O6 0.348639 0.279056 0.491987
O O7 0.500000 0.500000 0.000000
O O8 0.108390 0.191795 0.374816
O O9 0.961351 0.400865 0.433795
O O10 0.190624 0.523338 0.950214
O O11 0.960203 0.200729 0.308395
O O12 0.295241 0.703346 0.503290
O O13 0.262013 0.999566 0.237378
O O14 0.500000 0.000000 0.000000
O O15 0.468630 0.672520 0.525637
O O16 0.295129 0.346910 0.763873
#
# Coordination Sequence:
#
# PCOD9062728 Si02
#       8
#     2   2   2   2   2   2   2   1
#     4  12  24  43  69 101 142 188 237 289 357 414
#     4  12  24  42  71 106 142 184 239 299 351 418
#     4  11  26  46  72 102 142 190 232 291 360 426
#     4  12  22  43  73 102 137 185 235 292 351 415
#     4  11  24  45  72  98 143 187 237 286 358 426
#     4  11  24  42  71 104 142 181 237 293 351 426
#     4  11  24  42  69 105 140 184 237 294 349 428
#     4  12  26  46  72 102 142 184 238 288 356 422
#
# _framework density 23.043868
#
# number of rings (size 3 to 8) (size 9 to 14) (size 15 to 20)
#    0.000    0.533    4.000    4.400    3.733    1.600 
#    2.400    0.667    0.000    0.000    0.000    0.000 
#    0.000    0.000    0.000    0.000    0.000    0.000 
#
# Total GULP energy -83513.475781 kJ/mol
# GULP energy per Si atom -5567.565052 kJ/mol
# Density = 2.299142 g / cm^3
# Si number density = 23.043868 Si / 1000 Ang^3
#
#
#
# Elastic Constant Matrix: (Units=GPa)
#
#
# Indices 1 2 3 4 5 6 
#
# 1 65.3176 14.6019 17.8953 -9.7987 -9.9883 12.8214
# 2 14.6019 76.4632 13.0206 15.2449 15.2466 4.2799
# 3 17.8953 13.0206 83.9898 20.6677 5.6766 1.2094
# 4 -9.7987 15.2449 20.6677 39.8975 5.5440 -4.6167
# 5 -9.9883 15.2466 5.6766 5.5440 51.1076 0.0544
# 6 12.8214 4.2799 1.2094 -4.6167 0.0544 42.9015
#
#
#
# Elastic Compliance Matrix: (Units=1/GPa)
#
#
# Indices 1 2 3 4 5 6 
#
# 1 0.021528 -0.005776 -0.006330 0.009453 0.005613 -0.004669
# 2 -0.005776 0.016657 0.000889 -0.007586 -0.005373 -0.000770
# 3 -0.006330 0.000889 0.015635 -0.009651 -0.002192 0.000326
# 4 0.009453 -0.007586 -0.009651 0.035329 0.001348 0.002004
# 5 0.005613 -0.005373 -0.002192 0.001348 0.022365 -0.000963
# 6 -0.004669 -0.000770 0.000326 0.002004 -0.000963 0.024989
#
#
# Mechanical properties :
#
#
# Convention : Reuss Voigt Hill
#
# Bulk Modulus (GPa) = 31.85934 35.20071 33.53002
# Shear Modulus (GPa) = 29.51631 38.79817 34.15724
#
# Velocity S-wave (km/s) = 3.58281 4.10770 3.85420
# Velocity P-wave (km/s) = 5.56515 6.14868 5.86418
#
# Compressibility (1/GPa) = 0.03138797
#
# Stress axis : x y z
#
# Youngs Moduli (GPa) = 46.45085 60.03589 63.95727
#
# Poissons Ratio (x) = 0.34676 0.40483
# Poissons Ratio (y) = 0.26829 -0.05689
# Poissons Ratio (z) = 0.29402 -0.05340
#
# Static dielectric constant tensor:
#      x y z
#    x 1.833370 -0.226300 -0.043020 
#    y -0.226300 1.289100 -0.065670 
#    z -0.043020 -0.065670 1.845040 
# 
# From -- ./inp_files/294433.got.cif
#   From: 2010.05.17/outbox.cif.g08.bks.cpg/sg2_148_cif.got.tgz:294433.got - 2010.06.03 11:33:40.
