data_PCOD9062400
_publ_section_title
;
Structure prediction by ZEFSAII (Michael W. Deem and Ramdas Pophale) SiO2 
 PCOD9062400
Probable space group: P -1
;
_chemical_formula_sum "Si O2"
_cell_formula_units_Z 16
_cell_length_a 15.703690
_cell_length_b 14.874486
_cell_length_c 14.814591
_cell_angle_alpha 20.339772
_cell_angle_beta 141.791148
_cell_angle_gamma 142.256815
_cell_volume 720.127465
_symmetry_space_group_name_H-M "P -1"
_symmetry_group_IT_number 2
_symmetry_cell_setting 'triclinic'
loop_
_space_group_symop_operation_xyz
x,y,z
-x,-y,-z
loop_
_atom_site_type_symbol
_atom_site_label
_atom_site_fract_x
_atom_site_fract_y
_atom_site_fract_z
Si Si1 0.656489 0.636102 0.672636
Si Si2 0.913090 0.693098 0.700723
Si Si3 0.165087 0.046175 0.116244
Si Si4 0.943699 0.664212 0.542497
Si Si5 0.872412 0.763655 0.899095
Si Si6 0.444826 0.422321 0.928281
Si Si7 0.710461 0.302087 0.575653
Si Si8 0.496935 0.897882 0.872840
O O1 0.760520 0.638471 0.672971
O O2 0.757266 0.670069 0.813156
O O3 0.593395 0.894364 0.372342
O O4 0.539628 0.353158 0.853442
O O5 0.903444 0.638074 0.638283
O O6 0.000000 0.000000 0.500000
O O7 0.000000 0.500000 0.000000
O O8 0.187513 0.132586 0.157545
O O9 0.207144 0.787903 0.354657
O O10 0.279615 0.270230 0.947080
O O11 0.000000 0.000000 0.000000
O O12 0.809397 0.550863 0.473976
O O13 0.014701 0.972450 0.290705
O O14 0.052263 0.475292 0.792729
O O15 0.432342 0.650328 0.633088
O O16 0.500000 0.500000 0.000000
O O17 0.530910 0.239827 0.120329
O O18 0.657264 0.076460 0.821062
#
# Coordination Sequence:
#
# PCOD9062400 Si02
#       8
#     2   2   2   2   2   2   2   2
#     4  12  23  43  72 101 137 173 232 293 337 424
#     4  12  23  46  70 109 138 171 225 291 363 419
#     4  11  24  40  66 104 140 183 235 288 351 419
#     4  12  25  45  70 101 143 181 219 288 363 417
#     4  12  25  40  69 105 139 176 229 282 356 411
#     4  11  25  45  67  97 143 192 241 288 335 411
#     4  11  26  45  69  95 151 185 235 284 347 414
#     4  11  25  44  67  97 138 185 231 278 345 399
#
# _framework density 22.218288000000001
#
# number of rings (size 3 to 8) (size 9 to 14) (size 15 to 20)
#    0.000    0.500    5.000    3.000    5.250    2.000 
#    0.000    1.250    0.000    0.000    0.000    0.000 
#    0.000    0.000    0.000    0.000    0.000    0.000 
#
# Total GULP energy -89419.884280 kJ/mol
# GULP energy per Si atom -5588.742767 kJ/mol
# Density = 2.216772 g / cm^3
# Si number density = 22.218288 Si / 1000 Ang^3
#
#
#
# Elastic Constant Matrix: (Units=GPa)
#
#
# Indices 1 2 3 4 5 6 
#
# 1 143.2201 3.5370 23.1064 -1.9770 10.1153 -6.3171
# 2 3.5370 62.8230 14.2237 -7.8330 -2.0361 -5.2375
# 3 23.1064 14.2237 113.3275 -11.8001 17.4261 3.7949
# 4 -1.9770 -7.8330 -11.8001 22.3956 6.1170 -8.2784
# 5 10.1153 -2.0361 17.4261 6.1170 41.0942 -1.1563
# 6 -6.3171 -5.2375 3.7949 -8.2784 -1.1563 39.6644
#
#
#
# Elastic Compliance Matrix: (Units=1/GPa)
#
#
# Indices 1 2 3 4 5 6 
#
# 1 0.007356 0.000060 -0.001248 0.000925 -0.001375 0.001452
# 2 0.000060 0.017459 -0.001785 0.006381 0.000766 0.003840
# 3 -0.001248 -0.001785 0.010781 0.006278 -0.005296 -0.000310
# 4 0.000925 0.006381 0.006278 0.057708 -0.010823 0.012118
# 5 -0.001375 0.000766 -0.005296 -0.010823 0.028538 -0.001038
# 6 0.001452 0.003840 -0.000310 0.012118 -0.001038 0.028478
#
#
# Mechanical properties :
#
#
# Convention : Reuss Voigt Hill
#
# Bulk Modulus (GPa) = 33.72739 44.56720 39.14730
# Shear Modulus (GPa) = 30.09304 39.19773 34.64539
#
# Velocity S-wave (km/s) = 3.68425 4.20481 3.95310
# Velocity P-wave (km/s) = 5.77159 6.60880 6.20433
#
# Compressibility (1/GPa) = 0.02964949
#
# Stress axis : x y z
#
# Youngs Moduli (GPa) = 135.94169 57.27641 92.75583
#
# Poissons Ratio (x) = -0.00345 0.11578
# Poissons Ratio (y) = -0.00819 0.16561
# Poissons Ratio (z) = 0.16969 0.10226
#
# Static dielectric constant tensor:
#      x y z
#    x 1.862060 0.029870 0.003470 
#    y 0.029870 1.809960 -0.025370 
#    z 0.003470 -0.025370 1.899430 
# 
# From -- ./inp_files/533998.got.cif
#   From: 2010.05.17/outbox.cif.g08.bks.cpg/sg2_267_cif.got.tgz:533998.got - 2010.06.03 11:33:40.
