data_PCOD9062071
_publ_section_title
;
Structure prediction by ZEFSAII (Michael W. Deem and Ramdas Pophale) SiO2 
 PCOD9062071
Probable space group: P -1
;
_chemical_formula_sum "Si O2"
_cell_formula_units_Z 16
_cell_length_a 12.249409
_cell_length_b 6.619988
_cell_length_c 17.707450
_cell_angle_alpha 61.309276
_cell_angle_beta 49.489017
_cell_angle_gamma 92.922427
_cell_volume 803.535691
_symmetry_space_group_name_H-M "P -1"
_symmetry_group_IT_number 2
_symmetry_cell_setting 'triclinic'
loop_
_space_group_symop_operation_xyz
x,y,z
-x,-y,-z
loop_
_atom_site_type_symbol
_atom_site_label
_atom_site_fract_x
_atom_site_fract_y
_atom_site_fract_z
Si Si1 0.732315 0.246451 0.537803
Si Si2 0.584211 0.988898 0.387626
Si Si3 0.149713 0.814410 0.356982
Si Si4 0.703951 0.152651 0.882267
Si Si5 0.838725 0.837269 0.337301
Si Si6 0.896901 0.034350 0.934987
Si Si7 0.091184 0.431918 0.907264
Si Si8 0.024320 0.215147 0.323810
O O1 0.711030 0.129924 0.652228
O O2 0.807760 0.571293 0.442588
O O3 0.870914 0.203305 0.441291
O O4 0.556337 0.109700 0.596250
O O5 0.744958 0.289418 0.244141
O O6 0.500000 0.000000 0.500000
O O7 0.663069 0.806138 0.399027
O O8 0.222762 0.850845 0.233008
O O9 0.000000 0.500000 0.500000
O O10 0.080233 0.012146 0.364310
O O11 0.753788 0.006416 0.948643
O O12 0.812446 0.473802 0.800272
O O13 0.500000 0.000000 0.000000
O O14 0.942581 0.874880 0.208239
O O15 0.949004 0.099911 0.294872
O O16 0.960507 0.269180 0.927016
O O17 0.853633 0.764105 0.047034
O O18 0.000000 0.500000 0.000000
#
# Coordination Sequence:
#
# PCOD9062071 Si02
#       8
#     2   2   2   2   2   2   2   2
#     4  12  25  41  69 107 138 177 231 294 338 409
#     4  12  25  43  70 108 139 179 230 282 350 407
#     4  12  24  46  69 101 135 184 235 280 347 410
#     4  12  28  46  69 102 137 181 236 289 341 415
#     4  12  22  45  74  98 141 186 227 282 346 422
#     4  11  23  47  71  96 138 186 229 276 347 416
#     4  11  25  44  73 100 137 182 226 280 347 416
#     4  12  22  44  77  93 138 191 225 281 357 410
#
# _framework density 19.911995000000001
#
# number of rings (size 3 to 8) (size 9 to 14) (size 15 to 20)
#    0.000    0.250    7.500    2.250    0.000    2.500 
#    2.250    0.000    0.000    0.000    0.000    0.000 
#    0.000    0.000    0.000    0.000    0.000    0.000 
#
# Total GULP energy -89482.266744 kJ/mol
# GULP energy per Si atom -5592.641672 kJ/mol
# Density = 1.986667 g / cm^3
# Si number density = 19.911995 Si / 1000 Ang^3
#
#
#
# Elastic Constant Matrix: (Units=GPa)
#
#
# Indices 1 2 3 4 5 6 
#
# 1 185.1403 64.5889 46.5152 10.8083 3.3394 -2.8682
# 2 64.5889 117.5947 43.6488 3.5750 -4.0809 4.4962
# 3 46.5152 43.6488 95.1581 5.3785 -3.1980 -1.7870
# 4 10.8083 3.5750 5.3785 31.8771 -3.4758 8.4028
# 5 3.3394 -4.0809 -3.1980 -3.4758 34.4911 2.8418
# 6 -2.8682 4.4962 -1.7870 8.4028 2.8418 43.7880
#
#
#
# Elastic Compliance Matrix: (Units=1/GPa)
#
#
# Indices 1 2 3 4 5 6 
#
# 1 0.007209 -0.003282 -0.001921 -0.002261 -0.001597 0.001268
# 2 -0.003282 0.011839 -0.003870 0.001119 0.001630 -0.001909
# 3 -0.001921 -0.003870 0.013344 -0.001356 0.000744 0.001028
# 4 -0.002261 0.001119 -0.001356 0.034619 0.004311 -0.007241
# 5 -0.001597 0.001630 0.000744 0.004311 0.030093 -0.003022
# 6 0.001268 -0.001909 0.001028 -0.007241 -0.003022 0.024744
#
#
# Mechanical properties :
#
#
# Convention : Reuss Voigt Hill
#
# Bulk Modulus (GPa) = 70.19616 78.59988 74.39802
# Shear Modulus (GPa) = 34.54416 38.24059 36.39237
#
# Velocity S-wave (km/s) = 4.16966 4.38708 4.27975
# Velocity P-wave (km/s) = 7.64926 8.07597 7.86551
#
# Compressibility (1/GPa) = 0.01424579
#
# Stress axis : x y z
#
# Youngs Moduli (GPa) = 138.71089 84.47001 74.94020
#
# Poissons Ratio (x) = 0.27723 0.14394
# Poissons Ratio (y) = 0.45524 0.29005
# Poissons Ratio (z) = 0.26642 0.32693
#
# Static dielectric constant tensor:
#      x y z
#    x 1.734790 0.007250 0.011300 
#    y 0.007250 1.710090 -0.017540 
#    z 0.011300 -0.017540 1.663380 
# 
# From -- ./inp_files/118487.got.cif
#   From: 2010.05.17/outbox.cif.g08.bks.cpg/sg2_60_cif.got.tgz:118487.got - 2010.06.03 11:33:40.
