data_PCOD9062750
_publ_section_title
;
Structure prediction by ZEFSAII (Michael W. Deem and Ramdas Pophale) SiO2 
 PCOD9062750
Probable space group: P -1
;
_chemical_formula_sum "Si O2"
_cell_formula_units_Z 14
_cell_length_a 6.175079
_cell_length_b 12.757615
_cell_length_c 14.391297
_cell_angle_alpha 135.264182
_cell_angle_beta 92.147817
_cell_angle_gamma 62.408508
_cell_volume 625.227069
_symmetry_space_group_name_H-M "P -1"
_symmetry_group_IT_number 2
_symmetry_cell_setting 'triclinic'
loop_
_space_group_symop_operation_xyz
x,y,z
-x,-y,-z
loop_
_atom_site_type_symbol
_atom_site_label
_atom_site_fract_x
_atom_site_fract_y
_atom_site_fract_z
Si Si1 0.697586 0.306916 0.204007
Si Si2 0.816139 0.581610 0.455529
Si Si3 0.867678 0.473087 0.755229
Si Si4 0.749835 0.632927 0.154146
Si Si5 0.326512 0.028702 0.733546
Si Si6 0.285873 0.018953 0.936432
Si Si7 0.867659 0.172010 0.680413
O O1 0.698876 0.467771 0.354485
O O2 0.459054 0.377471 0.168770
O O3 0.671941 0.177891 0.192590
O O4 0.988749 0.170399 0.071580
O O5 0.566419 0.804976 0.591566
O O6 0.000000 0.500000 0.500000
O O7 0.020971 0.558027 0.365733
O O8 0.915243 0.303346 0.707358
O O9 0.079628 0.482314 0.822879
O O10 0.451700 0.686514 0.203424
O O11 0.636393 0.844323 0.252485
O O12 0.000000 0.500000 0.000000
O O13 0.309550 0.077678 0.871964
O O14 0.044549 0.082243 0.720870
O O15 0.500000 0.000000 0.000000
O O16 0.000000 0.000000 0.500000
#
# Coordination Sequence:
#
# PCOD9062750 Si02
#       7
#     2   2   2   2   2   2   2
#     4  11  25  43  72  99 142 192 245 296 378 434
#     4  12  26  47  73 109 147 194 248 310 373 447
#     4  11  24  42  70 100 141 188 237 302 362 443
#     4  11  27  43  72 107 148 195 246 306 375 445
#     4  11  26  43  72 103 146 186 246 304 371 444
#     4  11  26  45  68 103 143 192 241 309 366 442
#     4  11  24  44  70 105 146 191 243 306 379 442
#
# _framework density 22.391866
#
# number of rings (size 3 to 8) (size 9 to 14) (size 15 to 20)
#    0.000    0.857    0.000    6.000    8.000    9.143 
#    0.000    0.000    0.000    0.000    0.000    0.000 
#    0.000    0.000    0.000    0.000    0.000    0.000 
#
# Total GULP energy -78058.102028 kJ/mol
# GULP energy per Si atom -5575.578716 kJ/mol
# Density = 2.234090 g / cm^3
# Si number density = 22.391866 Si / 1000 Ang^3
#
#
#
# Elastic Constant Matrix: (Units=GPa)
#
#
# Indices 1 2 3 4 5 6 
#
# 1 112.5057 59.6735 40.7174 2.7411 -21.5278 -20.5520
# 2 59.6735 176.9586 45.6792 -4.1537 -8.2765 -23.0627
# 3 40.7174 45.6792 82.3579 12.4475 -8.9926 -7.6511
# 4 2.7411 -4.1537 12.4475 49.4705 8.3172 4.5787
# 5 -21.5278 -8.2765 -8.9926 8.3172 37.8788 13.5246
# 6 -20.5520 -23.0627 -7.6511 4.5787 13.5246 56.9679
#
#
#
# Elastic Compliance Matrix: (Units=1/GPa)
#
#
# Indices 1 2 3 4 5 6 
#
# 1 0.013351 -0.002997 -0.003995 -0.001092 0.005570 0.001832
# 2 -0.002997 0.007649 -0.003038 0.001700 -0.001805 0.001899
# 3 -0.003995 -0.003038 0.016679 -0.004552 0.002238 -0.000597
# 4 -0.001092 0.001700 -0.004552 0.022645 -0.006052 -0.000700
# 5 0.005570 -0.001805 0.002238 -0.006052 0.033100 -0.005792
# 6 0.001832 0.001899 -0.000597 -0.000700 -0.005792 0.020335
#
#
# Mechanical properties :
#
#
# Convention : Reuss Voigt Hill
#
# Bulk Modulus (GPa) = 56.75850 73.77361 65.26606
# Shear Modulus (GPa) = 35.79288 43.91358 39.85323
#
# Velocity S-wave (km/s) = 4.00243 4.43328 4.22335
# Velocity P-wave (km/s) = 6.83829 7.69568 7.27961
#
# Compressibility (1/GPa) = 0.01761851
#
# Stress axis : x y z
#
# Youngs Moduli (GPa) = 74.89956 130.73433 59.95522
#
# Poissons Ratio (x) = 0.39187 0.23951
# Poissons Ratio (y) = 0.22451 0.18216
# Poissons Ratio (z) = 0.29921 0.39721
#
# Static dielectric constant tensor:
#      x y z
#    x 2.008240 -0.054990 0.116610 
#    y -0.054990 1.777800 0.083380 
#    z 0.116610 0.083380 1.624030 
# 
# From -- ./inp_files/94419.got.cif
#   From: 2010.05.17/outbox.cif.g08.bks.cpg/sg2_48_cif.got.tgz:94419.got - 2010.06.03 11:33:40.
