data_PCOD9062941
_publ_section_title
;
Structure prediction by ZEFSAII (Michael W. Deem and Ramdas Pophale) SiO2 
 PCOD9062941
Probable space group: P -1
;
_chemical_formula_sum "Si O2"
_cell_formula_units_Z 16
_cell_length_a 6.652303
_cell_length_b 9.600692
_cell_length_c 18.019963
_cell_angle_alpha 65.210955
_cell_angle_beta 119.654407
_cell_angle_gamma 130.121939
_cell_volume 755.995396
_symmetry_space_group_name_H-M "P -1"
_symmetry_group_IT_number 2
_symmetry_cell_setting 'triclinic'
loop_
_space_group_symop_operation_xyz
x,y,z
-x,-y,-z
loop_
_atom_site_type_symbol
_atom_site_label
_atom_site_fract_x
_atom_site_fract_y
_atom_site_fract_z
Si Si1 0.428242 0.637497 0.816748
Si Si2 0.122344 0.890422 0.085114
Si Si3 0.243609 0.523372 0.443845
Si Si4 0.981623 0.298482 0.731637
Si Si5 0.644495 0.213360 0.455732
Si Si6 0.914563 0.640929 0.965657
Si Si7 0.233027 0.830972 0.834752
Si Si8 0.830901 0.937302 0.711345
O O1 0.226263 0.671892 0.820829
O O2 0.654854 0.832833 0.777117
O O3 0.597539 0.578920 0.911313
O O4 0.276423 0.488861 0.756965
O O5 0.046415 0.802162 0.172786
O O6 0.449699 0.030119 0.117828
O O7 0.027744 0.729469 0.045581
O O8 0.000000 0.000000 0.000000
O O9 0.500000 0.500000 0.500000
O O10 0.214172 0.629381 0.344205
O O11 0.297140 0.657242 0.492607
O O12 0.945895 0.325814 0.444148
O O13 0.939884 0.151292 0.694805
O O14 0.398634 0.182503 0.365405
O O15 0.500000 0.000000 0.500000
O O16 0.074537 0.775381 0.896103
O O17 0.000000 0.500000 0.000000
O O18 0.090381 0.921095 0.747645
#
# Coordination Sequence:
#
# PCOD9062941 Si02
#       8
#     2   2   2   2   2   2   2   2
#     4  11  24  46  65  99 142 177 240 291 342 421
#     4  12  24  44  69  99 139 187 239 291 348 412
#     4  11  27  48  74 111 144 187 238 293 361 434
#     4  12  25  45  73 100 143 184 231 294 350 416
#     4  11  24  48  75 104 147 183 234 300 356 429
#     4  11  25  41  64  97 132 186 235 289 355 407
#     4  11  24  43  67  94 138 184 234 292 349 416
#     4  11  24  45  68 102 137 183 230 285 354 420
#
# _framework density 21.164151
#
# number of rings (size 3 to 8) (size 9 to 14) (size 15 to 20)
#    0.000    0.750    5.000    1.875    5.250    2.500 
#    0.000    0.000    0.000    0.000    0.000    0.000 
#    0.000    0.000    0.000    0.000    0.000    0.000 
#
# Total GULP energy -89162.706101 kJ/mol
# GULP energy per Si atom -5572.669131 kJ/mol
# Density = 2.111598 g / cm^3
# Si number density = 21.164151 Si / 1000 Ang^3
#
#
#
# Elastic Constant Matrix: (Units=GPa)
#
#
# Indices 1 2 3 4 5 6 
#
# 1 81.6540 35.4239 45.1824 -6.0416 31.2292 0.2605
# 2 35.4239 134.7819 45.8028 13.2490 23.0482 -2.8155
# 3 45.1824 45.8028 126.3950 -2.8616 28.7274 -6.4109
# 4 -6.0416 13.2490 -2.8616 42.1188 -1.6246 -0.8381
# 5 31.2292 23.0482 28.7274 -1.6246 40.1776 1.7863
# 6 0.2605 -2.8155 -6.4109 -0.8381 1.7863 25.4919
#
#
#
# Elastic Compliance Matrix: (Units=1/GPa)
#
#
# Indices 1 2 3 4 5 6 
#
# 1 0.019811 -0.002332 -0.003620 0.002883 -0.011335 -0.000481
# 2 -0.002332 0.009512 -0.002147 -0.003549 -0.002279 0.000578
# 3 -0.003620 -0.002147 0.011045 0.000812 -0.003948 0.002881
# 4 0.002883 -0.003549 0.000812 0.025348 0.000213 0.000601
# 5 -0.011335 -0.002279 -0.003948 0.000213 0.038007 -0.003785
# 6 -0.000481 0.000578 0.002881 0.000601 -0.003785 0.040306
#
#
# Mechanical properties :
#
#
# Convention : Reuss Voigt Hill
#
# Bulk Modulus (GPa) = 41.36941 66.18323 53.77632
# Shear Modulus (GPa) = 29.71165 35.98577 32.84871
#
# Velocity S-wave (km/s) = 3.75089 4.12796 3.94393
# Velocity P-wave (km/s) = 6.19259 7.35251 6.79734
#
# Compressibility (1/GPa) = 0.02417245
#
# Stress axis : x y z
#
# Youngs Moduli (GPa) = 50.47581 105.12658 90.53588
#
# Poissons Ratio (x) = 0.24514 0.32772
# Poissons Ratio (y) = 0.11770 0.19435
# Poissons Ratio (z) = 0.18271 0.22567
#
# Static dielectric constant tensor:
#      x y z
#    x 1.762510 -0.070160 0.098230 
#    y -0.070160 2.085080 -0.473570 
#    z 0.098230 -0.473570 2.411050 
# 
# From -- ./inp_files/52992.got.cif
#   From: 2010.05.17/outbox.cif.g08.bks.cpg/sg2_27_cif.got.tgz:52992.got - 2010.06.03 11:33:40.
