data_PCOD9062447
_publ_section_title
;
Structure prediction by ZEFSAII (Michael W. Deem and Ramdas Pophale) SiO2 
 PCOD9062447
Probable space group: P -1
;
_chemical_formula_sum "Si O2"
_cell_formula_units_Z 14
_cell_length_a 6.731081
_cell_length_b 8.303918
_cell_length_c 14.931042
_cell_angle_alpha 84.817902
_cell_angle_beta 88.158872
_cell_angle_gamma 131.312110
_cell_volume 619.582923
_symmetry_space_group_name_H-M "P -1"
_symmetry_group_IT_number 2
_symmetry_cell_setting 'triclinic'
loop_
_space_group_symop_operation_xyz
x,y,z
-x,-y,-z
loop_
_atom_site_type_symbol
_atom_site_label
_atom_site_fract_x
_atom_site_fract_y
_atom_site_fract_z
Si Si1 0.699852 0.391714 0.023273
Si Si2 0.230563 0.208708 0.928321
Si Si3 0.795200 0.034600 0.424331
Si Si4 0.759963 0.096490 0.613762
Si Si5 0.614844 0.183157 0.213484
Si Si6 0.936463 0.500729 0.678309
Si Si7 0.684269 0.844687 0.258011
O O1 0.728452 0.589748 0.046662
O O2 0.564370 0.219798 0.114264
O O3 0.512460 0.276214 0.945262
O O4 0.000000 0.500000 0.000000
O O5 0.188355 0.183206 0.823911
O O6 0.000000 0.000000 0.000000
O O7 0.820344 0.020122 0.530461
O O8 0.969537 0.288607 0.386879
O O9 0.491721 0.929626 0.415534
O O10 0.822174 0.916281 0.350456
O O11 0.633150 0.937603 0.708976
O O12 0.959702 0.345820 0.630185
O O13 0.867682 0.406698 0.244397
O O14 0.695076 0.038248 0.218039
O O15 0.629705 0.362502 0.716920
#
# Coordination Sequence:
#
# PCOD9062447 Si02
#       7
#     2   2   2   2   2   2   2
#     4  11  24  41  62  87 116 151 193 241 290 346
#     4  11  25  41  61  87 115 151 194 238 293 349
#     4   8  14  24  43  73 111 145 182 228 271 329
#     4   8  14  24  42  75 110 145 185 224 273 330
#     4   9  18  31  51  79 112 145 186 234 278 334
#     4   8  14  25  48  75 109 148 183 224 275 328
#     4   9  18  32  51  79 110 145 187 231 281 335
#
# _framework density 22.595845000000001
#
# number of rings (size 3 to 8) (size 9 to 14) (size 15 to 20)
#    0.000    3.429    0.000    2.143    0.000    9.143 
#    0.000    0.000    0.000    0.857    0.000    3.000 
#    0.000    0.000    0.000    0.000    0.000    0.143 
#
# Total GULP energy -78132.935439 kJ/mol
# GULP energy per Si atom -5580.923960 kJ/mol
# Density = 2.254442 g / cm^3
# Si number density = 22.595845 Si / 1000 Ang^3
#
#
#
# Elastic Constant Matrix: (Units=GPa)
#
#
# Indices 1 2 3 4 5 6 
#
# 1 51.0068 6.6319 21.6358 9.7489 -13.6296 16.4630
# 2 6.6319 80.4832 23.9001 21.4470 -4.1353 1.9568
# 3 21.6358 23.9001 139.6218 11.0860 -13.3904 3.6284
# 4 9.7489 21.4470 11.0860 27.6082 -4.4742 4.2547
# 5 -13.6296 -4.1353 -13.3904 -4.4742 38.1520 4.1385
# 6 16.4630 1.9568 3.6284 4.2547 4.1385 15.1063
#
#
#
# Elastic Compliance Matrix: (Units=1/GPa)
#
#
# Indices 1 2 3 4 5 6 
#
# 1 0.043106 0.000566 -0.003334 -0.003382 0.019384 -0.050608
# 2 0.000566 0.016167 -0.001947 -0.012224 -0.000301 0.001282
# 3 -0.003334 -0.001947 0.008131 -0.000661 0.001179 0.001795
# 4 -0.003382 -0.012224 -0.000661 0.049309 0.004056 -0.009572
# 5 0.019384 -0.000301 0.001179 0.004056 0.037550 -0.032799
# 6 -0.050608 0.001282 0.001795 -0.009572 -0.032799 0.132435
#
#
# Mechanical properties :
#
#
# Convention : Reuss Voigt Hill
#
# Bulk Modulus (GPa) = 17.24910 41.71636 29.48273
# Shear Modulus (GPa) = 15.85021 30.76956 23.30988
#
# Velocity S-wave (km/s) = 2.65139 3.69417 3.21534
# Velocity P-wave (km/s) = 4.12595 6.05788 5.18273
#
# Compressibility (1/GPa) = 0.05797404
#
# Stress axis : x y z
#
# Youngs Moduli (GPa) = 23.19862 61.85382 122.98610
#
# Poissons Ratio (x) = -0.03498 0.41002
# Poissons Ratio (y) = -0.01312 0.23942
# Poissons Ratio (z) = 0.07734 0.12041
#
# Static dielectric constant tensor:
#      x y z
#    x 1.946540 -0.014180 -0.040930 
#    y -0.014180 1.809000 0.023640 
#    z -0.040930 0.023640 1.894470 
# 
# From -- ./inp_files/548114.got.cif
#   From: 2010.05.17/outbox.cif.g08.bks.cpg/sg2_275_cif.got.tgz:548114.got - 2010.06.03 11:33:40.
