data_PCOD9062192
_publ_section_title
;
Structure prediction by ZEFSAII (Michael W. Deem and Ramdas Pophale) SiO2 
 PCOD9062192
Probable space group: P -1
;
_chemical_formula_sum "Si O2"
_cell_formula_units_Z 10
_cell_length_a 10.941326
_cell_length_b 11.676772
_cell_length_c 7.839186
_cell_angle_alpha 42.107806
_cell_angle_beta 45.519225
_cell_angle_gamma 34.406430
_cell_volume 368.951999
_symmetry_space_group_name_H-M "P -1"
_symmetry_group_IT_number 2
_symmetry_cell_setting 'triclinic'
loop_
_space_group_symop_operation_xyz
x,y,z
-x,-y,-z
loop_
_atom_site_type_symbol
_atom_site_label
_atom_site_fract_x
_atom_site_fract_y
_atom_site_fract_z
Si Si1 0.223353 0.304711 0.597248
Si Si2 0.276020 0.243549 0.998448
Si Si3 0.573927 0.521692 0.222278
Si Si4 0.306004 0.891742 0.831464
Si Si5 0.884173 0.008391 0.431636
O O1 0.205551 0.360098 0.753782
O O2 0.456542 0.220743 0.376401
O O3 0.000000 0.500000 0.500000
O O4 0.250443 0.082654 0.802591
O O5 0.309638 0.372632 0.959720
O O6 0.500000 0.000000 0.000000
O O7 0.143498 0.171373 0.286712
O O8 0.500000 0.500000 0.500000
O O9 0.370465 0.693022 0.107721
O O10 0.715893 0.278439 0.278822
O O11 0.107250 0.022016 0.746334
O O12 0.000000 0.000000 0.500000
#
# Coordination Sequence:
#
# PCOD9062192 Si02
#       5
#     2   2   2   2   2
#     4  11  24  42  77 108 138 193 241 296 368 429
#     4  12  22  48  71 102 148 184 239 304 360 428
#     4  12  24  46  78 100 141 195 236 301 370 421
#     4  11  23  48  69 105 151 185 239 304 358 430
#     4  12  28  45  70 110 143 192 245 293 361 436
#
# _framework density 27.103798000000001
#
# number of rings (size 3 to 8) (size 9 to 14) (size 15 to 20)
#    0.000    0.400    6.000    1.800    5.600    0.800 
#    0.000    2.000    0.000    0.000    0.000    0.000 
#    0.000    0.000    0.000    0.000    0.000    0.000 
#
# Total GULP energy -55862.986399 kJ/mol
# GULP energy per Si atom -5586.298640 kJ/mol
# Density = 2.704211 g / cm^3
# Si number density = 27.103798 Si / 1000 Ang^3
#
#
#
# Elastic Constant Matrix: (Units=GPa)
#
#
# Indices 1 2 3 4 5 6 
#
# 1 162.2430 34.6474 56.1450 1.4237 29.2078 3.5826
# 2 34.6474 85.3556 20.9440 -26.4582 -4.0701 -6.9684
# 3 56.1450 20.9440 149.0970 1.8432 33.0908 -12.8413
# 4 1.4237 -26.4582 1.8432 56.2982 11.7389 14.1641
# 5 29.2078 -4.0701 33.0908 11.7389 75.6223 -21.4139
# 6 3.5826 -6.9684 -12.8413 14.1641 -21.4139 45.4643
#
#
#
# Elastic Compliance Matrix: (Units=1/GPa)
#
#
# Indices 1 2 3 4 5 6 
#
# 1 0.008308 -0.003312 -0.002207 -0.000169 -0.003330 -0.003301
# 2 -0.003312 0.015698 -0.001388 0.006822 0.001979 0.001082
# 3 -0.002207 -0.001388 0.008393 -0.000741 -0.002371 0.001446
# 4 -0.000169 0.006822 -0.000741 0.024594 -0.005758 -0.009524
# 5 -0.003330 0.001979 -0.002371 -0.005758 0.019646 0.010944
# 6 -0.003301 0.001082 0.001446 -0.009524 0.010944 0.030951
#
#
# Mechanical properties :
#
#
# Convention : Reuss Voigt Hill
#
# Bulk Modulus (GPa) = 53.80519 68.90760 61.35640
# Shear Modulus (GPa) = 39.18505 54.47426 46.82965
#
# Velocity S-wave (km/s) = 3.80641 4.48799 4.16118
# Velocity P-wave (km/s) = 6.26203 7.23428 6.76564
#
# Compressibility (1/GPa) = 0.01858557
#
# Stress axis : x y z
#
# Youngs Moduli (GPa) = 120.36082 63.70219 119.14976
#
# Poissons Ratio (x) = 0.21098 0.26291
# Poissons Ratio (y) = 0.39862 0.16542
# Poissons Ratio (z) = 0.26558 0.08844
#
# Static dielectric constant tensor:
#      x y z
#    x 2.122780 0.048170 -0.050360 
#    y 0.048170 2.501850 0.129000 
#    z -0.050360 0.129000 2.016290 
# 
# From -- ./inp_files/251226.got.cif
#   From: 2010.05.17/outbox.cif.g08.bks.cpg/sg2_126_cif.got.tgz:251226.got - 2010.06.03 11:33:40.
