data_PCOD9062227
_publ_section_title
;
Structure prediction by ZEFSAII (Michael W. Deem and Ramdas Pophale) SiO2 
 PCOD9062227
Probable space group: P -1
;
_chemical_formula_sum "Si O2"
_cell_formula_units_Z 12
_cell_length_a 7.728955
_cell_length_b 7.786857
_cell_length_c 13.499396
_cell_angle_alpha 47.381050
_cell_angle_beta 81.236964
_cell_angle_gamma 64.594288
_cell_volume 528.250444
_symmetry_space_group_name_H-M "P -1"
_symmetry_group_IT_number 2
_symmetry_cell_setting 'triclinic'
loop_
_space_group_symop_operation_xyz
x,y,z
-x,-y,-z
loop_
_atom_site_type_symbol
_atom_site_label
_atom_site_fract_x
_atom_site_fract_y
_atom_site_fract_z
Si Si1 0.587026 0.547645 0.373234
Si Si2 0.008467 0.500074 0.671033
Si Si3 0.543840 0.470427 0.122280
Si Si4 0.103251 0.396327 0.925949
Si Si5 0.680583 0.047546 0.426900
Si Si6 0.772344 0.191828 0.832855
O O1 0.500000 0.500000 0.500000
O O2 0.768797 0.612701 0.340679
O O3 0.674717 0.278782 0.407382
O O4 0.401807 0.761143 0.247319
O O5 0.005688 0.538629 0.776182
O O6 0.874295 0.779031 0.524969
O O7 0.915400 0.303338 0.734614
O O8 0.689656 0.594225 0.088929
O O9 0.639489 0.177172 0.271465
O O10 0.341646 0.625370 0.137182
O O11 0.500000 0.500000 0.000000
O O12 0.000000 0.500000 0.000000
O O13 0.127105 0.105290 0.028079
O O14 0.500000 0.000000 0.500000
#
# Coordination Sequence:
#
# PCOD9062227 Si02
#       6
#     2   2   2   2   2   2
#     4  11  26  44  72 104 145 193 234 302 363 433
#     4  12  24  48  74 105 148 188 243 304 362 440
#     4  11  24  46  76 106 144 196 238 301 366 433
#     4  12  27  45  74 106 144 197 245 302 368 433
#     4  11  23  48  74 103 148 187 240 299 364 433
#     4  11  25  50  68 107 150 187 246 301 364 433
#
# _framework density 22.716495999999999
#
# number of rings (size 3 to 8) (size 9 to 14) (size 15 to 20)
#    0.000    0.667    6.667    2.500    2.333    0.667 
#    3.000    0.000    0.000    0.000    0.000    0.000 
#    0.000    0.000    0.000    0.000    0.000    0.000 
#
# Total GULP energy -67204.114708 kJ/mol
# GULP energy per Si atom -5600.342892 kJ/mol
# Density = 2.266479 g / cm^3
# Si number density = 22.716496 Si / 1000 Ang^3
#
#
#
# Elastic Constant Matrix: (Units=GPa)
#
#
# Indices 1 2 3 4 5 6 
#
# 1 139.3817 29.2712 54.9943 -4.0818 -20.8675 -12.6688
# 2 29.2712 40.7202 51.4433 -8.7545 5.3214 -3.4462
# 3 54.9943 51.4433 175.3973 -0.2320 19.6084 -9.8131
# 4 -4.0818 -8.7545 -0.2320 41.2714 2.2914 -12.0612
# 5 -20.8675 5.3214 19.6084 2.2914 59.5275 3.7706
# 6 -12.6688 -3.4462 -9.8131 -12.0612 3.7706 15.8759
#
#
#
# Elastic Compliance Matrix: (Units=1/GPa)
#
#
# Indices 1 2 3 4 5 6 
#
# 1 0.010115 -0.004438 -0.001990 0.001604 0.004149 0.006111
# 2 -0.004438 0.045535 -0.011084 0.012068 -0.003034 0.009381
# 3 -0.001990 -0.011084 0.009992 -0.001898 -0.003017 0.001457
# 4 0.001604 0.012068 -0.001898 0.036170 -0.003246 0.030976
# 5 0.004149 -0.003034 -0.003017 -0.003246 0.020052 -0.006441
# 6 0.006111 0.009381 0.001457 0.030976 -0.006441 0.095865
#
#
# Mechanical properties :
#
#
# Convention : Reuss Voigt Hill
#
# Bulk Modulus (GPa) = 32.65824 69.65743 51.15783
# Shear Modulus (GPa) = 19.01436 37.98765 28.50100
#
# Velocity S-wave (km/s) = 2.89628 4.09375 3.54593
# Velocity P-wave (km/s) = 5.05888 7.28529 6.27167
#
# Compressibility (1/GPa) = 0.03062015
#
# Stress axis : x y z
#
# Youngs Moduli (GPa) = 98.86088 21.96091 100.07534
#
# Poissons Ratio (x) = 0.09745 0.19913
# Poissons Ratio (y) = 0.43871 1.10924
# Poissons Ratio (z) = 0.19671 0.24342
#
# Static dielectric constant tensor:
#      x y z
#    x 1.883480 0.050410 -0.004830 
#    y 0.050410 1.805890 0.084780 
#    z -0.004830 0.084780 1.713250 
# 
# From -- ./inp_files/488932.got.cif
#   From: 2010.05.17/outbox.cif.g08.bks.cpg/sg2_245_cif.got.tgz:488932.got - 2010.06.03 11:33:40.
