data_PCOD9062697
_publ_section_title
;
Structure prediction by ZEFSAII (Michael W. Deem and Ramdas Pophale) SiO2 
 PCOD9062697
Probable space group: P -1
;
_chemical_formula_sum "Si O2"
_cell_formula_units_Z 16
_cell_length_a 23.959156
_cell_length_b 4.912397
_cell_length_c 16.961680
_cell_angle_alpha 110.227238
_cell_angle_beta 21.972971
_cell_angle_gamma 98.681168
_cell_volume 613.596241
_symmetry_space_group_name_H-M "P -1"
_symmetry_group_IT_number 2
_symmetry_cell_setting 'triclinic'
loop_
_space_group_symop_operation_xyz
x,y,z
-x,-y,-z
loop_
_atom_site_type_symbol
_atom_site_label
_atom_site_fract_x
_atom_site_fract_y
_atom_site_fract_z
Si Si1 0.514431 0.743799 0.387787
Si Si2 0.311284 0.462448 0.438205
Si Si3 0.660641 0.419353 0.928996
Si Si4 0.826848 0.843896 0.773540
Si Si5 0.857345 0.694673 0.893063
Si Si6 0.021364 0.940032 0.123315
Si Si7 0.182864 0.095095 0.461296
Si Si8 0.325586 0.333445 0.587961
O O1 0.456047 0.472716 0.455543
O O2 0.500000 0.000000 0.500000
O O3 0.389935 0.977020 0.505867
O O4 0.706939 0.606842 0.092648
O O5 0.299052 0.226064 0.363628
O O6 0.322507 0.328406 0.497737
O O7 0.132348 0.802247 0.702649
O O8 0.473078 0.501210 0.207349
O O9 0.682653 0.741912 0.932346
O O10 0.789084 0.151659 0.798238
O O11 0.714806 0.236222 0.755549
O O12 0.825504 0.893989 0.873851
O O13 0.000000 0.500000 0.500000
O O14 0.043886 0.375644 0.614619
O O15 0.863569 0.900857 0.980907
O O16 0.929701 0.920568 0.321076
O O17 0.142983 0.594435 0.888758
#
# Coordination Sequence:
#
# PCOD9062697 Si02
#       8
#     2   2   2   2   2   2   2   2
#     4  12  25  45  73 105 143 183 230 291 352 427
#     4  11  28  48  70 106 138 191 244 292 342 415
#     4  12  27  48  74 105 143 187 238 290 357 415
#     4  12  25  45  73 105 143 183 230 291 352 427
#     4  11  24  42  68 108 142 183 234 286 364 421
#     4  11  26  45  73 100 144 191 235 295 350 420
#     4  11  26  45  73 100 144 191 235 295 350 420
#     4  12  27  48  74 105 143 187 238 290 357 415
#
# _framework density 26.075779000000001
#
# number of rings (size 3 to 8) (size 9 to 14) (size 15 to 20)
#    0.000    0.500    2.500    4.500   10.500    1.000 
#    0.000    0.000    0.000    0.000    0.000    0.000 
#    0.000    0.000    0.000    0.000    0.000    0.000 
#
# Total GULP energy -89880.503498 kJ/mol
# GULP energy per Si atom -5617.531469 kJ/mol
# Density = 2.601643 g / cm^3
# Si number density = 26.075779 Si / 1000 Ang^3
#
#
#
# Elastic Constant Matrix: (Units=GPa)
#
#
# Indices 1 2 3 4 5 6 
#
# 1 115.3449 14.9861 50.5212 10.7990 8.4534 6.2672
# 2 14.9861 82.2848 14.4124 6.7956 2.3320 -8.1495
# 3 50.5212 14.4124 119.3818 9.5545 8.0811 7.0461
# 4 10.7990 6.7956 9.5545 28.5269 2.8087 14.5926
# 5 8.4534 2.3320 8.0811 2.8087 35.2373 -5.9278
# 6 6.2672 -8.1495 7.0461 14.5926 -5.9278 18.6852
#
#
#
# Elastic Compliance Matrix: (Units=1/GPa)
#
#
# Indices 1 2 3 4 5 6 
#
# 1 0.011042 -0.001429 -0.004135 -0.000864 -0.001996 -0.002726
# 2 -0.001429 0.015532 -0.001641 -0.012752 0.003916 0.019073
# 3 -0.004135 -0.001641 0.010680 0.001148 -0.002277 -0.004975
# 4 -0.000864 -0.012752 0.001148 0.075596 -0.017039 -0.070148
# 5 -0.001996 0.003916 -0.002277 -0.017039 0.035137 0.027690
# 6 -0.002726 0.019073 -0.004975 -0.070148 0.027690 0.128196
#
#
# Mechanical properties :
#
#
# Convention : Reuss Voigt Hill
#
# Bulk Modulus (GPa) = 43.77413 52.98344 48.37879
# Shear Modulus (GPa) = 16.76691 32.29600 24.53145
#
# Velocity S-wave (km/s) = 2.53851 3.52311 3.07053
# Velocity P-wave (km/s) = 5.04140 6.07560 5.58250
#
# Compressibility (1/GPa) = 0.02284454
#
# Stress axis : x y z
#
# Youngs Moduli (GPa) = 90.56560 64.38475 93.62935
#
# Poissons Ratio (x) = 0.09199 0.38717
# Poissons Ratio (y) = 0.12940 0.15361
# Poissons Ratio (z) = 0.37450 0.10563
#
# Static dielectric constant tensor:
#      x y z
#    x 2.038960 0.024280 -0.013480 
#    y 0.024280 2.030090 0.000160 
#    z -0.013480 0.000160 2.046290 
# 
# From -- ./inp_files/109508.got.cif
#   From: 2010.05.17/outbox.cif.g08.bks.cpg/sg2_55_cif.got.tgz:109508.got - 2010.06.03 11:33:40.
