data_PCOD9062256
_publ_section_title
;
Structure prediction by ZEFSAII (Michael W. Deem and Ramdas Pophale) SiO2 
 PCOD9062256
Probable space group: P -1
;
_chemical_formula_sum "Si O2"
_cell_formula_units_Z 12
_cell_length_a 7.013642
_cell_length_b 11.039676
_cell_length_c 7.644134
_cell_angle_alpha 54.903758
_cell_angle_beta 102.284383
_cell_angle_gamma 81.456856
_cell_volume 445.184515
_symmetry_space_group_name_H-M "P -1"
_symmetry_group_IT_number 2
_symmetry_cell_setting 'triclinic'
loop_
_space_group_symop_operation_xyz
x,y,z
-x,-y,-z
loop_
_atom_site_type_symbol
_atom_site_label
_atom_site_fract_x
_atom_site_fract_y
_atom_site_fract_z
Si Si1 0.548378 0.550380 0.189173
Si Si2 0.479367 0.725339 0.404973
Si Si3 0.902581 0.645466 0.235746
Si Si4 0.703930 0.902583 0.497963
Si Si5 0.197064 0.018956 0.920863
Si Si6 0.088990 0.641662 0.940955
O O1 0.521092 0.630387 0.311509
O O2 0.627781 0.365625 0.410876
O O3 0.725097 0.616504 0.106150
O O4 0.663802 0.400274 0.004349
O O5 0.656632 0.751006 0.536968
O O6 0.370859 0.900801 0.171012
O O7 0.000000 0.500000 0.500000
O O8 0.818106 0.804110 0.192661
O O9 0.082090 0.655711 0.137627
O O10 0.927583 0.810656 0.707733
O O11 0.500000 0.000000 0.500000
O O12 0.750371 0.002232 0.259455
O O13 0.000000 0.000000 0.000000
O O14 0.000000 0.500000 0.000000
#
# Coordination Sequence:
#
# PCOD9062256 Si02
#       6
#     2   2   2   2   2   2
#     4  11  24  47  82 113 157 219 280 328 412 504
#     4  11  23  48  79 110 155 216 278 326 400 503
#     4  12  25  48  81 119 161 221 279 338 404 516
#     4  12  27  50  80 121 169 209 270 362 420 470
#     4  12  26  50  83 117 158 223 284 327 408 514
#     4  12  26  49  74 121 165 208 273 350 423 479
#
# _framework density 26.955116
#
# number of rings (size 3 to 8) (size 9 to 14) (size 15 to 20)
#    0.000    0.333    3.333    6.500    2.333    0.667 
#    3.000    4.167    0.000    0.000    0.000    0.000 
#    0.000    0.000    0.000    0.000    0.000    0.000 
#
# Total GULP energy -67025.451211 kJ/mol
# GULP energy per Si atom -5585.454268 kJ/mol
# Density = 2.689376 g / cm^3
# Si number density = 26.955116 Si / 1000 Ang^3
#
#
#
# Elastic Constant Matrix: (Units=GPa)
#
#
# Indices 1 2 3 4 5 6 
#
# 1 175.2344 49.0129 52.4748 4.3308 7.8075 -13.8214
# 2 49.0129 107.8790 43.2246 -2.0632 -3.7211 -5.4122
# 3 52.4748 43.2246 186.4762 -8.1731 18.4721 -21.0008
# 4 4.3308 -2.0632 -8.1731 48.3751 -9.2731 -11.4049
# 5 7.8075 -3.7211 18.4721 -9.2731 49.9560 5.7827
# 6 -13.8214 -5.4122 -21.0008 -11.4049 5.7827 53.8672
#
#
#
# Elastic Compliance Matrix: (Units=1/GPa)
#
#
# Indices 1 2 3 4 5 6 
#
# 1 0.006960 -0.002711 -0.001144 -0.000918 -0.001153 0.000997
# 2 -0.002711 0.011422 -0.002130 0.000689 0.002245 -0.000474
# 3 -0.001144 -0.002130 0.006792 0.001303 -0.002561 0.002691
# 4 -0.000918 0.000689 0.001303 0.022785 0.003387 0.004802
# 5 -0.001153 0.002245 -0.002561 0.003387 0.022258 -0.002741
# 6 0.000997 -0.000474 0.002691 0.004802 -0.002741 0.021133
#
#
# Mechanical properties :
#
#
# Convention : Reuss Voigt Hill
#
# Bulk Modulus (GPa) = 75.73720 84.33490 80.03605
# Shear Modulus (GPa) = 46.41618 52.09813 49.25716
#
# Velocity S-wave (km/s) = 4.15418 4.40110 4.27942
# Velocity P-wave (km/s) = 7.15319 7.56183 7.36035
#
# Compressibility (1/GPa) = 0.01320355
#
# Stress axis : x y z
#
# Youngs Moduli (GPa) = 143.67439 87.55224 147.22842
#
# Poissons Ratio (x) = 0.23737 0.16842
# Poissons Ratio (y) = 0.38953 0.31362
# Poissons Ratio (z) = 0.16436 0.18650
#
# Static dielectric constant tensor:
#      x y z
#    x 1.981240 0.070020 -0.020510 
#    y 0.070020 2.168060 0.080790 
#    z -0.020510 0.080790 2.052930 
# 
# From -- ./inp_files/156961.got.cif
#   From: 2010.05.17/outbox.cif.g08.bks.cpg/sg2_79_cif.got.tgz:156961.got - 2010.06.03 11:33:40.
