data_PCOD9062982
_publ_section_title
;
Structure prediction by ZEFSAII (Michael W. Deem and Ramdas Pophale) SiO2 
 PCOD9062982
Probable space group: P -1
;
_chemical_formula_sum "Si O2"
_cell_formula_units_Z 16
_cell_length_a 11.745376
_cell_length_b 14.517456
_cell_length_c 9.109592
_cell_angle_alpha 148.218559
_cell_angle_beta 111.230650
_cell_angle_gamma 78.960168
_cell_volume 740.850661
_symmetry_space_group_name_H-M "P -1"
_symmetry_group_IT_number 2
_symmetry_cell_setting 'triclinic'
loop_
_space_group_symop_operation_xyz
x,y,z
-x,-y,-z
loop_
_atom_site_type_symbol
_atom_site_label
_atom_site_fract_x
_atom_site_fract_y
_atom_site_fract_z
Si Si1 0.655222 0.872212 0.842181
Si Si2 0.370743 0.849724 0.234575
Si Si3 0.044020 0.297098 0.652212
Si Si4 0.060963 0.378497 0.467344
Si Si5 0.307523 0.490668 0.553437
Si Si6 0.380226 0.821416 0.537685
Si Si7 0.196103 0.569544 0.297607
Si Si8 0.844016 0.015221 0.858248
O O1 0.632500 0.680924 0.659190
O O2 0.530764 0.857173 0.665057
O O3 0.772444 0.936697 0.869964
O O4 0.655545 0.021434 0.168912
O O5 0.336730 0.812351 0.338077
O O6 0.500000 0.000000 0.500000
O O7 0.260051 0.917113 0.192768
O O8 0.384649 0.670050 0.912094
O O9 0.082667 0.437986 0.726093
O O10 0.099921 0.130277 0.402793
O O11 0.895738 0.292581 0.580318
O O12 0.111059 0.381682 0.945544
O O13 0.193998 0.400541 0.486055
O O14 0.000000 0.500000 0.500000
O O15 0.962620 0.184798 0.165295
O O16 0.247604 0.549913 0.457413
O O17 0.314801 0.638676 0.342667
#
# Coordination Sequence:
#
# PCOD9062982 Si02
#       8
#     2   2   2   2   2   2   2   2
#     4  11  26  46  71 102 142 185 238 287 358 413
#     4  12  26  47  73 102 144 183 243 289 349 423
#     4  11  24  43  68 103 143 186 234 292 351 414
#     4  12  22  41  72 100 139 181 234 289 347 416
#     4  12  26  44  72 104 138 189 236 290 353 422
#     4  11  26  46  69 100 142 189 227 297 349 418
#     4  11  26  45  68 102 149 184 233 294 353 417
#     4  12  25  43  73 106 139 189 238 291 348 422
#
# _framework density 21.596793999999999
#
# number of rings (size 3 to 8) (size 9 to 14) (size 15 to 20)
#    0.000    0.500    5.000    2.625    5.250    2.000 
#    0.000    1.250    0.000    0.000    0.000    0.000 
#    0.000    0.000    0.000    0.000    0.000    0.000 
#
# Total GULP energy -89307.956138 kJ/mol
# GULP energy per Si atom -5581.747259 kJ/mol
# Density = 2.154764 g / cm^3
# Si number density = 21.596794 Si / 1000 Ang^3
#
#
#
# Elastic Constant Matrix: (Units=GPa)
#
#
# Indices 1 2 3 4 5 6 
#
# 1 67.8462 -3.8789 27.5338 10.9374 19.5680 14.7885
# 2 -3.8789 61.2008 30.5096 -10.9207 19.8762 12.9002
# 3 27.5338 30.5096 126.9779 1.9249 16.8848 -3.8312
# 4 10.9374 -10.9207 1.9249 39.9904 0.4103 -5.6905
# 5 19.5680 19.8762 16.8848 0.4103 26.3002 6.1441
# 6 14.7885 12.9002 -3.8312 -5.6905 6.1441 35.8219
#
#
#
# Elastic Compliance Matrix: (Units=1/GPa)
#
#
# Indices 1 2 3 4 5 6 
#
# 1 0.030964 0.016939 -0.007566 -0.005462 -0.027183 -0.015898
# 2 0.016939 0.035363 -0.008635 0.003636 -0.030369 -0.014865
# 3 -0.007566 -0.008635 0.011367 0.000114 0.003242 0.006911
# 4 -0.005462 0.003636 0.000114 0.028280 -0.000492 0.005534
# 5 -0.027183 -0.030369 0.003242 -0.000492 0.076969 0.009225
# 6 -0.015898 -0.014865 0.006911 0.005534 0.009225 0.039868
#
#
# Mechanical properties :
#
#
# Convention : Reuss Voigt Hill
#
# Bulk Modulus (GPa) = 12.63137 40.48378 26.55758
# Shear Modulus (GPa) = 20.18361 33.87986 27.03173
#
# Velocity S-wave (km/s) = 3.06038 3.96504 3.54171
# Velocity P-wave (km/s) = 4.28361 6.30460 5.38968
#
# Compressibility (1/GPa) = 0.07916797
#
# Stress axis : x y z
#
# Youngs Moduli (GPa) = 32.29556 28.27813 87.97676
#
# Poissons Ratio (x) = -0.47900 0.66568
# Poissons Ratio (y) = -0.54705 0.75970
# Poissons Ratio (z) = 0.24436 0.24419
#
# Static dielectric constant tensor:
#      x y z
#    x 1.925630 -0.057460 -0.076800 
#    y -0.057460 1.789840 0.047770 
#    z -0.076800 0.047770 1.834720 
# 
# From -- ./inp_files/274927.got.cif
#   From: 2010.05.17/outbox.cif.g08.bks.cpg/sg2_138_cif.got.tgz:274927.got - 2010.06.03 11:33:40.
