data_PCOD9062830
_publ_section_title
;
Structure prediction by ZEFSAII (Michael W. Deem and Ramdas Pophale) SiO2 
 PCOD9062830
Probable space group: P -1
;
_chemical_formula_sum "Si O2"
_cell_formula_units_Z 14
_cell_length_a 21.920500
_cell_length_b 10.064689
_cell_length_c 9.312302
_cell_angle_alpha 49.563745
_cell_angle_beta 47.128542
_cell_angle_gamma 25.335653
_cell_volume 640.597341
_symmetry_space_group_name_H-M "P -1"
_symmetry_group_IT_number 2
_symmetry_cell_setting 'triclinic'
loop_
_space_group_symop_operation_xyz
x,y,z
-x,-y,-z
loop_
_atom_site_type_symbol
_atom_site_label
_atom_site_fract_x
_atom_site_fract_y
_atom_site_fract_z
Si Si1 0.437468 0.290531 0.946282
Si Si2 0.179418 0.606991 0.341758
Si Si3 0.874312 0.703951 0.438486
Si Si4 0.338706 0.636541 0.569904
Si Si5 0.155395 0.673037 0.665164
Si Si6 0.090359 0.407685 0.056583
Si Si7 0.394056 0.725634 0.144220
O O1 0.411890 0.439641 0.735325
O O2 0.555600 0.179569 0.935913
O O3 0.291314 0.509146 0.123202
O O4 0.500000 0.000000 0.000000
O O5 0.167416 0.421096 0.451940
O O6 0.221420 0.558169 0.477278
O O7 0.016626 0.973158 0.325592
O O8 0.000000 0.500000 0.500000
O O9 0.957972 0.654333 0.209751
O O10 0.739655 0.048847 0.475017
O O11 0.226885 0.684364 0.653940
O O12 0.425761 0.534286 0.356568
O O13 0.164108 0.463611 0.861247
O O14 0.219754 0.048020 0.153537
O O15 0.000000 0.500000 0.000000
O O16 0.500000 0.500000 0.000000
#
# Coordination Sequence:
#
# PCOD9062830 Si02
#       7
#     2   2   2   2   2   2   2
#     4  12  28  46  69  99 147 188 234 285 355 426
#     4  11  24  44  68 104 142 184 231 294 350 415
#     4  12  23  43  75 104 143 180 240 302 346 407
#     4  12  26  46  73 104 138 190 238 293 352 415
#     4  11  24  42  73 102 139 179 241 292 346 410
#     4  12  26  46  75 106 140 188 240 289 352 417
#     4  12  28  48  70 103 146 186 234 288 358 429
#
# _framework density 21.854602
#
# number of rings (size 3 to 8) (size 9 to 14) (size 15 to 20)
#    0.000    0.286    4.286    3.857    8.000    2.286 
#    0.000    2.857    0.000    0.000    0.000    0.000 
#    0.000    0.000    0.000    0.000    0.000    0.000 
#
# Total GULP energy -78306.424796 kJ/mol
# GULP energy per Si atom -5593.316057 kJ/mol
# Density = 2.180486 g / cm^3
# Si number density = 21.854602 Si / 1000 Ang^3
#
#
#
# Elastic Constant Matrix: (Units=GPa)
#
#
# Indices 1 2 3 4 5 6 
#
# 1 123.3846 27.1847 25.2433 3.3147 20.0851 -3.6367
# 2 27.1847 69.5641 39.1578 4.7893 14.7102 9.3575
# 3 25.2433 39.1578 136.8056 18.5633 25.9457 3.8590
# 4 3.3147 4.7893 18.5633 44.5600 7.0022 0.5880
# 5 20.0851 14.7102 25.9457 7.0022 37.2701 5.5823
# 6 -3.6367 9.3575 3.8590 0.5880 5.5823 26.1071
#
#
#
# Elastic Compliance Matrix: (Units=1/GPa)
#
#
# Indices 1 2 3 4 5 6 
#
# 1 0.009661 -0.003243 -0.000165 0.000344 -0.004395 0.003465
# 2 -0.003243 0.019385 -0.004461 0.000402 -0.001924 -0.006338
# 3 -0.000165 -0.004461 0.009858 -0.002901 -0.004644 0.001177
# 4 0.000344 0.000402 -0.002901 0.024032 -0.002901 0.000412
# 5 -0.004395 -0.001924 -0.004644 -0.002901 0.034725 -0.006596
# 6 0.003465 -0.006338 0.001177 0.000412 -0.006596 0.042285
#
#
# Mechanical properties :
#
#
# Convention : Reuss Voigt Hill
#
# Bulk Modulus (GPa) = 43.16570 56.99176 50.07873
# Shear Modulus (GPa) = 30.59824 37.46535 34.03180
#
# Velocity S-wave (km/s) = 3.74583 4.14490 3.95041
# Velocity P-wave (km/s) = 6.20504 7.00295 6.61603
#
# Compressibility (1/GPa) = 0.02316654
#
# Stress axis : x y z
#
# Youngs Moduli (GPa) = 103.50514 51.58500 101.43753
#
# Poissons Ratio (x) = 0.16728 0.01677
# Poissons Ratio (y) = 0.33564 0.45253
# Poissons Ratio (z) = 0.01712 0.23013
#
# Static dielectric constant tensor:
#      x y z
#    x 1.752750 -0.015090 -0.053100 
#    y -0.015090 1.755860 -0.005720 
#    z -0.053100 -0.005720 1.724860 
# 
# From -- ./inp_files/218206.got.cif
#   From: 2010.05.17/outbox.cif.g08.bks.cpg/sg2_110_cif.got.tgz:218206.got - 2010.06.03 11:33:40.
