data_PCOD9062980
_publ_section_title
;
Structure prediction by ZEFSAII (Michael W. Deem and Ramdas Pophale) SiO2 
 PCOD9062980
Probable space group: P -1
;
_chemical_formula_sum "Si O2"
_cell_formula_units_Z 15
_cell_length_a 21.572157
_cell_length_b 9.722461
_cell_length_c 11.621767
_cell_angle_alpha 139.347341
_cell_angle_beta 40.200946
_cell_angle_gamma 149.911504
_cell_volume 751.875245
_symmetry_space_group_name_H-M "P -1"
_symmetry_group_IT_number 2
_symmetry_cell_setting 'triclinic'
loop_
_space_group_symop_operation_xyz
x,y,z
-x,-y,-z
loop_
_atom_site_type_symbol
_atom_site_label
_atom_site_fract_x
_atom_site_fract_y
_atom_site_fract_z
Si Si1 0.029548 0.214057 0.494626
Si Si2 0.247281 0.873268 0.679454
Si Si3 0.654065 0.688326 0.387141
Si Si4 0.381201 0.401589 0.183116
Si Si5 0.349185 0.698051 0.021012
Si Si6 0.500000 0.000000 0.500000
Si Si7 0.201816 0.204634 0.100827
Si Si8 0.240128 0.984825 0.321951
O O1 0.145450 0.539008 0.579903
O O2 0.076686 0.160337 0.279103
O O3 0.000000 0.000000 0.500000
O O4 0.901716 0.159826 0.612747
O O5 0.291341 0.056111 0.616144
O O6 0.376817 0.979397 0.625926
O O7 0.181460 0.957018 0.904471
O O8 0.500000 0.500000 0.500000
O O9 0.671077 0.485232 0.175950
O O10 0.721482 0.818646 0.496981
O O11 0.261208 0.242376 0.164803
O O12 0.343823 0.189861 0.204433
O O13 0.417035 0.679142 0.361813
O O14 0.500000 0.500000 0.000000
O O15 0.307337 0.497507 0.063654
O O16 0.500000 0.000000 0.000000
O O17 0.258194 0.767666 0.189853
#
# Coordination Sequence:
#
# PCOD9062980 Si02
#       8
#     2   2   2   2   2   1   2   2
#     4  12  26  48  66  98 143 187 234 279 339 415
#     4  11  25  43  69 101 137 185 230 289 344 411
#     4  11  24  43  68 103 139 171 225 287 353 411
#     4  12  24  41  68 102 134 173 233 287 345 405
#     4  11  24  43  71 102 138 174 223 289 350 408
#     4  12  22  38  70 100 132 178 230 284 352 394
#     4  11  24  45  66  98 139 180 225 285 339 407
#     4  12  26  44  69 101 135 185 228 281 347 413
#
# _framework density 19.950119000000001
#
# number of rings (size 3 to 8) (size 9 to 14) (size 15 to 20)
#    0.000    0.533    5.333    2.400    0.000    6.933 
#    2.400    2.667    0.000    0.000    0.000    0.000 
#    0.000    0.000    0.000    0.000    0.000    0.000 
#
# Total GULP energy -83621.872556 kJ/mol
# GULP energy per Si atom -5574.791504 kJ/mol
# Density = 1.990471 g / cm^3
# Si number density = 19.950119 Si / 1000 Ang^3
#
#
#
# Elastic Constant Matrix: (Units=GPa)
#
#
# Indices 1 2 3 4 5 6 
#
# 1 91.7895 31.4927 40.8030 3.0558 2.9596 11.4874
# 2 31.4927 84.6972 45.7672 6.1453 11.2633 -1.0870
# 3 40.8030 45.7672 92.6917 5.7469 -5.2473 -3.4410
# 4 3.0558 6.1453 5.7469 34.2448 4.2815 -7.3345
# 5 2.9596 11.2633 -5.2473 4.2815 36.2452 -5.8484
# 6 11.4874 -1.0870 -3.4410 -7.3345 -5.8484 29.3910
#
#
#
# Elastic Compliance Matrix: (Units=1/GPa)
#
#
# Indices 1 2 3 4 5 6 
#
# 1 0.015407 -0.002097 -0.006096 -0.001292 -0.002570 -0.007647
# 2 -0.002097 0.018047 -0.008342 -0.001046 -0.006696 -0.001083
# 3 -0.006096 -0.008342 0.018211 -0.000702 0.006674 0.005359
# 4 -0.001292 -0.001046 -0.000702 0.031568 -0.002135 0.007837
# 5 -0.002570 -0.006696 0.006674 -0.002135 0.032298 0.007432
# 6 -0.007647 -0.001083 0.005359 0.007837 0.007432 0.041035
#
#
# Mechanical properties :
#
#
# Convention : Reuss Voigt Hill
#
# Bulk Modulus (GPa) = 53.77936 56.14492 54.96214
# Shear Modulus (GPa) = 25.53205 30.05056 27.79130
#
# Velocity S-wave (km/s) = 3.58130 3.88530 3.73639
# Velocity P-wave (km/s) = 6.64202 6.95206 6.79881
#
# Compressibility (1/GPa) = 0.01859449
#
# Stress axis : x y z
#
# Youngs Moduli (GPa) = 64.90703 55.41210 54.91232
#
# Poissons Ratio (x) = 0.11622 0.33473
# Poissons Ratio (y) = 0.13613 0.45806
# Poissons Ratio (z) = 0.39565 0.46223
#
# Static dielectric constant tensor:
#      x y z
#    x 1.692530 -0.001070 -0.020680 
#    y -0.001070 1.683280 -0.035090 
#    z -0.020680 -0.035090 1.735070 
# 
# From -- ./inp_files/469652.got.cif
#   From: 2010.05.17/outbox.cif.g08.bks.cpg/sg2_235_cif.got.tgz:469652.got - 2010.06.03 11:33:40.
