data_PCOD9062235
_publ_section_title
;
Structure prediction by ZEFSAII (Michael W. Deem and Ramdas Pophale) SiO2 
 PCOD9062235
Probable space group: P -1
;
_chemical_formula_sum "Si O2"
_cell_formula_units_Z 14
_cell_length_a 18.069284
_cell_length_b 5.500532
_cell_length_c 11.764924
_cell_angle_alpha 104.202248
_cell_angle_beta 29.428425
_cell_angle_gamma 101.849445
_cell_volume 556.885084
_symmetry_space_group_name_H-M "P -1"
_symmetry_group_IT_number 2
_symmetry_cell_setting 'triclinic'
loop_
_space_group_symop_operation_xyz
x,y,z
-x,-y,-z
loop_
_atom_site_type_symbol
_atom_site_label
_atom_site_fract_x
_atom_site_fract_y
_atom_site_fract_z
Si Si1 0.321171 0.367231 0.264250
Si Si2 0.492769 0.226549 0.382213
Si Si3 0.390041 0.619876 0.987940
Si Si4 0.258224 0.637872 0.778321
Si Si5 0.723501 0.157210 0.469436
Si Si6 0.951991 0.883735 0.277847
Si Si7 0.943609 0.220530 0.519260
O O1 0.351801 0.380641 0.091085
O O2 0.303187 0.652716 0.369243
O O3 0.171575 0.238830 0.489780
O O4 0.465795 0.266939 0.128045
O O5 0.345711 0.372785 0.645479
O O6 0.621606 0.183112 0.298434
O O7 0.425771 0.989769 0.381300
O O8 0.564013 0.400037 0.207052
O O9 0.236165 0.774192 0.222113
O O10 0.241251 0.686334 0.672459
O O11 0.093583 0.698679 0.053412
O O12 0.859479 0.967071 0.299254
O O13 0.995804 0.136548 0.314132
O O14 0.000000 0.500000 0.500000
O O15 0.000000 0.000000 0.500000
#
# Coordination Sequence:
#
# PCOD9062235 Si02
#       7
#     2   2   2   2   2   2   2
#     4  11  25  44  75 114 146 196 253 319 389 449
#     4  11  25  47  72 109 146 203 248 313 387 451
#     4  11  23  48  75 107 151 194 249 318 381 464
#     4  11  26  48  71 106 151 198 253 314 376 462
#     4  12  23  46  72 110 144 195 261 304 380 455
#     4  12  26  48  75 109 150 196 252 317 382 455
#     4  12  28  50  75 115 155 203 253 316 398 465
#
# _framework density 25.139835999999999
#
# number of rings (size 3 to 8) (size 9 to 14) (size 15 to 20)
#    0.000    0.571    4.286    2.571    0.000    9.143 
#    5.143    0.000    0.000    0.000    0.000    0.000 
#    0.000    0.000    0.000    0.000    0.000    0.000 
#
# Total GULP energy -78357.725945 kJ/mol
# GULP energy per Si atom -5596.980425 kJ/mol
# Density = 2.508262 g / cm^3
# Si number density = 25.139836 Si / 1000 Ang^3
#
#
#
# Elastic Constant Matrix: (Units=GPa)
#
#
# Indices 1 2 3 4 5 6 
#
# 1 104.9524 16.3354 29.7579 15.6830 -14.7828 -12.3009
# 2 16.3354 82.5220 38.6832 6.7178 -6.3759 7.1347
# 3 29.7579 38.6832 164.3149 29.4562 -27.3077 -8.1539
# 4 15.6830 6.7178 29.4562 29.3591 -11.5887 -6.0762
# 5 -14.7828 -6.3759 -27.3077 -11.5887 45.3481 11.7894
# 6 -12.3009 7.1347 -8.1539 -6.0762 11.7894 34.0953
#
#
#
# Elastic Compliance Matrix: (Units=1/GPa)
#
#
# Indices 1 2 3 4 5 6 
#
# 1 0.011075 -0.001806 -0.000532 -0.003830 0.001242 0.003134
# 2 -0.001806 0.014426 -0.003213 0.000228 0.000776 -0.004667
# 3 -0.000532 -0.003213 0.008569 -0.006388 0.002792 0.000426
# 4 -0.003830 0.000228 -0.006388 0.045371 0.005712 0.003154
# 5 0.001242 0.000776 0.002792 0.005712 0.027683 -0.007601
# 6 0.003134 -0.004667 0.000426 0.003154 -0.007601 0.034729
#
#
# Mechanical properties :
#
#
# Convention : Reuss Voigt Hill
#
# Bulk Modulus (GPa) = 43.53753 57.92691 50.73222
# Shear Modulus (GPa) = 31.13144 39.56134 35.34639
#
# Velocity S-wave (km/s) = 3.52281 3.97123 3.75372
# Velocity P-wave (km/s) = 5.82260 6.64225 6.24588
#
# Compressibility (1/GPa) = 0.02296869
#
# Stress axis : x y z
#
# Youngs Moduli (GPa) = 90.29603 69.31763 116.70371
#
# Poissons Ratio (x) = 0.12520 0.06207
# Poissons Ratio (y) = 0.16309 0.37491
# Poissons Ratio (z) = 0.04803 0.22268
#
# Static dielectric constant tensor:
#      x y z
#    x 2.013560 0.012240 0.000010 
#    y 0.012240 2.050070 -0.017830 
#    z 0.000010 -0.017830 1.951230 
# 
# From -- ./inp_files/459547.got.cif
#   From: 2010.05.17/outbox.cif.g08.bks.cpg/sg2_230_cif.got.tgz:459547.got - 2010.06.03 11:33:40.
