data_PCOD9062932
_publ_section_title
;
Structure prediction by ZEFSAII (Michael W. Deem and Ramdas Pophale) SiO2 
 PCOD9062932
Probable space group: P -1
;
_chemical_formula_sum "Si O2"
_cell_formula_units_Z 15
_cell_length_a 9.247168
_cell_length_b 12.439800
_cell_length_c 18.570698
_cell_angle_alpha 28.691300
_cell_angle_beta 129.265569
_cell_angle_gamma 109.550364
_cell_volume 639.112980
_symmetry_space_group_name_H-M "P -1"
_symmetry_group_IT_number 2
_symmetry_cell_setting 'triclinic'
loop_
_space_group_symop_operation_xyz
x,y,z
-x,-y,-z
loop_
_atom_site_type_symbol
_atom_site_label
_atom_site_fract_x
_atom_site_fract_y
_atom_site_fract_z
Si Si1 0.259086 0.923774 0.631053
Si Si2 0.184318 0.032707 0.073009
Si Si3 0.811621 0.520609 0.748292
Si Si4 0.673996 0.289150 0.544677
Si Si5 0.000000 0.500000 0.500000
Si Si6 0.597455 0.313296 0.030730
Si Si7 0.992137 0.756218 0.875990
Si Si8 0.355016 0.182101 0.916595
O O1 0.437772 0.632706 0.818009
O O2 0.257844 0.170953 0.451326
O O3 0.356929 0.868663 0.776590
O O4 0.000000 0.000000 0.500000
O O5 0.283454 0.846294 0.284011
O O6 0.354891 0.991842 0.089228
O O7 0.034929 0.352003 0.865640
O O8 0.000000 0.000000 0.000000
O O9 0.601832 0.512242 0.663128
O O10 0.887367 0.357265 0.942404
O O11 0.827130 0.401946 0.515544
O O12 0.757606 0.053464 0.647362
O O13 0.103712 0.403562 0.672856
O O14 0.478153 0.291444 0.935504
O O15 0.851253 0.210102 0.147156
O O16 0.000000 0.500000 0.000000
O O17 0.500000 0.000000 0.000000
#
# Coordination Sequence:
#
# PCOD9062932 Si02
#       8
#     2   2   2   2   1   2   2   2
#     4  11  24  45  73 104 136 182 238 294 359 428
#     4  11  25  47  67  98 139 183 230 288 347 411
#     4  11  25  43  71 102 134 184 235 285 354 425
#     4  11  25  45  69 101 140 183 239 288 353 422
#     4  12  26  42  66 100 136 186 238 284 340 420
#     4  11  25  44  70 103 142 183 228 297 355 413
#     4  11  24  43  67 101 140 177 226 293 353 414
#     4  12  27  45  70 101 145 186 233 289 351 420
#
# _framework density 23.470029
#
# number of rings (size 3 to 8) (size 9 to 14) (size 15 to 20)
#    0.000    0.800    1.333    4.800    3.733   14.400 
#    0.000    0.000    0.000    0.000    0.000    0.000 
#    0.000    0.000    0.000    0.000    0.000    0.000 
#
# Total GULP energy -83644.283019 kJ/mol
# GULP energy per Si atom -5576.285535 kJ/mol
# Density = 2.341661 g / cm^3
# Si number density = 23.470029 Si / 1000 Ang^3
#
#
#
# Elastic Constant Matrix: (Units=GPa)
#
#
# Indices 1 2 3 4 5 6 
#
# 1 118.3845 21.9261 8.7859 -18.2533 -7.9337 -8.6621
# 2 21.9261 103.8690 11.2302 15.8660 8.7062 -6.2336
# 3 8.7859 11.2302 57.0467 0.3245 -0.3078 -8.1942
# 4 -18.2533 15.8660 0.3245 29.8528 5.9722 -0.9577
# 5 -7.9337 8.7062 -0.3078 5.9722 27.7939 -1.9711
# 6 -8.6621 -6.2336 -8.1942 -0.9577 -1.9711 46.7822
#
#
#
# Elastic Compliance Matrix: (Units=1/GPa)
#
#
# Indices 1 2 3 4 5 6 
#
# 1 0.010664 -0.003496 -0.000749 0.007930 0.002543 0.001647
# 2 -0.003496 0.012039 -0.001752 -0.007892 -0.003067 0.000359
# 3 -0.000749 -0.001752 0.018407 0.000227 0.000695 0.002886
# 4 0.007930 -0.007892 0.000227 0.043480 -0.004523 0.001156
# 5 0.002543 -0.003067 0.000695 -0.004523 0.038768 0.001725
# 6 0.001647 0.000359 0.002886 0.001156 0.001725 0.022330
#
#
# Mechanical properties :
#
#
# Convention : Reuss Voigt Hill
#
# Bulk Modulus (GPa) = 34.34467 40.35385 37.34926
# Shear Modulus (GPa) = 29.87105 36.70964 33.29035
#
# Velocity S-wave (km/s) = 3.57141 3.95917 3.77028
# Velocity P-wave (km/s) = 5.62777 6.17504 5.90775
#
# Compressibility (1/GPa) = 0.02911660
#
# Stress axis : x y z
#
# Youngs Moduli (GPa) = 93.77506 83.06382 54.32809
#
# Poissons Ratio (x) = 0.29037 0.04069
# Poissons Ratio (y) = 0.32782 0.09516
# Poissons Ratio (z) = 0.07024 0.14550
#
# Static dielectric constant tensor:
#      x y z
#    x 1.912540 -0.059560 0.122780 
#    y -0.059560 2.134210 -0.135810 
#    z 0.122780 -0.135810 2.096910 
# 
# From -- ./inp_files/559569.got.cif
#   From: 2010.05.17/outbox.cif.g08.bks.cpg/sg2_280_cif.got.tgz:559569.got - 2010.06.03 11:33:40.
