data_PCOD9062116
_publ_section_title
;
Structure prediction by ZEFSAII (Michael W. Deem and Ramdas Pophale) SiO2 
 PCOD9062116
Probable space group: P -1
;
_chemical_formula_sum "Si O2"
_cell_formula_units_Z 16
_cell_length_a 11.615083
_cell_length_b 15.994728
_cell_length_c 8.664659
_cell_angle_alpha 99.361621
_cell_angle_beta 106.813010
_cell_angle_gamma 143.557071
_cell_volume 657.895700
_symmetry_space_group_name_H-M "P -1"
_symmetry_group_IT_number 2
_symmetry_cell_setting 'triclinic'
loop_
_space_group_symop_operation_xyz
x,y,z
-x,-y,-z
loop_
_atom_site_type_symbol
_atom_site_label
_atom_site_fract_x
_atom_site_fract_y
_atom_site_fract_z
Si Si1 0.678346 0.280432 0.786271
Si Si2 0.573173 0.069615 0.878805
Si Si3 0.113320 0.707164 0.373765
Si Si4 0.599168 0.552335 0.376344
Si Si5 0.668024 0.863771 0.638747
Si Si6 0.958338 0.732738 0.061355
Si Si7 0.036384 0.969616 0.665271
Si Si8 0.429699 0.663772 0.805917
O O1 0.578407 0.172010 0.868825
O O2 0.677032 0.207704 0.632643
O O3 0.512857 0.247187 0.622881
O O4 0.000000 0.500000 0.000000
O O5 0.858711 0.205724 0.972451
O O6 0.311583 0.869541 0.625244
O O7 0.500000 0.000000 0.000000
O O8 0.966592 0.684175 0.205579
O O9 0.867816 0.497831 0.290967
O O10 0.500000 0.500000 0.500000
O O11 0.896746 0.788102 0.536628
O O12 0.596061 0.452506 0.288449
O O13 0.355944 0.447520 0.160180
O O14 0.842573 0.889639 0.696768
O O15 0.501634 0.756932 0.702006
O O16 0.880828 0.077106 0.791826
O O17 0.000000 0.000000 0.500000
O O18 0.337697 0.172454 0.922834
#
# Coordination Sequence:
#
# PCOD9062116 Si02
#       8
#     2   2   2   2   2   2   2   2
#     4  11  26  45  71 101 142 184 232 290 352 416
#     4  11  25  45  71 106 135 183 239 283 351 425
#     4  11  25  48  68 103 140 184 232 286 359 417
#     4  12  26  46  74 103 141 188 235 292 353 411
#     4  12  24  48  70  98 146 186 234 295 347 418
#     4  11  23  47  73  95 143 189 227 295 356 411
#     4  12  28  46  71 109 142 184 244 291 352 422
#     4  12  28  46  72 106 144 188 239 290 352 420
#
# _framework density 24.319966000000001
#
# number of rings (size 3 to 8) (size 9 to 14) (size 15 to 20)
#    0.000    0.500    5.000    2.625   10.500    2.500 
#    0.000    0.000    0.000    0.000    0.000    0.000 
#    0.000    0.000    0.000    0.000    0.000    0.000 
#
# Total GULP energy -89571.525028 kJ/mol
# GULP energy per Si atom -5598.220314 kJ/mol
# Density = 2.426461 g / cm^3
# Si number density = 24.319966 Si / 1000 Ang^3
#
#
#
# Elastic Constant Matrix: (Units=GPa)
#
#
# Indices 1 2 3 4 5 6 
#
# 1 61.9883 -6.9249 17.8873 6.6352 -5.1092 4.6694
# 2 -6.9249 123.4053 31.3683 0.4176 -15.6584 11.8114
# 3 17.8873 31.3683 95.1941 8.5572 -11.6802 -8.1869
# 4 6.6352 0.4176 8.5572 48.7734 4.3422 -10.8850
# 5 -5.1092 -15.6584 -11.6802 4.3422 31.5831 4.0211
# 6 4.6694 11.8114 -8.1869 -10.8850 4.0211 28.3956
#
#
#
# Elastic Compliance Matrix: (Units=1/GPa)
#
#
# Indices 1 2 3 4 5 6 
#
# 1 0.019342 0.003682 -0.004591 -0.004149 0.004886 -0.008318
# 2 0.003682 0.010837 -0.004040 -0.002169 0.005782 -0.007928
# 3 -0.004591 -0.004040 0.013442 -0.000522 0.001547 0.005892
# 4 -0.004149 -0.002169 -0.000522 0.024405 -0.006791 0.011751
# 5 0.004886 0.005782 0.001547 -0.006791 0.038197 -0.010775
# 6 -0.008318 -0.007928 0.005892 0.011751 -0.010775 0.047612
#
#
# Mechanical properties :
#
#
# Convention : Reuss Voigt Hill
#
# Bulk Modulus (GPa) = 29.65286 40.58323 35.11804
# Shear Modulus (GPa) = 28.57595 37.63424 33.10509
#
# Velocity S-wave (km/s) = 3.43155 3.93805 3.69349
# Velocity P-wave (km/s) = 5.28393 6.11564 5.71494
#
# Compressibility (1/GPa) = 0.03372356
#
# Stress axis : x y z
#
# Youngs Moduli (GPa) = 51.70222 92.27766 74.39193
#
# Poissons Ratio (x) = -0.33981 0.34151
# Poissons Ratio (y) = -0.19039 0.30057
# Poissons Ratio (z) = 0.23735 0.37283
#
# Static dielectric constant tensor:
#      x y z
#    x 2.049700 0.002690 -0.027020 
#    y 0.002690 1.936710 -0.048810 
#    z -0.027020 -0.048810 2.033970 
# 
# From -- ./inp_files/317670.got.cif
#   From: 2010.05.17/outbox.cif.g08.bks.cpg/sg2_159_cif.got.tgz:317670.got - 2010.06.03 11:33:40.
