data_PCOD9062358
_publ_section_title
;
Structure prediction by ZEFSAII (Michael W. Deem and Ramdas Pophale) SiO2 
 PCOD9062358
Probable space group: P -1
;
_chemical_formula_sum "Si O2"
_cell_formula_units_Z 16
_cell_length_a 5.228047
_cell_length_b 20.662659
_cell_length_c 9.502907
_cell_angle_alpha 128.549059
_cell_angle_beta 108.117655
_cell_angle_gamma 68.228719
_cell_volume 741.060184
_symmetry_space_group_name_H-M "P -1"
_symmetry_group_IT_number 2
_symmetry_cell_setting 'triclinic'
loop_
_space_group_symop_operation_xyz
x,y,z
-x,-y,-z
loop_
_atom_site_type_symbol
_atom_site_label
_atom_site_fract_x
_atom_site_fract_y
_atom_site_fract_z
Si Si1 0.748944 0.778100 0.764721
Si Si2 0.295301 0.819026 0.988678
Si Si3 0.284214 0.942362 0.411051
Si Si4 0.419769 0.524822 0.177528
Si Si5 0.211296 0.411611 0.456619
Si Si6 0.550170 0.218711 0.575805
Si Si7 0.979944 0.675763 0.209592
Si Si8 0.593689 0.641838 0.880693
O O1 0.549864 0.807818 0.906400
O O2 0.883581 0.675779 0.655079
O O3 0.558202 0.794478 0.616469
O O4 0.005529 0.821888 0.866544
O O5 0.374239 0.731586 0.975022
O O6 0.260708 0.895873 0.195766
O O7 0.381829 0.868277 0.442555
O O8 0.500000 0.000000 0.500000
O O9 0.000000 0.000000 0.500000
O O10 0.619258 0.573033 0.357866
O O11 0.122478 0.590054 0.201536
O O12 0.444428 0.437282 0.143818
O O13 0.500000 0.500000 0.000000
O O14 0.401357 0.387609 0.319082
O O15 0.000000 0.500000 0.500000
O O16 0.808178 0.263151 0.674263
O O17 0.298502 0.280757 0.698369
O O18 0.885030 0.656691 0.010247
#
# Coordination Sequence:
#
# PCOD9062358 Si02
#       8
#     2   2   2   2   2   2   2   2
#     4  11  25  45  71 105 144 198 233 293 356 427
#     4  11  25  47  73 106 147 187 240 285 367 432
#     4  12  27  50  81 113 141 181 235 301 369 451
#     4  12  25  42  63 104 144 199 253 302 349 409
#     4  11  24  39  64  98 148 190 260 291 351 398
#     4  12  26  47  76 105 146 185 239 295 370 433
#     4  12  25  43  71 102 145 190 244 299 351 431
#     4  11  25  41  67  99 146 194 243 300 355 406
#
# _framework density 21.590688
#
# number of rings (size 3 to 8) (size 9 to 14) (size 15 to 20)
#    0.000    0.500    2.500    5.250    7.000    0.000 
#    0.000    3.750    0.000    0.000    0.000    0.000 
#    0.000    0.000    0.000    0.000    0.000    0.000 
#
# Total GULP energy -89569.910332 kJ/mol
# GULP energy per Si atom -5598.119396 kJ/mol
# Density = 2.154155 g / cm^3
# Si number density = 21.590688 Si / 1000 Ang^3
#
#
#
# Elastic Constant Matrix: (Units=GPa)
#
#
# Indices 1 2 3 4 5 6 
#
# 1 79.3350 -3.4724 40.2777 12.6268 7.3737 -6.1707
# 2 -3.4724 35.9965 22.4312 6.1635 -13.0207 -2.1566
# 3 40.2777 22.4312 156.8692 6.3235 4.2870 -6.0301
# 4 12.6268 6.1635 6.3235 36.9297 -2.8135 -2.9840
# 5 7.3737 -13.0207 4.2870 -2.8135 39.9822 6.7141
# 6 -6.1707 -2.1566 -6.0301 -2.9840 6.7141 38.6070
#
#
#
# Elastic Compliance Matrix: (Units=1/GPa)
#
#
# Indices 1 2 3 4 5 6 
#
# 1 0.016325 0.004878 -0.004540 -0.005581 -0.001669 0.002032
# 2 0.004878 0.037707 -0.006753 -0.005961 0.011799 -0.000681
# 3 -0.004540 -0.006753 0.008553 0.001096 -0.002323 0.000722
# 4 -0.005581 -0.005961 0.001096 0.029951 0.000893 0.001106
# 5 -0.001669 0.011799 -0.002323 0.000893 0.030343 -0.005178
# 6 0.002032 -0.000681 0.000722 0.001106 -0.005178 0.027287
#
#
# Mechanical properties :
#
#
# Convention : Reuss Voigt Hill
#
# Bulk Modulus (GPa) = 20.09883 43.40818 31.75351
# Shear Modulus (GPa) = 27.84251 37.30138 32.57194
#
# Velocity S-wave (km/s) = 3.59494 4.16102 3.88830
# Velocity P-wave (km/s) = 5.15371 6.57527 5.90741
#
# Compressibility (1/GPa) = 0.04975413
#
# Stress axis : x y z
#
# Youngs Moduli (GPa) = 61.25635 26.52055 116.91656
#
# Poissons Ratio (x) = -0.12936 0.53084
# Poissons Ratio (y) = -0.29879 0.78948
# Poissons Ratio (z) = 0.27812 0.17908
#
# Static dielectric constant tensor:
#      x y z
#    x 1.782990 0.017660 -0.003550 
#    y 0.017660 1.745350 0.007680 
#    z -0.003550 0.007680 1.794090 
# 
# From -- ./inp_files/141636.got.cif
#   From: 2010.05.17/outbox.cif.g08.bks.cpg/sg2_71_cif.got.tgz:141636.got - 2010.06.03 11:33:40.
