data_PCOD9062587
_publ_section_title
;
Structure prediction by ZEFSAII (Michael W. Deem and Ramdas Pophale) SiO2 
 PCOD9062587
Probable space group: P -1
;
_chemical_formula_sum "Si O2"
_cell_formula_units_Z 16
_cell_length_a 13.700630
_cell_length_b 25.074796
_cell_length_c 8.342207
_cell_angle_alpha 129.410967
_cell_angle_beta 138.147328
_cell_angle_gamma 21.527620
_cell_volume 681.680863
_symmetry_space_group_name_H-M "P -1"
_symmetry_group_IT_number 2
_symmetry_cell_setting 'triclinic'
loop_
_space_group_symop_operation_xyz
x,y,z
-x,-y,-z
loop_
_atom_site_type_symbol
_atom_site_label
_atom_site_fract_x
_atom_site_fract_y
_atom_site_fract_z
Si Si1 0.350460 0.008436 0.667975
Si Si2 0.240830 0.958329 0.153824
Si Si3 0.035425 0.765034 0.123378
Si Si4 0.227641 0.791261 0.177891
Si Si5 0.286071 0.515937 0.910003
Si Si6 0.010772 0.415555 0.999640
Si Si7 0.352239 0.870983 0.624825
Si Si8 0.949895 0.604100 0.339379
O O1 0.231365 0.025084 0.393187
O O2 0.371332 0.935828 0.682096
O O3 0.102426 0.167251 0.738412
O O4 0.705686 0.889107 0.861127
O O5 0.595164 0.781984 0.249268
O O6 0.000000 0.000000 0.000000
O O7 0.102695 0.046369 0.989245
O O8 0.186138 0.773066 0.264233
O O9 0.273546 0.603956 0.065406
O O10 0.431008 0.775807 0.413985
O O11 0.391321 0.662823 0.030460
O O12 0.108050 0.573787 0.968269
O O13 0.883036 0.441262 0.378295
O O14 0.894967 0.440686 0.729563
O O15 0.389551 0.245860 0.144703
O O16 0.937036 0.526596 0.157070
O O17 0.000000 0.000000 0.500000
#
# Coordination Sequence:
#
# PCOD9062587 Si02
#       8
#     2   2   2   2   2   2   2   2
#     4  11  24  43  71 102 141 187 233 289 359 422
#     4  12  24  43  70 110 139 174 239 307 349 411
#     4  11  25  46  69  99 142 197 231 278 358 433
#     4  12  26  42  73 102 138 184 237 291 357 412
#     4  12  24  50  69  97 150 192 231 288 356 424
#     4  11  24  41  71 106 138 187 237 293 356 418
#     4  12  21  41  70 104 136 178 235 300 347 409
#     4  11  24  42  70 107 141 183 236 294 357 418
#
# _framework density 23.471395000000001
#
# number of rings (size 3 to 8) (size 9 to 14) (size 15 to 20)
#    0.000    0.500    6.250    2.250    0.000    0.500 
#    4.500    0.625    0.000    0.000    0.000    0.000 
#    0.000    0.000    0.000    0.000    0.000    0.000 
#
# Total GULP energy -89453.945783 kJ/mol
# GULP energy per Si atom -5590.871611 kJ/mol
# Density = 2.341797 g / cm^3
# Si number density = 23.471395 Si / 1000 Ang^3
#
#
#
# Elastic Constant Matrix: (Units=GPa)
#
#
# Indices 1 2 3 4 5 6 
#
# 1 70.2003 15.1429 18.6531 1.8785 -9.0927 5.5248
# 2 15.1429 152.5581 12.1168 7.7894 -2.4866 4.9154
# 3 18.6531 12.1168 68.9620 19.5316 -22.7392 1.7203
# 4 1.8785 7.7894 19.5316 41.6867 -0.7852 0.8067
# 5 -9.0927 -2.4866 -22.7392 -0.7852 35.5295 0.6799
# 6 5.5248 4.9154 1.7203 0.8067 0.6799 31.1843
#
#
#
# Elastic Compliance Matrix: (Units=1/GPa)
#
#
# Indices 1 2 3 4 5 6 
#
# 1 0.015910 -0.001236 -0.003914 0.001425 0.001559 -0.002479
# 2 -0.001236 0.006798 -0.000683 -0.000885 -0.000282 -0.000786
# 3 -0.003914 -0.000683 0.023030 -0.010223 0.013473 -0.000499
# 4 0.001425 -0.000885 -0.010223 0.028777 -0.005601 -0.000171
# 5 0.001559 -0.000282 0.013473 -0.005601 0.037056 -0.001638
# 6 -0.002479 -0.000786 -0.000499 -0.000171 -0.001638 0.032698
#
#
# Mechanical properties :
#
#
# Convention : Reuss Voigt Hill
#
# Bulk Modulus (GPa) = 29.34944 42.61621 35.98282
# Shear Modulus (GPa) = 29.88784 38.06726 33.97755
#
# Velocity S-wave (km/s) = 3.57231 4.03160 3.80888
# Velocity P-wave (km/s) = 5.43568 6.31409 5.89128
#
# Compressibility (1/GPa) = 0.03407220
#
# Stress axis : x y z
#
# Youngs Moduli (GPa) = 62.85170 147.10890 43.42189
#
# Poissons Ratio (x) = 0.18181 0.16996
# Poissons Ratio (y) = 0.07768 0.02966
# Poissons Ratio (z) = 0.24600 0.10047
#
# Static dielectric constant tensor:
#      x y z
#    x 2.183910 0.018540 -0.045530 
#    y 0.018540 1.970070 0.030000 
#    z -0.045530 0.030000 1.880200 
# 
# From -- ./inp_files/320725.got.cif
#   From: 2010.05.17/outbox.cif.g08.bks.cpg/sg2_161_cif.got.tgz:320725.got - 2010.06.03 11:33:40.
