data_PCOD9062600
_publ_section_title
;
Structure prediction by ZEFSAII (Michael W. Deem and Ramdas Pophale) SiO2 
 PCOD9062600
Probable space group: P -1
;
_chemical_formula_sum "Si O2"
_cell_formula_units_Z 16
_cell_length_a 23.529182
_cell_length_b 8.864481
_cell_length_c 5.345257
_cell_angle_alpha 60.452986
_cell_angle_beta 72.719700
_cell_angle_gamma 45.287905
_cell_volume 687.006570
_symmetry_space_group_name_H-M "P -1"
_symmetry_group_IT_number 2
_symmetry_cell_setting 'triclinic'
loop_
_space_group_symop_operation_xyz
x,y,z
-x,-y,-z
loop_
_atom_site_type_symbol
_atom_site_label
_atom_site_fract_x
_atom_site_fract_y
_atom_site_fract_z
Si Si1 0.313826 0.086200 0.974861
Si Si2 0.130231 0.157163 0.438260
Si Si3 0.952069 0.045289 0.277196
Si Si4 0.230997 0.925603 0.994077
Si Si5 0.448930 0.142761 0.195436
Si Si6 0.165286 0.459097 0.174685
Si Si7 0.280458 0.437827 0.367050
Si Si8 0.506632 0.378967 0.840541
O O1 0.302788 0.298488 0.705064
O O2 0.288229 0.981154 0.904106
O O3 0.405731 0.876629 0.082990
O O4 0.246902 0.209852 0.174012
O O5 0.068613 0.117923 0.565483
O O6 0.164283 0.081351 0.172099
O O7 0.108014 0.402624 0.324232
O O8 0.193757 0.990898 0.712804
O O9 0.874182 0.322811 0.135113
O O10 0.000000 0.000000 0.500000
O O11 0.000000 0.000000 0.000000
O O12 0.270001 0.663311 0.215242
O O13 0.359645 0.243030 0.255362
O O14 0.500000 0.000000 0.500000
O O15 0.439744 0.365264 0.982652
O O16 0.500000 0.000000 0.000000
O O17 0.198655 0.507752 0.320496
O O18 0.500000 0.500000 0.500000
O O19 0.500000 0.500000 0.000000
#
# Coordination Sequence:
#
# PCOD9062600 Si02
#       8
#     2   2   2   2   2   2   2   2
#     4  11  25  45  73 104 144 193 247 305 356 431
#     4  11  24  46  71 107 144 179 233 288 351 431
#     4  12  28  48  75 108 150 185 229 291 360 432
#     4  11  24  41  72 107 140 178 241 299 351 417
#     4  12  26  44  66  99 141 186 240 300 364 429
#     4  11  26  45  77 105 144 189 242 292 358 426
#     4  12  24  43  75 100 140 189 246 300 363 417
#     4  12  27  47  69 101 149 192 244 305 371 428
#
# _framework density 23.289439999999999
#
# number of rings (size 3 to 8) (size 9 to 14) (size 15 to 20)
#    0.000    0.500    3.750    3.750    3.500    3.000 
#    0.000    0.000    0.000    0.000    0.000    0.000 
#    0.000    0.000    0.000    0.000    0.000    0.000 
#
# Total GULP energy -89401.432664 kJ/mol
# GULP energy per Si atom -5587.589541 kJ/mol
# Density = 2.323643 g / cm^3
# Si number density = 23.289440 Si / 1000 Ang^3
#
#
#
# Elastic Constant Matrix: (Units=GPa)
#
#
# Indices 1 2 3 4 5 6 
#
# 1 123.1419 13.6443 25.3480 3.5033 -11.2519 6.8535
# 2 13.6443 71.7223 16.9920 0.3150 -1.7203 2.2755
# 3 25.3480 16.9920 141.8328 0.5580 3.4423 -0.2624
# 4 3.5033 0.3150 0.5580 41.6794 -2.4301 -5.4410
# 5 -11.2519 -1.7203 3.4423 -2.4301 45.5078 -5.2051
# 6 6.8535 2.2755 -0.2624 -5.4410 -5.2051 32.0708
#
#
#
# Elastic Compliance Matrix: (Units=1/GPa)
#
#
# Indices 1 2 3 4 5 6 
#
# 1 0.008862 -0.001230 -0.001485 -0.000810 0.002028 -0.001627
# 2 -0.001230 0.014571 -0.001534 -0.000068 0.000273 -0.000751
# 3 -0.001485 -0.001534 0.007523 0.000024 -0.000954 0.000337
# 4 -0.000810 -0.000068 0.000024 0.024764 0.001649 0.004647
# 5 0.002028 0.000273 -0.000954 0.001649 0.023053 0.003561
# 6 -0.001627 -0.000751 0.000337 0.004647 0.003561 0.032951
#
#
# Mechanical properties :
#
#
# Convention : Reuss Voigt Hill
#
# Bulk Modulus (GPa) = 44.52816 49.85173 47.18995
# Shear Modulus (GPa) = 39.15184 42.56577 40.85880
#
# Velocity S-wave (km/s) = 4.10457 4.27978 4.19309
# Velocity P-wave (km/s) = 6.45169 6.77302 6.61431
#
# Compressibility (1/GPa) = 0.02245770
#
# Stress axis : x y z
#
# Youngs Moduli (GPa) = 112.84615 68.63107 132.91804
#
# Poissons Ratio (x) = 0.08442 0.19744
# Poissons Ratio (y) = 0.13881 0.20383
# Poissons Ratio (z) = 0.16762 0.10525
#
# Static dielectric constant tensor:
#      x y z
#    x 1.890100 0.027820 -0.001360 
#    y 0.027820 1.821200 -0.007500 
#    z -0.001360 -0.007500 1.837320 
# 
# From -- ./inp_files/56947.got.cif
#   From: 2010.05.17/outbox.cif.g08.bks.cpg/sg2_29_cif.got.tgz:56947.got - 2010.06.03 11:33:40.
