data_PCOD9062635
_publ_section_title
;
Structure prediction by ZEFSAII (Michael W. Deem and Ramdas Pophale) SiO2 
 PCOD9062635
Probable space group: P -1
;
_chemical_formula_sum "Si O2"
_cell_formula_units_Z 16
_cell_length_a 9.810801
_cell_length_b 21.496043
_cell_length_c 6.787606
_cell_angle_alpha 77.409609
_cell_angle_beta 46.717479
_cell_angle_gamma 55.190954
_cell_volume 818.817270
_symmetry_space_group_name_H-M "P -1"
_symmetry_group_IT_number 2
_symmetry_cell_setting 'triclinic'
loop_
_space_group_symop_operation_xyz
x,y,z
-x,-y,-z
loop_
_atom_site_type_symbol
_atom_site_label
_atom_site_fract_x
_atom_site_fract_y
_atom_site_fract_z
Si Si1 0.301262 0.709358 0.768605
Si Si2 0.213320 0.201066 0.680134
Si Si3 0.082404 0.448898 0.256227
Si Si4 0.573029 0.726133 0.827443
Si Si5 0.362390 0.462346 0.643144
Si Si6 0.265202 0.087501 0.372599
Si Si7 0.208823 0.835848 0.449293
Si Si8 0.433184 0.917023 0.265008
O O1 0.424863 0.710413 0.841461
O O2 0.470583 0.625415 0.552448
O O3 0.250941 0.779179 0.626504
O O4 0.051700 0.729592 0.051429
O O5 0.332453 0.234368 0.421358
O O6 0.213602 0.139391 0.579952
O O7 0.362502 0.155014 0.757435
O O8 0.859246 0.483551 0.315990
O O9 0.000000 0.500000 0.500000
O O10 0.213445 0.357240 0.240290
O O11 0.261806 0.457084 0.952784
O O12 0.409357 0.783126 0.125815
O O13 0.500000 0.500000 0.500000
O O14 0.463242 0.081793 0.048736
O O15 0.036881 0.128320 0.434151
O O16 0.344131 0.999519 0.398913
O O17 0.236917 0.903083 0.443824
#
# Coordination Sequence:
#
# PCOD9062635 Si02
#       8
#     2   2   2   2   2   2   2   2
#     4  12  25  43  67  97 135 166 218 275 315 388
#     4  12  25  42  68  99 128 175 221 267 326 385
#     4  11  25  45  68  96 136 172 210 266 326 388
#     4  12  25  43  69  96 133 172 219 268 324 385
#     4  11  27  44  68 101 131 170 217 266 325 385
#     4  11  24  42  64  99 134 171 217 273 327 385
#     4  12  23  44  67  95 129 176 220 264 326 387
#     4  11  24  42  65  96 137 171 215 274 327 385
#
# _framework density 19.540379000000001
#
# number of rings (size 3 to 8) (size 9 to 14) (size 15 to 20)
#    0.000    0.500    7.500    0.750    1.750    3.500 
#    0.000    1.250    0.000    0.000    0.000    0.000 
#    0.000    0.000    0.000    0.000    0.000    0.000 
#
# Total GULP energy -89524.802696 kJ/mol
# GULP energy per Si atom -5595.300169 kJ/mol
# Density = 1.949590 g / cm^3
# Si number density = 19.540379 Si / 1000 Ang^3
#
#
#
# Elastic Constant Matrix: (Units=GPa)
#
#
# Indices 1 2 3 4 5 6 
#
# 1 50.1127 -10.0056 -10.8694 -5.0007 -0.3808 7.4391
# 2 -10.0056 67.1535 -5.4156 -0.5703 -2.3532 -2.1687
# 3 -10.8694 -5.4156 51.0337 2.8842 5.7040 0.9670
# 4 -5.0007 -0.5703 2.8842 27.6773 -0.2130 -3.4607
# 5 -0.3808 -2.3532 5.7040 -0.2130 26.6018 -2.4313
# 6 7.4391 -2.1687 0.9670 -3.4607 -2.4313 26.2494
#
#
#
# Elastic Compliance Matrix: (Units=1/GPa)
#
#
# Indices 1 2 3 4 5 6 
#
# 1 0.023041 0.003656 0.005363 0.002904 -0.001035 -0.006138
# 2 0.003656 0.015673 0.002279 0.000800 0.000991 0.000372
# 3 0.005363 0.002279 0.021640 -0.001621 -0.004628 -0.002771
# 4 0.002904 0.000800 -0.001621 0.037392 0.001156 0.004340
# 5 -0.001035 0.000991 -0.004628 0.001156 0.039060 0.004316
# 6 -0.006138 0.000372 -0.002771 0.004340 0.004316 0.040940
#
#
# Mechanical properties :
#
#
# Convention : Reuss Voigt Hill
#
# Bulk Modulus (GPa) = 12.05536 12.85764 12.45650
# Shear Modulus (GPa) = 27.35190 29.07841 28.21515
#
# Velocity S-wave (km/s) = 3.74540 3.86180 3.80404
# Velocity P-wave (km/s) = 4.98867 5.14577 5.06783
#
# Compressibility (1/GPa) = 0.08295066
#
# Stress axis : x y z
#
# Youngs Moduli (GPa) = 43.40019 63.80298 46.20986
#
# Poissons Ratio (x) = -0.23325 -0.24783
# Poissons Ratio (y) = -0.15866 -0.10530
# Poissons Ratio (z) = -0.23276 -0.14540
#
# Static dielectric constant tensor:
#      x y z
#    x 1.659500 0.004050 0.003090 
#    y 0.004050 1.661020 0.007480 
#    z 0.003090 0.007480 1.667590 
# 
# From -- ./inp_files/55425.got.cif
#   From: 2010.05.17/outbox.cif.g08.bks.cpg/sg2_28_cif.got.tgz:55425.got - 2010.06.03 11:33:40.
