data_PCOD9062530
_publ_section_title
;
Structure prediction by ZEFSAII (Michael W. Deem and Ramdas Pophale) SiO2 
 PCOD9062530
Probable space group: P -1
;
_chemical_formula_sum "Si O2"
_cell_formula_units_Z 16
_cell_length_a 5.260893
_cell_length_b 8.693918
_cell_length_c 15.403830
_cell_angle_alpha 115.637059
_cell_angle_beta 91.259758
_cell_angle_gamma 98.916362
_cell_volume 624.357566
_symmetry_space_group_name_H-M "P -1"
_symmetry_group_IT_number 2
_symmetry_cell_setting 'triclinic'
loop_
_space_group_symop_operation_xyz
x,y,z
-x,-y,-z
loop_
_atom_site_type_symbol
_atom_site_label
_atom_site_fract_x
_atom_site_fract_y
_atom_site_fract_z
Si Si1 0.223011 0.117781 0.978191
Si Si2 0.726940 0.163748 0.204413
Si Si3 0.714515 0.884790 0.454048
Si Si4 0.450405 0.576198 0.836130
Si Si5 0.073241 0.828178 0.319034
Si Si6 0.332869 0.568984 0.369716
Si Si7 0.936248 0.641753 0.102166
Si Si8 0.238743 0.191382 0.323388
O O1 0.091622 0.202146 0.920466
O O2 0.385853 0.993826 0.899182
O O3 0.368261 0.269518 0.075607
O O4 0.000000 0.000000 0.000000
O O5 0.776497 0.336241 0.187394
O O6 0.510220 0.185094 0.277703
O O7 0.989340 0.140966 0.247050
O O8 0.583069 0.696085 0.443463
O O9 0.773638 0.839703 0.342383
O O10 0.500000 0.000000 0.500000
O O11 0.000000 0.000000 0.500000
O O12 0.586346 0.509261 0.739023
O O13 0.331683 0.440281 0.873653
O O14 0.152776 0.704096 0.366860
O O15 0.106313 0.723144 0.205494
O O16 0.206236 0.031566 0.353314
O O17 0.235962 0.399339 0.387187
O O18 0.000000 0.500000 0.000000
#
# Coordination Sequence:
#
# PCOD9062530 Si02
#       8
#     2   2   2   2   2   2   2   2
#     4  12  24  41  62 100 154 201 258 314 369 436
#     4  11  24  44  66 102 151 200 258 315 370 432
#     4  12  27  52  84 118 152 198 251 320 398 468
#     4  11  24  41  68 101 146 206 255 311 374 445
#     4  12  26  49  82 111 158 205 254 319 385 457
#     4  11  25  49  79 112 153 198 252 316 392 457
#     4  12  25  40  66 107 153 199 267 305 370 451
#     4  11  27  44  77 114 150 198 259 310 381 462
#
# _framework density 25.626341
#
# number of rings (size 3 to 8) (size 9 to 14) (size 15 to 20)
#    0.000    0.500    3.750    4.500    7.000    0.000 
#    0.000    1.250    0.000    0.000    0.000    0.000 
#    0.000    0.000    0.000    0.000    0.000    0.000 
#
# Total GULP energy -89321.364345 kJ/mol
# GULP energy per Si atom -5582.585272 kJ/mol
# Density = 2.556801 g / cm^3
# Si number density = 25.626341 Si / 1000 Ang^3
#
#
#
# Elastic Constant Matrix: (Units=GPa)
#
#
# Indices 1 2 3 4 5 6 
#
# 1 88.9351 48.8773 32.7775 6.5181 11.2730 -0.9084
# 2 48.8773 202.3400 41.4853 13.1087 7.0992 13.9633
# 3 32.7775 41.4853 70.7251 25.9871 4.6423 -4.8291
# 4 6.5181 13.1087 25.9871 53.5735 3.9833 4.7203
# 5 11.2730 7.0992 4.6423 3.9833 46.7330 7.6022
# 6 -0.9084 13.9633 -4.8291 4.7203 7.6022 45.1795
#
#
#
# Elastic Compliance Matrix: (Units=1/GPa)
#
#
# Indices 1 2 3 4 5 6 
#
# 1 0.015044 -0.002482 -0.005938 0.001811 -0.002937 0.000740
# 2 -0.002482 0.006251 -0.002817 0.000326 0.000286 -0.002365
# 3 -0.005938 -0.002817 0.022461 -0.009839 -0.000218 0.004217
# 4 0.001811 0.000326 -0.009839 0.023510 -0.000958 -0.003411
# 5 -0.002937 0.000286 -0.000218 -0.000958 0.022802 -0.003907
# 6 0.000740 -0.002365 0.004217 -0.003411 -0.003907 0.024344
#
#
# Mechanical properties :
#
#
# Convention : Reuss Voigt Hill
#
# Bulk Modulus (GPa) = 46.98679 67.58671 57.28675
# Shear Modulus (GPa) = 34.72705 45.02120 39.87412
#
# Velocity S-wave (km/s) = 3.68520 4.19601 3.94887
# Velocity P-wave (km/s) = 6.04010 7.06445 6.57226
#
# Compressibility (1/GPa) = 0.02128258
#
# Stress axis : x y z
#
# Youngs Moduli (GPa) = 66.47262 159.96851 44.52195
#
# Poissons Ratio (x) = 0.39701 0.26439
# Poissons Ratio (y) = 0.16497 0.12540
# Poissons Ratio (z) = 0.39473 0.45056
#
# Static dielectric constant tensor:
#      x y z
#    x 2.080520 -0.116560 0.152910 
#    y -0.116560 2.130870 -0.055950 
#    z 0.152910 -0.055950 2.664610 
# 
# From -- ./inp_files/547484.got.cif
#   From: 2010.05.17/outbox.cif.g08.bks.cpg/sg2_274_cif.got.tgz:547484.got - 2010.06.03 11:33:40.
