data_PCOD9062643
_publ_section_title
;
Structure prediction by ZEFSAII (Michael W. Deem and Ramdas Pophale) SiO2 
 PCOD9062643
Probable space group: P -1
;
_chemical_formula_sum "Si O2"
_cell_formula_units_Z 16
_cell_length_a 5.539556
_cell_length_b 20.627470
_cell_length_c 9.294807
_cell_angle_alpha 118.263261
_cell_angle_beta 50.898484
_cell_angle_gamma 97.871108
_cell_volume 705.343521
_symmetry_space_group_name_H-M "P -1"
_symmetry_group_IT_number 2
_symmetry_cell_setting 'triclinic'
loop_
_space_group_symop_operation_xyz
x,y,z
-x,-y,-z
loop_
_atom_site_type_symbol
_atom_site_label
_atom_site_fract_x
_atom_site_fract_y
_atom_site_fract_z
Si Si1 0.794602 0.573926 0.236063
Si Si2 0.960266 0.427824 0.529065
Si Si3 0.814515 0.712347 0.890968
Si Si4 0.095766 0.095950 0.326388
Si Si5 0.207216 0.274800 0.762892
Si Si6 0.771819 0.156345 0.804322
Si Si7 0.178344 0.941150 0.033691
Si Si8 0.149875 0.804490 0.714389
O O1 0.414991 0.577335 0.350347
O O2 0.881697 0.649622 0.219023
O O3 0.906784 0.568537 0.355368
O O4 0.000000 0.500000 0.000000
O O5 0.000000 0.500000 0.500000
O O6 0.184591 0.355705 0.288057
O O7 0.143957 0.735142 0.750175
O O8 0.737559 0.697235 0.067341
O O9 0.581327 0.792017 0.022152
O O10 0.899638 0.115551 0.565363
O O11 0.061313 0.172437 0.326389
O O12 0.986631 0.027728 0.212778
O O13 0.472363 0.062224 0.168288
O O14 0.502813 0.218941 0.514177
O O15 0.966059 0.221190 0.823001
O O16 0.795228 0.095338 0.855949
O O17 0.058175 0.880548 0.921181
#
# Coordination Sequence:
#
# PCOD9062643 Si02
#       8
#     2   2   2   2   2   2   2   2
#     4  12  29  51  80 114 156 197 245 301 368 441
#     4  12  29  51  80 114 156 197 245 301 368 441
#     4  12  27  44  73 104 147 188 244 300 364 435
#     4  11  24  42  65  97 138 184 237 303 368 435
#     4  12  27  44  73 104 147 188 244 300 364 435
#     4  12  25  42  69 100 140 186 242 302 365 440
#     4  11  24  42  65  97 138 184 237 303 368 435
#     4  12  23  46  65 102 136 190 240 298 363 434
#
# _framework density 22.683979000000001
#
# number of rings (size 3 to 8) (size 9 to 14) (size 15 to 20)
#    0.000    0.250    6.250    2.250    8.750    0.000 
#    0.000    1.250    0.000    0.000    0.000    0.000 
#    0.000    0.000    0.000    0.000    0.000    0.000 
#
# Total GULP energy -89319.024469 kJ/mol
# GULP energy per Si atom -5582.439029 kJ/mol
# Density = 2.263235 g / cm^3
# Si number density = 22.683979 Si / 1000 Ang^3
#
#
#
# Elastic Constant Matrix: (Units=GPa)
#
#
# Indices 1 2 3 4 5 6 
#
# 1 48.4130 16.1092 25.7016 3.8982 16.0403 -14.7407
# 2 16.1092 130.0360 45.1860 0.4760 19.4622 -20.2629
# 3 25.7016 45.1860 152.3617 12.7380 32.7729 -12.0296
# 4 3.8982 0.4760 12.7380 41.1340 1.3453 10.4800
# 5 16.0403 19.4622 32.7729 1.3453 42.0426 -9.8886
# 6 -14.7407 -20.2629 -12.0296 10.4800 -9.8886 39.7927
#
#
#
# Elastic Compliance Matrix: (Units=1/GPa)
#
#
# Indices 1 2 3 4 5 6 
#
# 1 0.026905 -0.000302 -0.002075 -0.003895 -0.006352 0.008633
# 2 -0.000302 0.009254 -0.002004 -0.000331 -0.001737 0.003650
# 3 -0.002075 -0.002004 0.008807 -0.002411 -0.005007 0.000264
# 4 -0.003895 -0.000331 -0.002411 0.027860 0.000373 -0.009585
# 5 -0.006352 -0.001737 -0.005007 0.000373 0.031611 0.003006
# 6 0.008633 0.003650 0.000264 -0.009585 0.003006 0.033538
#
#
# Mechanical properties :
#
#
# Convention : Reuss Voigt Hill
#
# Bulk Modulus (GPa) = 27.62169 56.08939 41.85554
# Shear Modulus (GPa) = 31.48527 40.84813 36.16670
#
# Velocity S-wave (km/s) = 3.72962 4.24813 3.99729
# Velocity P-wave (km/s) = 5.54526 6.98872 6.30841
#
# Compressibility (1/GPa) = 0.03620343
#
# Stress axis : x y z
#
# Youngs Moduli (GPa) = 37.16850 108.06213 113.54546
#
# Poissons Ratio (x) = 0.03260 0.23565
# Poissons Ratio (y) = 0.01121 0.22754
# Poissons Ratio (z) = 0.07714 0.21655
#
# Static dielectric constant tensor:
#      x y z
#    x 1.974430 0.080000 -0.002810 
#    y 0.080000 1.905250 -0.021060 
#    z -0.002810 -0.021060 1.819950 
# 
# From -- ./inp_files/47301.got.cif
#   From: 2010.05.17/outbox.cif.g08.bks.cpg/sg2_24_cif.got.tgz:47301.got - 2010.06.03 11:33:40.
