data_PCOD9062421
_publ_section_title
;
Structure prediction by ZEFSAII (Michael W. Deem and Ramdas Pophale) SiO2 
 PCOD9062421
Probable space group: P -1
;
_chemical_formula_sum "Si O2"
_cell_formula_units_Z 14
_cell_length_a 12.211992
_cell_length_b 9.478663
_cell_length_c 18.361966
_cell_angle_alpha 42.167579
_cell_angle_beta 153.426243
_cell_angle_gamma 144.960977
_cell_volume 545.570898
_symmetry_space_group_name_H-M "P -1"
_symmetry_group_IT_number 2
_symmetry_cell_setting 'triclinic'
loop_
_space_group_symop_operation_xyz
x,y,z
-x,-y,-z
loop_
_atom_site_type_symbol
_atom_site_label
_atom_site_fract_x
_atom_site_fract_y
_atom_site_fract_z
Si Si1 0.104120 0.205116 0.194119
Si Si2 0.846144 0.743354 0.549634
Si Si3 0.253090 0.898615 0.498747
Si Si4 0.409796 0.244800 0.002713
Si Si5 0.282033 0.499281 0.578109
Si Si6 0.144968 0.623830 0.900682
Si Si7 0.614204 0.123838 0.758462
O O1 0.391070 0.435089 0.242701
O O2 0.898721 0.280724 0.084144
O O3 0.239416 0.115883 0.370186
O O4 0.921275 0.961961 0.129567
O O5 0.804988 0.547418 0.539861
O O6 0.012506 0.728625 0.722662
O O7 0.545139 0.722082 0.394805
O O8 0.000000 0.000000 0.500000
O O9 0.266539 0.724817 0.513603
O O10 0.959871 0.737143 0.431802
O O11 0.520269 0.989363 0.676951
O O12 0.555836 0.300493 0.988383
O O13 0.498472 0.088472 0.166826
O O14 0.500000 0.500000 0.000000
O O15 0.941574 0.328386 0.889150
#
# Coordination Sequence:
#
# PCOD9062421 Si02
#       7
#     2   2   2   2   2   2   2
#     4  12  26  46  70 105 141 187 238 284 349 426
#     4  12  20  43  77 110 139 178 234 299 351 411
#     4  11  25  42  73 107 143 180 228 295 351 411
#     4  12  32  49  67 102 147 192 237 291 354 423
#     4  11  24  40  69 108 143 176 231 290 351 409
#     4  12  25  46  77 103 142 188 241 287 352 421
#     4  12  25  47  75 105 140 186 233 294 356 419
#
# _framework density 25.661193999999998
#
# number of rings (size 3 to 8) (size 9 to 14) (size 15 to 20)
#    0.000    0.286    5.714    2.143    8.000    2.286 
#    0.000    0.000    0.000    0.000    0.000    0.000 
#    0.000    0.000    0.000    0.000    0.000    0.000 
#
# Total GULP energy -78398.718667 kJ/mol
# GULP energy per Si atom -5599.908476 kJ/mol
# Density = 2.560279 g / cm^3
# Si number density = 25.661194 Si / 1000 Ang^3
#
#
#
# Elastic Constant Matrix: (Units=GPa)
#
#
# Indices 1 2 3 4 5 6 
#
# 1 85.9247 36.7135 4.3647 -3.4975 6.1046 -25.5607
# 2 36.7135 136.6411 13.6762 12.1368 -4.3131 -1.4539
# 3 4.3647 13.6762 41.4913 6.4201 -0.6431 2.5088
# 4 -3.4975 12.1368 6.4201 47.7293 3.8280 -9.4236
# 5 6.1046 -4.3131 -0.6431 3.8280 28.6873 12.1959
# 6 -25.5607 -1.4539 2.5088 -9.4236 12.1959 50.6380
#
#
#
# Elastic Compliance Matrix: (Units=1/GPa)
#
#
# Indices 1 2 3 4 5 6 
#
# 1 0.019558 -0.005878 -0.002227 0.006950 -0.011971 0.013990
# 2 -0.005878 0.009518 -0.001549 -0.003960 0.005126 -0.004589
# 3 -0.002227 -0.001549 0.025796 -0.004273 0.003083 -0.003984
# 4 0.006950 -0.003960 -0.004273 0.026025 -0.010288 0.010927
# 5 -0.011971 0.005126 0.003083 -0.010288 0.047909 -0.019501
# 6 0.013990 -0.004589 -0.003984 0.010927 -0.019501 0.033606
#
#
# Mechanical properties :
#
#
# Convention : Reuss Voigt Hill
#
# Bulk Modulus (GPa) = 28.11875 41.50730 34.81302
# Shear Modulus (GPa) = 25.82977 39.36444 32.59711
#
# Velocity S-wave (km/s) = 3.17609 3.92089 3.56798
# Velocity P-wave (km/s) = 4.94283 6.05872 5.52900
#
# Compressibility (1/GPa) = 0.03556346
#
# Stress axis : x y z
#
# Youngs Moduli (GPa) = 51.12971 105.06803 38.76548
#
# Poissons Ratio (x) = 0.61763 0.08632
# Poissons Ratio (y) = 0.30056 0.06005
# Poissons Ratio (z) = 0.11385 0.16277
#
# Static dielectric constant tensor:
#      x y z
#    x 2.079430 0.052000 0.042810 
#    y 0.052000 2.002040 0.046700 
#    z 0.042810 0.046700 2.064470 
# 
# From -- ./inp_files/566603.got.cif
#   From: 2010.05.17/outbox.cif.g08.bks.cpg/sg2_284_cif.got.tgz:566603.got - 2010.06.03 11:33:40.
