data_PCOD9062102
_publ_section_title
;
Structure prediction by ZEFSAII (Michael W. Deem and Ramdas Pophale) SiO2 
 PCOD9062102
Probable space group: P -1
;
_chemical_formula_sum "Si O2"
_cell_formula_units_Z 12
_cell_length_a 9.457554
_cell_length_b 9.662410
_cell_length_c 13.160284
_cell_angle_alpha 146.055659
_cell_angle_beta 105.473356
_cell_angle_gamma 58.324416
_cell_volume 534.211423
_symmetry_space_group_name_H-M "P -1"
_symmetry_group_IT_number 2
_symmetry_cell_setting 'triclinic'
loop_
_space_group_symop_operation_xyz
x,y,z
-x,-y,-z
loop_
_atom_site_type_symbol
_atom_site_label
_atom_site_fract_x
_atom_site_fract_y
_atom_site_fract_z
Si Si1 0.571993 0.642066 0.892474
Si Si2 0.711789 0.879034 0.743290
Si Si3 0.080240 0.862962 0.041417
Si Si4 0.327309 0.590024 0.457974
Si Si5 0.471257 0.235177 0.723858
Si Si6 0.841130 0.808164 0.115624
O O1 0.617005 0.536861 0.721572
O O2 0.578745 0.381632 0.800456
O O3 0.692623 0.755232 0.020669
O O4 0.374117 0.925979 0.051143
O O5 0.758839 0.556724 0.586856
O O6 0.559842 0.046896 0.729523
O O7 0.864113 0.925301 0.771229
O O8 0.263370 0.520644 0.867331
O O9 0.923097 0.884831 0.086094
O O10 0.000000 0.000000 0.000000
O O11 0.500000 0.500000 0.500000
O O12 0.213926 0.946232 0.658394
O O13 0.500000 0.000000 0.500000
O O14 0.000000 0.500000 0.000000
#
# Coordination Sequence:
#
# PCOD9062102 Si02
#       6
#     2   2   2   2   2   2
#     4  11  24  46  74 100 137 187 235 284 341 421
#     4  11  23  47  73 103 137 187 240 285 342 423
#     4  11  26  45  69 103 145 179 226 303 349 397
#     4  12  26  42  76 102 136 188 238 280 343 425
#     4  11  25  46  77  99 137 190 241 277 344 431
#     4  12  27  47  68 104 148 176 228 297 355 404
#
# _framework density 22.463018000000002
#
# number of rings (size 3 to 8) (size 9 to 14) (size 15 to 20)
#    0.000    0.667    1.667    6.500    9.333    1.333 
#    6.000    0.000    0.000    0.000    0.000    0.000 
#    0.000    0.000    0.000    0.000    0.000    0.000 
#
# Total GULP energy -67110.649236 kJ/mol
# GULP energy per Si atom -5592.554103 kJ/mol
# Density = 2.241189 g / cm^3
# Si number density = 22.463018 Si / 1000 Ang^3
#
#
#
# Elastic Constant Matrix: (Units=GPa)
#
#
# Indices 1 2 3 4 5 6 
#
# 1 139.5870 4.8358 36.8778 -11.2292 16.8097 17.5102
# 2 4.8358 76.6543 31.0513 -14.3278 -2.5994 5.5570
# 3 36.8778 31.0513 143.8213 -4.0635 19.4644 11.3045
# 4 -11.2292 -14.3278 -4.0635 37.9699 7.7130 -0.3210
# 5 16.8097 -2.5994 19.4644 7.7130 33.1580 0.8067
# 6 17.5102 5.5570 11.3045 -0.3210 0.8067 32.1410
#
#
#
# Elastic Compliance Matrix: (Units=1/GPa)
#
#
# Indices 1 2 3 4 5 6 
#
# 1 0.008870 0.000869 -0.001433 0.003640 -0.004329 -0.004334
# 2 0.000869 0.015623 -0.003512 0.005429 0.001630 -0.001926
# 3 -0.001433 -0.003512 0.008850 0.000148 -0.004740 -0.001605
# 4 0.003640 0.005429 0.000148 0.031226 -0.008711 -0.002443
# 5 -0.004329 0.001630 -0.004740 -0.008711 0.037223 0.002722
# 6 -0.004334 -0.001926 -0.001605 -0.002443 0.002722 0.034279
#
#
# Mechanical properties :
#
#
# Convention : Reuss Voigt Hill
#
# Bulk Modulus (GPa) = 39.69465 56.17692 47.93579
# Shear Modulus (GPa) = 32.76102 39.80696 36.28399
#
# Velocity S-wave (km/s) = 3.82310 4.21421 4.02341
# Velocity P-wave (km/s) = 6.09898 6.98157 6.55515
#
# Compressibility (1/GPa) = 0.02519231
#
# Stress axis : x y z
#
# Youngs Moduli (GPa) = 112.73691 64.00863 112.99046
#
# Poissons Ratio (x) = -0.05559 0.16187
# Poissons Ratio (y) = -0.09792 0.39677
# Poissons Ratio (z) = 0.16150 0.22477
#
# Static dielectric constant tensor:
#      x y z
#    x 1.727620 0.042410 -0.091710 
#    y 0.042410 1.810530 0.058570 
#    z -0.091710 0.058570 1.779140 
# 
# From -- ./inp_files/157811.got.cif
#   From: 2010.05.17/outbox.cif.g08.bks.cpg/sg2_79_cif.got.tgz:157811.got - 2010.06.03 11:33:40.
