data_PCOD9062382
_publ_section_title
;
Structure prediction by ZEFSAII (Michael W. Deem and Ramdas Pophale) SiO2 
 PCOD9062382
Probable space group: P -1
;
_chemical_formula_sum "Si O2"
_cell_formula_units_Z 14
_cell_length_a 14.426861
_cell_length_b 10.133329
_cell_length_c 4.998651
_cell_angle_alpha 111.339615
_cell_angle_beta 74.987838
_cell_angle_gamma 80.359263
_cell_volume 628.995894
_symmetry_space_group_name_H-M "P -1"
_symmetry_group_IT_number 2
_symmetry_cell_setting 'triclinic'
loop_
_space_group_symop_operation_xyz
x,y,z
-x,-y,-z
loop_
_atom_site_type_symbol
_atom_site_label
_atom_site_fract_x
_atom_site_fract_y
_atom_site_fract_z
Si Si1 0.574276 0.601452 0.989372
Si Si2 0.713986 0.587932 0.370397
Si Si3 0.614518 0.179715 0.941279
Si Si4 0.197260 0.732923 0.076025
Si Si5 0.885910 0.066403 0.222335
Si Si6 0.428697 0.006094 0.801567
Si Si7 0.256912 0.121429 0.662119
O O1 0.663955 0.564629 0.674234
O O2 0.500000 0.500000 0.000000
O O3 0.622837 0.615749 0.247022
O O4 0.493624 0.747880 0.046921
O O5 0.754489 0.730077 0.390265
O O6 0.798035 0.435037 0.118350
O O7 0.688963 0.278506 0.928806
O O8 0.676646 0.020048 0.659877
O O9 0.500000 0.000000 0.000000
O O10 0.601387 0.145243 0.237228
O O11 0.127986 0.823703 0.431156
O O12 0.172421 0.835066 0.907102
O O13 0.838809 0.932245 0.227408
O O14 0.000000 0.000000 0.000000
O O15 0.324294 0.123982 0.879354
O O16 0.500000 0.000000 0.500000
#
# Coordination Sequence:
#
# PCOD9062382 Si02
#       7
#     2   2   2   2   2   2   2
#     4  12  26  39  62  94 140 191 238 259 312 393
#     4  12  27  42  62  98 140 181 219 279 332 382
#     4  11  24  40  62  92 132 188 229 268 312 382
#     4  11  24  45  69  96 135 168 216 279 343 401
#     4  11  25  49  78 101 123 169 225 283 347 414
#     4  12  22  35  57  90 130 172 219 264 312 370
#     4  11  26  43  67  97 136 174 230 282 326 391
#
# _framework density 22.257694999999998
#
# number of rings (size 3 to 8) (size 9 to 14) (size 15 to 20)
#    0.000    0.571    4.286    3.429    6.000    0.000 
#    0.000    1.429    0.000    0.000    0.000    0.000 
#    0.000    0.000    0.000    0.000    0.000    0.000 
#
# Total GULP energy -78181.952048 kJ/mol
# GULP energy per Si atom -5584.425146 kJ/mol
# Density = 2.220704 g / cm^3
# Si number density = 22.257695 Si / 1000 Ang^3
#
#
#
# Elastic Constant Matrix: (Units=GPa)
#
#
# Indices 1 2 3 4 5 6 
#
# 1 58.8409 27.4945 29.2603 -3.6096 -19.2336 15.5528
# 2 27.4945 138.5158 58.9495 4.7654 -9.5457 19.2136
# 3 29.2603 58.9495 134.2902 -13.4744 -10.5878 12.9394
# 4 -3.6096 4.7654 -13.4744 38.9388 -2.2888 3.7813
# 5 -19.2336 -9.5457 -10.5878 -2.2888 39.4822 -11.8810
# 6 15.5528 19.2136 12.9394 3.7813 -11.8810 27.6824
#
#
#
# Elastic Compliance Matrix: (Units=1/GPa)
#
#
# Indices 1 2 3 4 5 6 
#
# 1 0.024283 -0.002137 -0.002663 0.002833 0.008454 -0.007674
# 2 -0.002137 0.009813 -0.003780 -0.002383 -0.001009 -0.003951
# 3 -0.002663 -0.003780 0.010205 0.003869 0.000454 -0.000984
# 4 0.002833 -0.002383 0.003869 0.028153 0.002057 -0.004710
# 5 0.008454 -0.001009 0.000454 0.002057 0.032240 0.009295
# 6 -0.007674 -0.003951 -0.000984 -0.004710 0.009295 0.048270
#
#
# Mechanical properties :
#
#
# Convention : Reuss Voigt Hill
#
# Bulk Modulus (GPa) = 36.84429 62.56172 49.70301
# Shear Modulus (GPa) = 27.90643 35.61686 31.76165
#
# Velocity S-wave (km/s) = 3.54473 4.00460 3.78166
# Velocity P-wave (km/s) = 5.77433 7.03927 6.43794
#
# Compressibility (1/GPa) = 0.02714125
#
# Stress axis : x y z
#
# Youngs Moduli (GPa) = 41.18075 101.90915 97.99363
#
# Poissons Ratio (x) = 0.21782 0.26091
# Poissons Ratio (y) = 0.08802 0.37039
# Poissons Ratio (z) = 0.10965 0.38519
#
# Static dielectric constant tensor:
#      x y z
#    x 1.859970 0.074910 0.065290 
#    y 0.074910 1.998110 0.009730 
#    z 0.065290 0.009730 1.933370 
# 
# From -- ./inp_files/89341.got.cif
#   From: 2010.05.17/outbox.cif.g08.bks.cpg/sg2_45_cif.got.tgz:89341.got - 2010.06.03 11:33:40.
