data_PCOD9062425
_publ_section_title
;
Structure prediction by ZEFSAII (Michael W. Deem and Ramdas Pophale) SiO2 
 PCOD9062425
Probable space group: P -1
;
_chemical_formula_sum "Si O2"
_cell_formula_units_Z 16
_cell_length_a 6.939855
_cell_length_b 11.358144
_cell_length_c 17.289635
_cell_angle_alpha 31.638552
_cell_angle_beta 101.955609
_cell_angle_gamma 114.689423
_cell_volume 617.218760
_symmetry_space_group_name_H-M "P -1"
_symmetry_group_IT_number 2
_symmetry_cell_setting 'triclinic'
loop_
_space_group_symop_operation_xyz
x,y,z
-x,-y,-z
loop_
_atom_site_type_symbol
_atom_site_label
_atom_site_fract_x
_atom_site_fract_y
_atom_site_fract_z
Si Si1 0.698034 0.956523 0.946774
Si Si2 0.379127 0.437436 0.124115
Si Si3 0.071056 0.820976 0.844918
Si Si4 0.551032 0.080424 0.302897
Si Si5 0.958132 0.280948 0.558938
Si Si6 0.262933 0.131891 0.440875
Si Si7 0.385956 0.571117 0.324874
Si Si8 0.157766 0.085055 0.844360
O O1 0.528952 0.709534 0.022891
O O2 0.383880 0.836249 0.164078
O O3 0.753048 0.898018 0.069784
O O4 0.924641 0.080085 0.846307
O O5 0.313847 0.225880 0.305283
O O6 0.145877 0.404697 0.087936
O O7 0.523739 0.333560 0.145476
O O8 0.285897 0.920508 0.751401
O O9 0.987304 0.036394 0.720866
O O10 0.116099 0.830016 0.935936
O O11 0.659184 0.056456 0.406290
O O12 0.304338 0.842098 0.414053
O O13 0.156117 0.410129 0.441125
O O14 0.000000 0.500000 0.500000
O O15 0.366848 0.389084 0.355089
O O16 0.000000 0.000000 0.500000
O O17 0.640609 0.678111 0.316213
#
# Coordination Sequence:
#
# PCOD9062425 Si02
#       8
#     2   2   2   2   2   2   2   2
#     4  11  27  48  72 103 140 191 248 288 350 419
#     4  11  25  46  70 103 146 190 235 296 349 430
#     4  11  24  46  70 108 145 181 240 291 373 418
#     4  11  24  43  70 107 143 187 231 292 367 422
#     4  11  24  40  70 107 146 182 225 303 362 427
#     4  12  23  43  72 107 140 186 234 295 359 424
#     4  12  25  44  72 104 143 184 241 295 348 425
#     4  11  26  45  72 103 139 192 239 297 347 421
#
# _framework density 25.922739
#
# number of rings (size 3 to 8) (size 9 to 14) (size 15 to 20)
#    0.000    0.750    3.750    3.000    3.500    5.500 
#    0.000    1.250    0.000    0.000    0.000    0.000 
#    0.000    0.000    0.000    0.000    0.000    0.000 
#
# Total GULP energy -89494.856379 kJ/mol
# GULP energy per Si atom -5593.428524 kJ/mol
# Density = 2.586374 g / cm^3
# Si number density = 25.922739 Si / 1000 Ang^3
#
#
#
# Elastic Constant Matrix: (Units=GPa)
#
#
# Indices 1 2 3 4 5 6 
#
# 1 159.1692 31.5756 39.2359 4.0615 -28.6893 14.0939
# 2 31.5756 132.2570 9.9340 -19.5415 -12.7002 11.3029
# 3 39.2359 9.9340 84.1712 -9.3342 -19.6659 16.7464
# 4 4.0615 -19.5415 -9.3342 43.7133 -9.0840 -10.6847
# 5 -28.6893 -12.7002 -19.6659 -9.0840 57.7033 -3.0737
# 6 14.0939 11.3029 16.7464 -10.6847 -3.0737 56.4382
#
#
#
# Elastic Compliance Matrix: (Units=1/GPa)
#
#
# Indices 1 2 3 4 5 6 
#
# 1 0.007872 -0.001640 -0.002977 -0.001888 0.002188 -0.000992
# 2 -0.001640 0.008818 0.000844 0.004556 0.002097 -0.000630
# 3 -0.002977 0.000844 0.015231 0.004102 0.004386 -0.002930
# 4 -0.001888 0.004556 0.004102 0.028218 0.006118 0.004017
# 5 0.002188 0.002097 0.004386 0.006118 0.021341 0.000052
# 6 -0.000992 -0.000630 -0.002930 0.004017 0.000052 0.019725
#
#
# Mechanical properties :
#
#
# Convention : Reuss Voigt Hill
#
# Bulk Modulus (GPa) = 41.02329 59.67650 50.34989
# Shear Modulus (GPa) = 42.78109 51.22774 47.00441
#
# Velocity S-wave (km/s) = 4.06683 4.45024 4.26285
# Velocity P-wave (km/s) = 6.15725 7.03399 6.61017
#
# Compressibility (1/GPa) = 0.02437640
#
# Stress axis : x y z
#
# Youngs Moduli (GPa) = 127.02935 113.41069 65.65532
#
# Poissons Ratio (x) = 0.18598 0.19543
# Poissons Ratio (y) = 0.20831 -0.05543
# Poissons Ratio (z) = 0.37812 -0.09575
#
# Static dielectric constant tensor:
#      x y z
#    x 2.061190 -0.010590 0.022590 
#    y -0.010590 2.308290 0.032900 
#    z 0.022590 0.032900 2.074020 
# 
# From -- ./inp_files/583013.got.cif
#   From: 2010.05.17/outbox.cif.g08.bks.cpg/sg2_292_cif.got.tgz:583013.got - 2010.06.03 11:33:40.
