data_PCOD9062690
_publ_section_title
;
Structure prediction by ZEFSAII (Michael W. Deem and Ramdas Pophale) SiO2 
 PCOD9062690
Probable space group: P -1
;
_chemical_formula_sum "Si O2"
_cell_formula_units_Z 12
_cell_length_a 5.137309
_cell_length_b 23.175782
_cell_length_c 25.042614
_cell_angle_alpha 11.323313
_cell_angle_beta 120.003165
_cell_angle_gamma 120.701598
_cell_volume 503.366092
_symmetry_space_group_name_H-M "P -1"
_symmetry_group_IT_number 2
_symmetry_cell_setting 'triclinic'
loop_
_space_group_symop_operation_xyz
x,y,z
-x,-y,-z
loop_
_atom_site_type_symbol
_atom_site_label
_atom_site_fract_x
_atom_site_fract_y
_atom_site_fract_z
Si Si1 0.209088 0.668166 0.320988
Si Si2 0.856750 0.597204 0.951970
Si Si3 0.638887 0.481307 0.841284
Si Si4 0.649708 0.730373 0.153795
Si Si5 0.921467 0.179328 0.497393
Si Si6 0.628594 0.939305 0.272119
O O1 0.500000 0.500000 0.500000
O O2 0.000000 0.500000 0.500000
O O3 0.000903 0.661410 0.252622
O O4 0.322834 0.012503 0.032024
O O5 0.872245 0.933319 0.669478
O O6 0.500000 0.500000 0.000000
O O7 0.000000 0.500000 0.000000
O O8 0.078625 0.475538 0.128561
O O9 0.371197 0.656797 0.673759
O O10 0.789762 0.605744 0.688798
O O11 0.520586 0.137388 0.130515
O O12 0.476263 0.404538 0.437504
O O13 0.499998 0.895529 0.940868
O O14 0.023905 0.050381 0.681325
#
# Coordination Sequence:
#
# PCOD9062690 Si02
#       6
#     2   2   2   2   2   2
#     4  11  26  48  73 109 145 188 242 296 353 429
#     4  11  24  42  68 103 140 187 236 293 358 421
#     4  11  25  45  69 102 142 186 240 294 352 429
#     4  11  24  48  74 108 144 192 238 296 358 424
#     4  11  25  45  69 102 142 186 240 294 352 429
#     4  11  24  47  72 107 144 192 238 296 358 425
#
# _framework density 23.839511000000002
#
# number of rings (size 3 to 8) (size 9 to 14) (size 15 to 20)
#    0.000    1.000    3.333    2.000    0.000   13.333 
#    0.000    0.000    0.000    0.000    0.000    0.000 
#    0.000    0.000    0.000    0.000    0.000    0.000 
#
# Total GULP energy -66923.210315 kJ/mol
# GULP energy per Si atom -5576.934193 kJ/mol
# Density = 2.378525 g / cm^3
# Si number density = 23.839511 Si / 1000 Ang^3
#
#
#
# Elastic Constant Matrix: (Units=GPa)
#
#
# Indices 1 2 3 4 5 6 
#
# 1 86.5242 -164.9038 89.7662 -80.4024 27.8592 -112.3338
# 2 -164.9038 -423.2237 125.2811 -240.0271 0.1086 -363.1226
# 3 89.7662 125.2811 187.0860 26.2097 16.7641 54.6980
# 4 -80.4024 -240.0271 26.2097 -45.7361 8.9524 -159.9951
# 5 27.8592 0.1086 16.7641 8.9524 42.3128 13.9250
# 6 -112.3338 -363.1226 54.6980 -159.9951 13.9250 -231.1968
#
#
#
# Elastic Compliance Matrix: (Units=1/GPa)
#
#
# Indices 1 2 3 4 5 6 
#
# 1 0.008674 -0.000586 -0.002275 0.000013 -0.003478 -0.004050
# 2 -0.000586 0.008352 -0.002110 -0.001792 0.005451 -0.011764
# 3 -0.002275 -0.002110 0.006512 0.001408 -0.002956 0.004807
# 4 0.000013 -0.001792 0.001408 0.015938 -0.001312 -0.007966
# 5 -0.003478 0.005451 -0.002956 -0.001312 0.028977 -0.004918
# 6 -0.004050 -0.011764 0.004807 -0.007966 -0.004918 0.022473
#
#
# Mechanical properties :
#
#
# Convention : Reuss Voigt Hill
#
# Bulk Modulus (GPa) = 73.55525 -5.48071 34.03727
# Shear Modulus (GPa) = 47.43856 -60.24117 -6.40130
#
# Velocity S-wave (km/s) = 4.46568 -5.03233 -1.64043
# Velocity P-wave (km/s) = 7.58361 6.00581 3.27424
#
# Compressibility (1/GPa) = 0.01359522
#
# Stress axis : x y z
#
# Youngs Moduli (GPa) = 115.28896 119.72920 153.56889
#
# Poissons Ratio (x) = 0.07021 0.34940
# Poissons Ratio (y) = 0.06761 0.32398
# Poissons Ratio (z) = 0.26230 0.25259
#
# Static dielectric constant tensor:
#      x y z
#    x 1.960190 -0.039000 -0.074060 
#    y -0.039000 1.986960 0.046770 
#    z -0.074060 0.046770 1.990150 
# 
# From -- ./inp_files/580359.got.cif
#   From: 2010.05.17/outbox.cif.g08.bks.cpg/sg2_291_cif.got.tgz:580359.got - 2010.06.03 11:33:40.
