data_PCOD9062252
_publ_section_title
;
Structure prediction by ZEFSAII (Michael W. Deem and Ramdas Pophale) SiO2 
 PCOD9062252
Probable space group: P -1
;
_chemical_formula_sum "Si O2"
_cell_formula_units_Z 15
_cell_length_a 8.958727
_cell_length_b 9.243266
_cell_length_c 13.070822
_cell_angle_alpha 51.814253
_cell_angle_beta 130.107343
_cell_angle_gamma 117.811518
_cell_volume 646.475544
_symmetry_space_group_name_H-M "P -1"
_symmetry_group_IT_number 2
_symmetry_cell_setting 'triclinic'
loop_
_space_group_symop_operation_xyz
x,y,z
-x,-y,-z
loop_
_atom_site_type_symbol
_atom_site_label
_atom_site_fract_x
_atom_site_fract_y
_atom_site_fract_z
Si Si1 0.798054 0.372391 0.497911
Si Si2 0.436216 0.591298 0.224382
Si Si3 0.914389 0.082607 0.209603
Si Si4 0.986261 0.850422 0.151285
Si Si5 0.000000 0.500000 0.000000
Si Si6 0.396133 0.333787 0.961327
Si Si7 0.323319 0.974459 0.512714
Si Si8 0.543319 0.949806 0.240507
O O1 0.611410 0.479723 0.393806
O O2 0.842253 0.237805 0.671880
O O3 0.739079 0.247181 0.425703
O O4 0.000000 0.500000 0.500000
O O5 0.428460 0.771459 0.213913
O O6 0.221546 0.481002 0.161297
O O7 0.524879 0.649854 0.126054
O O8 0.744534 0.002838 0.244820
O O9 0.888239 0.959545 0.150046
O O10 0.127077 0.055518 0.357709
O O11 0.911765 0.295332 0.088739
O O12 0.838381 0.673645 0.129580
O O13 0.000000 0.000000 0.000000
O O14 0.435477 0.134289 0.108229
O O15 0.500000 0.500000 0.000000
O O16 0.500000 0.000000 0.500000
O O17 0.397896 0.067422 0.609399
#
# Coordination Sequence:
#
# PCOD9062252 Si02
#       8
#     2   2   2   2   1   2   2   2
#     4  11  23  48  78 108 153 195 258 319 377 469
#     4  12  24  49  73 111 148 203 258 316 380 455
#     4  11  24  48  70 108 148 201 251 313 380 460
#     4  11  26  45  75 113 152 197 250 318 392 452
#     4  12  26  44  70 102 156 184 256 314 364 444
#     4  12  25  44  74 109 148 201 257 311 383 461
#     4  11  26  48  73 110 151 197 251 319 391 457
#     4  12  25  48  78 102 153 205 253 316 386 464
#
# _framework density 23.202732999999998
#
# number of rings (size 3 to 8) (size 9 to 14) (size 15 to 20)
#    0.000    0.533    4.000    4.000    5.600    0.000 
#    2.400    1.333    0.000    0.000    0.000    0.000 
#    0.000    0.000    0.000    0.000    0.000    0.000 
#
# Total GULP energy -83630.418458 kJ/mol
# GULP energy per Si atom -5575.361231 kJ/mol
# Density = 2.314992 g / cm^3
# Si number density = 23.202733 Si / 1000 Ang^3
#
#
#
# Elastic Constant Matrix: (Units=GPa)
#
#
# Indices 1 2 3 4 5 6 
#
# 1 74.2756 34.2902 23.7104 11.4665 17.6030 17.2172
# 2 34.2902 131.4095 38.3419 21.2317 -2.2217 15.5684
# 3 23.7104 38.3419 103.6399 9.9779 21.9872 -2.3837
# 4 11.4665 21.2317 9.9779 41.2749 -3.2347 8.7363
# 5 17.6030 -2.2217 21.9872 -3.2347 43.7523 7.5530
# 6 17.2172 15.5684 -2.3837 8.7363 7.5530 43.5462
#
#
#
# Elastic Compliance Matrix: (Units=1/GPa)
#
#
# Indices 1 2 3 4 5 6 
#
# 1 0.018500 -0.003578 -0.001435 -0.002490 -0.006307 -0.004521
# 2 -0.003578 0.010441 -0.003734 -0.002575 0.004126 -0.002722
# 3 -0.001435 -0.003734 0.013207 -0.002354 -0.007173 0.004342
# 4 -0.002490 -0.002575 -0.002354 0.028205 0.004958 -0.004742
# 5 -0.006307 0.004126 -0.007173 0.004958 0.030553 -0.005668
# 6 -0.004521 -0.002722 0.004342 -0.004742 -0.005668 0.027897
#
#
# Mechanical properties :
#
#
# Convention : Reuss Voigt Hill
#
# Bulk Modulus (GPa) = 40.56066 55.77890 48.16978
# Shear Modulus (GPa) = 32.35940 39.91352 36.13646
#
# Velocity S-wave (km/s) = 3.73854 4.15204 3.95070
# Velocity P-wave (km/s) = 6.01286 6.86133 6.45106
#
# Compressibility (1/GPa) = 0.02465443
#
# Stress axis : x y z
#
# Youngs Moduli (GPa) = 54.05361 95.77525 75.71871
#
# Poissons Ratio (x) = 0.34264 0.10866
# Poissons Ratio (y) = 0.19338 0.28275
# Poissons Ratio (z) = 0.07757 0.35765
#
# Static dielectric constant tensor:
#      x y z
#    x 1.874450 -0.000200 0.041240 
#    y -0.000200 1.874030 -0.009540 
#    z 0.041240 -0.009540 1.938210 
# 
# From -- ./inp_files/381549.got.cif
#   From: 2010.05.17/outbox.cif.g08.bks.cpg/sg2_191_cif.got.tgz:381549.got - 2010.06.03 11:33:40.
