data_PCOD9062350
_publ_section_title
;
Structure prediction by ZEFSAII (Michael W. Deem and Ramdas Pophale) SiO2 
 PCOD9062350
Probable space group: P -1
;
_chemical_formula_sum "Si O2"
_cell_formula_units_Z 16
_cell_length_a 9.176703
_cell_length_b 10.913709
_cell_length_c 13.191669
_cell_angle_alpha 134.425656
_cell_angle_beta 83.438179
_cell_angle_gamma 114.406337
_cell_volume 827.532962
_symmetry_space_group_name_H-M "P -1"
_symmetry_group_IT_number 2
_symmetry_cell_setting 'triclinic'
loop_
_space_group_symop_operation_xyz
x,y,z
-x,-y,-z
loop_
_atom_site_type_symbol
_atom_site_label
_atom_site_fract_x
_atom_site_fract_y
_atom_site_fract_z
Si Si1 0.933896 0.354390 0.227377
Si Si2 0.792497 0.097967 0.275480
Si Si3 0.530386 0.313692 0.903370
Si Si4 0.508910 0.802961 0.372717
Si Si5 0.867105 0.456909 0.076464
Si Si6 0.834805 0.803551 0.387569
Si Si7 0.281300 0.570380 0.425108
Si Si8 0.145490 0.320990 0.474956
O O1 0.127018 0.440497 0.288854
O O2 0.833276 0.161896 0.191414
O O3 0.897907 0.348767 0.107820
O O4 0.893769 0.515298 0.376980
O O5 0.741913 0.251483 0.421761
O O6 0.970593 0.152621 0.346409
O O7 0.641329 0.881388 0.171679
O O8 0.592192 0.290816 0.774509
O O9 0.500000 0.500000 0.000000
O O10 0.677695 0.345766 0.986750
O O11 0.694183 0.835282 0.361755
O O12 0.437301 0.667135 0.396521
O O13 0.500000 0.000000 0.500000
O O14 0.877084 0.653507 0.237145
O O15 0.000000 0.500000 0.000000
O O16 0.783504 0.742363 0.472965
O O17 0.000000 0.000000 0.500000
O O18 0.269141 0.428489 0.435070
#
# Coordination Sequence:
#
# PCOD9062350 Si02
#       8
#     2   2   2   2   2   2   2   2
#     4   8  17  35  61  90 113 154 201 245 296 353
#     4   9  17  35  62  88 118 154 199 243 299 357
#     4  12  24  39  57  88 126 163 196 244 303 355
#     4  12  24  38  63  90 120 161 204 244 296 356
#     4  11  24  40  61  87 122 161 198 247 302 357
#     4  11  24  39  61  90 121 156 203 250 295 355
#     4   9  17  34  62  90 115 149 202 251 292 349
#     4   8  17  34  61  89 116 150 196 254 297 340
#
# _framework density 19.334576999999999
#
# number of rings (size 3 to 8) (size 9 to 14) (size 15 to 20)
#    0.000    2.000    2.500    3.000    5.250    1.000 
#    0.000    0.000    2.750    2.250    0.000    0.000 
#    0.000    0.000    0.000    0.000    0.000    0.000 
#
# Total GULP energy -89178.782822 kJ/mol
# GULP energy per Si atom -5573.673926 kJ/mol
# Density = 1.929057 g / cm^3
# Si number density = 19.334577 Si / 1000 Ang^3
#
#
#
# Elastic Constant Matrix: (Units=GPa)
#
#
# Indices 1 2 3 4 5 6 
#
# 1 60.5217 49.8125 31.5332 -6.1925 17.2205 -2.2701
# 2 49.8125 150.3298 64.7069 -9.2566 18.8458 11.9133
# 3 31.5332 64.7069 103.0985 -12.6016 17.2316 -2.5777
# 4 -6.1925 -9.2566 -12.6016 38.2323 -3.2660 5.8711
# 5 17.2205 18.8458 17.2316 -3.2660 25.9616 -4.0162
# 6 -2.2701 11.9133 -2.5777 5.8711 -4.0162 27.9892
#
#
#
# Elastic Compliance Matrix: (Units=1/GPa)
#
#
# Indices 1 2 3 4 5 6 
#
# 1 0.026308 -0.006800 -0.001832 0.000604 -0.010729 0.003193
# 2 -0.006800 0.011907 -0.005176 0.000941 -0.001588 -0.006522
# 3 -0.001832 -0.005176 0.014547 0.002552 -0.004009 0.002284
# 4 0.000604 0.000941 0.002552 0.028240 -0.000163 -0.006064
# 5 -0.010729 -0.001588 -0.004009 -0.000163 0.050466 0.006712
# 6 0.003193 -0.006522 0.002284 -0.006064 0.006712 0.041208
#
#
# Mechanical properties :
#
#
# Convention : Reuss Voigt Hill
#
# Bulk Modulus (GPa) = 39.76582 67.33946 53.55264
# Shear Modulus (GPa) = 23.96076 29.62977 26.79526
#
# Velocity S-wave (km/s) = 3.52415 3.91893 3.72677
# Velocity P-wave (km/s) = 6.09683 7.44187 6.80268
#
# Compressibility (1/GPa) = 0.02514723
#
# Stress axis : x y z
#
# Youngs Moduli (GPa) = 38.01091 83.98513 68.74117
#
# Poissons Ratio (x) = 0.57107 0.12594
# Poissons Ratio (y) = 0.25846 0.35580
# Poissons Ratio (z) = 0.06964 0.43470
#
# Static dielectric constant tensor:
#      x y z
#    x 1.660930 -0.009870 0.027300 
#    y -0.009870 1.756270 -0.058770 
#    z 0.027300 -0.058770 1.679540 
# 
# From -- ./inp_files/391347.got.cif
#   From: 2010.05.17/outbox.cif.g08.bks.cpg/sg2_196_cif.got.tgz:391347.got - 2010.06.03 11:33:40.
