data_PCOD9062452
_publ_section_title
;
Structure prediction by ZEFSAII (Michael W. Deem and Ramdas Pophale) SiO2 
 PCOD9062452
Probable space group: P -1
;
_chemical_formula_sum "Si O2"
_cell_formula_units_Z 14
_cell_length_a 23.847621
_cell_length_b 5.285310
_cell_length_c 6.321754
_cell_angle_alpha 130.881688
_cell_angle_beta 94.302391
_cell_angle_gamma 79.393864
_cell_volume 591.035576
_symmetry_space_group_name_H-M "P -1"
_symmetry_group_IT_number 2
_symmetry_cell_setting 'triclinic'
loop_
_space_group_symop_operation_xyz
x,y,z
-x,-y,-z
loop_
_atom_site_type_symbol
_atom_site_label
_atom_site_fract_x
_atom_site_fract_y
_atom_site_fract_z
Si Si1 0.148864 0.609131 0.974279
Si Si2 0.238212 0.541642 0.612531
Si Si3 0.960134 0.241329 0.280238
Si Si4 0.613829 0.683348 0.032928
Si Si5 0.131844 0.917142 0.560782
Si Si6 0.463771 0.734666 0.441961
Si Si7 0.685894 0.037351 0.935060
O O1 0.208816 0.550618 0.839312
O O2 0.097692 0.651140 0.813312
O O3 0.142739 0.247109 0.872663
O O4 0.138810 0.908965 0.305042
O O5 0.184529 0.629708 0.488622
O O6 0.276276 0.193742 0.355393
O O7 0.275755 0.837841 0.800713
O O8 0.932192 0.119222 0.417922
O O9 0.000000 0.500000 0.500000
O O10 0.000000 0.000000 0.000000
O O11 0.558875 0.521044 0.864700
O O12 0.653368 0.386159 0.012016
O O13 0.644651 0.806323 0.903514
O O14 0.592023 0.024159 0.345641
O O15 0.500000 0.500000 0.500000
O O16 0.500000 0.000000 0.500000
#
# Coordination Sequence:
#
# PCOD9062452 Si02
#       7
#     2   2   2   2   2   2   2
#     4  11  24  42  66  93 128 172 233 276 338 437
#     4  11  26  43  66  97 130 186 226 285 352 416
#     4  11  24  41  62  95 132 165 220 286 350 412
#     4  12  26  45  68 110 140 183 240 288 348 412
#     4  11  24  42  66  93 128 172 233 276 338 437
#     4  12  24  45  74 101 142 190 234 286 346 412
#     4  12  26  44  70  99 148 182 232 299 350 414
#
# _framework density 23.687239000000002
#
# number of rings (size 3 to 8) (size 9 to 14) (size 15 to 20)
#    0.000    0.571    0.000    7.714    6.000    8.000 
#    0.000    0.000    0.000    0.000    0.000    0.000 
#    0.000    0.000    0.000    0.000    0.000    0.000 
#
# Total GULP energy -78301.730168 kJ/mol
# GULP energy per Si atom -5592.980726 kJ/mol
# Density = 2.363333 g / cm^3
# Si number density = 23.687239 Si / 1000 Ang^3
#
#
#
# Elastic Constant Matrix: (Units=GPa)
#
#
# Indices 1 2 3 4 5 6 
#
# 1 106.1565 33.1965 23.8101 6.3876 -8.3789 10.3952
# 2 33.1965 94.4456 7.3527 9.6768 -12.6115 -0.3511
# 3 23.8101 7.3527 127.8312 16.2119 -7.4023 -1.0281
# 4 6.3876 9.6768 16.2119 31.4472 -2.0661 1.3795
# 5 -8.3789 -12.6115 -7.4023 -2.0661 51.8968 5.6509
# 6 10.3952 -0.3511 -1.0281 1.3795 5.6509 36.6765
#
#
#
# Elastic Compliance Matrix: (Units=1/GPa)
#
#
# Indices 1 2 3 4 5 6 
#
# 1 0.011439 -0.003749 -0.001885 0.000024 0.001048 -0.003493
# 2 -0.003749 0.012505 0.000531 -0.003253 0.002274 0.000969
# 3 -0.001885 0.000531 0.008738 -0.004268 0.000812 0.000820
# 4 0.000024 -0.003253 -0.004268 0.035072 0.000164 -0.001502
# 5 0.001048 0.002274 0.000812 0.000164 0.020485 -0.003415
# 6 -0.003493 0.000969 0.000820 -0.001502 -0.003415 0.028870
#
#
# Mechanical properties :
#
#
# Convention : Reuss Voigt Hill
#
# Bulk Modulus (GPa) = 44.49371 50.79468 47.64420
# Shear Modulus (GPa) = 37.08948 41.60903 39.34926
#
# Velocity S-wave (km/s) = 3.96131 4.19573 4.08020
# Velocity P-wave (km/s) = 6.30454 6.70542 6.50807
#
# Compressibility (1/GPa) = 0.02247509
#
# Stress axis : x y z
#
# Youngs Moduli (GPa) = 87.42222 79.96658 114.43832
#
# Poissons Ratio (x) = 0.29982 0.21577
# Poissons Ratio (y) = 0.32777 -0.06079
# Poissons Ratio (z) = 0.16483 -0.04248
#
# Static dielectric constant tensor:
#      x y z
#    x 1.919380 0.022790 -0.002930 
#    y 0.022790 2.046350 -0.035100 
#    z -0.002930 -0.035100 1.817140 
# 
# From -- ./inp_files/12868.got.cif
#   From: 2010.05.17/outbox.cif.g08.bks.cpg/sg2_7_cif.got.tgz:12868.got - 2010.06.03 11:33:40.
