data_PCOD9062700
_publ_section_title
;
Structure prediction by ZEFSAII (Michael W. Deem and Ramdas Pophale) SiO2 
 PCOD9062700
Probable space group: P -1
;
_chemical_formula_sum "Si O2"
_cell_formula_units_Z 16
_cell_length_a 17.077598
_cell_length_b 13.326366
_cell_length_c 9.009007
_cell_angle_alpha 106.561429
_cell_angle_beta 112.061224
_cell_angle_gamma 133.238667
_cell_volume 824.503556
_symmetry_space_group_name_H-M "P -1"
_symmetry_group_IT_number 2
_symmetry_cell_setting 'triclinic'
loop_
_space_group_symop_operation_xyz
x,y,z
-x,-y,-z
loop_
_atom_site_type_symbol
_atom_site_label
_atom_site_fract_x
_atom_site_fract_y
_atom_site_fract_z
Si Si1 0.781654 0.231898 0.220062
Si Si2 0.538604 0.167107 0.622570
Si Si3 0.120085 0.349133 0.087819
Si Si4 0.620626 0.693519 0.789037
Si Si5 0.963038 0.950731 0.276389
Si Si6 0.280392 0.440013 0.550769
Si Si7 0.227147 0.942823 0.123965
Si Si8 0.452817 0.816621 0.018709
O O1 0.000000 0.500000 0.500000
O O2 0.661923 0.054864 0.199134
O O3 0.779621 0.146465 0.051571
O O4 0.658437 0.197066 0.078199
O O5 0.733342 0.416457 0.794078
O O6 0.537427 0.194430 0.805760
O O7 0.500000 0.000000 0.500000
O O8 0.386891 0.073255 0.396825
O O9 0.219179 0.404302 0.324954
O O10 0.041798 0.171603 0.848502
O O11 0.958789 0.243956 0.994322
O O12 0.500000 0.500000 0.500000
O O13 0.471357 0.585825 0.740966
O O14 0.730511 0.900727 0.859044
O O15 0.763541 0.780196 0.017994
O O16 0.000000 0.000000 0.500000
O O17 0.119682 0.192923 0.406449
O O18 0.331071 0.598980 0.747673
#
# Coordination Sequence:
#
# PCOD9062700 Si02
#       8
#     2   2   2   2   2   2   2   2
#     4  11  24  42  68  96 135 182 235 285 347 417
#     4  12  26  45  67 100 147 183 230 296 349 404
#     4  12  25  45  71 103 141 187 235 287 347 427
#     4  12  23  43  74 101 137 186 235 279 354 427
#     4  12  27  46  72 110 145 180 234 302 355 414
#     4  12  23  43  76  99 138 184 236 287 352 424
#     4  12  24  44  71 101 134 189 235 278 354 424
#     4  11  25  43  66 101 137 179 232 294 347 407
#
# _framework density 19.405618
#
# number of rings (size 3 to 8) (size 9 to 14) (size 15 to 20)
#    0.000    0.250    6.250    2.625    3.500    3.000 
#    0.000    0.000    0.000    0.000    0.000    0.000 
#    0.000    0.000    0.000    0.000    0.000    0.000 
#
# Total GULP energy -89430.856138 kJ/mol
# GULP energy per Si atom -5589.428509 kJ/mol
# Density = 1.936145 g / cm^3
# Si number density = 19.405618 Si / 1000 Ang^3
#
#
#
# Elastic Constant Matrix: (Units=GPa)
#
#
# Indices 1 2 3 4 5 6 
#
# 1 104.8518 102.3094 27.3655 3.0148 21.6695 27.5992
# 2 102.3094 57.1501 101.3908 21.6706 -58.4596 21.2151
# 3 27.3655 101.3908 92.6659 -2.2519 8.2246 24.2185
# 4 3.0148 21.6706 -2.2519 43.1457 9.0300 2.4461
# 5 21.6695 -58.4596 8.2246 9.0300 26.3957 3.0428
# 6 27.5992 21.2151 24.2185 2.4461 3.0428 34.1799
#
#
#
# Elastic Compliance Matrix: (Units=1/GPa)
#
#
# Indices 1 2 3 4 5 6 
#
# 1 0.007883 0.003555 -0.005444 -0.003349 0.004808 -0.004902
# 2 0.003555 -0.001829 0.002539 0.002719 -0.008346 -0.002985
# 3 -0.005444 0.002539 0.010158 -0.001780 0.008108 -0.004972
# 4 -0.003349 0.002719 -0.001780 0.021524 0.001896 0.000568
# 5 0.004808 -0.008346 0.008108 0.001896 0.012940 -0.005735
# 6 -0.004902 -0.002985 -0.004972 0.000568 -0.005735 0.039061
#
#
# Mechanical properties :
#
#
# Convention : Reuss Voigt Hill
#
# Bulk Modulus (GPa) = 57.11017 79.64436 68.37726
# Shear Modulus (GPa) = 53.03619 22.31772 37.67695
#
# Velocity S-wave (km/s) = 5.23351 3.39494 4.41108
# Velocity P-wave (km/s) = 8.12485 7.51655 7.82661
#
# Compressibility (1/GPa) = 0.01751002
#
# Stress axis : x y z
#
# Youngs Moduli (GPa) = 126.85948 -546.74077 98.44330
#
# Poissons Ratio (x) = 1.94342 0.53593
# Poissons Ratio (y) = -0.45093 -0.24990
# Poissons Ratio (z) = 0.69062 1.38792
#
# Static dielectric constant tensor:
#      x y z
#    x 1.672980 0.002150 -0.006460 
#    y 0.002150 1.694940 0.033090 
#    z -0.006460 0.033090 1.661250 
# 
# From -- ./inp_files/282838.got.cif
#   From: 2010.05.17/outbox.cif.g08.bks.cpg/sg2_142_cif.got.tgz:282838.got - 2010.06.03 11:33:40.
