data_PCOD9062727
_publ_section_title
;
Structure prediction by ZEFSAII (Michael W. Deem and Ramdas Pophale) SiO2 
 PCOD9062727
Probable space group: P -1
;
_chemical_formula_sum "Si O2"
_cell_formula_units_Z 14
_cell_length_a 9.484084
_cell_length_b 21.782544
_cell_length_c 20.582541
_cell_angle_alpha 19.850654
_cell_angle_beta 151.265300
_cell_angle_gamma 150.144974
_cell_volume 670.177500
_symmetry_space_group_name_H-M "P -1"
_symmetry_group_IT_number 2
_symmetry_cell_setting 'triclinic'
loop_
_space_group_symop_operation_xyz
x,y,z
-x,-y,-z
loop_
_atom_site_type_symbol
_atom_site_label
_atom_site_fract_x
_atom_site_fract_y
_atom_site_fract_z
Si Si1 0.883395 0.029938 0.586094
Si Si2 0.849555 0.496423 0.635928
Si Si3 0.604452 0.314872 0.244737
Si Si4 0.826890 0.916336 0.946901
Si Si5 0.140251 0.928727 0.926464
Si Si6 0.798016 0.485417 0.368582
Si Si7 0.709636 0.892806 0.447473
O O1 0.682620 0.181472 0.352700
O O2 0.166126 0.093322 0.589708
O O3 0.659490 0.827597 0.679336
O O4 0.997761 0.998540 0.735998
O O5 0.500000 0.500000 0.500000
O O6 0.078353 0.627047 0.647614
O O7 0.983026 0.549625 0.565453
O O8 0.907064 0.293851 0.873885
O O9 0.500000 0.500000 0.000000
O O10 0.014346 0.981502 0.891532
O O11 0.529356 0.987792 0.756516
O O12 0.746462 0.691320 0.136216
O O13 0.000000 0.000000 0.000000
O O14 0.500000 0.000000 0.000000
O O15 0.485465 0.321185 0.405727
O O16 0.000000 0.500000 0.500000
O O17 0.000000 0.000000 0.500000
#
# Coordination Sequence:
#
# PCOD9062727 Si02
#       7
#     2   2   2   2   2   2   2
#     4  11  26  43  72 101 138 180 234 285 341 425
#     4  11  25  42  70 102 134 179 228 289 345 404
#     4  11  24  45  69 101 138 177 227 285 350 404
#     4  11  25  46  71 100 142 186 229 292 352 414
#     4  11  24  42  69 105 136 175 240 285 340 416
#     4  11  26  45  70 102 139 180 240 282 342 429
#     4  12  28  46  71 102 145 189 228 287 359 414
#
# _framework density 20.889987000000001
#
# number of rings (size 3 to 8) (size 9 to 14) (size 15 to 20)
#    0.000    0.857    2.857    2.571   12.000    2.857 
#    0.000    0.000    0.000    0.000    0.000    0.000 
#    0.000    0.000    0.000    0.000    0.000    0.000 
#
# Total GULP energy -78214.638071 kJ/mol
# GULP energy per Si atom -5586.759862 kJ/mol
# Density = 2.084244 g / cm^3
# Si number density = 20.889987 Si / 1000 Ang^3
#
#
#
# Elastic Constant Matrix: (Units=GPa)
#
#
# Indices 1 2 3 4 5 6 
#
# 1 169.0826 63.2559 62.9997 2.1100 5.9725 25.0486
# 2 63.2559 172.4315 56.0203 2.8654 -2.0414 14.3419
# 3 62.9997 56.0203 142.6801 -7.4881 18.4709 10.3643
# 4 2.1100 2.8654 -7.4881 45.9855 3.9384 -1.5717
# 5 5.9725 -2.0414 18.4709 3.9384 30.7242 6.4342
# 6 25.0486 14.3419 10.3643 -1.5717 6.4342 36.7876
#
#
#
# Elastic Compliance Matrix: (Units=1/GPa)
#
#
# Indices 1 2 3 4 5 6 
#
# 1 0.008230 -0.001709 -0.002830 -0.000969 0.001025 -0.004361
# 2 -0.001709 0.007404 -0.002453 -0.001072 0.002763 -0.001561
# 3 -0.002830 -0.002453 0.010071 0.002500 -0.006249 0.001245
# 4 -0.000969 -0.001072 0.002500 0.022746 -0.004758 0.002177
# 5 0.001025 0.002763 -0.006249 -0.004758 0.038349 -0.006925
# 6 -0.004361 -0.001561 0.001245 0.002177 -0.006925 0.031714
#
#
# Mechanical properties :
#
#
# Convention : Reuss Voigt Hill
#
# Bulk Modulus (GPa) = 85.31403 94.30512 89.80957
# Shear Modulus (GPa) = 36.65594 42.82735 39.74165
#
# Velocity S-wave (km/s) = 4.19347 4.53276 4.36641
# Velocity P-wave (km/s) = 8.02342 8.52269 8.27682
#
# Compressibility (1/GPa) = 0.01172140
#
# Stress axis : x y z
#
# Youngs Moduli (GPa) = 121.50940 135.07049 99.29595
#
# Poissons Ratio (x) = 0.23081 0.28098
# Poissons Ratio (y) = 0.20763 0.24357
# Poissons Ratio (z) = 0.34384 0.33132
#
# Static dielectric constant tensor:
#      x y z
#    x 1.791130 -0.010930 -0.043880 
#    y -0.010930 1.839890 -0.097430 
#    z -0.043880 -0.097430 1.800760 
# 
# From -- ./inp_files/306561.got.cif
#   From: 2010.05.17/outbox.cif.g08.bks.cpg/sg2_154_cif.got.tgz:306561.got - 2010.06.03 11:33:40.
