data_PCOD9062388
_publ_section_title
;
Structure prediction by ZEFSAII (Michael W. Deem and Ramdas Pophale) SiO2 
 PCOD9062388
Probable space group: P -1
;
_chemical_formula_sum "Si O2"
_cell_formula_units_Z 13
_cell_length_a 6.562258
_cell_length_b 13.262036
_cell_length_c 6.562260
_cell_angle_alpha 88.986443
_cell_angle_beta 72.905435
_cell_angle_gamma 88.986435
_cell_volume 545.743302
_symmetry_space_group_name_H-M "P -1"
_symmetry_group_IT_number 2
_symmetry_cell_setting 'triclinic'
loop_
_space_group_symop_operation_xyz
x,y,z
-x,-y,-z
loop_
_atom_site_type_symbol
_atom_site_label
_atom_site_fract_x
_atom_site_fract_y
_atom_site_fract_z
Si Si1 0.000000 0.000000 0.000000
Si Si2 0.171693 0.436912 0.581394
Si Si3 0.581394 0.436912 0.171693
Si Si4 0.916674 0.790706 0.303859
Si Si5 0.439701 0.098766 0.822642
Si Si6 0.696141 0.209294 0.083326
Si Si7 0.177358 0.901234 0.560299
O O1 0.949837 0.022660 0.260692
O O2 0.260692 0.022660 0.949837
O O3 0.379641 0.418854 0.379641
O O4 0.248574 0.500000 0.751426
O O5 0.081256 0.329353 0.676075
O O6 0.000000 0.500000 0.500000
O O7 0.676076 0.329353 0.081256
O O8 0.500000 0.500000 0.000000
O O9 0.687217 0.827977 0.299530
O O10 0.016435 0.834621 0.477491
O O11 0.072500 0.828884 0.072500
O O12 0.639952 0.055164 0.639951
O O13 0.522509 0.165379 0.983565
O O14 0.700470 0.172023 0.312783
#
# Coordination Sequence:
#
# PCOD9062388 Si02
#       7
#     1   2   2   2   2   2   2
#     4  12  26  48  72 100 132 180 228 278 354 398
#     4  11  24  40  64 100 136 177 226 276 325 398
#     4  11  24  40  64 100 136 177 226 276 325 398
#     4  11  24  45  69  99 138 180 224 275 343 398
#     4  11  26  46  69 102 135 178 225 283 335 407
#     4  11  24  45  69  99 138 180 224 275 343 398
#     4  11  26  46  69 102 135 178 225 283 335 407
#
# _framework density 23.820726000000001
#
# number of rings (size 3 to 8) (size 9 to 14) (size 15 to 20)
#    0.000    0.923    1.538    4.154    4.308   11.077 
#    0.000    0.000    0.000    0.000    0.000    0.000 
#    0.000    0.000    0.000    0.000    0.000    0.000 
#
# Total GULP energy -72678.659938 kJ/mol
# GULP energy per Si atom -5590.666149 kJ/mol
# Density = 2.376651 g / cm^3
# Si number density = 23.820726 Si / 1000 Ang^3
#
#
#
# Elastic Constant Matrix: (Units=GPa)
#
#
# Indices 1 2 3 4 5 6 
#
# 1 165.5204 65.7645 83.1461 16.1747 17.0332 12.7887
# 2 65.7645 120.2149 66.8210 11.9150 4.7488 15.3425
# 3 83.1461 66.8210 158.6288 9.1425 9.9728 18.6562
# 4 16.1747 11.9150 9.1425 44.3228 2.7540 9.5892
# 5 17.0332 4.7488 9.9728 2.7540 60.3264 3.4041
# 6 12.7887 15.3425 18.6562 9.5892 3.4041 47.0652
#
#
#
# Elastic Compliance Matrix: (Units=1/GPa)
#
#
# Indices 1 2 3 4 5 6 
#
# 1 0.009279 -0.002951 -0.003440 -0.001840 -0.001752 0.000306
# 2 -0.002951 0.012078 -0.003319 -0.001170 0.000576 -0.001623
# 3 -0.003440 -0.003319 0.009717 0.000579 -0.000291 -0.001932
# 4 -0.001840 -0.001170 0.000579 0.024378 -0.000355 -0.004289
# 5 -0.001752 0.000576 -0.000291 -0.000355 0.017133 -0.000763
# 6 0.000306 -0.001623 -0.001932 -0.004289 -0.000763 0.023388
#
#
# Mechanical properties :
#
#
# Convention : Reuss Voigt Hill
#
# Bulk Modulus (GPa) = 85.80832 97.31413 91.56122
# Shear Modulus (GPa) = 41.91868 45.58506 43.75187
#
# Velocity S-wave (km/s) = 4.19950 4.37930 4.29034
# Velocity P-wave (km/s) = 7.72108 8.15551 7.94127
#
# Compressibility (1/GPa) = 0.01165388
#
# Stress axis : x y z
#
# Youngs Moduli (GPa) = 107.77371 82.79509 102.90920
#
# Poissons Ratio (x) = 0.24435 0.35401
# Poissons Ratio (y) = 0.31807 0.34153
# Poissons Ratio (z) = 0.37075 0.27477
#
# Static dielectric constant tensor:
#      x y z
#    x 1.896740 0.004530 -0.007050 
#    y 0.004530 1.737090 -0.006860 
#    z -0.007050 -0.006860 1.899250 
# 
# From -- ./inp_files/3463.got.cif
#   From: 2010.05.17/outbox.cif.g08.bks.cpg/sg2_2_cif.got.tgz:3463.got - 2010.06.03 11:33:40.
