data_PCOD9062912
_publ_section_title
;
Structure prediction by ZEFSAII (Michael W. Deem and Ramdas Pophale) SiO2 
 PCOD9062912
Probable space group: P -1
;
_chemical_formula_sum "Si O2"
_cell_formula_units_Z 12
_cell_length_a 7.902976
_cell_length_b 8.023776
_cell_length_c 11.558841
_cell_angle_alpha 56.638290
_cell_angle_beta 124.200121
_cell_angle_gamma 125.842789
_cell_volume 464.008600
_symmetry_space_group_name_H-M "P -1"
_symmetry_group_IT_number 2
_symmetry_cell_setting 'triclinic'
loop_
_space_group_symop_operation_xyz
x,y,z
-x,-y,-z
loop_
_atom_site_type_symbol
_atom_site_label
_atom_site_fract_x
_atom_site_fract_y
_atom_site_fract_z
Si Si1 0.735719 0.358727 0.966282
Si Si2 0.664070 0.529086 0.236046
Si Si3 0.881123 0.148702 0.731583
Si Si4 0.193290 0.879576 0.555715
Si Si5 0.522605 0.017740 0.810906
Si Si6 0.739797 0.559265 0.519905
O O1 0.585079 0.496988 0.874907
O O2 0.644118 0.215054 0.870274
O O3 0.000000 0.500000 0.000000
O O4 0.649856 0.181966 0.104132
O O5 0.711625 0.312511 0.330439
O O6 0.717733 0.598903 0.362302
O O7 0.858991 0.741701 0.173331
O O8 0.828384 0.065919 0.608818
O O9 0.719806 0.988925 0.824893
O O10 0.815114 0.357817 0.630725
O O11 0.952500 0.765718 0.566912
O O12 0.369407 0.055461 0.637854
O O13 0.500000 0.500000 0.500000
#
# Coordination Sequence:
#
# PCOD9062912 Si02
#       6
#     2   2   2   2   2   2
#     4  11  27  46  62  88 131 178 215 257 305 375
#     4   9  20  40  64  92 127 169 211 253 318 376
#     4   9  19  39  65  97 130 153 207 269 319 381
#     4   9  20  39  66 101 124 158 210 265 321 377
#     4  11  24  43  66  93 128 166 218 260 313 372
#     4   9  17  33  66  96 126 169 198 253 332 378
#
# _framework density 25.861588999999999
#
# number of rings (size 3 to 8) (size 9 to 14) (size 15 to 20)
#    0.000    2.333    0.000    3.500    7.000    1.333 
#    6.000    7.500    0.000    0.000    0.000    0.000 
#    0.000    0.000    0.000    0.000    0.000    0.000 
#
# Total GULP energy -67077.718541 kJ/mol
# GULP energy per Si atom -5589.809878 kJ/mol
# Density = 2.580273 g / cm^3
# Si number density = 25.861589 Si / 1000 Ang^3
#
#
#
# Elastic Constant Matrix: (Units=GPa)
#
#
# Indices 1 2 3 4 5 6 
#
# 1 159.8579 60.2133 60.3209 11.0368 7.4543 52.2213
# 2 60.2133 138.7379 55.4953 20.3719 -1.5273 35.6255
# 3 60.3209 55.4953 98.1949 11.3437 3.7437 11.5763
# 4 11.0368 20.3719 11.3437 29.9798 -0.6552 3.1457
# 5 7.4543 -1.5273 3.7437 -0.6552 49.5954 10.3189
# 6 52.2213 35.6255 11.5763 3.1457 10.3189 45.2180
#
#
#
# Elastic Compliance Matrix: (Units=1/GPa)
#
#
# Indices 1 2 3 4 5 6 
#
# 1 0.013279 0.000952 -0.006877 -0.001368 0.001570 -0.014588
# 2 0.000952 0.012496 -0.005975 -0.005513 0.002623 -0.009630
# 3 -0.006877 -0.005975 0.016915 -0.000792 -0.002289 0.008896
# 4 -0.001368 -0.005513 -0.000792 0.037530 -0.000147 0.003549
# 5 0.001570 0.002623 -0.002289 -0.000147 0.021902 -0.008282
# 6 -0.014588 -0.009630 0.008896 0.003549 -0.008282 0.045914
#
#
# Mechanical properties :
#
#
# Convention : Reuss Voigt Hill
#
# Bulk Modulus (GPa) = 52.93900 83.20553 68.07226
# Shear Modulus (GPa) = 28.06914 39.67605 33.87260
#
# Velocity S-wave (km/s) = 3.29805 3.92110 3.62299
# Velocity P-wave (km/s) = 5.91755 7.26245 6.62422
#
# Compressibility (1/GPa) = 0.01888967
#
# Stress axis : x y z
#
# Youngs Moduli (GPa) = 75.30887 80.02726 59.11950
#
# Poissons Ratio (x) = -0.07617 0.40656
# Poissons Ratio (y) = -0.07168 0.35321
# Poissons Ratio (z) = 0.51790 0.47813
#
# Static dielectric constant tensor:
#      x y z
#    x 2.355600 0.007360 0.014540 
#    y 0.007360 2.133490 -0.044560 
#    z 0.014540 -0.044560 2.031620 
# 
# From -- ./inp_files/296173.got.cif
#   From: 2010.05.17/outbox.cif.g08.bks.cpg/sg2_149_cif.got.tgz:296173.got - 2010.06.03 11:33:40.
