data_PCOD9062895
_publ_section_title
;
Structure prediction by ZEFSAII (Michael W. Deem and Ramdas Pophale) SiO2 
 PCOD9062895
Probable space group: P -1
;
_chemical_formula_sum "Si O2"
_cell_formula_units_Z 16
_cell_length_a 13.009801
_cell_length_b 14.704945
_cell_length_c 12.345633
_cell_angle_alpha 19.379080
_cell_angle_beta 90.006542
_cell_angle_gamma 92.351778
_cell_volume 777.708353
_symmetry_space_group_name_H-M "P -1"
_symmetry_group_IT_number 2
_symmetry_cell_setting 'triclinic'
loop_
_space_group_symop_operation_xyz
x,y,z
-x,-y,-z
loop_
_atom_site_type_symbol
_atom_site_label
_atom_site_fract_x
_atom_site_fract_y
_atom_site_fract_z
Si Si1 0.486128 0.296838 0.127618
Si Si2 0.673733 0.459053 0.783804
Si Si3 0.186872 0.012107 0.744923
Si Si4 0.925537 0.224573 0.772272
Si Si5 0.506775 0.692965 0.384882
Si Si6 0.684530 0.600818 0.146343
Si Si7 0.996687 0.815754 0.599199
Si Si8 0.179331 0.861100 0.368498
O O1 0.500000 0.000000 0.500000
O O2 0.500000 0.500000 0.000000
O O3 0.579391 0.383893 0.948644
O O4 0.377543 0.276819 0.087931
O O5 0.762106 0.678201 0.583888
O O6 0.617051 0.636302 0.497144
O O7 0.726166 0.184882 0.065187
O O8 0.098298 0.066415 0.597968
O O9 0.141352 0.876304 0.009502
O O10 0.861370 0.212645 0.672180
O O11 0.000000 0.500000 0.500000
O O12 0.000000 0.000000 0.000000
O O13 0.500000 0.500000 0.500000
O O14 0.406999 0.586270 0.578139
O O15 0.500000 0.000000 0.000000
O O16 0.756269 0.393983 0.325365
O O17 0.747950 0.844151 0.945260
O O18 0.088914 0.860364 0.459059
O O19 0.000000 0.000000 0.500000
O O20 0.000000 0.500000 0.000000
#
# Coordination Sequence:
#
# PCOD9062895 Si02
#       8
#     2   2   2   2   2   2   2   2
#     4  11  24  45  72  98 139 185 234 293 344 406
#     4  11  26  43  68 105 134 180 233 281 340 420
#     4  12  26  46  71 103 142 181 238 283 356 422
#     4  12  26  46  74  99 144 191 234 296 350 425
#     4  11  24  43  65  99 144 179 220 279 343 410
#     4  11  26  43  69 105 139 180 239 284 344 425
#     4  12  28  47  71 101 141 184 233 297 354 417
#     4  12  26  46  72 105 143 186 239 288 360 424
#
# _framework density 20.573266
#
# number of rings (size 3 to 8) (size 9 to 14) (size 15 to 20)
#    0.000    0.500    1.250    6.000    7.000   10.000 
#    0.000    0.000    0.000    0.000    0.000    0.000 
#    0.000    0.000    0.000    0.000    0.000    0.000 
#
# Total GULP energy -89244.400758 kJ/mol
# GULP energy per Si atom -5577.775047 kJ/mol
# Density = 2.052644 g / cm^3
# Si number density = 20.573266 Si / 1000 Ang^3
#
#
#
# Elastic Constant Matrix: (Units=GPa)
#
#
# Indices 1 2 3 4 5 6 
#
# 1 1315.0057 379.0769 687.6388 -541.4876 631.3725 -75.0524
# 2 379.0769 221.7524 220.4707 -158.7081 181.5577 -10.6332
# 3 687.6388 220.4707 483.3225 -313.2045 355.9799 -31.3114
# 4 -541.4876 -158.7081 -313.2045 296.5652 -269.9196 45.5467
# 5 631.3725 181.5577 355.9799 -269.9196 339.5292 -54.4484
# 6 -75.0524 -10.6332 -31.3114 45.5467 -54.4484 41.3779
#
#
#
# Elastic Compliance Matrix: (Units=1/GPa)
#
#
# Indices 1 2 3 4 5 6 
#
# 1 0.010671 -0.001946 0.001782 0.005720 -0.017609 -0.009264
# 2 -0.001946 0.009441 -0.001431 0.000262 -0.000148 -0.002671
# 3 0.001782 -0.001431 0.013380 0.005858 -0.013778 -0.011589
# 4 0.005720 0.000262 0.005858 0.017453 -0.004739 -0.010572
# 5 -0.017609 -0.000148 -0.013778 -0.004739 0.051312 0.030333
# 6 -0.009264 -0.002671 -0.011589 -0.010572 0.030333 0.049460
#
#
# Mechanical properties :
#
#
# Convention : Reuss Voigt Hill
#
# Bulk Modulus (GPa) = 33.00361 510.49484 271.74923
# Shear Modulus (GPa) = 30.30171 184.35407 107.32789
#
# Velocity S-wave (km/s) = 3.84196 9.47645 7.23062
# Velocity P-wave (km/s) = 5.97977 19.19404 14.21564
#
# Compressibility (1/GPa) = 0.03029971
#
# Stress axis : x y z
#
# Youngs Moduli (GPa) = 93.71316 105.92515 74.74093
#
# Poissons Ratio (x) = 0.20618 -0.13320
# Poissons Ratio (y) = 0.18241 0.10698
# Poissons Ratio (z) = -0.16701 0.15161
#
# Static dielectric constant tensor:
#      x y z
#    x 1.704040 0.030680 0.019300 
#    y 0.030680 1.778020 0.106190 
#    z 0.019300 0.106190 1.793370 
# 
# From -- ./inp_files/433627.got.cif
#   From: 2010.05.17/outbox.cif.g08.bks.cpg/sg2_217_cif.got.tgz:433627.got - 2010.06.03 11:33:40.
