data_PCOD9062298
_publ_section_title
;
Structure prediction by ZEFSAII (Michael W. Deem and Ramdas Pophale) SiO2 
 PCOD9062298
Probable space group: P -1
;
_chemical_formula_sum "Si O2"
_cell_formula_units_Z 10
_cell_length_a 6.875300
_cell_length_b 12.077952
_cell_length_c 6.930282
_cell_angle_alpha 114.564938
_cell_angle_beta 116.110088
_cell_angle_gamma 42.416914
_cell_volume 344.623705
_symmetry_space_group_name_H-M "P -1"
_symmetry_group_IT_number 2
_symmetry_cell_setting 'triclinic'
loop_
_space_group_symop_operation_xyz
x,y,z
-x,-y,-z
loop_
_atom_site_type_symbol
_atom_site_label
_atom_site_fract_x
_atom_site_fract_y
_atom_site_fract_z
Si Si1 0.079439 0.579347 0.901974
Si Si2 0.539596 0.629749 0.589085
Si Si3 0.301488 0.891391 0.352215
Si Si4 0.675900 0.900213 0.202234
Si Si5 0.254824 0.738510 0.912786
O O1 0.093241 0.670634 0.798132
O O2 0.860908 0.555296 0.735635
O O3 0.406810 0.417220 0.987545
O O4 0.935348 0.713299 0.107693
O O5 0.500000 0.500000 0.500000
O O6 0.474287 0.721654 0.427581
O O7 0.300879 0.770170 0.743061
O O8 0.483329 0.898852 0.274811
O O9 0.777531 0.980207 0.424186
O O10 0.115803 0.877216 0.114325
O O11 0.500000 0.000000 0.000000
#
# Coordination Sequence:
#
# PCOD9062298 Si02
#       5
#     2   2   2   2   2
#     4  11  24  48  76 105 155 191 246 309 363 441
#     4  12  25  46  74 111 153 190 244 309 369 434
#     4  11  24  45  76 111 143 195 253 292 384 428
#     4  11  23  49  77 105 149 197 245 309 362 444
#     4  11  25  46  69 115 146 192 248 299 373 436
#
# _framework density 29.017156
#
# number of rings (size 3 to 8) (size 9 to 14) (size 15 to 20)
#    0.000    0.800    4.000    3.000    0.000    4.000 
#    3.600    4.000    0.000    0.000    0.000    0.000 
#    0.000    0.000    0.000    0.000    0.000    0.000 
#
# Total GULP energy -56110.924256 kJ/mol
# GULP energy per Si atom -5611.092426 kJ/mol
# Density = 2.895111 g / cm^3
# Si number density = 29.017156 Si / 1000 Ang^3
#
#
#
# Elastic Constant Matrix: (Units=GPa)
#
#
# Indices 1 2 3 4 5 6 
#
# 1 188.2698 52.8133 93.4164 -6.3937 9.0085 40.9997
# 2 52.8133 170.6263 104.0796 2.1636 2.8508 13.9368
# 3 93.4164 104.0796 198.3260 12.4617 -13.2613 12.0439
# 4 -6.3937 2.1636 12.4617 54.5447 14.3830 -17.0242
# 5 9.0085 2.8508 -13.2613 14.3830 83.1951 12.8770
# 6 40.9997 13.9368 12.0439 -17.0242 12.8770 56.4768
#
#
#
# Elastic Compliance Matrix: (Units=1/GPa)
#
#
# Indices 1 2 3 4 5 6 
#
# 1 0.008255 0.000141 -0.003753 0.000515 -0.000830 -0.004883
# 2 0.000141 0.008789 -0.004756 0.000805 -0.001095 -0.000764
# 3 -0.003753 -0.004756 0.009648 -0.003029 0.002578 0.000340
# 4 0.000515 0.000805 -0.003029 0.023234 -0.005886 0.008420
# 5 -0.000830 -0.001095 0.002578 -0.005886 0.014305 -0.004713
# 6 -0.004883 -0.000764 0.000340 0.008420 -0.004713 0.024980
#
#
# Mechanical properties :
#
#
# Convention : Reuss Voigt Hill
#
# Bulk Modulus (GPa) = 100.45751 117.53787 108.99769
# Shear Modulus (GPa) = 45.75964 59.30417 52.53191
#
# Velocity S-wave (km/s) = 3.97544 4.52570 4.25946
# Velocity P-wave (km/s) = 7.46775 8.24036 7.86355
#
# Compressibility (1/GPa) = 0.00995446
#
# Stress axis : x y z
#
# Youngs Moduli (GPa) = 121.13941 113.78131 103.64744
#
# Poissons Ratio (x) = -0.01599 0.38903
# Poissons Ratio (y) = -0.01703 0.49293
# Poissons Ratio (z) = 0.45468 0.54113
#
# Static dielectric constant tensor:
#      x y z
#    x 2.278360 0.020580 -0.040660 
#    y 0.020580 2.322200 0.033050 
#    z -0.040660 0.033050 2.241010 
# 
# From -- ./inp_files/131861.got.cif
#   From: 2010.05.17/outbox.cif.g08.bks.cpg/sg2_66_cif.got.tgz:131861.got - 2010.06.03 11:33:40.
