data_PCOD9062537
_publ_section_title
;
Structure prediction by ZEFSAII (Michael W. Deem and Ramdas Pophale) SiO2 
 PCOD9062537
Probable space group: P -1
;
_chemical_formula_sum "Si O2"
_cell_formula_units_Z 16
_cell_length_a 5.793974
_cell_length_b 11.724115
_cell_length_c 17.127815
_cell_angle_alpha 46.790628
_cell_angle_beta 90.562853
_cell_angle_gamma 117.372745
_cell_volume 664.228347
_symmetry_space_group_name_H-M "P -1"
_symmetry_group_IT_number 2
_symmetry_cell_setting 'triclinic'
loop_
_space_group_symop_operation_xyz
x,y,z
-x,-y,-z
loop_
_atom_site_type_symbol
_atom_site_label
_atom_site_fract_x
_atom_site_fract_y
_atom_site_fract_z
Si Si1 0.899362 0.125886 0.606776
Si Si2 0.599301 0.269667 0.300793
Si Si3 0.964088 0.626024 0.877037
Si Si4 0.365649 0.047437 0.042886
Si Si5 0.160842 0.251908 0.720699
Si Si6 0.366333 0.374903 0.916378
Si Si7 0.547131 0.285166 0.473000
Si Si8 0.238801 0.948511 0.843460
O O1 0.747984 0.233713 0.538980
O O2 0.969917 0.159974 0.683308
O O3 0.211392 0.194785 0.538486
O O4 0.658545 0.904751 0.674048
O O5 0.627612 0.467473 0.205675
O O6 0.544890 0.215811 0.416726
O O7 0.895946 0.343659 0.221913
O O8 0.619972 0.501885 0.921631
O O9 0.135409 0.849405 0.805207
O O10 0.000000 0.500000 0.000000
O O11 0.035911 0.864755 0.149092
O O12 0.540059 0.083386 0.105703
O O13 0.500000 0.000000 0.000000
O O14 0.429734 0.250050 0.924793
O O15 0.295176 0.479776 0.623273
O O16 0.354653 0.174072 0.747651
O O17 0.059519 0.202740 0.036796
#
# Coordination Sequence:
#
# PCOD9062537 Si02
#       8
#     2   2   2   2   2   2   2   2
#     4  12  29  55  77 111 147 197 268 322 374 438
#     4  12  28  45  78 108 149 200 241 317 391 438
#     4  12  23  41  70 105 152 189 238 292 370 466
#     4  11  26  42  70 109 158 190 239 296 370 475
#     4  11  28  46  81 105 146 204 246 313 384 442
#     4  11  24  41  68 108 150 191 243 290 377 459
#     4  12  31  53  79 110 148 195 268 327 374 434
#     4  11  24  44  68 110 150 195 242 295 369 466
#
# _framework density 24.088101000000002
#
# number of rings (size 3 to 8) (size 9 to 14) (size 15 to 20)
#    0.000    0.500    2.500    3.375   15.750    1.000 
#    0.000    0.000    0.000    0.000    0.000    0.000 
#    0.000    0.000    0.000    0.000    0.000    0.000 
#
# Total GULP energy -89383.902549 kJ/mol
# GULP energy per Si atom -5586.493909 kJ/mol
# Density = 2.403328 g / cm^3
# Si number density = 24.088101 Si / 1000 Ang^3
#
#
#
# Elastic Constant Matrix: (Units=GPa)
#
#
# Indices 1 2 3 4 5 6 
#
# 1 92.5034 21.5114 32.4181 -14.3471 -0.8656 -14.2650
# 2 21.5114 120.0788 36.4384 -12.8477 -5.2176 -19.1667
# 3 32.4181 36.4384 63.8544 -10.9255 -8.5943 -16.6070
# 4 -14.3471 -12.8477 -10.9255 42.7498 -15.3973 9.6828
# 5 -0.8656 -5.2176 -8.5943 -15.3973 42.8325 -4.2332
# 6 -14.2650 -19.1667 -16.6070 9.6828 -4.2332 51.0455
#
#
#
# Elastic Compliance Matrix: (Units=1/GPa)
#
#
# Indices 1 2 3 4 5 6 
#
# 1 0.013565 -0.000101 -0.005996 0.002761 0.000179 0.001293
# 2 -0.000101 0.010396 -0.004895 0.001783 0.001125 0.002038
# 3 -0.005996 -0.004895 0.024003 0.003852 0.005884 0.004053
# 4 0.002761 0.001783 0.003852 0.030581 0.011829 -0.002125
# 5 0.000179 0.001125 0.005884 0.011829 0.029173 0.002562
# 6 0.001293 0.002038 0.004053 -0.002125 0.002562 0.022651
#
#
# Mechanical properties :
#
#
# Convention : Reuss Voigt Hill
#
# Bulk Modulus (GPa) = 38.49086 50.79691 44.64389
# Shear Modulus (GPa) = 31.05328 39.73014 35.39171
#
# Velocity S-wave (km/s) = 3.59437 4.06565 3.83725
# Velocity P-wave (km/s) = 5.76541 6.57062 6.18114
#
# Compressibility (1/GPa) = 0.02598019
#
# Stress axis : x y z
#
# Youngs Moduli (GPa) = 73.72130 96.18852 41.66103
#
# Poissons Ratio (x) = 0.00970 0.24981
# Poissons Ratio (y) = 0.00743 0.20393
# Poissons Ratio (z) = 0.44205 0.47084
#
# Static dielectric constant tensor:
#      x y z
#    x 1.995640 0.007900 -0.002530 
#    y 0.007900 1.949290 0.034570 
#    z -0.002530 0.034570 1.936010 
# 
# From -- ./inp_files/84201.got.cif
#   From: 2010.05.17/outbox.cif.g08.bks.cpg/sg2_43_cif.got.tgz:84201.got - 2010.06.03 11:33:40.
