data_PCOD9062931
_publ_section_title
;
Structure prediction by ZEFSAII (Michael W. Deem and Ramdas Pophale) SiO2 
 PCOD9062931
Probable space group: P -1
;
_chemical_formula_sum "Si O2"
_cell_formula_units_Z 15
_cell_length_a 9.020374
_cell_length_b 13.486370
_cell_length_c 12.454125
_cell_angle_alpha 150.261327
_cell_angle_beta 75.849656
_cell_angle_gamma 105.362404
_cell_volume 724.359800
_symmetry_space_group_name_H-M "P -1"
_symmetry_group_IT_number 2
_symmetry_cell_setting 'triclinic'
loop_
_space_group_symop_operation_xyz
x,y,z
-x,-y,-z
loop_
_atom_site_type_symbol
_atom_site_label
_atom_site_fract_x
_atom_site_fract_y
_atom_site_fract_z
Si Si1 0.418562 0.289893 0.276997
Si Si2 0.630435 0.060974 0.872045
Si Si3 0.864732 0.532116 0.970666
Si Si4 0.871856 0.588504 0.676022
Si Si5 0.833921 0.224378 0.492613
Si Si6 0.011064 0.866902 0.101954
Si Si7 0.500000 0.500000 0.000000
Si Si8 0.466884 0.073029 0.695461
O O1 0.500000 0.500000 0.500000
O O2 0.253802 0.319970 0.286314
O O3 0.400399 0.139499 0.239470
O O4 0.519798 0.205940 0.085393
O O5 0.808165 0.144076 0.929338
O O6 0.587645 0.031281 0.726800
O O7 0.859119 0.346775 0.713338
O O8 0.686553 0.525532 0.031825
O O9 0.000000 0.500000 0.000000
O O10 0.921223 0.740022 0.094227
O O11 0.800766 0.395031 0.574593
O O12 0.000000 0.500000 0.500000
O O13 0.948691 0.755984 0.900866
O O14 0.689835 0.056374 0.365305
O O15 0.975406 0.097909 0.324406
O O16 0.460082 0.309832 0.909133
O O17 0.500000 0.000000 0.500000
#
# Coordination Sequence:
#
# PCOD9062931 Si02
#       8
#     2   2   2   2   2   2   1   2
#     4  11  24  44  71 101 140 177 234 296 357 428
#     4  11  26  43  68 105 136 185 235 294 360 424
#     4  11  25  44  67 102 139 182 242 295 350 424
#     4  11  24  43  71 101 139 182 228 289 360 430
#     4  11  24  43  67 101 137 184 235 284 358 425
#     4  11  24  43  67  99 141 177 233 296 351 427
#     4  12  24  44  70  96 138 192 234 296 350 410
#     4  12  25  43  69  99 138 186 241 283 355 427
#
# _framework density 20.707940000000001
#
# number of rings (size 3 to 8) (size 9 to 14) (size 15 to 20)
#    0.000    0.800    2.667    4.000    1.867    8.000 
#    0.000    0.000    0.000    0.000    0.000    0.000 
#    0.000    0.000    0.000    0.000    0.000    0.000 
#
# Total GULP energy -83593.003842 kJ/mol
# GULP energy per Si atom -5572.866923 kJ/mol
# Density = 2.066081 g / cm^3
# Si number density = 20.707940 Si / 1000 Ang^3
#
#
#
# Elastic Constant Matrix: (Units=GPa)
#
#
# Indices 1 2 3 4 5 6 
#
# 1 149.0658 46.4183 28.2334 0.9926 -0.6154 -13.1108
# 2 46.4183 80.4701 38.3957 -1.7637 15.6096 -16.9755
# 3 28.2334 38.3957 64.3710 15.8668 3.4819 -10.7607
# 4 0.9926 -1.7637 15.8668 25.4210 1.7870 5.6063
# 5 -0.6154 15.6096 3.4819 1.7870 30.3413 4.2130
# 6 -13.1108 -16.9755 -10.7607 5.6063 4.2130 46.4089
#
#
#
# Elastic Compliance Matrix: (Units=1/GPa)
#
#
# Indices 1 2 3 4 5 6 
#
# 1 0.008450 -0.005082 -0.000679 -0.000498 0.002869 0.000171
# 2 -0.005082 0.026051 -0.014544 0.010995 -0.013120 0.004584
# 3 -0.000679 -0.014544 0.029963 -0.020795 0.004767 0.003515
# 4 -0.000498 0.010995 -0.020795 0.055052 -0.005538 -0.007088
# 5 0.002869 -0.013120 0.004767 -0.005538 0.040362 -0.005878
# 6 0.000171 0.004584 0.003515 -0.007088 -0.005878 0.025477
#
#
# Mechanical properties :
#
#
# Convention : Reuss Voigt Hill
#
# Bulk Modulus (GPa) = 41.92048 57.77797 49.84922
# Shear Modulus (GPa) = 21.37523 32.49155 26.93339
#
# Velocity S-wave (km/s) = 3.21631 3.96541 3.61034
# Velocity P-wave (km/s) = 5.83785 6.99485 6.44237
#
# Compressibility (1/GPa) = 0.02385469
#
# Stress axis : x y z
#
# Youngs Moduli (GPa) = 118.34891 38.38633 33.37409
#
# Poissons Ratio (x) = 0.19507 0.02266
# Poissons Ratio (y) = 0.60141 0.48540
# Poissons Ratio (z) = 0.08034 0.55829
#
# Static dielectric constant tensor:
#      x y z
#    x 1.713690 0.027900 -0.036550 
#    y 0.027900 1.723350 -0.003150 
#    z -0.036550 -0.003150 1.741400 
# 
# From -- ./inp_files/364675.got.cif
#   From: 2010.05.17/outbox.cif.g08.bks.cpg/sg2_183_cif.got.tgz:364675.got - 2010.06.03 11:33:40.
