data_PCOD9062588
_publ_section_title
;
Structure prediction by ZEFSAII (Michael W. Deem and Ramdas Pophale) SiO2 
 PCOD9062588
Probable space group: P -1
;
_chemical_formula_sum "Si O2"
_cell_formula_units_Z 14
_cell_length_a 10.537774
_cell_length_b 11.273343
_cell_length_c 5.207607
_cell_angle_alpha 78.085779
_cell_angle_beta 108.106969
_cell_angle_gamma 67.571489
_cell_volume 504.966560
_symmetry_space_group_name_H-M "P -1"
_symmetry_group_IT_number 2
_symmetry_cell_setting 'triclinic'
loop_
_space_group_symop_operation_xyz
x,y,z
-x,-y,-z
loop_
_atom_site_type_symbol
_atom_site_label
_atom_site_fract_x
_atom_site_fract_y
_atom_site_fract_z
Si Si1 0.676329 0.856616 0.939249
Si Si2 0.426862 0.404144 0.592389
Si Si3 0.041883 0.850701 0.991215
Si Si4 0.690275 0.276303 0.141220
Si Si5 0.861678 0.741236 0.619576
Si Si6 0.870651 0.398787 0.468562
Si Si7 0.396604 0.871639 0.492503
O O1 0.779280 0.745530 0.834228
O O2 0.502654 0.894928 0.756227
O O3 0.677190 0.997888 0.799532
O O4 0.739065 0.807199 0.284368
O O5 0.500000 0.500000 0.500000
O O6 0.244857 0.479280 0.472736
O O7 0.493520 0.268489 0.522990
O O8 0.512375 0.348926 0.941118
O O9 0.213564 0.785407 0.024609
O O10 0.943151 0.834961 0.703370
O O11 0.043396 0.742164 0.250173
O O12 0.000000 0.000000 0.000000
O O13 0.746099 0.379489 0.234277
O O14 0.723028 0.156922 0.415815
O O15 0.003577 0.604391 0.647107
#
# Coordination Sequence:
#
# PCOD9062588 Si02
#       7
#     2   2   2   2   2   2   2
#     4  11  28  51  73 107 145 197 248 296 358 433
#     4  12  24  43  69 108 149 184 244 300 372 430
#     4  11  25  41  72 112 145 189 238 306 371 432
#     4  11  24  41  71 106 149 188 239 307 368 429
#     4  11  26  47  75 100 151 189 241 301 360 437
#     4  11  24  43  67 109 146 188 235 302 370 437
#     4  11  28  44  75 105 143 193 245 304 358 434
#
# _framework density 27.724609999999998
#
# number of rings (size 3 to 8) (size 9 to 14) (size 15 to 20)
#    0.000    0.857    4.286    0.429   10.000    2.286 
#    0.000    3.571    0.000    0.000    0.000    0.000 
#    0.000    0.000    0.000    0.000    0.000    0.000 
#
# Total GULP energy -78480.053151 kJ/mol
# GULP energy per Si atom -5605.718082 kJ/mol
# Density = 2.766151 g / cm^3
# Si number density = 27.724610 Si / 1000 Ang^3
#
#
#
# Elastic Constant Matrix: (Units=GPa)
#
#
# Indices 1 2 3 4 5 6 
#
# 1 102.8537 1.5127 4.6500 4.1757 -3.2223 -14.9591
# 2 1.5127 114.7048 20.0988 1.1897 -4.0306 -22.5118
# 3 4.6500 20.0988 143.3852 18.3596 11.8929 -0.3055
# 4 4.1757 1.1897 18.3596 38.4963 4.6946 -1.5635
# 5 -3.2223 -4.0306 11.8929 4.6946 45.3294 8.0648
# 6 -14.9591 -22.5118 -0.3055 -1.5635 8.0648 42.5682
#
#
#
# Elastic Compliance Matrix: (Units=1/GPa)
#
#
# Indices 1 2 3 4 5 6 
#
# 1 0.010342 0.000712 -0.000340 -0.000856 0.000278 0.003924
# 2 0.000712 0.010063 -0.001514 0.000521 0.000306 0.005522
# 3 -0.000340 -0.001514 0.007780 -0.003443 -0.001725 -0.000664
# 4 -0.000856 0.000521 -0.003443 0.028029 -0.002265 0.001408
# 5 0.000278 0.000306 -0.001725 -0.002265 0.023560 -0.004299
# 6 0.003924 0.005522 -0.000664 0.001408 -0.004299 0.028653
#
#
# Mechanical properties :
#
#
# Convention : Reuss Voigt Hill
#
# Bulk Modulus (GPa) = 38.60953 45.94073 42.27513
# Shear Modulus (GPa) = 41.89571 47.59094 44.74332
#
# Velocity S-wave (km/s) = 3.89155 4.14763 4.02163
# Velocity P-wave (km/s) = 5.84368 6.28836 6.07009
#
# Compressibility (1/GPa) = 0.02590034
#
# Stress axis : x y z
#
# Youngs Moduli (GPa) = 96.69623 99.37329 128.53370
#
# Poissons Ratio (x) = -0.07076 0.04374
# Poissons Ratio (y) = -0.06885 0.19460
# Poissons Ratio (z) = 0.03291 0.15045
#
# Static dielectric constant tensor:
#      x y z
#    x 2.190630 -0.023830 0.028720 
#    y -0.023830 2.232720 -0.022980 
#    z 0.028720 -0.022980 2.188340 
# 
# From -- ./inp_files/70022.got.cif
#   From: 2010.05.17/outbox.cif.g08.bks.cpg/sg2_36_cif.got.tgz:70022.got - 2010.06.03 11:33:40.
