data_PCOD9062676
_publ_section_title
;
Structure prediction by ZEFSAII (Michael W. Deem and Ramdas Pophale) SiO2 
 PCOD9062676
Probable space group: P -1
;
_chemical_formula_sum "Si O2"
_cell_formula_units_Z 16
_cell_length_a 14.465190
_cell_length_b 11.839038
_cell_length_c 14.794541
_cell_angle_alpha 58.265244
_cell_angle_beta 151.524368
_cell_angle_gamma 139.020950
_cell_volume 711.309966
_symmetry_space_group_name_H-M "P -1"
_symmetry_group_IT_number 2
_symmetry_cell_setting 'triclinic'
loop_
_space_group_symop_operation_xyz
x,y,z
-x,-y,-z
loop_
_atom_site_type_symbol
_atom_site_label
_atom_site_fract_x
_atom_site_fract_y
_atom_site_fract_z
Si Si1 0.475278 0.668057 0.341205
Si Si2 0.253060 0.919613 0.623828
Si Si3 0.336949 0.310166 0.705424
Si Si4 0.853716 0.320947 0.517093
Si Si5 0.595406 0.937475 0.037909
Si Si6 0.200819 0.058934 0.065775
Si Si7 0.915253 0.749047 0.801680
Si Si8 0.702963 0.611196 0.042294
O O1 0.592869 0.661505 0.351565
O O2 0.643903 0.702795 0.560610
O O3 0.176024 0.449133 0.186687
O O4 0.531016 0.852005 0.297073
O O5 0.149164 0.819674 0.480434
O O6 0.990745 0.829546 0.497993
O O7 0.388614 0.855246 0.810688
O O8 0.403233 0.202442 0.854928
O O9 0.523462 0.506035 0.840189
O O10 0.529988 0.195344 0.313448
O O11 0.000000 0.500000 0.500000
O O12 0.058450 0.384317 0.748972
O O13 0.888245 0.121918 0.168566
O O14 0.500000 0.000000 0.000000
O O15 0.190253 0.186575 0.943962
O O16 0.000000 0.000000 0.000000
O O17 0.068256 0.874799 0.970536
O O18 0.500000 0.500000 0.000000
#
# Coordination Sequence:
#
# PCOD9062676 Si02
#       8
#     2   2   2   2   2   2   2   2
#     4  11  24  42  67  98 136 181 221 274 347 409
#     4  12  22  40  70  97 135 180 223 281 341 407
#     4  12  23  43  67 104 138 174 228 287 338 404
#     4  12  24  43  72 105 132 180 237 282 344 414
#     4  12  23  40  67  99 131 177 225 272 335 409
#     4  12  26  48  71 100 142 183 230 291 348 405
#     4  11  24  45  67  96 138 179 225 277 342 412
#     4  12  23  42  73 101 135 184 232 286 347 406
#
# _framework density 22.49371
#
# number of rings (size 3 to 8) (size 9 to 14) (size 15 to 20)
#    0.000    0.250    6.250    4.125    0.000    1.000 
#    0.000    2.500    0.000    0.000    0.000    0.000 
#    0.000    0.000    0.000    0.000    0.000    0.000 
#
# Total GULP energy -89434.188244 kJ/mol
# GULP energy per Si atom -5589.636765 kJ/mol
# Density = 2.244251 g / cm^3
# Si number density = 22.493710 Si / 1000 Ang^3
#
#
#
# Elastic Constant Matrix: (Units=GPa)
#
#
# Indices 1 2 3 4 5 6 
#
# 1 63.4774 -9.4921 -1.1461 17.4895 -3.5974 -2.1254
# 2 -9.4921 75.7631 22.8136 10.8562 -4.8388 -12.1624
# 3 -1.1461 22.8136 122.3952 0.9728 3.1259 0.1853
# 4 17.4895 10.8562 0.9728 39.2669 -5.1532 -5.9476
# 5 -3.5974 -4.8388 3.1259 -5.1532 26.6404 -1.8278
# 6 -2.1254 -12.1624 0.1853 -5.9476 -1.8278 24.8391
#
#
#
# Elastic Compliance Matrix: (Units=1/GPa)
#
#
# Indices 1 2 3 4 5 6 
#
# 1 0.019061 0.004257 -0.000590 -0.009172 0.001756 0.001653
# 2 0.004257 0.016852 -0.003167 -0.004830 0.003605 0.007748
# 3 -0.000590 -0.003167 0.008798 0.000439 -0.001718 -0.001688
# 4 -0.009172 -0.004830 0.000439 0.032192 0.004394 0.004878
# 5 0.001756 0.003605 -0.001718 0.004394 0.039886 0.005915
# 6 0.001653 0.007748 -0.001688 0.004878 0.005915 0.045810
#
#
# Mechanical properties :
#
#
# Convention : Reuss Voigt Hill
#
# Bulk Modulus (GPa) = 21.87515 31.77628 26.82572
# Shear Modulus (GPa) = 28.27482 34.77996 31.52739
#
# Velocity S-wave (km/s) = 3.54928 3.93645 3.74787
# Velocity P-wave (km/s) = 5.15196 5.90070 5.53899
#
# Compressibility (1/GPa) = 0.04571396
#
# Stress axis : x y z
#
# Youngs Moduli (GPa) = 52.46190 59.33954 113.66319
#
# Poissons Ratio (x) = -0.25263 0.06700
# Poissons Ratio (y) = -0.22335 0.35993
# Poissons Ratio (z) = 0.03093 0.18791
#
# Static dielectric constant tensor:
#      x y z
#    x 1.805010 -0.042870 -0.019200 
#    y -0.042870 1.793640 0.009180 
#    z -0.019200 0.009180 1.965990 
# 
# From -- ./inp_files/299612.got.cif
#   From: 2010.05.17/outbox.cif.g08.bks.cpg/sg2_150_cif.got.tgz:299612.got - 2010.06.03 11:33:40.
