data_PCOD9062456
_publ_section_title
;
Structure prediction by ZEFSAII (Michael W. Deem and Ramdas Pophale) SiO2 
 PCOD9062456
Probable space group: P -1
;
_chemical_formula_sum "Si O2"
_cell_formula_units_Z 16
_cell_length_a 5.869640
_cell_length_b 25.395789
_cell_length_c 6.675565
_cell_angle_alpha 92.186701
_cell_angle_beta 48.326983
_cell_angle_gamma 87.379670
_cell_volume 739.364499
_symmetry_space_group_name_H-M "P -1"
_symmetry_group_IT_number 2
_symmetry_cell_setting 'triclinic'
loop_
_space_group_symop_operation_xyz
x,y,z
-x,-y,-z
loop_
_atom_site_type_symbol
_atom_site_label
_atom_site_fract_x
_atom_site_fract_y
_atom_site_fract_z
Si Si1 0.831499 0.715333 0.057314
Si Si2 0.759692 0.035483 0.279848
Si Si3 0.447436 0.864384 0.862203
Si Si4 0.641288 0.342322 0.964660
Si Si5 0.328622 0.781545 0.618488
Si Si6 0.064905 0.408957 0.462995
Si Si7 0.142918 0.877978 0.468295
Si Si8 0.861965 0.491539 0.293161
O O1 0.112063 0.684947 0.021331
O O2 0.601286 0.688451 0.032958
O O3 0.605088 0.742349 0.364740
O O4 0.015241 0.753932 0.815564
O O5 0.641351 0.085570 0.221208
O O6 0.883444 0.064469 0.405553
O O7 0.500000 0.000000 0.500000
O O8 0.000000 0.000000 0.000000
O O9 0.357370 0.808882 0.821744
O O10 0.808881 0.859402 0.658820
O O11 0.290930 0.878328 0.165908
O O12 0.846253 0.369299 0.683720
O O13 0.410686 0.383150 0.232123
O O14 0.330900 0.832478 0.480006
O O15 0.962903 0.433394 0.311515
O O16 0.033562 0.460999 0.626509
O O17 0.500000 0.500000 0.500000
O O18 0.000000 0.500000 0.000000
#
# Coordination Sequence:
#
# PCOD9062456 Si02
#       8
#     2   2   2   2   2   2   2   2
#     4  12  28  47  74 104 142 192 236 295 364 419
#     4  11  24  41  62  98 138 170 224 278 344 427
#     4  11  24  42  69  96 130 180 225 286 346 406
#     4  12  28  47  74 106 148 188 234 295 364 419
#     4  11  26  46  70  99 136 175 240 293 338 429
#     4  11  26  46  70 108 142 186 240 291 348 431
#     4  11  24  42  69  96 130 180 225 286 346 406
#     4  11  24  43  76 101 139 190 236 289 350 413
#
# _framework density 21.640205999999999
#
# number of rings (size 3 to 8) (size 9 to 14) (size 15 to 20)
#    0.000    0.750    0.000    6.000   10.500    9.000 
#    0.000    0.000    0.000    0.000    0.000    0.000 
#    0.000    0.000    0.000    0.000    0.000    0.000 
#
# Total GULP energy -89359.585229 kJ/mol
# GULP energy per Si atom -5584.974077 kJ/mol
# Density = 2.159095 g / cm^3
# Si number density = 21.640206 Si / 1000 Ang^3
#
#
#
# Elastic Constant Matrix: (Units=GPa)
#
#
# Indices 1 2 3 4 5 6 
#
# 1 74.3655 25.4101 16.7132 4.0314 -0.2320 1.4690
# 2 25.4101 66.4219 24.6966 -4.1679 5.1847 2.3637
# 3 16.7132 24.6966 161.0481 -4.2678 -1.1955 -4.1409
# 4 4.0314 -4.1679 -4.2678 47.8672 -0.0881 -8.6201
# 5 -0.2320 5.1847 -1.1955 -0.0881 38.8715 1.9148
# 6 1.4690 2.3637 -4.1409 -8.6201 1.9148 28.4963
#
#
#
# Elastic Compliance Matrix: (Units=1/GPa)
#
#
# Indices 1 2 3 4 5 6 
#
# 1 0.015786 -0.005900 -0.000812 -0.002120 0.000908 -0.001145
# 2 -0.005900 0.018473 -0.002215 0.001750 -0.002521 -0.000851
# 3 -0.000812 -0.002215 0.006691 0.000723 0.000430 0.001388
# 4 -0.002120 0.001750 0.000723 0.022532 -0.000514 0.006919
# 5 0.000908 -0.002521 0.000430 -0.000514 0.026163 -0.001689
# 6 -0.001145 -0.000851 0.001388 0.006919 -0.001689 0.037630
#
#
# Mechanical properties :
#
#
# Convention : Reuss Voigt Hill
#
# Bulk Modulus (GPa) = 43.29809 48.38615 45.84212
# Shear Modulus (GPa) = 32.71658 38.71470 35.71564
#
# Velocity S-wave (km/s) = 3.89246 4.23427 4.06696
# Velocity P-wave (km/s) = 6.34455 6.80538 6.57900
#
# Compressibility (1/GPa) = 0.02309571
#
# Stress axis : x y z
#
# Youngs Moduli (GPa) = 63.34691 54.13368 149.44833
#
# Poissons Ratio (x) = 0.31940 0.12140
# Poissons Ratio (y) = 0.37376 0.33098
# Poissons Ratio (z) = 0.05146 0.11989
#
# Static dielectric constant tensor:
#      x y z
#    x 1.863660 -0.002420 0.063410 
#    y -0.002420 1.840230 0.018160 
#    z 0.063410 0.018160 1.727540 
# 
# From -- ./inp_files/14591.got.cif
#   From: 2010.05.17/outbox.cif.g08.bks.cpg/sg2_8_cif.got.tgz:14591.got - 2010.06.03 11:33:40.
