data_PCOD9062561
_publ_section_title
;
Structure prediction by ZEFSAII (Michael W. Deem and Ramdas Pophale) SiO2 
 PCOD9062561
Probable space group: P -1
;
_chemical_formula_sum "Si O2"
_cell_formula_units_Z 16
_cell_length_a 13.096309
_cell_length_b 10.079902
_cell_length_c 22.542480
_cell_angle_alpha 26.289724
_cell_angle_beta 144.812374
_cell_angle_gamma 136.425437
_cell_volume 759.120445
_symmetry_space_group_name_H-M "P -1"
_symmetry_group_IT_number 2
_symmetry_cell_setting 'triclinic'
loop_
_space_group_symop_operation_xyz
x,y,z
-x,-y,-z
loop_
_atom_site_type_symbol
_atom_site_label
_atom_site_fract_x
_atom_site_fract_y
_atom_site_fract_z
Si Si1 0.603545 0.821879 0.068685
Si Si2 0.127663 0.189672 0.526721
Si Si3 0.817844 0.184990 0.927242
Si Si4 0.200120 0.134830 0.078945
Si Si5 0.124673 0.641892 0.552631
Si Si6 0.368200 0.173302 0.413822
Si Si7 0.384384 0.686314 0.416575
Si Si8 0.639799 0.309977 0.103712
O O1 0.724522 0.576269 0.259140
O O2 0.450610 0.734665 0.984706
O O3 0.500000 0.000000 0.000000
O O4 0.735024 0.989339 0.018640
O O5 0.207246 0.494088 0.416586
O O6 0.009645 0.268585 0.495304
O O7 0.292681 0.981863 0.712080
O O8 0.000000 0.000000 0.500000
O O9 0.748284 0.520733 0.775899
O O10 0.770222 0.078724 0.879510
O O11 0.027184 0.127608 0.041093
O O12 0.352384 0.018056 0.242002
O O13 0.200382 0.468625 0.919830
O O14 0.000000 0.500000 0.500000
O O15 0.227555 0.929511 0.463912
O O16 0.505325 0.282286 0.484496
O O17 0.500000 0.000000 0.500000
O O18 0.500000 0.500000 0.500000
O O19 0.500000 0.500000 0.000000
#
# Coordination Sequence:
#
# PCOD9062561 Si02
#       8
#     2   2   2   2   2   2   2   2
#     4  12  25  46  71 100 139 182 230 284 348 415
#     4  12  26  41  68 102 140 178 227 283 338 400
#     4  11  24  43  67 101 135 181 223 286 341 406
#     4  11  24  41  69  99 139 175 232 283 339 403
#     4  12  26  47  68 100 136 179 228 278 347 413
#     4  12  25  46  71 100 139 182 230 284 348 415
#     4  12  23  43  67 102 136 182 233 279 340 409
#     4  12  23  43  67 102 136 182 233 279 340 409
#
# _framework density 21.077026
#
# number of rings (size 3 to 8) (size 9 to 14) (size 15 to 20)
#    0.000    0.250    2.500    7.500    3.500    0.000 
#    0.000    1.875    0.000    0.000    0.000    0.000 
#    0.000    0.000    0.000    0.000    0.000    0.000 
#
# Total GULP energy -89283.128451 kJ/mol
# GULP energy per Si atom -5580.195528 kJ/mol
# Density = 2.102905 g / cm^3
# Si number density = 21.077026 Si / 1000 Ang^3
#
#
#
# Elastic Constant Matrix: (Units=GPa)
#
#
# Indices 1 2 3 4 5 6 
#
# 1 124.4951 27.4600 -24.4254 -15.6471 14.7904 -16.5823
# 2 27.4600 106.4526 -1.0931 0.7207 -0.9231 -24.1172
# 3 -24.4254 -1.0931 82.0826 0.2657 -12.1746 -20.1341
# 4 -15.6471 0.7207 0.2657 32.1319 8.0752 -7.1538
# 5 14.7904 -0.9231 -12.1746 8.0752 22.0863 -16.2192
# 6 -16.5823 -24.1172 -20.1341 -7.1538 -16.2192 48.9700
#
#
#
# Elastic Compliance Matrix: (Units=1/GPa)
#
#
# Indices 1 2 3 4 5 6 
#
# 1 0.011316 -0.002384 0.002950 0.007889 -0.006933 0.002727
# 2 -0.002384 0.012805 0.004359 -0.002406 0.013889 0.011540
# 3 0.002950 0.004359 0.021988 -0.000720 0.025718 0.020599
# 4 0.007889 -0.002406 -0.000720 0.040182 -0.020200 0.000370
# 5 -0.006933 0.013889 0.025718 -0.020200 0.106979 0.047548
# 6 0.002727 0.011540 0.020599 0.000370 0.047548 0.051299
#
#
# Mechanical properties :
#
#
# Convention : Reuss Voigt Hill
#
# Bulk Modulus (GPa) = 17.86996 35.21258 26.54127
# Shear Modulus (GPa) = 19.73392 41.37689 30.55540
#
# Velocity S-wave (km/s) = 3.06318 4.43553 3.81163
# Velocity P-wave (km/s) = 4.58340 6.55551 5.65607
#
# Compressibility (1/GPa) = 0.05595985
#
# Stress axis : x y z
#
# Youngs Moduli (GPa) = 88.37389 78.09570 45.47838
#
# Poissons Ratio (x) = 0.18621 -0.13418
# Poissons Ratio (y) = 0.21072 -0.19826
# Poissons Ratio (z) = -0.26074 -0.34045
#
# Static dielectric constant tensor:
#      x y z
#    x 1.724580 0.034250 -0.026370 
#    y 0.034250 1.730080 0.057110 
#    z -0.026370 0.057110 1.875000 
# 
# From -- ./inp_files/462525.got.cif
#   From: 2010.05.17/outbox.cif.g08.bks.cpg/sg2_232_cif.got.tgz:462525.got - 2010.06.03 11:33:40.
