data_PCOD9062146
_publ_section_title
;
Structure prediction by ZEFSAII (Michael W. Deem and Ramdas Pophale) SiO2 
 PCOD9062146
Probable space group: P -1
;
_chemical_formula_sum "Si O2"
_cell_formula_units_Z 15
_cell_length_a 6.731957
_cell_length_b 9.138686
_cell_length_c 13.717462
_cell_angle_alpha 70.934759
_cell_angle_beta 54.631053
_cell_angle_gamma 95.567345
_cell_volume 603.945025
_symmetry_space_group_name_H-M "P -1"
_symmetry_group_IT_number 2
_symmetry_cell_setting 'triclinic'
loop_
_space_group_symop_operation_xyz
x,y,z
-x,-y,-z
loop_
_atom_site_type_symbol
_atom_site_label
_atom_site_fract_x
_atom_site_fract_y
_atom_site_fract_z
Si Si1 0.331750 0.621671 0.832163
Si Si2 0.431702 0.747094 0.439784
Si Si3 0.891699 0.108747 0.235534
Si Si4 0.725059 0.286464 0.850577
Si Si5 0.237598 0.030604 0.998013
Si Si6 0.703200 0.535398 0.315632
Si Si7 0.500000 0.500000 0.000000
Si Si8 0.945166 0.820748 0.600424
O O1 0.192956 0.753570 0.823625
O O2 0.228756 0.476852 0.812685
O O3 0.325578 0.556678 0.956646
O O4 0.640286 0.715559 0.700764
O O5 0.519693 0.637879 0.362743
O O6 0.425716 0.650138 0.564159
O O7 0.144315 0.749815 0.507897
O O8 0.646748 0.933650 0.342605
O O9 0.134494 0.086892 0.114881
O O10 0.983056 0.164826 0.307557
O O11 0.621769 0.420814 0.894834
O O12 0.028981 0.374563 0.719070
O O13 0.719759 0.140474 0.959253
O O14 0.510141 0.174039 0.859233
O O15 0.000000 0.000000 0.000000
O O16 0.000000 0.000000 0.500000
#
# Coordination Sequence:
#
# PCOD9062146 Si02
#       8
#     2   2   2   2   2   2   1   2
#     4  12  27  47  74 110 151 200 250 311 376 446
#     4  11  23  47  76 109 150 196 244 310 375 444
#     4  12  24  49  78 108 150 200 253 306 369 456
#     4  11  26  49  70 107 147 193 251 302 375 448
#     4  11  26  49  76 105 146 201 250 307 365 452
#     4  11  25  47  75 110 155 194 242 314 381 444
#     4  12  28  46  72 110 148 192 250 310 374 440
#     4  12  24  45  76 113 145 195 258 304 367 444
#
# _framework density 24.836696
#
# number of rings (size 3 to 8) (size 9 to 14) (size 15 to 20)
#    0.000    0.533    4.000    3.600    3.733    2.133 
#    2.400    0.000    0.000    0.000    0.000    0.000 
#    0.000    0.000    0.000    0.000    0.000    0.000 
#
# Total GULP energy -83852.650033 kJ/mol
# GULP energy per Si atom -5590.176669 kJ/mol
# Density = 2.478017 g / cm^3
# Si number density = 24.836696 Si / 1000 Ang^3
#
#
#
# Elastic Constant Matrix: (Units=GPa)
#
#
# Indices 1 2 3 4 5 6 
#
# 1 132.6840 49.7843 50.4818 -14.8891 6.0141 -29.2845
# 2 49.7843 115.7016 36.9408 7.8108 -6.6227 -44.4772
# 3 50.4818 36.9408 83.5432 -10.8503 -12.6165 -3.4017
# 4 -14.8891 7.8108 -10.8503 32.0286 -4.9383 -14.8096
# 5 6.0141 -6.6227 -12.6165 -4.9383 61.0783 -1.8370
# 6 -29.2845 -44.4772 -3.4017 -14.8096 -1.8370 48.6373
#
#
#
# Elastic Compliance Matrix: (Units=1/GPa)
#
#
# Indices 1 2 3 4 5 6 
#
# 1 0.013391 -0.000700 -0.006605 0.008224 -0.001811 0.009397
# 2 -0.000700 0.016414 -0.006036 0.000420 0.001067 0.014335
# 3 -0.006605 -0.006036 0.019193 0.002100 0.003909 -0.007367
# 4 0.008224 0.000420 0.002100 0.045228 0.003910 0.019401
# 5 -0.001811 0.001067 0.003909 0.003910 0.017851 0.002023
# 6 0.009397 0.014335 -0.007367 0.019401 0.002023 0.044796
#
#
# Mechanical properties :
#
#
# Convention : Reuss Voigt Hill
#
# Bulk Modulus (GPa) = 44.80898 67.37140 56.09019
# Shear Modulus (GPa) = 26.17891 41.33029 33.75460
#
# Velocity S-wave (km/s) = 3.25012 4.08374 3.69054
# Velocity P-wave (km/s) = 5.67142 7.02998 6.38692
#
# Compressibility (1/GPa) = 0.02231696
#
# Stress axis : x y z
#
# Youngs Moduli (GPa) = 74.67625 60.92178 52.10234
#
# Poissons Ratio (x) = 0.04263 0.34414
# Poissons Ratio (y) = 0.05226 0.31448
# Poissons Ratio (z) = 0.49325 0.36772
#
# Static dielectric constant tensor:
#      x y z
#    x 1.963260 0.037660 -0.003680 
#    y 0.037660 1.944890 -0.036430 
#    z -0.003680 -0.036430 2.001750 
# 
# From -- ./inp_files/480265.got.cif
#   From: 2010.05.17/outbox.cif.g08.bks.cpg/sg2_241_cif.got.tgz:480265.got - 2010.06.03 11:33:40.
