data_PCOD9062748
_publ_section_title
;
Structure prediction by ZEFSAII (Michael W. Deem and Ramdas Pophale) SiO2 
 PCOD9062748
Probable space group: P -1
;
_chemical_formula_sum "Si O2"
_cell_formula_units_Z 16
_cell_length_a 17.090957
_cell_length_b 9.705474
_cell_length_c 10.779955
_cell_angle_alpha 64.925802
_cell_angle_beta 52.931464
_cell_angle_gamma 30.325441
_cell_volume 699.424337
_symmetry_space_group_name_H-M "P -1"
_symmetry_group_IT_number 2
_symmetry_cell_setting 'triclinic'
loop_
_space_group_symop_operation_xyz
x,y,z
-x,-y,-z
loop_
_atom_site_type_symbol
_atom_site_label
_atom_site_fract_x
_atom_site_fract_y
_atom_site_fract_z
Si Si1 0.736735 0.303655 0.367621
Si Si2 0.335903 0.818450 0.080784
Si Si3 0.167170 0.367824 0.458045
Si Si4 0.895583 0.773126 0.061240
Si Si5 0.074977 0.063271 0.447107
Si Si6 0.141123 0.680884 0.973822
Si Si7 0.414168 0.234793 0.083219
Si Si8 0.624255 0.152808 0.384815
O O1 0.777409 0.396277 0.209941
O O2 0.674375 0.257613 0.344883
O O3 0.590832 0.554679 0.510330
O O4 0.883967 0.021409 0.414951
O O5 0.252279 0.880019 0.269460
O O6 0.500000 0.500000 0.000000
O O7 0.424615 0.870198 0.980666
O O8 0.170035 0.030197 0.061326
O O9 0.292041 0.307198 0.272330
O O10 0.000000 0.500000 0.500000
O O11 0.069868 0.612470 0.551004
O O12 0.293005 0.076794 0.511179
O O13 0.710824 0.993500 0.232125
O O14 0.000000 0.500000 0.000000
O O15 0.030957 0.668575 0.073410
O O16 0.000000 0.000000 0.500000
O O17 0.282116 0.503624 0.017654
O O18 0.000000 0.000000 0.000000
O O19 0.500000 0.000000 0.000000
#
# Coordination Sequence:
#
# PCOD9062748 Si02
#       8
#     2   2   2   2   2   2   2   2
#     4  11  24  42  70 102 135 176 235 281 347 407
#     4  12  26  45  68  99 142 180 227 282 346 410
#     4  12  23  44  68 102 137 179 233 284 342 409
#     4  12  25  46  68 101 139 184 229 285 351 409
#     4  12  25  45  70 102 140 184 229 284 350 416
#     4  12  23  43  70 101 135 180 235 280 339 421
#     4  12  26  43  68 103 137 179 228 282 346 408
#     4  11  24  42  70 100 135 182 225 289 341 411
#
# _framework density 22.875955000000001
#
# number of rings (size 3 to 8) (size 9 to 14) (size 15 to 20)
#    0.000    0.250    2.500    7.500    3.500    0.000 
#    0.000    1.875    0.000    0.000    0.000    0.000 
#    0.000    0.000    0.000    0.000    0.000    0.000 
#
# Total GULP energy -89466.619059 kJ/mol
# GULP energy per Si atom -5591.663691 kJ/mol
# Density = 2.282389 g / cm^3
# Si number density = 22.875955 Si / 1000 Ang^3
#
#
#
# Elastic Constant Matrix: (Units=GPa)
#
#
# Indices 1 2 3 4 5 6 
#
# 1 62.5817 -6.5608 0.3765 6.4972 -10.2088 14.6514
# 2 -6.5608 117.6243 8.6235 14.0553 5.1875 18.4282
# 3 0.3765 8.6235 128.7192 13.6704 -5.0906 10.0596
# 4 6.4972 14.0553 13.6704 43.1803 1.4521 21.2916
# 5 -10.2088 5.1875 -5.0906 1.4521 32.8592 -4.4218
# 6 14.6514 18.4282 10.0596 21.2916 -4.4218 44.1783
#
#
#
# Elastic Compliance Matrix: (Units=1/GPa)
#
#
# Indices 1 2 3 4 5 6 
#
# 1 0.018465 0.001834 0.000565 -0.000637 0.004724 -0.006237
# 2 0.001834 0.009469 -0.000250 -0.001231 -0.001455 -0.004053
# 3 0.000565 -0.000250 0.008140 -0.002294 0.001486 -0.000682
# 4 -0.000637 -0.001231 -0.002294 0.031576 -0.003684 -0.014339
# 5 0.004724 -0.001455 0.001486 -0.003684 0.033032 0.003784
# 6 -0.006237 -0.004053 -0.000682 -0.014339 0.003784 0.033840
#
#
# Mechanical properties :
#
#
# Convention : Reuss Voigt Hill
#
# Bulk Modulus (GPa) = 24.77029 34.86706 29.81867
# Shear Modulus (GPa) = 34.79952 44.47595 39.63774
#
# Velocity S-wave (km/s) = 3.90452 4.41412 4.16712
# Velocity P-wave (km/s) = 5.58379 6.42294 6.01801
#
# Compressibility (1/GPa) = 0.04037095
#
# Stress axis : x y z
#
# Youngs Moduli (GPa) = 54.15678 105.61318 122.85535
#
# Poissons Ratio (x) = -0.19364 -0.06943
# Poissons Ratio (y) = -0.09930 0.03068
# Poissons Ratio (z) = -0.03060 0.02637
#
# Static dielectric constant tensor:
#      x y z
#    x 1.869720 -0.031490 -0.141880 
#    y -0.031490 1.774680 -0.382780 
#    z -0.141880 -0.382780 -2.013050 
# 
# From -- ./inp_files/299410.got.cif
#   From: 2010.05.17/outbox.cif.g08.bks.cpg/sg2_150_cif.got.tgz:299410.got - 2010.06.03 11:33:40.
