data_PCOD9062955
_publ_section_title
;
Structure prediction by ZEFSAII (Michael W. Deem and Ramdas Pophale) SiO2 
 PCOD9062955
Probable space group: P -1
;
_chemical_formula_sum "Si O2"
_cell_formula_units_Z 16
_cell_length_a 28.511583
_cell_length_b 12.606751
_cell_length_c 7.046923
_cell_angle_alpha 43.629781
_cell_angle_beta 127.646564
_cell_angle_gamma 153.078819
_cell_volume 786.438953
_symmetry_space_group_name_H-M "P -1"
_symmetry_group_IT_number 2
_symmetry_cell_setting 'triclinic'
loop_
_space_group_symop_operation_xyz
x,y,z
-x,-y,-z
loop_
_atom_site_type_symbol
_atom_site_label
_atom_site_fract_x
_atom_site_fract_y
_atom_site_fract_z
Si Si1 0.386366 0.282671 0.589858
Si Si2 0.953130 0.268723 0.043802
Si Si3 0.053288 0.328367 0.855431
Si Si4 0.532156 0.022556 0.340938
Si Si5 0.352043 0.557726 0.224478
Si Si6 0.887977 0.899235 0.685511
Si Si7 0.777451 0.098177 0.657499
Si Si8 0.600358 0.825993 0.853171
O O1 0.500000 0.500000 0.500000
O O2 0.377972 0.433105 0.465981
O O3 0.297778 0.093073 0.457877
O O4 0.373481 0.126207 0.921264
O O5 0.922582 0.064433 0.370310
O O6 0.850822 0.117179 0.883818
O O7 0.000000 0.500000 0.000000
O O8 0.029046 0.374119 0.926008
O O9 0.143855 0.600819 0.603796
O O10 0.085547 0.223201 0.116299
O O11 0.952721 0.102470 0.762328
O O12 0.428896 0.807864 0.234947
O O13 0.574174 0.938572 0.565852
O O14 0.500000 0.000000 0.500000
O O15 0.616176 0.312723 0.073002
O O16 0.233319 0.335587 0.268413
O O17 0.699960 0.977852 0.790117
O O18 0.500000 0.500000 0.000000
#
# Coordination Sequence:
#
# PCOD9062955 Si02
#       8
#     2   2   2   2   2   2   2   2
#     4  12  24  41  69 100 141 180 225 282 337 404
#     4  12  26  45  71 103 136 177 236 287 340 414
#     4  11  26  47  68 103 139 178 232 286 353 405
#     4  11  25  43  66  98 140 177 225 278 333 405
#     4  11  24  43  67  99 136 180 227 276 344 402
#     4  11  25  46  72  98 140 180 227 289 345 414
#     4  12  26  43  72 101 137 182 225 285 345 395
#     4  12  24  44  67 101 136 175 232 272 332 414
#
# _framework density 20.344871999999999
#
# number of rings (size 3 to 8) (size 9 to 14) (size 15 to 20)
#    0.000    0.500    3.750    3.750    3.500    4.000 
#    0.000    0.000    0.000    0.000    0.000    0.000 
#    0.000    0.000    0.000    0.000    0.000    0.000 
#
# Total GULP energy -89524.733299 kJ/mol
# GULP energy per Si atom -5595.295831 kJ/mol
# Density = 2.029857 g / cm^3
# Si number density = 20.344872 Si / 1000 Ang^3
#
#
#
# Elastic Constant Matrix: (Units=GPa)
#
#
# Indices 1 2 3 4 5 6 
#
# 1 82.7656 44.2200 25.6723 -4.1577 -19.2587 15.4007
# 2 44.2200 88.2636 22.6771 7.8303 -5.5345 22.3844
# 3 25.6723 22.6771 132.5593 0.1198 -4.1555 19.4566
# 4 -4.1577 7.8303 0.1198 38.2077 3.3312 -6.9209
# 5 -19.2587 -5.5345 -4.1555 3.3312 43.1850 -0.3463
# 6 15.4007 22.3844 19.4566 -6.9209 -0.3463 29.9237
#
#
#
# Elastic Compliance Matrix: (Units=1/GPa)
#
#
# Indices 1 2 3 4 5 6 
#
# 1 0.019367 -0.008668 -0.001824 0.002994 0.007107 -0.001522
# 2 -0.008668 0.019112 0.000069 -0.006855 -0.000973 -0.011478
# 3 -0.001824 0.000069 0.008620 -0.001149 0.000073 -0.004983
# 4 0.002994 -0.006855 -0.001149 0.030114 -0.001886 0.011277
# 5 0.007107 -0.000973 0.000073 -0.001886 0.026329 -0.003109
# 6 -0.001522 -0.011478 -0.004983 0.011277 -0.003109 0.048600
#
#
# Mechanical properties :
#
#
# Convention : Reuss Voigt Hill
#
# Bulk Modulus (GPa) = 38.09003 54.30303 46.19653
# Shear Modulus (GPa) = 27.51210 36.33121 31.92165
#
# Velocity S-wave (km/s) = 3.68133 4.23042 3.96539
# Velocity P-wave (km/s) = 6.06897 7.11415 6.61225
#
# Compressibility (1/GPa) = 0.02625359
#
# Stress axis : x y z
#
# Youngs Moduli (GPa) = 51.63491 52.32188 116.01077
#
# Poissons Ratio (x) = 0.45352 0.21164
# Poissons Ratio (y) = 0.44757 -0.00806
# Poissons Ratio (z) = 0.09420 -0.00363
#
# Static dielectric constant tensor:
#      x y z
#    x 2.195240 0.150470 0.578360 
#    y 0.150470 1.773130 0.196260 
#    z 0.578360 0.196260 2.312880 
# 
# From -- ./inp_files/126824.got.cif
#   From: 2010.05.17/outbox.cif.g08.bks.cpg/sg2_64_cif.got.tgz:126824.got - 2010.06.03 11:33:40.
