data_PCOD9062981
_publ_section_title
;
Structure prediction by ZEFSAII (Michael W. Deem and Ramdas Pophale) SiO2 
 PCOD9062981
Probable space group: P -1
;
_chemical_formula_sum "Si O2"
_cell_formula_units_Z 16
_cell_length_a 15.058556
_cell_length_b 23.968950
_cell_length_c 8.284678
_cell_angle_alpha 127.397420
_cell_angle_beta 65.184846
_cell_angle_gamma 159.936982
_cell_volume 678.844702
_symmetry_space_group_name_H-M "P -1"
_symmetry_group_IT_number 2
_symmetry_cell_setting 'triclinic'
loop_
_space_group_symop_operation_xyz
x,y,z
-x,-y,-z
loop_
_atom_site_type_symbol
_atom_site_label
_atom_site_fract_x
_atom_site_fract_y
_atom_site_fract_z
Si Si1 0.701734 0.839195 0.507874
Si Si2 0.741432 0.876926 0.907754
Si Si3 0.660778 0.644437 0.783189
Si Si4 0.910392 0.501898 0.259349
Si Si5 0.765259 0.545380 0.059151
Si Si6 0.973959 0.792845 0.082759
Si Si7 0.743669 0.238510 0.862886
Si Si8 0.252673 0.851934 0.790964
O O1 0.655740 0.789008 0.641857
O O2 0.423076 0.624716 0.232807
O O3 0.000000 0.000000 0.500000
O O4 0.788207 0.980397 0.679956
O O5 0.415969 0.686089 0.887218
O O6 0.000000 0.000000 0.000000
O O7 0.976356 0.101573 0.091609
O O8 0.500000 0.500000 0.500000
O O9 0.478531 0.593046 0.865269
O O10 0.678734 0.620683 0.904060
O O11 0.834809 0.369856 0.127998
O O12 0.034792 0.637262 0.542091
O O13 0.187364 0.689192 0.244499
O O14 0.029317 0.672913 0.137343
O O15 0.911303 0.714027 0.163065
O O16 0.086087 0.805695 0.908746
O O17 0.417724 0.989064 0.739930
O O18 0.500000 0.000000 0.000000
#
# Coordination Sequence:
#
# PCOD9062981 Si02
#       8
#     2   2   2   2   2   2   2   2
#     4  11  24  43  68 103 143 183 239 297 350 436
#     4  11  24  45  71 104 140 191 234 292 370 421
#     4  11  26  44  69 108 144 184 238 297 361 434
#     4  11  27  50  73 103 152 189 244 308 353 444
#     4  12  24  45  72 105 142 191 237 294 365 429
#     4  11  25  45  69 102 141 186 238 297 362 421
#     4  11  26  48  74 106 142 197 245 295 371 425
#     4  12  26  48  74 108 141 191 244 301 367 426
#
# _framework density 23.569455999999999
#
# number of rings (size 3 to 8) (size 9 to 14) (size 15 to 20)
#    0.000    0.750    3.750    3.750    7.000    0.500 
#    4.500    0.000    0.000    0.000    0.000    0.000 
#    0.000    0.000    0.000    0.000    0.000    0.000 
#
# Total GULP energy -89382.172134 kJ/mol
# GULP energy per Si atom -5586.385758 kJ/mol
# Density = 2.351581 g / cm^3
# Si number density = 23.569456 Si / 1000 Ang^3
#
#
#
# Elastic Constant Matrix: (Units=GPa)
#
#
# Indices 1 2 3 4 5 6 
#
# 1 86.2741 -4.2845 3.5704 7.4824 -24.1384 13.0647
# 2 -4.2845 93.9112 -2.8247 -12.6465 -10.8531 9.1839
# 3 3.5704 -2.8247 118.3303 7.0570 -21.1370 5.2555
# 4 7.4824 -12.6465 7.0570 28.4302 3.7121 -5.4958
# 5 -24.1384 -10.8531 -21.1370 3.7121 34.3696 -7.0804
# 6 13.0647 9.1839 5.2555 -5.4958 -7.0804 36.3019
#
#
#
# Elastic Compliance Matrix: (Units=1/GPa)
#
#
# Indices 1 2 3 4 5 6 
#
# 1 0.016849 0.002015 0.002654 -0.007025 0.013761 -0.005337
# 2 0.002015 0.012048 0.001016 0.003459 0.004971 -0.002427
# 3 0.002654 0.001016 0.010260 -0.004238 0.008610 -0.001660
# 4 -0.007025 0.003459 -0.004238 0.042178 -0.009607 0.006778
# 5 0.013761 0.004971 0.008610 -0.009607 0.046703 0.000198
# 6 -0.005337 -0.002427 -0.001660 0.006778 0.000198 0.031387
#
#
# Mechanical properties :
#
#
# Convention : Reuss Voigt Hill
#
# Bulk Modulus (GPa) = 19.79168 32.38202 26.08685
# Shear Modulus (GPa) = 30.32189 39.95730 35.13959
#
# Velocity S-wave (km/s) = 3.59066 4.12187 3.86540
# Velocity P-wave (km/s) = 5.06022 6.03505 5.56901
#
# Compressibility (1/GPa) = 0.05052629
#
# Stress axis : x y z
#
# Youngs Moduli (GPa) = 59.35144 82.99828 97.47010
#
# Poissons Ratio (x) = -0.16721 -0.25866
# Poissons Ratio (y) = -0.11957 -0.09906
# Poissons Ratio (z) = -0.15751 -0.08435
#
# Static dielectric constant tensor:
#      x y z
#    x 2.193930 -0.079320 0.016790 
#    y -0.079320 1.950190 -0.014970 
#    z 0.016790 -0.014970 1.898770 
# 
# From -- ./inp_files/320740.got.cif
#   From: 2010.05.17/outbox.cif.g08.bks.cpg/sg2_161_cif.got.tgz:320740.got - 2010.06.03 11:33:40.
