data_PCOD9062648
_publ_section_title
;
Structure prediction by ZEFSAII (Michael W. Deem and Ramdas Pophale) SiO2 
 PCOD9062648
Probable space group: P -1
;
_chemical_formula_sum "Si O2"
_cell_formula_units_Z 16
_cell_length_a 9.242920
_cell_length_b 7.034369
_cell_length_c 13.875867
_cell_angle_alpha 104.023145
_cell_angle_beta 117.461946
_cell_angle_gamma 110.420806
_cell_volume 656.115415
_symmetry_space_group_name_H-M "P -1"
_symmetry_group_IT_number 2
_symmetry_cell_setting 'triclinic'
loop_
_space_group_symop_operation_xyz
x,y,z
-x,-y,-z
loop_
_atom_site_type_symbol
_atom_site_label
_atom_site_fract_x
_atom_site_fract_y
_atom_site_fract_z
Si Si1 0.190699 0.899603 0.685815
Si Si2 0.230663 0.363656 0.445123
Si Si3 0.358690 0.428935 0.856181
Si Si4 0.080409 0.515633 0.893248
Si Si5 0.270609 0.986752 0.510183
Si Si6 0.883774 0.102513 0.928156
Si Si7 0.464405 0.713876 0.733405
Si Si8 0.314319 0.651621 0.339934
O O1 0.199417 0.489955 0.842397
O O2 0.355445 0.844706 0.743496
O O3 0.989192 0.706999 0.646928
O O4 0.259740 0.155811 0.773965
O O5 0.212250 0.126859 0.441031
O O6 0.335041 0.541895 0.586623
O O7 0.336079 0.475344 0.391102
O O8 0.461255 0.568441 0.807103
O O9 0.500000 0.500000 0.000000
O O10 0.027705 0.307293 0.925301
O O11 0.872634 0.469863 0.796446
O O12 0.183744 0.768430 0.003498
O O13 0.489621 0.176221 0.633986
O O14 0.148091 0.886831 0.556121
O O15 0.282950 0.802595 0.427276
O O16 0.685383 0.898470 0.795561
O O17 0.000000 0.000000 0.000000
#
# Coordination Sequence:
#
# PCOD9062648 Si02
#       8
#     2   2   2   2   2   2   2   2
#     4  12  25  45  70 100 144 182 225 282 347 410
#     4  12  25  42  69 102 137 183 227 277 346 410
#     4  12  27  46  71 102 137 184 233 287 339 401
#     4  11  26  47  71 102 139 176 232 286 344 404
#     4  11  24  42  66 100 140 179 223 277 342 405
#     4  11  27  48  74 100 137 184 230 285 346 403
#     4  12  26  44  72 101 138 179 233 281 340 412
#     4  11  25  42  68 103 138 176 229 285 338 411
#
# _framework density 24.385954000000002
#
# number of rings (size 3 to 8) (size 9 to 14) (size 15 to 20)
#    0.000    0.500    2.500    4.875    5.250    8.000 
#    0.000    0.000    0.000    0.000    0.000    0.000 
#    0.000    0.000    0.000    0.000    0.000    0.000 
#
# Total GULP energy -89704.715212 kJ/mol
# GULP energy per Si atom -5606.544701 kJ/mol
# Density = 2.433045 g / cm^3
# Si number density = 24.385954 Si / 1000 Ang^3
#
#
#
# Elastic Constant Matrix: (Units=GPa)
#
#
# Indices 1 2 3 4 5 6 
#
# 1 66.4402 20.4421 0.0453 20.9384 3.1029 -16.5727
# 2 20.4421 121.5369 37.4295 0.5509 -1.5610 -14.3309
# 3 0.0453 37.4295 81.1891 4.6774 11.6410 -10.7089
# 4 20.9384 0.5509 4.6774 44.8240 -6.5472 -0.7249
# 5 3.1029 -1.5610 11.6410 -6.5472 42.3060 -0.2359
# 6 -16.5727 -14.3309 -10.7089 -0.7249 -0.2359 34.3565
#
#
#
# Elastic Compliance Matrix: (Units=1/GPa)
#
#
# Indices 1 2 3 4 5 6 
#
# 1 0.022773 -0.004016 0.004577 -0.011600 -0.004815 0.010459
# 2 -0.004016 0.010672 -0.005319 0.002691 0.002574 0.000931
# 3 0.004577 -0.005319 0.016513 -0.004555 -0.005753 0.005001
# 4 -0.011600 0.002691 -0.004555 0.029060 0.006672 -0.005234
# 5 -0.004815 0.002574 -0.005753 0.006672 0.026686 -0.002718
# 6 0.010459 0.000931 0.005001 -0.005234 -0.002718 0.035970
#
#
# Mechanical properties :
#
#
# Convention : Reuss Voigt Hill
#
# Bulk Modulus (GPa) = 24.72645 42.77778 33.75212
# Shear Modulus (GPa) = 30.36352 38.38056 34.37204
#
# Velocity S-wave (km/s) = 3.53246 3.97152 3.75841
# Velocity P-wave (km/s) = 5.17681 6.21375 5.71883
#
# Compressibility (1/GPa) = 0.04044252
#
# Stress axis : x y z
#
# Youngs Moduli (GPa) = 43.91149 93.70198 60.55684
#
# Poissons Ratio (x) = 0.37630 -0.27716
# Poissons Ratio (y) = 0.17634 0.32210
# Poissons Ratio (z) = -0.20098 0.49840
#
# Static dielectric constant tensor:
#      x y z
#    x 1.899070 -0.031400 0.011250 
#    y -0.031400 1.913660 -0.021120 
#    z 0.011250 -0.021120 1.911900 
# 
# From -- ./inp_files/511044.got.cif
#   From: 2010.05.17/outbox.cif.g08.bks.cpg/sg2_256_cif.got.tgz:511044.got - 2010.06.03 11:33:40.
