data_PCOD9062122
_publ_section_title
;
Structure prediction by ZEFSAII (Michael W. Deem and Ramdas Pophale) SiO2 
 PCOD9062122
Probable space group: P -1
;
_chemical_formula_sum "Si O2"
_cell_formula_units_Z 16
_cell_length_a 13.768265
_cell_length_b 13.066783
_cell_length_c 9.292303
_cell_angle_alpha 130.662385
_cell_angle_beta 138.118383
_cell_angle_gamma 39.302967
_cell_volume 695.576128
_symmetry_space_group_name_H-M "P -1"
_symmetry_group_IT_number 2
_symmetry_cell_setting 'triclinic'
loop_
_space_group_symop_operation_xyz
x,y,z
-x,-y,-z
loop_
_atom_site_type_symbol
_atom_site_label
_atom_site_fract_x
_atom_site_fract_y
_atom_site_fract_z
Si Si1 0.354929 0.998475 0.931470
Si Si2 0.252600 0.011038 0.317674
Si Si3 0.455214 0.376796 0.772893
Si Si4 0.933075 0.810008 0.012886
Si Si5 0.651992 0.760527 0.233390
Si Si6 0.843194 0.058518 0.575456
Si Si7 0.149872 0.447325 0.997434
Si Si8 0.464269 0.394734 0.471820
O O1 0.214213 0.008151 0.676727
O O2 0.235195 0.150067 0.044240
O O3 0.466740 0.840244 0.014375
O O4 0.500000 0.000000 0.000000
O O5 0.355646 0.086838 0.564616
O O6 0.382632 0.818577 0.241446
O O7 0.121980 0.035718 0.323956
O O8 0.139089 0.120149 0.159002
O O9 0.330623 0.361430 0.734779
O O10 0.803973 0.672275 0.197139
O O11 0.391903 0.442965 0.600018
O O12 0.500000 0.500000 0.000000
O O13 0.008430 0.908837 0.252875
O O14 0.087644 0.620112 0.014885
O O15 0.657193 0.231323 0.554546
O O16 0.329608 0.374286 0.216293
O O17 0.000000 0.500000 0.000000
O O18 0.500000 0.500000 0.500000
#
# Coordination Sequence:
#
# PCOD9062122 Si02
#       8
#     2   2   2   2   2   2   2   2
#     4  12  24  45  76 107 145 201 256 310 379 450
#     4  11  26  47  76 111 153 199 252 309 387 461
#     4  11  26  45  78 114 147 202 255 312 380 457
#     4  12  27  45  73 109 159 191 256 316 377 458
#     4  12  25  49  77 108 154 203 257 311 384 458
#     4  11  24  45  76 106 143 198 253 311 375 449
#     4  12  28  47  73 112 151 200 257 319 380 442
#     4  11  23  47  74 103 149 195 250 308 372 457
#
# _framework density 23.002516
#
# number of rings (size 3 to 8) (size 9 to 14) (size 15 to 20)
#    0.000    0.500    5.000    2.625    3.500    0.500 
#    2.250    0.000    0.000    0.000    0.000    0.000 
#    0.000    0.000    0.000    0.000    0.000    0.000 
#
# Total GULP energy -89346.565707 kJ/mol
# GULP energy per Si atom -5584.160357 kJ/mol
# Density = 2.295016 g / cm^3
# Si number density = 23.002516 Si / 1000 Ang^3
#
#
#
# Elastic Constant Matrix: (Units=GPa)
#
#
# Indices 1 2 3 4 5 6 
#
# 1 138.0399 47.9521 53.7883 0.4579 -12.8901 7.5395
# 2 47.9521 81.5266 48.1300 12.3626 -21.6819 25.7426
# 3 53.7883 48.1300 117.5798 0.7486 -20.3668 10.3100
# 4 0.4579 12.3626 0.7486 38.0226 5.9969 -3.7269
# 5 -12.8901 -21.6819 -20.3668 5.9969 36.3628 -1.1423
# 6 7.5395 25.7426 10.3100 -3.7269 -1.1423 26.0686
#
#
#
# Elastic Compliance Matrix: (Units=1/GPa)
#
#
# Indices 1 2 3 4 5 6 
#
# 1 0.010337 -0.007705 -0.002605 0.003459 -0.002770 0.006022
# 2 -0.007705 0.040629 -0.006219 -0.019831 0.020107 -0.037387
# 3 -0.002605 -0.006219 0.012391 0.001707 0.002100 0.002330
# 4 0.003459 -0.019831 0.001707 0.037263 -0.015079 0.022574
# 5 -0.002770 0.020107 0.002100 -0.015079 0.041536 -0.020221
# 6 0.006022 -0.037387 0.002330 0.022574 -0.020221 0.074958
#
#
# Mechanical properties :
#
#
# Convention : Reuss Voigt Hill
#
# Bulk Modulus (GPa) = 33.00399 70.76524 51.88461
# Shear Modulus (GPa) = 19.21081 32.57585 25.89333
#
# Velocity S-wave (km/s) = 2.89305 3.76731 3.35875
# Velocity P-wave (km/s) = 5.05359 7.05368 6.13568
#
# Compressibility (1/GPa) = 0.03029937
#
# Stress axis : x y z
#
# Youngs Moduli (GPa) = 96.74306 24.61294 80.70608
#
# Poissons Ratio (x) = 0.18964 0.21021
# Poissons Ratio (y) = 0.74541 0.50190
# Poissons Ratio (z) = 0.25198 0.15306
#
# Static dielectric constant tensor:
#      x y z
#    x 1.943440 0.029680 -0.043880 
#    y 0.029680 1.793740 -0.010370 
#    z -0.043880 -0.010370 1.826570 
# 
# From -- ./inp_files/259693.got.cif
#   From: 2010.05.17/outbox.cif.g08.bks.cpg/sg2_130_cif.got.tgz:259693.got - 2010.06.03 11:33:40.
