data_PCOD9062006
_publ_section_title
;
Structure prediction by ZEFSAII (Michael W. Deem and Ramdas Pophale) SiO2 
 PCOD9062006
Probable space group: P -1
;
_chemical_formula_sum "Si O2"
_cell_formula_units_Z 14
_cell_length_a 6.369193
_cell_length_b 7.877120
_cell_length_c 21.270534
_cell_angle_alpha 139.909680
_cell_angle_beta 124.408988
_cell_angle_gamma 59.135425
_cell_volume 560.417585
_symmetry_space_group_name_H-M "P -1"
_symmetry_group_IT_number 2
_symmetry_cell_setting 'triclinic'
loop_
_space_group_symop_operation_xyz
x,y,z
-x,-y,-z
loop_
_atom_site_type_symbol
_atom_site_label
_atom_site_fract_x
_atom_site_fract_y
_atom_site_fract_z
Si Si1 0.137062 0.304442 0.519657
Si Si2 0.392557 0.028863 0.826780
Si Si3 0.367416 0.775531 0.345266
Si Si4 0.527727 0.162749 0.754798
Si Si5 0.065488 0.324023 0.164141
Si Si6 0.986512 0.666481 0.698996
Si Si7 0.506288 0.266717 0.034137
O O1 0.430077 0.333603 0.597232
O O2 0.970359 0.402924 0.580942
O O3 0.000000 0.500000 0.500000
O O4 0.180795 0.015393 0.414025
O O5 0.352383 0.112349 0.771146
O O6 0.694007 0.909120 0.852736
O O7 0.220614 0.806440 0.752536
O O8 0.351513 0.245805 0.937235
O O9 0.533111 0.840388 0.330886
O O10 0.196601 0.566942 0.230860
O O11 0.592393 0.455732 0.868342
O O12 0.749143 0.904424 0.721327
O O13 0.971194 0.401757 0.240788
O O14 0.809554 0.266996 0.071487
O O15 0.500000 0.000000 0.000000
#
# Coordination Sequence:
#
# PCOD9062006 Si02
#       7
#     2   2   2   2   2   2   2
#     4  11  23  46  78 108 144 186 245 302 364 439
#     4  11  24  46  69 106 145 193 242 297 361 425
#     4  11  24  46  75 110 145 189 242 300 369 433
#     4  11  26  43  70 104 147 193 237 295 370 429
#     4  11  24  45  74 102 147 190 237 303 360 423
#     4  11  23  47  70 103 151 185 240 307 358 429
#     4  12  24  45  71 105 145 194 249 296 354 433
#
# _framework density 24.981372
#
# number of rings (size 3 to 8) (size 9 to 14) (size 15 to 20)
#    0.000    0.857    4.286    2.571    2.000    1.143 
#    0.000    4.286    0.000    0.000    0.000    0.000 
#    0.000    0.000    0.000    0.000    0.000    0.000 
#
# Total GULP energy -78197.197859 kJ/mol
# GULP energy per Si atom -5585.514133 kJ/mol
# Density = 2.492451 g / cm^3
# Si number density = 24.981372 Si / 1000 Ang^3
#
#
#
# Elastic Constant Matrix: (Units=GPa)
#
#
# Indices 1 2 3 4 5 6 
#
# 1 85.0153 30.3598 34.5659 -10.2985 -14.6121 19.2715
# 2 30.3598 88.8327 19.3955 -3.7333 -14.6471 -19.2505
# 3 34.5659 19.3955 97.3019 -4.3653 -40.9281 -1.2603
# 4 -10.2985 -3.7333 -4.3653 44.6848 -9.3645 -11.2207
# 5 -14.6121 -14.6471 -40.9281 -9.3645 48.5149 -6.0987
# 6 19.2715 -19.2505 -1.2603 -11.2207 -6.0987 35.4715
#
#
#
# Elastic Compliance Matrix: (Units=1/GPa)
#
#
# Indices 1 2 3 4 5 6 
#
# 1 0.023287 -0.012255 -0.009966 -0.004091 -0.008705 -0.022448
# 2 -0.012255 0.021523 0.005833 0.007902 0.012161 0.023136
# 3 -0.009966 0.005833 0.022118 0.008725 0.021083 0.015750
# 4 -0.004091 0.007902 0.008725 0.031475 0.017067 0.019712
# 5 -0.008705 0.012161 0.021083 0.017067 0.045932 0.025374
# 6 -0.022448 0.023136 0.015750 0.019712 0.025374 0.064101
#
#
# Mechanical properties :
#
#
# Convention : Reuss Voigt Hill
#
# Bulk Modulus (GPa) = 29.27959 48.86580 39.07270
# Shear Modulus (GPa) = 19.79439 38.18950 28.99195
#
# Velocity S-wave (km/s) = 2.81795 3.91413 3.41037
# Velocity P-wave (km/s) = 4.72587 6.32697 5.58410
#
# Compressibility (1/GPa) = 0.03415348
#
# Stress axis : x y z
#
# Youngs Moduli (GPa) = 42.94155 46.46233 45.21112
#
# Poissons Ratio (x) = 0.56938 0.45056
# Poissons Ratio (y) = 0.52623 -0.26370
# Poissons Ratio (z) = 0.42794 -0.27100
#
# Static dielectric constant tensor:
#      x y z
#    x 2.001860 -0.003880 -0.051880 
#    y -0.003880 2.016010 0.023250 
#    z -0.051880 0.023250 2.021940 
# 
# From -- ./inp_files/38389.got.cif
#   From: 2010.05.17/outbox.cif.g08.bks.cpg/sg2_20_cif.got.tgz:38389.got - 2010.06.03 11:33:40.
