data_PCOD9062694
_publ_section_title
;
Structure prediction by ZEFSAII (Michael W. Deem and Ramdas Pophale) SiO2 
 PCOD9062694
Probable space group: P -1
;
_chemical_formula_sum "Si O2"
_cell_formula_units_Z 15
_cell_length_a 18.196166
_cell_length_b 9.259509
_cell_length_c 4.897182
_cell_angle_alpha 118.630549
_cell_angle_beta 100.090149
_cell_angle_gamma 47.787130
_cell_volume 522.556083
_symmetry_space_group_name_H-M "P -1"
_symmetry_group_IT_number 2
_symmetry_cell_setting 'triclinic'
loop_
_space_group_symop_operation_xyz
x,y,z
-x,-y,-z
loop_
_atom_site_type_symbol
_atom_site_label
_atom_site_fract_x
_atom_site_fract_y
_atom_site_fract_z
Si Si1 0.284377 0.695636 0.719317
Si Si2 0.500000 0.500000 0.000000
Si Si3 0.844188 0.639736 0.460100
Si Si4 0.497896 0.840698 0.048501
Si Si5 0.338793 0.279645 0.515853
Si Si6 0.681533 0.146691 0.639875
Si Si7 0.059069 0.644084 0.208749
Si Si8 0.909576 0.072807 0.808397
O O1 0.321569 0.457208 0.461621
O O2 0.277579 0.814640 0.556577
O O3 0.359889 0.672974 0.966259
O O4 0.184553 0.826408 0.963970
O O5 0.515799 0.619990 0.867370
O O6 0.432090 0.748595 0.376995
O O7 0.767521 0.604438 0.309470
O O8 0.874500 0.558222 0.715948
O O9 0.775772 0.898516 0.580485
O O10 0.940139 0.462420 0.164656
O O11 0.580446 0.777367 0.268993
O O12 0.376459 0.050913 0.215555
O O13 0.500000 0.000000 0.000000
O O14 0.102637 0.761612 0.269666
O O15 0.953526 0.850768 0.471149
O O16 0.000000 0.000000 0.000000
#
# Coordination Sequence:
#
# PCOD9062694 Si02
#       8
#     2   1   2   2   2   2   2   2
#     4  12  27  47  75 109 147 188 258 309 368 462
#     4  12  24  52  72 106 164 198 254 318 382 444
#     4  12  25  46  73 105 150 196 244 306 376 451
#     4  11  25  44  70 107 144 198 259 309 386 447
#     4  11  24  42  68 106 139 189 254 307 360 454
#     4  12  29  48  72 110 151 202 242 309 383 448
#     4  11  24  42  76 107 140 189 246 296 381 446
#     4  11  24  45  78 113 143 191 247 315 381 446
#
# _framework density 28.705052999999999
#
# number of rings (size 3 to 8) (size 9 to 14) (size 15 to 20)
#    0.000    0.533    5.333    1.600    7.467    1.600 
#    0.000    4.000    0.000    0.000    0.000    0.000 
#    0.000    0.000    0.000    0.000    0.000    0.000 
#
# Total GULP energy -83733.064383 kJ/mol
# GULP energy per Si atom -5582.204292 kJ/mol
# Density = 2.863972 g / cm^3
# Si number density = 28.705053 Si / 1000 Ang^3
#
#
#
# Elastic Constant Matrix: (Units=GPa)
#
#
# Indices 1 2 3 4 5 6 
#
# 1 140.7077 51.3510 10.9104 -7.6107 -29.9508 12.2647
# 2 51.3510 253.5738 64.4060 -23.7790 -20.2147 58.0163
# 3 10.9104 64.4060 82.9473 -9.2376 -19.2774 25.1088
# 4 -7.6107 -23.7790 -9.2376 51.9594 1.2245 5.4291
# 5 -29.9508 -20.2147 -19.2774 1.2245 44.5642 -1.0556
# 6 12.2647 58.0163 25.1088 5.4291 -1.0556 47.0001
#
#
#
# Elastic Compliance Matrix: (Units=1/GPa)
#
#
# Indices 1 2 3 4 5 6 
#
# 1 0.008964 -0.001311 0.001925 0.001091 0.006192 -0.001736
# 2 -0.001311 0.006834 -0.002387 0.003239 0.000927 -0.007172
# 3 0.001925 -0.002387 0.018012 0.002977 0.007747 -0.007349
# 4 0.001091 0.003239 0.002977 0.022229 0.002681 -0.008380
# 5 0.006192 0.000927 0.007747 0.002681 0.030144 -0.006532
# 6 -0.001736 -0.007172 -0.007349 -0.008380 -0.006532 0.035329
#
#
# Mechanical properties :
#
#
# Convention : Reuss Voigt Hill
#
# Bulk Modulus (GPa) = 33.04179 81.17373 57.10776
# Shear Modulus (GPa) = 36.99645 52.07549 44.53597
#
# Velocity S-wave (km/s) = 3.59395 4.26391 3.94319
# Velocity P-wave (km/s) = 5.36262 7.25129 6.37726
#
# Compressibility (1/GPa) = 0.03026470
#
# Stress axis : x y z
#
# Youngs Moduli (GPa) = 111.55146 146.33088 55.51736
#
# Poissons Ratio (x) = 0.19188 -0.10687
# Poissons Ratio (y) = 0.14627 0.13250
# Poissons Ratio (z) = -0.21473 0.34924
#
# Static dielectric constant tensor:
#      x y z
#    x 2.487370 -0.037170 -0.079090 
#    y -0.037170 2.301140 0.014310 
#    z -0.079090 0.014310 2.504100 
# 
# From -- ./inp_files/115611.got.cif
#   From: 2010.05.17/outbox.cif.g08.bks.cpg/sg2_58_cif.got.tgz:115611.got - 2010.06.03 11:33:40.
