data_PCOD9062207
_publ_section_title
;
Structure prediction by ZEFSAII (Michael W. Deem and Ramdas Pophale) SiO2 
 PCOD9062207
Probable space group: P -1
;
_chemical_formula_sum "Si O2"
_cell_formula_units_Z 16
_cell_length_a 9.763777
_cell_length_b 17.758573
_cell_length_c 11.156738
_cell_angle_alpha 141.127610
_cell_angle_beta 102.349777
_cell_angle_gamma 49.517137
_cell_volume 731.130531
_symmetry_space_group_name_H-M "P -1"
_symmetry_group_IT_number 2
_symmetry_cell_setting 'triclinic'
loop_
_space_group_symop_operation_xyz
x,y,z
-x,-y,-z
loop_
_atom_site_type_symbol
_atom_site_label
_atom_site_fract_x
_atom_site_fract_y
_atom_site_fract_z
Si Si1 0.594877 0.281596 0.011475
Si Si2 0.976273 0.445986 0.055062
Si Si3 0.528208 0.204740 0.343808
Si Si4 0.257568 0.522022 0.473426
Si Si5 0.232496 0.209501 0.394544
Si Si6 0.038807 0.898166 0.997477
Si Si7 0.619792 0.496621 0.121714
Si Si8 0.514629 0.898898 0.266157
O O1 0.404455 0.420708 0.252911
O O2 0.642561 0.373854 0.068741
O O3 0.843362 0.090602 0.875186
O O4 0.522498 0.213563 0.838358
O O5 0.846391 0.627924 0.336316
O O6 0.837570 0.415258 0.000559
O O7 0.000000 0.500000 0.000000
O O8 0.226997 0.260683 0.925825
O O9 0.389004 0.352631 0.386752
O O10 0.426240 0.142022 0.269181
O O11 0.496430 0.318298 0.591647
O O12 0.796407 0.013530 0.135455
O O13 0.995122 0.670023 0.571633
O O14 0.222569 0.674005 0.717732
O O15 0.344962 0.040369 0.299357
O O16 0.000000 0.000000 0.000000
O O17 0.500000 0.500000 0.000000
O O18 0.500000 0.000000 0.500000
#
# Coordination Sequence:
#
# PCOD9062207 Si02
#       8
#     2   2   2   2   2   2   2   2
#     4  12  25  46  71 110 145 188 242 296 367 429
#     4  11  23  48  72 100 148 192 236 296 355 430
#     4  11  26  46  70 109 145 187 247 297 361 434
#     4  12  24  47  73 104 146 195 236 299 369 428
#     4  11  26  42  73 103 143 190 242 298 357 428
#     4  12  24  43  72 105 147 187 236 294 363 434
#     4  11  26  45  76 106 143 192 237 297 364 425
#     4  12  26  45  73 104 142 194 248 292 358 431
#
# _framework density 21.883918999999999
#
# number of rings (size 3 to 8) (size 9 to 14) (size 15 to 20)
#    0.000    0.500    5.000    3.000    3.500    1.500 
#    0.000    1.250    0.000    0.000    0.000    0.000 
#    0.000    0.000    0.000    0.000    0.000    0.000 
#
# Total GULP energy -89250.774850 kJ/mol
# GULP energy per Si atom -5578.173428 kJ/mol
# Density = 2.183411 g / cm^3
# Si number density = 21.883919 Si / 1000 Ang^3
#
#
#
# Elastic Constant Matrix: (Units=GPa)
#
#
# Indices 1 2 3 4 5 6 
#
# 1 159.7566 29.4344 42.3668 -7.0937 -7.9429 -21.0769
# 2 29.4344 84.9134 22.4409 -6.6562 -2.4990 -14.8681
# 3 42.3668 22.4409 71.6088 4.6326 -6.0851 0.0603
# 4 -7.0937 -6.6562 4.6326 29.3380 -7.7925 -4.1339
# 5 -7.9429 -2.4990 -6.0851 -7.7925 37.4118 5.7118
# 6 -21.0769 -14.8681 0.0603 -4.1339 5.7118 38.7945
#
#
#
# Elastic Compliance Matrix: (Units=1/GPa)
#
#
# Indices 1 2 3 4 5 6 
#
# 1 0.008519 -0.000479 -0.005046 0.003676 0.001005 0.004696
# 2 -0.000479 0.014548 -0.004570 0.004787 0.000239 0.005797
# 3 -0.005046 -0.004570 0.018864 -0.005632 0.001331 -0.005318
# 4 0.003676 0.004787 -0.005632 0.039909 0.007428 0.007000
# 5 0.001005 0.000239 0.001331 0.007428 0.029160 -0.002867
# 6 0.004696 0.005797 -0.005318 0.007000 -0.002867 0.031726
#
#
# Mechanical properties :
#
#
# Convention : Reuss Voigt Hill
#
# Bulk Modulus (GPa) = 45.99743 56.08477 51.04110
# Shear Modulus (GPa) = 29.38343 35.91131 32.64737
#
# Velocity S-wave (km/s) = 3.66826 4.05531 3.86663
# Velocity P-wave (km/s) = 6.24547 6.90010 6.58093
#
# Compressibility (1/GPa) = 0.02174034
#
# Stress axis : x y z
#
# Youngs Moduli (GPa) = 117.38620 68.73891 53.01004
#
# Poissons Ratio (x) = 0.03294 0.26751
# Poissons Ratio (y) = 0.05626 0.24224
# Poissons Ratio (z) = 0.59237 0.31412
#
# Static dielectric constant tensor:
#      x y z
#    x 1.901640 0.109080 0.005980 
#    y 0.109080 2.234900 0.085880 
#    z 0.005980 0.085880 1.834410 
# 
# From -- ./inp_files/68536.got.cif
#   From: 2010.05.17/outbox.cif.g08.bks.cpg/sg2_35_cif.got.tgz:68536.got - 2010.06.03 11:33:40.
