data_PCOD9062144
_publ_section_title
;
Structure prediction by ZEFSAII (Michael W. Deem and Ramdas Pophale) SiO2 
 PCOD9062144
Probable space group: P -1
;
_chemical_formula_sum "Si O2"
_cell_formula_units_Z 15
_cell_length_a 5.418674
_cell_length_b 26.056028
_cell_length_c 27.943603
_cell_angle_alpha 9.667078
_cell_angle_beta 119.602833
_cell_angle_gamma 121.551081
_cell_volume 557.959277
_symmetry_space_group_name_H-M "P -1"
_symmetry_group_IT_number 2
_symmetry_cell_setting 'triclinic'
loop_
_space_group_symop_operation_xyz
x,y,z
-x,-y,-z
loop_
_atom_site_type_symbol
_atom_site_label
_atom_site_fract_x
_atom_site_fract_y
_atom_site_fract_z
Si Si1 0.956900 0.696355 0.654349
Si Si2 0.701795 0.252119 0.120476
Si Si3 0.333133 0.018849 0.055672
Si Si4 0.225608 0.872641 0.361924
Si Si5 0.677915 0.175259 0.042475
Si Si6 0.493800 0.638178 0.819609
Si Si7 0.114655 0.636211 0.266884
Si Si8 0.500000 0.500000 0.500000
O O1 0.248137 0.602681 0.785987
O O2 0.955085 0.061276 0.319437
O O3 0.739889 0.511829 0.844011
O O4 0.825795 0.535386 0.740510
O O5 0.416829 0.971969 0.337099
O O6 0.708017 0.457509 0.979295
O O7 0.560169 0.174782 0.891672
O O8 0.046208 0.145597 0.918826
O O9 0.508806 0.129922 0.018796
O O10 0.313793 0.659308 0.373071
O O11 0.079849 0.519497 0.653692
O O12 0.450602 0.016944 0.207842
O O13 0.948286 0.017296 0.208652
O O14 0.500000 0.000000 0.500000
O O15 0.500000 0.500000 0.000000
O O16 0.199576 0.385725 0.541063
#
# Coordination Sequence:
#
# PCOD9062144 Si02
#       8
#     2   2   2   2   2   2   2   1
#     4  11  25  46  72 106 144 193 247 313 377 449
#     4  11  25  46  72 106 144 193 247 313 377 449
#     4  12  27  47  73 107 141 192 249 303 371 450
#     4  11  23  47  76 108 144 188 243 316 381 440
#     4  11  23  47  76 108 144 188 243 316 381 440
#     4  12  26  45  70 106 148 197 248 305 368 452
#     4  12  27  47  73 107 141 192 249 303 371 450
#     4  12  28  48  72 100 154 196 238 306 370 446
#
# _framework density 26.883679999999998
#
# number of rings (size 3 to 8) (size 9 to 14) (size 15 to 20)
#    0.000    0.533    2.667    4.800    0.000    6.400 
#    2.400    0.000    0.000    0.000    0.000    0.000 
#    0.000    0.000    0.000    0.000    0.000    0.000 
#
# Total GULP energy -83634.288663 kJ/mol
# GULP energy per Si atom -5575.619244 kJ/mol
# Density = 2.682249 g / cm^3
# Si number density = 26.883680 Si / 1000 Ang^3
#
#
#
# Elastic Constant Matrix: (Units=GPa)
#
#
# Indices 1 2 3 4 5 6 
#
# 1 176.5247 35.7845 33.7133 23.4638 36.6646 -12.6153
# 2 35.7845 143.4826 19.7519 5.3178 11.0358 -11.3640
# 3 33.7133 19.7519 167.8454 -34.0361 50.5791 7.1496
# 4 23.4638 5.3178 -34.0361 98.2178 -7.8651 -9.1039
# 5 36.6646 11.0358 50.5791 -7.8651 54.2623 -3.3379
# 6 -12.6153 -11.3640 7.1496 -9.1039 -3.3379 65.8887
#
#
#
# Elastic Compliance Matrix: (Units=1/GPa)
#
#
# Indices 1 2 3 4 5 6 
#
# 1 0.007274 -0.001277 -0.000397 -0.002106 -0.004548 0.000694
# 2 -0.001277 0.007481 -0.000740 -0.000250 0.000062 0.001095
# 3 -0.000397 -0.000740 0.009004 0.002527 -0.007683 -0.001221
# 4 -0.002106 -0.000250 0.002527 0.011732 0.000877 0.000945
# 5 -0.004548 0.000062 -0.007683 0.000877 0.028874 0.001558
# 6 0.000694 0.001095 -0.001221 0.000945 0.001558 0.015841
#
#
# Mechanical properties :
#
#
# Convention : Reuss Voigt Hill
#
# Bulk Modulus (GPa) = 52.82065 74.03912 63.42988
# Shear Modulus (GPa) = 54.73886 70.24730 62.49308
#
# Velocity S-wave (km/s) = 4.51725 5.11731 4.82661
# Velocity P-wave (km/s) = 6.84821 7.90671 7.39642
#
# Compressibility (1/GPa) = 0.01893199
#
# Stress axis : x y z
#
# Youngs Moduli (GPa) = 137.48340 133.67313 111.05690
#
# Poissons Ratio (x) = 0.17065 0.04408
# Poissons Ratio (y) = 0.17551 0.08217
# Poissons Ratio (z) = 0.05457 0.09891
#
# Static dielectric constant tensor:
#      x y z
#    x 2.114820 0.050820 -0.139070 
#    y 0.050820 2.128780 0.021890 
#    z -0.139070 0.021890 2.242280 
# 
# From -- ./inp_files/622066.got.cif
#   From: 2010.05.17/outbox.cif.g08.bks.cpg/sg2_312_cif.got.tgz:622066.got - 2010.06.03 11:33:40.
