data_PCOD9062449
_publ_section_title
;
Structure prediction by ZEFSAII (Michael W. Deem and Ramdas Pophale) SiO2 
 PCOD9062449
Probable space group: P -1
;
_chemical_formula_sum "Si O2"
_cell_formula_units_Z 14
_cell_length_a 6.773716
_cell_length_b 24.091476
_cell_length_c 6.293848
_cell_angle_alpha 69.588424
_cell_angle_beta 133.203559
_cell_angle_gamma 113.443974
_cell_volume 682.370123
_symmetry_space_group_name_H-M "P -1"
_symmetry_group_IT_number 2
_symmetry_cell_setting 'triclinic'
loop_
_space_group_symop_operation_xyz
x,y,z
-x,-y,-z
loop_
_atom_site_type_symbol
_atom_site_label
_atom_site_fract_x
_atom_site_fract_y
_atom_site_fract_z
Si Si1 0.502084 0.702651 0.319248
Si Si2 0.307434 0.999756 0.658798
Si Si3 0.980334 0.471941 0.273413
Si Si4 0.409108 0.893276 0.585380
Si Si5 0.894883 0.710953 0.990567
Si Si6 0.583699 0.604638 0.197630
Si Si7 0.827063 0.811209 0.117931
O O1 0.212643 0.716656 0.155707
O O2 0.447979 0.641711 0.220476
O O3 0.681056 0.759663 0.244851
O O4 0.690547 0.693539 0.666481
O O5 0.310627 0.938629 0.614852
O O6 0.436190 0.060379 0.540876
O O7 0.000000 0.000000 0.500000
O O8 0.500000 0.000000 0.000000
O O9 0.000000 0.500000 0.500000
O O10 0.234320 0.438245 0.509729
O O11 0.666317 0.430476 0.087864
O O12 0.000000 0.500000 0.000000
O O13 0.136469 0.845339 0.368103
O O14 0.631613 0.858256 0.886450
O O15 0.802183 0.657007 0.163387
O O16 0.848931 0.773766 0.969752
#
# Coordination Sequence:
#
# PCOD9062449 Si02
#       7
#     2   2   2   2   2   2   2
#     4  11  24  42  69  96 131 175 220 270 341 405
#     4  11  24  41  62  90 120 175 216 259 338 394
#     4  12  28  47  74 107 144 186 240 291 352 415
#     4  11  24  41  62  89 134 160 216 280 318 402
#     4  11  24  42  69  96 131 175 220 270 341 405
#     4  11  26  46  70  99 140 179 226 284 340 410
#     4  11  24  41  62  99 126 166 216 272 334 394
#
# _framework density 20.516722000000001
#
# number of rings (size 3 to 8) (size 9 to 14) (size 15 to 20)
#    0.000    0.857    0.000    6.000    6.000   13.714 
#    0.000    0.000    0.000    0.000    0.000    0.000 
#    0.000    0.000    0.000    0.000    0.000    0.000 
#
# Total GULP energy -78177.711608 kJ/mol
# GULP energy per Si atom -5584.122258 kJ/mol
# Density = 2.047003 g / cm^3
# Si number density = 20.516722 Si / 1000 Ang^3
#
#
#
# Elastic Constant Matrix: (Units=GPa)
#
#
# Indices 1 2 3 4 5 6 
#
# 1 130.3086 34.0967 33.6798 0.8084 13.7517 -9.0100
# 2 34.0967 82.2823 24.7301 10.7157 -6.3745 -22.6322
# 3 33.6798 24.7301 105.7281 3.3026 7.2189 -18.3778
# 4 0.8084 10.7157 3.3026 45.2480 -1.5320 9.3064
# 5 13.7517 -6.3745 7.2189 -1.5320 43.6445 9.8208
# 6 -9.0100 -22.6322 -18.3778 9.3064 9.8208 39.1535
#
#
#
# Elastic Compliance Matrix: (Units=1/GPa)
#
#
# Indices 1 2 3 4 5 6 
#
# 1 0.009478 -0.003773 -0.002017 0.000843 -0.003091 -0.000372
# 2 -0.003773 0.017670 -0.001134 -0.006011 0.001528 0.009859
# 3 -0.002017 -0.001134 0.011543 -0.001739 -0.002714 0.005392
# 4 0.000843 -0.006011 -0.001739 0.025962 0.002507 -0.010896
# 5 -0.003091 0.001528 -0.002714 0.002507 0.026525 -0.008351
# 6 -0.000372 0.009859 0.005392 -0.010896 -0.008351 0.038370
#
#
# Mechanical properties :
#
#
# Convention : Reuss Voigt Hill
#
# Bulk Modulus (GPa) = 40.25122 55.92580 48.08851
# Shear Modulus (GPa) = 32.96497 40.66337 36.81417
#
# Velocity S-wave (km/s) = 4.01276 4.45675 4.24057
# Velocity P-wave (km/s) = 6.41334 7.33494 6.88957
#
# Compressibility (1/GPa) = 0.02484396
#
# Stress axis : x y z
#
# Youngs Moduli (GPa) = 105.51058 56.59152 86.63408
#
# Poissons Ratio (x) = 0.21351 0.17470
# Poissons Ratio (y) = 0.39807 0.09826
# Poissons Ratio (z) = 0.21277 0.06418
#
# Static dielectric constant tensor:
#      x y z
#    x 1.741510 0.000710 -0.063600 
#    y 0.000710 1.530580 0.009050 
#    z -0.063600 0.009050 1.699410 
# 
# From -- ./inp_files/9803.got.cif
#   From: 2010.05.17/outbox.cif.g08.bks.cpg/sg2_5_cif.got.tgz:9803.got - 2010.06.03 11:33:40.
