data_PCOD9062219
_publ_section_title
;
Structure prediction by ZEFSAII (Michael W. Deem and Ramdas Pophale) SiO2 
 PCOD9062219
Probable space group: P -1
;
_chemical_formula_sum "Si O2"
_cell_formula_units_Z 16
_cell_length_a 19.237610
_cell_length_b 9.167870
_cell_length_c 12.269813
_cell_angle_alpha 150.491257
_cell_angle_beta 40.050812
_cell_angle_gamma 130.736458
_cell_volume 685.235005
_symmetry_space_group_name_H-M "P -1"
_symmetry_group_IT_number 2
_symmetry_cell_setting 'triclinic'
loop_
_space_group_symop_operation_xyz
x,y,z
-x,-y,-z
loop_
_atom_site_type_symbol
_atom_site_label
_atom_site_fract_x
_atom_site_fract_y
_atom_site_fract_z
Si Si1 0.938713 0.713221 0.426998
Si Si2 0.935128 0.791792 0.720526
Si Si3 0.467969 0.581350 0.466741
Si Si4 0.427288 0.799069 0.281003
Si Si5 0.893210 0.781564 0.146507
Si Si6 0.236571 0.069041 0.799695
Si Si7 0.656743 0.295494 0.918937
Si Si8 0.759973 0.672231 0.437042
O O1 0.887110 0.750043 0.631618
O O2 0.851536 0.620304 0.383121
O O3 0.000000 0.000000 0.500000
O O4 0.032202 0.459898 0.161117
O O5 0.000000 0.500000 0.500000
O O6 0.842253 0.919225 0.995418
O O7 0.028547 0.026543 0.750364
O O8 0.500000 0.500000 0.500000
O O9 0.343665 0.522937 0.557299
O O10 0.499186 0.916439 0.623809
O O11 0.543066 0.370118 0.162390
O O12 0.363593 0.793534 0.239334
O O13 0.341607 0.849675 0.515508
O O14 0.500000 0.500000 0.000000
O O15 0.835758 0.979710 0.252011
O O16 0.810709 0.634042 0.230906
O O17 0.279322 0.402969 0.955825
O O18 0.719365 0.017406 0.717860
#
# Coordination Sequence:
#
# PCOD9062219 Si02
#       8
#     2   2   2   2   2   2   2   2
#     4  12  27  47  70 109 157 192 249 314 367 446
#     4  12  26  47  73 107 150 199 252 304 373 458
#     4  11  24  47  75 111 142 193 260 307 376 468
#     4  11  26  50  73 107 152 191 249 326 376 447
#     4  12  24  48  71 107 152 192 252 309 362 456
#     4  11  24  44  78 106 140 203 252 300 388 450
#     4  11  23  48  73 104 145 190 250 312 381 446
#     4  12  23  45  77 106 148 200 244 313 388 435
#
# _framework density 23.349654999999998
#
# number of rings (size 3 to 8) (size 9 to 14) (size 15 to 20)
#    0.000    0.500    5.000    3.375    0.000    2.000 
#    6.750    0.000    0.000    0.000    0.000    0.000 
#    0.000    0.000    0.000    0.000    0.000    0.000 
#
# Total GULP energy -89673.573932 kJ/mol
# GULP energy per Si atom -5604.598371 kJ/mol
# Density = 2.329651 g / cm^3
# Si number density = 23.349655 Si / 1000 Ang^3
#
#
#
# Elastic Constant Matrix: (Units=GPa)
#
#
# Indices 1 2 3 4 5 6 
#
# 1 79.0921 35.6277 30.4878 -20.4126 -0.4523 -0.9254
# 2 35.6277 85.0245 54.7539 -24.6011 -10.5694 3.8224
# 3 30.4878 54.7539 149.5319 -27.0168 -15.2043 -7.3595
# 4 -20.4126 -24.6011 -27.0168 51.7740 -7.4265 7.0576
# 5 -0.4523 -10.5694 -15.2043 -7.4265 38.1313 -6.4800
# 6 -0.9254 3.8224 -7.3595 7.0576 -6.4800 37.5557
#
#
#
# Elastic Compliance Matrix: (Units=1/GPa)
#
#
# Indices 1 2 3 4 5 6 
#
# 1 0.016255 -0.005470 -0.000832 0.003227 -0.001025 0.000011
# 2 -0.005470 0.019362 -0.004731 0.005603 0.003928 -0.003408
# 3 -0.000832 -0.004731 0.009512 0.002541 0.003379 0.002431
# 4 0.003227 0.005603 0.002541 0.026090 0.007061 -0.003677
# 5 -0.001025 0.003928 0.003379 0.007061 0.030741 0.004214
# 6 0.000011 -0.003408 0.002431 -0.003677 0.004214 0.028869
#
#
# Mechanical properties :
#
#
# Convention : Reuss Voigt Hill
#
# Bulk Modulus (GPa) = 43.35635 61.70968 52.53302
# Shear Modulus (GPa) = 31.13685 38.34415 34.74050
#
# Velocity S-wave (km/s) = 3.65568 4.05677 3.86143
# Velocity P-wave (km/s) = 6.03550 6.95910 6.51369
#
# Compressibility (1/GPa) = 0.02306467
#
# Stress axis : x y z
#
# Youngs Moduli (GPa) = 61.51858 51.64635 105.13326
#
# Poissons Ratio (x) = 0.28249 0.08747
# Poissons Ratio (y) = 0.33649 0.49735
# Poissons Ratio (z) = 0.05118 0.24432
#
# Static dielectric constant tensor:
#      x y z
#    x 1.905070 -0.016180 -0.004560 
#    y -0.016180 1.874600 0.013890 
#    z -0.004560 0.013890 1.862110 
# 
# From -- ./inp_files/340512.got.cif
#   From: 2010.05.17/outbox.cif.g08.bks.cpg/sg2_171_cif.got.tgz:340512.got - 2010.06.03 11:33:40.
