data_PCOD9062137
_publ_section_title
;
Structure prediction by ZEFSAII (Michael W. Deem and Ramdas Pophale) SiO2 
 PCOD9062137
Probable space group: P -1
;
_chemical_formula_sum "Si O2"
_cell_formula_units_Z 12
_cell_length_a 14.807196
_cell_length_b 9.329697
_cell_length_c 11.552801
_cell_angle_alpha 124.361035
_cell_angle_beta 42.082502
_cell_angle_gamma 150.974750
_cell_volume 501.122483
_symmetry_space_group_name_H-M "P -1"
_symmetry_group_IT_number 2
_symmetry_cell_setting 'triclinic'
loop_
_space_group_symop_operation_xyz
x,y,z
-x,-y,-z
loop_
_atom_site_type_symbol
_atom_site_label
_atom_site_fract_x
_atom_site_fract_y
_atom_site_fract_z
Si Si1 0.598086 0.264037 0.882920
Si Si2 0.846985 0.682167 0.624603
Si Si3 0.979047 0.310685 0.014084
Si Si4 0.637662 0.674478 0.142217
Si Si5 0.854390 0.261301 0.779653
Si Si6 0.758673 0.740368 0.314025
O O1 0.694450 0.392177 0.720570
O O2 0.694436 0.181197 0.796954
O O3 0.687896 0.533206 0.986050
O O4 0.325054 0.977097 0.054338
O O5 0.644579 0.589061 0.718000
O O6 0.988263 0.725931 0.412924
O O7 0.042591 0.979571 0.657637
O O8 0.988959 0.413029 0.175756
O O9 0.764043 0.945879 0.060569
O O10 0.000000 0.500000 0.000000
O O11 0.195389 0.414712 0.821985
O O12 0.747399 0.808338 0.226402
O O13 0.500000 0.500000 0.500000
#
# Coordination Sequence:
#
# PCOD9062137 Si02
#       6
#     2   2   2   2   2   2
#     4  11  23  47  75 109 155 205 249 314 387 456
#     4  12  27  47  80 112 151 204 260 306 385 465
#     4  12  27  50  76 113 158 200 257 322 381 453
#     4  12  26  52  79 109 157 207 251 317 388 456
#     4  11  26  45  74 115 157 195 256 323 379 448
#     4  12  28  50  80 114 154 203 258 314 387 460
#
# _framework density 23.946242999999999
#
# number of rings (size 3 to 8) (size 9 to 14) (size 15 to 20)
#    0.000    0.333    3.333    4.500    7.000    2.000 
#    3.000    0.000    0.000    0.000    0.000    0.000 
#    0.000    0.000    0.000    0.000    0.000    0.000 
#
# Total GULP energy -67069.527737 kJ/mol
# GULP energy per Si atom -5589.127311 kJ/mol
# Density = 2.389174 g / cm^3
# Si number density = 23.946243 Si / 1000 Ang^3
#
#
#
# Elastic Constant Matrix: (Units=GPa)
#
#
# Indices 1 2 3 4 5 6 
#
# 1 119.8494 42.9611 41.9406 -7.3326 -24.0112 -7.8789
# 2 42.9611 106.4926 25.6127 -4.4172 -9.9999 0.8473
# 3 41.9406 25.6127 135.6797 -13.2446 -33.8076 7.1565
# 4 -7.3326 -4.4172 -13.2446 32.8348 -4.5400 7.5420
# 5 -24.0112 -9.9999 -33.8076 -4.5400 34.7607 -6.8411
# 6 -7.8789 0.8473 7.1565 7.5420 -6.8411 47.6245
#
#
#
# Elastic Compliance Matrix: (Units=1/GPa)
#
#
# Indices 1 2 3 4 5 6 
#
# 1 0.011761 -0.003768 -0.001234 0.001885 0.006648 0.002855
# 2 -0.003768 0.011123 -0.000967 0.000387 -0.000451 -0.000802
# 3 -0.001234 -0.000967 0.011099 0.005777 0.010161 -0.001310
# 4 0.001885 0.000387 0.005777 0.035827 0.010789 -0.004687
# 5 0.006648 -0.000451 0.010161 0.010789 0.045386 0.004392
# 6 0.002855 -0.000802 -0.001310 -0.004687 0.004392 0.023054
#
#
# Mechanical properties :
#
#
# Convention : Reuss Voigt Hill
#
# Bulk Modulus (GPa) = 45.36388 64.78338 55.07363
# Shear Modulus (GPa) = 31.73824 39.81117 35.77471
#
# Velocity S-wave (km/s) = 3.64455 4.08183 3.86937
# Velocity P-wave (km/s) = 6.05768 7.02335 6.55831
#
# Compressibility (1/GPa) = 0.02204397
#
# Stress axis : x y z
#
# Youngs Moduli (GPa) = 85.02438 89.90240 90.09579
#
# Poissons Ratio (x) = 0.33877 0.11122
# Poissons Ratio (y) = 0.32038 0.08715
# Poissons Ratio (z) = 0.10496 0.08697
#
# Static dielectric constant tensor:
#      x y z
#    x 2.000710 0.082450 0.034000 
#    y 0.082450 1.963960 -0.024770 
#    z 0.034000 -0.024770 1.857640 
# 
# From -- ./inp_files/196361.got.cif
#   From: 2010.05.17/outbox.cif.g08.bks.cpg/sg2_99_cif.got.tgz:196361.got - 2010.06.03 11:33:40.
