data_PCOD9062141
_publ_section_title
;
Structure prediction by ZEFSAII (Michael W. Deem and Ramdas Pophale) SiO2 
 PCOD9062141
Probable space group: P -1
;
_chemical_formula_sum "Si O2"
_cell_formula_units_Z 12
_cell_length_a 9.728439
_cell_length_b 5.189964
_cell_length_c 12.527188
_cell_angle_alpha 76.443948
_cell_angle_beta 46.469855
_cell_angle_gamma 70.692086
_cell_volume 432.758021
_symmetry_space_group_name_H-M "P -1"
_symmetry_group_IT_number 2
_symmetry_cell_setting 'triclinic'
loop_
_space_group_symop_operation_xyz
x,y,z
-x,-y,-z
loop_
_atom_site_type_symbol
_atom_site_label
_atom_site_fract_x
_atom_site_fract_y
_atom_site_fract_z
Si Si1 0.848365 0.240794 0.126614
Si Si2 0.778190 0.337827 0.847042
Si Si3 0.209574 0.243522 0.044255
Si Si4 0.505808 0.940499 0.352036
Si Si5 0.209613 0.790114 0.393168
Si Si6 0.776767 0.661826 0.390371
O O1 0.653282 0.136049 0.248073
O O2 0.974511 0.259714 0.163426
O O3 0.791237 0.537500 0.071153
O O4 0.000000 0.000000 0.000000
O O5 0.697122 0.624398 0.920952
O O6 0.767433 0.330842 0.726002
O O7 0.007986 0.309181 0.751847
O O8 0.713802 0.082224 0.958766
O O9 0.332019 0.067448 0.513179
O O10 0.395521 0.912658 0.305038
O O11 0.638437 0.669779 0.361257
O O12 0.216527 0.572249 0.504308
O O13 0.000000 0.000000 0.500000
#
# Coordination Sequence:
#
# PCOD9062141 Si02
#       6
#     2   2   2   2   2   2
#     4  11  23  47  76 106 143 195 257 314 364 434
#     4  12  24  44  76 107 148 195 241 303 379 449
#     4  11  24  43  75 103 137 194 251 301 369 429
#     4  11  25  45  73 114 143 194 253 309 369 444
#     4  12  26  44  73 108 161 198 238 297 390 453
#     4  11  24  44  70 111 147 193 250 307 368 448
#
# _framework density 27.729119000000001
#
# number of rings (size 3 to 8) (size 9 to 14) (size 15 to 20)
#    0.000    0.667    5.000    2.000    2.333    4.000 
#    0.000    1.667    0.000    0.000    0.000    0.000 
#    0.000    0.000    0.000    0.000    0.000    0.000 
#
# Total GULP energy -67238.184235 kJ/mol
# GULP energy per Si atom -5603.182020 kJ/mol
# Density = 2.766601 g / cm^3
# Si number density = 27.729119 Si / 1000 Ang^3
#
#
#
# Elastic Constant Matrix: (Units=GPa)
#
#
# Indices 1 2 3 4 5 6 
#
# 1 231.5369 73.0901 37.1976 -13.8955 7.7911 13.0202
# 2 73.0901 133.2325 55.2787 -28.6026 -17.2180 1.7202
# 3 37.1976 55.2787 94.5445 -34.4937 0.3998 -3.3131
# 4 -13.8955 -28.6026 -34.4937 62.0492 2.6049 -6.4263
# 5 7.7911 -17.2180 0.3998 2.6049 42.5441 7.8433
# 6 13.0202 1.7202 -3.3131 -6.4263 7.8433 59.7801
#
#
#
# Elastic Compliance Matrix: (Units=1/GPa)
#
#
# Indices 1 2 3 4 5 6 
#
# 1 0.005493 -0.003165 -0.000527 -0.000530 -0.002080 -0.000918
# 2 -0.003165 0.012681 -0.005580 0.001736 0.005760 -0.000554
# 3 -0.000527 -0.005580 0.016684 0.006963 -0.003181 0.002366
# 4 -0.000530 0.001736 0.006963 0.021009 -0.001078 0.002851
# 5 -0.002080 0.005760 -0.003181 -0.001078 0.026966 -0.003543
# 6 -0.000918 -0.000554 0.002366 0.002851 -0.003543 0.017846
#
#
# Mechanical properties :
#
#
# Convention : Reuss Voigt Hill
#
# Bulk Modulus (GPa) = 61.29897 87.82742 74.56320
# Shear Modulus (GPa) = 40.10872 52.45785 46.28328
#
# Velocity S-wave (km/s) = 3.80735 4.35420 4.08992
# Velocity P-wave (km/s) = 6.44067 7.55121 7.01794
#
# Compressibility (1/GPa) = 0.01631349
#
# Stress axis : x y z
#
# Youngs Moduli (GPa) = 182.06052 78.85582 59.93945
#
# Poissons Ratio (x) = 0.24960 0.03159
# Poissons Ratio (y) = 0.57627 0.33445
# Poissons Ratio (z) = 0.09596 0.43999
#
# Static dielectric constant tensor:
#      x y z
#    x 2.157960 0.043830 0.052530 
#    y 0.043830 2.230170 0.075700 
#    z 0.052530 0.075700 2.185590 
# 
# From -- ./inp_files/130974.got.cif
#   From: 2010.05.17/outbox.cif.g08.bks.cpg/sg2_66_cif.got.tgz:130974.got - 2010.06.03 11:33:40.
