data_PCOD9062251
_publ_section_title
;
Structure prediction by ZEFSAII (Michael W. Deem and Ramdas Pophale) SiO2 
 PCOD9062251
Probable space group: P -1
;
_chemical_formula_sum "Si O2"
_cell_formula_units_Z 13
_cell_length_a 8.649234
_cell_length_b 9.167976
_cell_length_c 8.591188
_cell_angle_alpha 102.390726
_cell_angle_beta 127.921823
_cell_angle_gamma 89.963230
_cell_volume 517.213728
_symmetry_space_group_name_H-M "P -1"
_symmetry_group_IT_number 2
_symmetry_cell_setting 'triclinic'
loop_
_space_group_symop_operation_xyz
x,y,z
-x,-y,-z
loop_
_atom_site_type_symbol
_atom_site_label
_atom_site_fract_x
_atom_site_fract_y
_atom_site_fract_z
Si Si1 0.460481 0.355278 0.238644
Si Si2 0.033979 0.292914 0.810665
Si Si3 0.000000 0.000000 0.500000
Si Si4 0.558219 0.044071 0.220320
Si Si5 0.648598 0.674701 0.477621
Si Si6 0.033094 0.593713 0.702450
Si Si7 0.715445 0.199303 0.860235
O O1 0.591038 0.224090 0.288958
O O2 0.590571 0.514980 0.316598
O O3 0.381894 0.356738 0.366024
O O4 0.265983 0.324772 0.006495
O O5 0.897431 0.232317 0.860725
O O6 0.976850 0.453675 0.757976
O O7 0.014174 0.162172 0.640656
O O8 0.245028 0.022310 0.637340
O O9 0.360518 0.974513 0.179212
O O10 0.500000 0.000000 0.000000
O O11 0.480525 0.764094 0.337925
O O12 0.885368 0.718224 0.619399
O O13 0.000000 0.500000 0.500000
O O14 0.226001 0.695185 0.926338
#
# Coordination Sequence:
#
# PCOD9062251 Si02
#       7
#     2   2   1   2   2   2   2
#     4  11  23  48  78 108 149 200 249 315 368 446
#     4  12  25  51  79 112 154 200 260 307 377 460
#     4  12  28  48  78 104 154 198 248 316 378 436
#     4  12  29  49  74 110 155 196 252 314 377 445
#     4  11  24  45  79 106 147 198 254 308 375 438
#     4  12  28  44  78 117 152 196 255 317 378 446
#     4  12  28  50  80 111 151 206 255 308 380 460
#
# _framework density 25.134678999999998
#
# number of rings (size 3 to 8) (size 9 to 14) (size 15 to 20)
#    0.000    0.308    4.615    4.154    6.462    3.692 
#    0.000    0.000    0.000    0.000    0.000    0.000 
#    0.000    0.000    0.000    0.000    0.000    0.000 
#
# Total GULP energy -72456.811134 kJ/mol
# GULP energy per Si atom -5573.600856 kJ/mol
# Density = 2.507747 g / cm^3
# Si number density = 25.134679 Si / 1000 Ang^3
#
#
#
# Elastic Constant Matrix: (Units=GPa)
#
#
# Indices 1 2 3 4 5 6 
#
# 1 71.9817 -0.1405 8.5876 -10.9378 15.0123 -3.9743
# 2 -0.1405 60.5622 2.6028 8.5754 -2.8072 -10.5274
# 3 8.5876 2.6028 120.6944 -0.1689 18.7028 3.9791
# 4 -10.9378 8.5754 -0.1689 36.4579 -9.1941 4.5339
# 5 15.0123 -2.8072 18.7028 -9.1941 33.9696 0.0082
# 6 -3.9743 -10.5274 3.9791 4.5339 0.0082 41.9239
#
#
#
# Elastic Compliance Matrix: (Units=1/GPa)
#
#
# Indices 1 2 3 4 5 6 
#
# 1 0.015711 -0.000504 -0.000206 0.003186 -0.006009 0.001039
# 2 -0.000504 0.018149 -0.000648 -0.004865 0.000762 0.005097
# 3 -0.000206 -0.000648 0.009165 -0.001088 -0.005303 -0.000933
# 4 0.003186 -0.004865 -0.001088 0.031929 0.007432 -0.004271
# 5 -0.006009 0.000762 -0.005303 0.007432 0.037088 -0.000686
# 6 0.001039 0.005097 -0.000933 -0.004271 -0.000686 0.025782
#
#
# Mechanical properties :
#
#
# Convention : Reuss Voigt Hill
#
# Bulk Modulus (GPa) = 24.80835 30.59312 27.70073
# Shear Modulus (GPa) = 32.47269 38.61618 35.54443
#
# Velocity S-wave (km/s) = 3.59827 3.92391 3.76461
# Velocity P-wave (km/s) = 5.21104 5.72080 5.47186
#
# Compressibility (1/GPa) = 0.04030902
#
# Stress axis : x y z
#
# Youngs Moduli (GPa) = 63.65053 55.10004 109.11082
#
# Poissons Ratio (x) = 0.02776 0.02243
# Poissons Ratio (y) = 0.03207 0.07075
# Poissons Ratio (z) = 0.01308 0.03573
#
# Static dielectric constant tensor:
#      x y z
#    x 2.044540 0.036760 -0.021290 
#    y 0.036760 1.998610 -0.011530 
#    z -0.021290 -0.011530 1.950360 
# 
# From -- ./inp_files/156438.got.cif
#   From: 2010.05.17/outbox.cif.g08.bks.cpg/sg2_79_cif.got.tgz:156438.got - 2010.06.03 11:33:40.
