data_PCOD9062913
_publ_section_title
;
Structure prediction by ZEFSAII (Michael W. Deem and Ramdas Pophale) SiO2 
 PCOD9062913
Probable space group: P -1
;
_chemical_formula_sum "Si O2"
_cell_formula_units_Z 16
_cell_length_a 26.400829
_cell_length_b 26.581702
_cell_length_c 12.464968
_cell_angle_alpha 27.762547
_cell_angle_beta 151.363413
_cell_angle_gamma 169.125563
_cell_volume 764.967175
_symmetry_space_group_name_H-M "P -1"
_symmetry_group_IT_number 2
_symmetry_cell_setting 'triclinic'
loop_
_space_group_symop_operation_xyz
x,y,z
-x,-y,-z
loop_
_atom_site_type_symbol
_atom_site_label
_atom_site_fract_x
_atom_site_fract_y
_atom_site_fract_z
Si Si1 0.615940 0.468483 0.671478
Si Si2 0.593692 0.494096 0.829598
Si Si3 0.774159 0.238618 0.496254
Si Si4 0.470081 0.771161 0.334651
Si Si5 0.095296 0.544312 0.898870
Si Si6 0.883245 0.106936 0.851526
Si Si7 0.807290 0.055578 0.239344
Si Si8 0.046738 0.725837 0.561966
O O1 0.667877 0.532855 0.772203
O O2 0.466914 0.435950 0.414778
O O3 0.901417 0.720120 0.669031
O O4 0.407753 0.175042 0.817174
O O5 0.830120 0.675412 0.001771
O O6 0.332341 0.182969 0.965755
O O7 0.776933 0.300378 0.269630
O O8 0.834989 0.170995 0.709171
O O9 0.000000 0.500000 0.500000
O O10 0.500000 0.000000 0.500000
O O11 0.222763 0.486774 0.477673
O O12 0.654896 0.871677 0.410385
O O13 0.309957 0.697959 0.092060
O O14 0.691635 0.033100 0.329945
O O15 0.974782 0.538128 0.740444
O O16 0.877586 0.247146 0.028778
O O17 0.871934 0.128982 0.664468
#
# Coordination Sequence:
#
# PCOD9062913 Si02
#       8
#     2   2   2   2   2   2   2   2
#     4  11  25  42  68  99 126 158 221 272 314 393
#     4  11  24  45  70  93 124 174 212 264 328 371
#     4  11  27  39  60  95 139 173 205 247 311 393
#     4  12  23  41  66  93 131 173 213 273 313 360
#     4  11  26  39  64  98 131 177 213 255 316 372
#     4  11  24  43  66  93 128 174 214 258 316 390
#     4  12  24  39  65 101 129 161 207 276 327 367
#     4  11  25  41  64  95 133 167 227 253 309 390
#
# _framework density 20.915928999999998
#
# number of rings (size 3 to 8) (size 9 to 14) (size 15 to 20)
#    0.000    0.750    2.500    3.750    8.750    4.000 
#    0.000    0.000    0.000   15.000    0.000    0.000 
#    0.000    0.000    0.000    0.000    0.000    0.000 
#
# Total GULP energy -89476.834404 kJ/mol
# GULP energy per Si atom -5592.302150 kJ/mol
# Density = 2.086832 g / cm^3
# Si number density = 20.915929 Si / 1000 Ang^3
#
#
#
# Elastic Constant Matrix: (Units=GPa)
#
#
# Indices 1 2 3 4 5 6 
#
# 1 70.0825 27.3662 23.9972 -0.4937 -21.6067 15.9128
# 2 27.3662 129.2571 24.1337 -2.8975 -4.8694 27.3191
# 3 23.9972 24.1337 82.3327 -0.0458 -14.4145 6.3892
# 4 -0.4937 -2.8975 -0.0458 27.8025 -0.6357 -3.8235
# 5 -21.6067 -4.8694 -14.4145 -0.6357 20.4148 -8.7297
# 6 15.9128 27.3191 6.3892 -3.8235 -8.7297 49.5438
#
#
#
# Elastic Compliance Matrix: (Units=1/GPa)
#
#
# Indices 1 2 3 4 5 6 
#
# 1 0.023361 -0.003460 -0.001831 0.000354 0.021995 -0.001457
# 2 -0.003460 0.009745 -0.002360 0.000169 -0.005067 -0.004838
# 3 -0.001831 -0.002360 0.014754 0.000149 0.008566 0.001507
# 4 0.000354 0.000169 0.000149 0.036489 0.002989 0.003117
# 5 0.021995 -0.005067 0.008566 0.002989 0.081108 0.009147
# 6 -0.001457 -0.004838 0.001507 0.003117 0.009147 0.024977
#
#
# Mechanical properties :
#
#
# Convention : Reuss Voigt Hill
#
# Bulk Modulus (GPa) = 30.71278 48.07407 39.39343
# Shear Modulus (GPa) = 23.08529 33.29722 28.19126
#
# Velocity S-wave (km/s) = 3.32583 3.99426 3.67527
# Velocity P-wave (km/s) = 5.42807 6.65631 6.07332
#
# Compressibility (1/GPa) = 0.03255974
#
# Stress axis : x y z
#
# Youngs Moduli (GPa) = 42.80588 102.61691 67.77846
#
# Poissons Ratio (x) = 0.35504 0.12409
# Poissons Ratio (y) = 0.14810 0.15993
# Poissons Ratio (z) = 0.07837 0.24214
#
# Static dielectric constant tensor:
#      x y z
#    x 1.785290 0.007010 0.010380 
#    y 0.007010 1.721410 0.008450 
#    z 0.010380 0.008450 1.737600 
# 
# From -- ./inp_files/477217.got.cif
#   From: 2010.05.17/outbox.cif.g08.bks.cpg/sg2_239_cif.got.tgz:477217.got - 2010.06.03 11:33:40.
