data_PCOD9062725
_publ_section_title
;
Structure prediction by ZEFSAII (Michael W. Deem and Ramdas Pophale) SiO2 
 PCOD9062725
Probable space group: P -1
;
_chemical_formula_sum "Si O2"
_cell_formula_units_Z 16
_cell_length_a 8.352171
_cell_length_b 22.893682
_cell_length_c 13.074847
_cell_angle_alpha 154.602983
_cell_angle_beta 40.838626
_cell_angle_gamma 127.897348
_cell_volume 679.504423
_symmetry_space_group_name_H-M "P -1"
_symmetry_group_IT_number 2
_symmetry_cell_setting 'triclinic'
loop_
_space_group_symop_operation_xyz
x,y,z
-x,-y,-z
loop_
_atom_site_type_symbol
_atom_site_label
_atom_site_fract_x
_atom_site_fract_y
_atom_site_fract_z
Si Si1 0.617824 0.883153 0.104042
Si Si2 0.230577 0.157832 0.802334
Si Si3 0.739819 0.130733 0.055569
Si Si4 0.395632 0.611955 0.331044
Si Si5 0.797922 0.887254 0.802904
Si Si6 0.665266 0.358580 0.144292
Si Si7 0.183365 0.603678 0.095230
Si Si8 0.800012 0.624164 0.002601
O O1 0.743089 0.833484 0.074580
O O2 0.449244 0.037503 0.456645
O O3 0.789119 0.895559 0.943054
O O4 0.451506 0.772599 0.982331
O O5 0.227423 0.301987 0.976479
O O6 0.970308 0.112711 0.838321
O O7 0.692439 0.283909 0.369930
O O8 0.480821 0.123065 0.115366
O O9 0.823444 0.019227 0.930924
O O10 0.180093 0.542355 0.281827
O O11 0.607114 0.478131 0.057698
O O12 0.552617 0.680480 0.282274
O O13 0.011632 0.750794 0.450394
O O14 0.500000 0.500000 0.500000
O O15 0.953978 0.343128 0.014782
O O16 0.677874 0.374293 0.041122
O O17 0.000000 0.500000 0.000000
#
# Coordination Sequence:
#
# PCOD9062725 Si02
#       8
#     2   2   2   2   2   2   2   2
#     4  11  26  46  69 101 139 186 234 285 356 412
#     4  11  26  46  69 101 144 180 229 297 350 417
#     4  11  24  42  69 104 133 187 229 292 349 408
#     4  11  25  43  70 100 144 183 233 286 344 421
#     4  11  24  44  73 100 139 185 239 286 341 427
#     4  12  26  42  72 106 138 184 230 286 348 418
#     4  12  22  43  68 102 141 181 230 286 344 416
#     4  11  25  44  68 101 139 184 230 285 351 405
#
# _framework density 23.546572999999999
#
# number of rings (size 3 to 8) (size 9 to 14) (size 15 to 20)
#    0.000    0.750    2.500    3.750    3.500    7.000 
#    0.000    0.000    0.000    0.000    0.000    0.000 
#    0.000    0.000    0.000    0.000    0.000    0.000 
#
# Total GULP energy -89598.831026 kJ/mol
# GULP energy per Si atom -5599.926939 kJ/mol
# Density = 2.349298 g / cm^3
# Si number density = 23.546573 Si / 1000 Ang^3
#
#
#
# Elastic Constant Matrix: (Units=GPa)
#
#
# Indices 1 2 3 4 5 6 
#
# 1 66.2990 29.9224 30.3689 5.0271 5.2549 -3.0030
# 2 29.9224 139.0485 28.5964 -11.0117 -2.4614 -16.1850
# 3 30.3689 28.5964 94.5190 -17.0380 -5.5539 -28.0613
# 4 5.0271 -11.0117 -17.0380 37.9780 -3.9266 9.7726
# 5 5.2549 -2.4614 -5.5539 -3.9266 24.5536 -2.5805
# 6 -3.0030 -16.1850 -28.0613 9.7726 -2.5805 48.5758
#
#
#
# Elastic Compliance Matrix: (Units=1/GPa)
#
#
# Indices 1 2 3 4 5 6 
#
# 1 0.022296 -0.004208 -0.009109 -0.008125 -0.008987 -0.004129
# 2 -0.004208 0.008607 0.000044 0.002757 0.002446 0.002208
# 3 -0.009109 0.000044 0.017976 0.007896 0.008195 0.008683
# 4 -0.008125 0.002757 0.007896 0.032978 0.008951 -0.001181
# 5 -0.008987 0.002446 0.008195 0.008951 0.046778 0.005678
# 6 -0.004129 0.002208 0.008683 -0.001181 0.005678 0.026622
#
#
# Mechanical properties :
#
#
# Convention : Reuss Voigt Hill
#
# Bulk Modulus (GPa) = 44.77477 53.07134 48.92305
# Shear Modulus (GPa) = 26.42067 36.28673 31.35370
#
# Velocity S-wave (km/s) = 3.35335 3.92990 3.65302
# Velocity P-wave (km/s) = 5.83524 6.57114 6.21409
#
# Compressibility (1/GPa) = 0.02233401
#
# Stress axis : x y z
#
# Youngs Moduli (GPa) = 44.85097 116.18737 55.63012
#
# Poissons Ratio (x) = 0.48888 0.50674
# Poissons Ratio (y) = 0.18872 -0.00247
# Poissons Ratio (z) = 0.40855 -0.00516
#
# Static dielectric constant tensor:
#      x y z
#    x 1.951000 0.016150 -0.001360 
#    y 0.016150 1.887820 -0.015360 
#    z -0.001360 -0.015360 1.836500 
# 
# From -- ./inp_files/405650.got.cif
#   From: 2010.05.17/outbox.cif.g08.bks.cpg/sg2_203_cif.got.tgz:405650.got - 2010.06.03 11:33:40.
