data_PCOD9062670
_publ_section_title
;
Structure prediction by ZEFSAII (Michael W. Deem and Ramdas Pophale) SiO2 
 PCOD9062670
Probable space group: P -1
;
_chemical_formula_sum "Si O2"
_cell_formula_units_Z 15
_cell_length_a 14.114146
_cell_length_b 7.711844
_cell_length_c 9.367836
_cell_angle_alpha 69.945412
_cell_angle_beta 36.846373
_cell_angle_gamma 72.243227
_cell_volume 573.535714
_symmetry_space_group_name_H-M "P -1"
_symmetry_group_IT_number 2
_symmetry_cell_setting 'triclinic'
loop_
_space_group_symop_operation_xyz
x,y,z
-x,-y,-z
loop_
_atom_site_type_symbol
_atom_site_label
_atom_site_fract_x
_atom_site_fract_y
_atom_site_fract_z
Si Si1 0.452315 0.788005 0.638301
Si Si2 0.066450 0.395862 0.616953
Si Si3 0.785375 0.146517 0.309884
Si Si4 0.203345 0.719377 0.203397
Si Si5 0.500000 0.500000 0.500000
Si Si6 0.869345 0.797986 0.118915
Si Si7 0.310455 0.996434 0.232875
Si Si8 0.222745 0.315482 0.041890
O O1 0.360947 0.727295 0.614951
O O2 0.588143 0.632295 0.488316
O O3 0.500000 0.000000 0.500000
O O4 0.346914 0.756009 0.911392
O O5 0.183132 0.513640 0.348270
O O6 0.151045 0.310470 0.676860
O O7 0.962041 0.252509 0.693570
O O8 0.925019 0.539862 0.799473
O O9 0.827447 0.005990 0.169748
O O10 0.733911 0.041904 0.540302
O O11 0.941902 0.248838 0.119361
O O12 0.235645 0.842720 0.266661
O O13 0.383588 0.412825 0.790130
O O14 0.809813 0.800511 0.028043
O O15 0.244874 0.183913 0.187121
O O16 0.500000 0.000000 0.000000
#
# Coordination Sequence:
#
# PCOD9062670 Si02
#       8
#     2   2   2   2   1   2   2   2
#     4  12  24  47  74 104 144 195 241 296 359 433
#     4  11  25  44  74 108 145 179 239 299 363 434
#     4  11  24  42  67 104 143 179 240 293 352 432
#     4  11  24  46  74 101 146 188 235 299 365 429
#     4  12  24  42  72 100 140 184 248 286 356 428
#     4  11  24  43  72 106 140 183 235 296 365 428
#     4  12  28  46  69 102 142 192 244 293 358 435
#     4  12  26  45  73 103 140 192 235 300 362 426
#
# _framework density 26.153559000000001
#
# number of rings (size 3 to 8) (size 9 to 14) (size 15 to 20)
#    0.000    0.533    2.667    5.200    5.600    3.200 
#    0.000    0.667    0.000    0.000    0.000    0.000 
#    0.000    0.000    0.000    0.000    0.000    0.000 
#
# Total GULP energy -83757.637876 kJ/mol
# GULP energy per Si atom -5583.842525 kJ/mol
# Density = 2.609403 g / cm^3
# Si number density = 26.153559 Si / 1000 Ang^3
#
#
#
# Elastic Constant Matrix: (Units=GPa)
#
#
# Indices 1 2 3 4 5 6 
#
# 1 122.4012 18.5177 18.6633 0.5073 12.1340 -8.7273
# 2 18.5177 108.5103 29.4706 2.8351 4.5717 20.3153
# 3 18.6633 29.4706 176.5555 -21.2181 34.2825 3.3651
# 4 0.5073 2.8351 -21.2181 45.0042 -6.2831 12.1076
# 5 12.1340 4.5717 34.2825 -6.2831 30.8889 -7.3151
# 6 -8.7273 20.3153 3.3651 12.1076 -7.3151 40.4589
#
#
#
# Elastic Compliance Matrix: (Units=1/GPa)
#
#
# Indices 1 2 3 4 5 6 
#
# 1 0.008948 -0.001816 -0.000379 -0.001259 -0.002416 0.002814
# 2 -0.001816 0.011053 -0.001359 0.000194 -0.000804 -0.006032
# 3 -0.000379 -0.001359 0.008040 0.003399 -0.008504 -0.002623
# 4 -0.001259 0.000194 0.003399 0.026101 -0.000002 -0.008463
# 5 -0.002416 -0.000804 -0.008504 -0.000002 0.044944 0.008716
# 6 0.002814 -0.006032 -0.002623 -0.008463 0.008716 0.032679
#
#
# Mechanical properties :
#
#
# Convention : Reuss Voigt Hill
#
# Bulk Modulus (GPa) = 47.76891 60.08556 53.92724
# Shear Modulus (GPa) = 34.28192 45.99144 40.13668
#
# Velocity S-wave (km/s) = 3.62442 4.19802 3.92172
# Velocity P-wave (km/s) = 5.98495 6.82069 6.41644
#
# Compressibility (1/GPa) = 0.02093412
#
# Stress axis : x y z
#
# Youngs Moduli (GPa) = 111.76122 90.47544 124.37145
#
# Poissons Ratio (x) = 0.16432 0.04708
# Poissons Ratio (y) = 0.20298 0.16897
# Poissons Ratio (z) = 0.04231 0.12292
#
# Static dielectric constant tensor:
#      x y z
#    x 2.771460 -0.348610 -0.514990 
#    y -0.348610 2.789950 0.261410 
#    z -0.514990 0.261410 2.309530 
# 
# From -- ./inp_files/297769.got.cif
#   From: 2010.05.17/outbox.cif.g08.bks.cpg/sg2_149_cif.got.tgz:297769.got - 2010.06.03 11:33:40.
