data_PCOD9062054
_publ_section_title
;
Structure prediction by ZEFSAII (Michael W. Deem and Ramdas Pophale) SiO2 
 PCOD9062054
Probable space group: P -1
;
_chemical_formula_sum "Si O2"
_cell_formula_units_Z 16
_cell_length_a 8.817176
_cell_length_b 18.059342
_cell_length_c 11.198337
_cell_angle_alpha 151.890990
_cell_angle_beta 125.443580
_cell_angle_gamma 47.693753
_cell_volume 620.834402
_symmetry_space_group_name_H-M "P -1"
_symmetry_group_IT_number 2
_symmetry_cell_setting 'triclinic'
loop_
_space_group_symop_operation_xyz
x,y,z
-x,-y,-z
loop_
_atom_site_type_symbol
_atom_site_label
_atom_site_fract_x
_atom_site_fract_y
_atom_site_fract_z
Si Si1 0.734082 0.889678 0.915755
Si Si2 0.281254 0.648916 0.606823
Si Si3 0.801671 0.213191 0.489097
Si Si4 0.397149 0.496471 0.821551
Si Si5 0.073547 0.422241 0.264606
Si Si6 0.211140 0.179252 0.750518
Si Si7 0.786713 0.001228 0.858910
Si Si8 0.404354 0.845961 0.248346
O O1 0.832755 0.017576 0.194567
O O2 0.742105 0.884104 0.767152
O O3 0.500000 0.000000 0.000000
O O4 0.835535 0.706336 0.765366
O O5 0.500000 0.500000 0.500000
O O6 0.179878 0.698582 0.501423
O O7 0.143289 0.579084 0.520360
O O8 0.346264 0.801139 0.888439
O O9 0.570657 0.332127 0.598942
O O10 0.980179 0.214419 0.656999
O O11 0.171370 0.507547 0.753260
O O12 0.500000 0.500000 0.000000
O O13 0.362019 0.677767 0.999456
O O14 0.176226 0.295915 0.018081
O O15 0.361390 0.220176 0.785472
O O16 0.341219 0.966976 0.510886
O O17 0.740053 0.012992 0.715147
O O18 0.000000 0.000000 0.000000
#
# Coordination Sequence:
#
# PCOD9062054 Si02
#       8
#     2   2   2   2   2   2   2   2
#     4  11  25  44  72 101 134 180 230 292 349 406
#     4  11  24  44  72  97 135 186 232 284 341 415
#     4  11  24  44  68  97 140 186 232 282 347 425
#     4  12  26  42  63 105 143 178 227 284 353 413
#     4  12  25  44  72 106 145 180 227 296 358 408
#     4  11  24  44  71  99 137 187 232 282 352 426
#     4  11  23  47  70  97 132 180 237 277 338 414
#     4  11  25  44  71 100 139 185 235 287 346 428
#
# _framework density 25.771768999999999
#
# number of rings (size 3 to 8) (size 9 to 14) (size 15 to 20)
#    0.000    0.750    1.250    7.500    3.500    3.000 
#    0.000    3.750    0.000    0.000    0.000    0.000 
#    0.000    0.000    0.000    0.000    0.000    0.000 
#
# Total GULP energy -89485.398108 kJ/mol
# GULP energy per Si atom -5592.837382 kJ/mol
# Density = 2.571311 g / cm^3
# Si number density = 25.771769 Si / 1000 Ang^3
#
#
#
# Elastic Constant Matrix: (Units=GPa)
#
#
# Indices 1 2 3 4 5 6 
#
# 1 155.7461 47.5466 21.9322 6.8176 7.3849 -21.3234
# 2 47.5466 123.8406 21.0507 2.1633 13.6801 0.3522
# 3 21.9322 21.0507 93.7088 7.1433 -11.5475 9.2573
# 4 6.8176 2.1633 7.1433 43.5551 -2.5451 1.2200
# 5 7.3849 13.6801 -11.5475 -2.5451 51.7252 1.4254
# 6 -21.3234 0.3522 9.2573 1.2200 1.4254 53.5516
#
#
#
# Elastic Compliance Matrix: (Units=1/GPa)
#
#
# Indices 1 2 3 4 5 6 
#
# 1 0.008057 -0.002695 -0.001673 -0.001009 -0.000959 0.003564
# 2 -0.002695 0.009697 -0.001795 0.000107 -0.002554 -0.000761
# 3 -0.001673 -0.001795 0.012279 -0.001381 0.003465 -0.002838
# 4 -0.001009 0.000107 -0.001381 0.023416 0.000980 -0.000723
# 5 -0.000959 -0.002554 0.003465 0.000980 0.021010 -0.001546
# 6 0.003564 -0.000761 -0.002838 -0.000723 -0.001546 0.020646
#
#
# Mechanical properties :
#
#
# Convention : Reuss Voigt Hill
#
# Bulk Modulus (GPa) = 56.48201 61.59497 59.03849
# Shear Modulus (GPa) = 44.11723 48.61747 46.36735
#
# Velocity S-wave (km/s) = 4.14193 4.34805 4.24624
# Velocity P-wave (km/s) = 6.69611 7.01138 6.85556
#
# Compressibility (1/GPa) = 0.01770475
#
# Stress axis : x y z
#
# Youngs Moduli (GPa) = 124.11990 103.12046 81.44027
#
# Poissons Ratio (x) = 0.27795 0.13629
# Poissons Ratio (y) = 0.33455 0.14621
# Poissons Ratio (z) = 0.20771 0.18513
#
# Static dielectric constant tensor:
#      x y z
#    x 2.082130 0.004720 -0.075360 
#    y 0.004720 2.098340 -0.146010 
#    z -0.075360 -0.146010 1.607550 
# 
# From -- ./inp_files/403593.got.cif
#   From: 2010.05.17/outbox.cif.g08.bks.cpg/sg2_202_cif.got.tgz:403593.got - 2010.06.03 11:33:40.
