data_PCOD9062764
_publ_section_title
;
Structure prediction by ZEFSAII (Michael W. Deem and Ramdas Pophale) SiO2 
 PCOD9062764
Probable space group: P -1
;
_chemical_formula_sum "Si O2"
_cell_formula_units_Z 12
_cell_length_a 22.111654
_cell_length_b 23.325147
_cell_length_c 5.320605
_cell_angle_alpha 128.508516
_cell_angle_beta 130.064647
_cell_angle_gamma 12.302560
_cell_volume 447.158331
_symmetry_space_group_name_H-M "P -1"
_symmetry_group_IT_number 2
_symmetry_cell_setting 'triclinic'
loop_
_space_group_symop_operation_xyz
x,y,z
-x,-y,-z
loop_
_atom_site_type_symbol
_atom_site_label
_atom_site_fract_x
_atom_site_fract_y
_atom_site_fract_z
Si Si1 0.373615 0.575622 0.617011
Si Si2 0.937402 0.465249 0.028954
Si Si3 0.271663 0.005670 0.155633
Si Si4 0.291443 0.854644 0.500001
Si Si5 0.649887 0.787716 0.638856
Si Si6 0.714033 0.523718 0.354238
O O1 0.500000 0.500000 0.500000
O O2 0.490702 0.387656 0.410860
O O3 0.500000 0.500000 0.000000
O O4 0.028275 0.888194 0.591265
O O5 0.825317 0.591995 0.344800
O O6 0.265260 0.202995 0.148387
O O7 0.764667 0.660160 0.871141
O O8 0.868444 0.441147 0.742662
O O9 0.982112 0.244519 0.181907
O O10 0.329437 0.040843 0.417969
O O11 0.546679 0.725433 0.266052
O O12 0.268780 0.962568 0.775626
O O13 0.462023 0.697795 0.266835
#
# Coordination Sequence:
#
# PCOD9062764 Si02
#       6
#     2   2   2   2   2   2
#     4  12  30  52  80 108 143 186 229 288 360 438
#     4   9  18  37  62  95 140 188 239 290 342 404
#     4  11  24  42  70 104 144 191 238 291 353 409
#     4  12  26  48  77 106 146 182 236 290 355 426
#     4   9  18  37  62  95 140 188 239 290 342 404
#     4  11  24  42  70 104 144 191 238 291 353 409
#
# _framework density 26.836133
#
# number of rings (size 3 to 8) (size 9 to 14) (size 15 to 20)
#    0.000    1.333    1.667    3.000    7.000    0.667 
#    0.000    0.000    0.000   10.000    0.000    0.000 
#    0.000    0.000    0.000    0.000    0.000    0.000 
#
# Total GULP energy -67135.523866 kJ/mol
# GULP energy per Si atom -5594.626989 kJ/mol
# Density = 2.677505 g / cm^3
# Si number density = 26.836133 Si / 1000 Ang^3
#
#
#
# Elastic Constant Matrix: (Units=GPa)
#
#
# Indices 1 2 3 4 5 6 
#
# 1 115.3366 43.2709 24.3402 8.3899 -20.2221 -24.0018
# 2 43.2709 144.3444 32.5082 8.6368 -5.2996 -27.6136
# 3 24.3402 32.5082 114.6815 10.7899 -7.6909 1.4256
# 4 8.3899 8.6368 10.7899 34.0445 -4.8860 4.7157
# 5 -20.2221 -5.2996 -7.6909 -4.8860 33.4402 6.5336
# 6 -24.0018 -27.6136 1.4256 4.7157 6.5336 53.5003
#
#
#
# Elastic Compliance Matrix: (Units=1/GPa)
#
#
# Indices 1 2 3 4 5 6 
#
# 1 0.011591 -0.002186 -0.001373 -0.001587 0.005415 0.003587
# 2 -0.002186 0.008856 -0.002020 -0.001824 -0.001427 0.003979
# 3 -0.001373 -0.002020 0.009862 -0.001835 0.001223 -0.001909
# 4 -0.001587 -0.001824 -0.001835 0.032060 0.003974 -0.004916
# 5 0.005415 -0.001427 0.001223 0.003974 0.034379 -0.002888
# 6 0.003587 0.003979 -0.001909 -0.004916 -0.002888 0.023192
#
#
# Mechanical properties :
#
#
# Convention : Reuss Voigt Hill
#
# Bulk Modulus (GPa) = 52.21237 63.84458 58.02848
# Shear Modulus (GPa) = 36.36879 42.47988 39.42433
#
# Velocity S-wave (km/s) = 3.68532 3.98293 3.83701
# Velocity P-wave (km/s) = 6.13246 6.70774 6.42654
#
# Compressibility (1/GPa) = 0.01915255
#
# Stress axis : x y z
#
# Youngs Moduli (GPa) = 86.27180 112.91801 101.39775
#
# Poissons Ratio (x) = 0.24679 0.13920
# Poissons Ratio (y) = 0.18856 0.20483
# Poissons Ratio (z) = 0.11843 0.22810
#
# Static dielectric constant tensor:
#      x y z
#    x 2.154010 -0.070710 0.089940 
#    y -0.070710 2.062190 -0.043270 
#    z 0.089940 -0.043270 2.210180 
# 
# From -- ./inp_files/6575.got.cif
#   From: 2010.05.17/outbox.cif.g08.bks.cpg/sg2_4_cif.got.tgz:6575.got - 2010.06.03 11:33:40.
