data_PCOD9062565
_publ_section_title
;
Structure prediction by ZEFSAII (Michael W. Deem and Ramdas Pophale) SiO2 
 PCOD9062565
Probable space group: P -1
;
_chemical_formula_sum "Si O2"
_cell_formula_units_Z 16
_cell_length_a 9.933444
_cell_length_b 5.053666
_cell_length_c 24.941570
_cell_angle_alpha 115.335114
_cell_angle_beta 139.951773
_cell_angle_gamma 82.216559
_cell_volume 687.250751
_symmetry_space_group_name_H-M "P -1"
_symmetry_group_IT_number 2
_symmetry_cell_setting 'triclinic'
loop_
_space_group_symop_operation_xyz
x,y,z
-x,-y,-z
loop_
_atom_site_type_symbol
_atom_site_label
_atom_site_fract_x
_atom_site_fract_y
_atom_site_fract_z
Si Si1 0.678245 0.621763 0.514621
Si Si2 0.929995 0.319178 0.301602
Si Si3 0.646098 0.271978 0.029277
Si Si4 0.626599 0.974445 0.680766
Si Si5 0.443104 0.076377 0.134274
Si Si6 0.090802 0.470938 0.248893
Si Si7 0.999825 0.946120 0.431598
Si Si8 0.511337 0.795404 0.234535
O O1 0.500000 0.500000 0.500000
O O2 0.880911 0.800498 0.630827
O O3 0.594289 0.299919 0.427842
O O4 0.773761 0.858226 0.513148
O O5 0.996158 0.485266 0.279940
O O6 0.692931 0.071158 0.201864
O O7 0.951553 0.582736 0.375066
O O8 0.886591 0.418438 0.141795
O O9 0.500000 0.500000 0.000000
O O10 0.500000 0.000000 0.000000
O O11 0.683820 0.126592 0.971185
O O12 0.802070 0.804271 0.737728
O O13 0.718212 0.219841 0.682913
O O14 0.585855 0.172629 0.734805
O O15 0.467857 0.438641 0.173289
O O16 0.392921 0.942308 0.166785
O O17 0.000000 0.000000 0.500000
O O18 0.776323 0.979202 0.338673
#
# Coordination Sequence:
#
# PCOD9062565 Si02
#       8
#     2   2   2   2   2   2   2   2
#     4  12  25  42  69 105 149 197 247 298 373 430
#     4  11  24  41  70 101 147 181 246 296 368 421
#     4  12  25  45  79 110 141 180 241 306 374 436
#     4  12  28  45  71 101 154 196 241 294 364 446
#     4  11  24  45  72 107 136 181 237 311 353 428
#     4  12  27  47  71 110 145 186 243 304 374 437
#     4  11  26  41  69 103 144 196 253 304 349 444
#     4  11  25  46  70 100 146 191 244 287 366 423
#
# _framework density 23.281167
#
# number of rings (size 3 to 8) (size 9 to 14) (size 15 to 20)
#    0.000    0.500    3.750    3.750    8.750    2.000 
#    0.000    3.750    0.000    0.000    0.000    0.000 
#    0.000    0.000    0.000    0.000    0.000    0.000 
#
# Total GULP energy -89224.899260 kJ/mol
# GULP energy per Si atom -5576.556204 kJ/mol
# Density = 2.322818 g / cm^3
# Si number density = 23.281167 Si / 1000 Ang^3
#
#
#
# Elastic Constant Matrix: (Units=GPa)
#
#
# Indices 1 2 3 4 5 6 
#
# 1 71.4424 10.0279 6.5857 -3.8283 -33.8722 -0.4577
# 2 10.0279 64.6108 20.7515 0.9710 -10.9895 11.0813
# 3 6.5857 20.7515 114.2483 -13.6506 -27.6948 -8.6044
# 4 -3.8283 0.9710 -13.6506 29.7492 0.1086 -4.4132
# 5 -33.8722 -10.9895 -27.6948 0.1086 41.4880 -7.4511
# 6 -0.4577 11.0813 -8.6044 -4.4132 -7.4511 34.5789
#
#
#
# Elastic Compliance Matrix: (Units=1/GPa)
#
#
# Indices 1 2 3 4 5 6 
#
# 1 0.028406 -0.004084 0.008218 0.009124 0.029596 0.011272
# 2 -0.004084 0.018782 -0.005236 -0.004823 -0.003409 -0.008726
# 3 0.008218 -0.005236 0.015459 0.009840 0.017532 0.010667
# 4 0.009124 -0.004823 0.009840 0.041275 0.014894 0.012592
# 5 0.029596 -0.003409 0.017532 0.014894 0.062852 0.021291
# 6 0.011272 -0.008726 0.010667 0.012592 0.021291 0.040714
#
#
# Mechanical properties :
#
#
# Convention : Reuss Voigt Hill
#
# Bulk Modulus (GPa) = 16.54473 36.11462 26.32967
# Shear Modulus (GPa) = 21.75415 35.35898 28.55657
#
# Velocity S-wave (km/s) = 3.06013 3.90138 3.50608
# Velocity P-wave (km/s) = 4.42806 5.98669 5.26537
#
# Compressibility (1/GPa) = 0.06044222
#
# Stress axis : x y z
#
# Youngs Moduli (GPa) = 35.20349 53.24214 64.68623
#
# Poissons Ratio (x) = 0.21747 -0.53158
# Poissons Ratio (y) = 0.14379 0.33870
# Poissons Ratio (z) = -0.28930 0.27878
#
# Static dielectric constant tensor:
#      x y z
#    x 1.924490 0.033210 0.005440 
#    y 0.033210 1.800630 0.026210 
#    z 0.005440 0.026210 1.786190 
# 
# From -- ./inp_files/605910.got.cif
#   From: 2010.05.17/outbox.cif.g08.bks.cpg/sg2_303_cif.got.tgz:605910.got - 2010.06.03 11:33:40.
