data_PCOD9062013
_publ_section_title
;
Structure prediction by ZEFSAII (Michael W. Deem and Ramdas Pophale) SiO2 
 PCOD9062013
Probable space group: P -1
;
_chemical_formula_sum "Si O2"
_cell_formula_units_Z 15
_cell_length_a 7.704918
_cell_length_b 11.409076
_cell_length_c 18.179030
_cell_angle_alpha 148.959264
_cell_angle_beta 120.625316
_cell_angle_gamma 47.589233
_cell_volume 598.492222
_symmetry_space_group_name_H-M "P -1"
_symmetry_group_IT_number 2
_symmetry_cell_setting 'triclinic'
loop_
_space_group_symop_operation_xyz
x,y,z
-x,-y,-z
loop_
_atom_site_type_symbol
_atom_site_label
_atom_site_fract_x
_atom_site_fract_y
_atom_site_fract_z
Si Si1 0.388094 0.816993 0.144131
Si Si2 0.233334 0.382220 0.139261
Si Si3 0.258548 0.097715 0.635424
Si Si4 0.000000 0.500000 0.000000
Si Si5 0.461893 0.477369 0.639675
Si Si6 0.135063 0.330745 0.577279
Si Si7 0.815608 0.905845 0.893983
Si Si8 0.943500 0.056355 0.282757
O O1 0.555925 0.878345 0.260674
O O2 0.378415 0.889182 0.095615
O O3 0.500000 0.500000 0.000000
O O4 0.127353 0.971646 0.207766
O O5 0.447627 0.428710 0.221943
O O6 0.269699 0.151488 0.079380
O O7 0.000032 0.657638 0.266632
O O8 0.161647 0.342170 0.022664
O O9 0.279543 0.154018 0.584412
O O10 0.317563 0.796379 0.494307
O O11 0.016030 0.220870 0.828477
O O12 0.287743 0.387316 0.583560
O O13 0.319367 0.718462 0.681238
O O14 0.943926 0.622840 0.726072
O O15 0.022556 0.191129 0.433284
O O16 0.000000 0.000000 0.000000
#
# Coordination Sequence:
#
# PCOD9062013 Si02
#       8
#     2   2   2   1   2   2   2   2
#     4  12  24  44  75 102 149 198 256 304 361 445
#     4  11  28  48  72 108 150 196 246 305 382 448
#     4  11  24  45  72 110 145 199 243 303 374 442
#     4  12  28  52  70 108 158 194 248 316 378 440
#     4  12  24  45  77 110 151 190 245 315 374 441
#     4  11  23  46  79 113 149 196 252 306 366 453
#     4  11  24  50  74 108 151 196 255 303 373 452
#     4  12  26  47  75 113 146 201 255 306 373 441
#
# _framework density 25.062981000000001
#
# number of rings (size 3 to 8) (size 9 to 14) (size 15 to 20)
#    0.000    0.533    2.667    6.000    1.867    3.733 
#    2.400    4.000    0.000    0.000    0.000    0.000 
#    0.000    0.000    0.000    0.000    0.000    0.000 
#
# Total GULP energy -83916.697216 kJ/mol
# GULP energy per Si atom -5594.446481 kJ/mol
# Density = 2.500594 g / cm^3
# Si number density = 25.062981 Si / 1000 Ang^3
#
#
#
# Elastic Constant Matrix: (Units=GPa)
#
#
# Indices 1 2 3 4 5 6 
#
# 1 55.1329 25.2033 31.7840 2.7286 -0.5813 15.8433
# 2 25.2033 175.6495 49.8024 -10.5059 9.3243 37.9161
# 3 31.7840 49.8024 174.3210 -8.6456 20.7839 7.8162
# 4 2.7286 -10.5059 -8.6456 67.8492 -6.7509 -0.6095
# 5 -0.5813 9.3243 20.7839 -6.7509 39.8074 2.3190
# 6 15.8433 37.9161 7.8162 -0.6095 2.3190 34.7457
#
#
#
# Elastic Compliance Matrix: (Units=1/GPa)
#
#
# Indices 1 2 3 4 5 6 
#
# 1 0.023580 -0.000350 -0.004184 -0.001329 0.002948 -0.009648
# 2 -0.000350 0.008105 -0.001797 0.000934 -0.000327 -0.008243
# 3 -0.004184 -0.001797 0.007349 0.000497 -0.003536 0.002460
# 4 -0.001329 0.000934 0.000497 0.015206 0.002105 -0.000398
# 5 0.002948 -0.000327 -0.003536 0.002105 0.027560 -0.001994
# 6 -0.009648 -0.008243 0.002460 -0.000398 -0.001994 0.041748
#
#
# Mechanical properties :
#
#
# Convention : Reuss Voigt Hill
#
# Bulk Modulus (GPa) = 37.91978 68.74252 53.33115
# Shear Modulus (GPa) = 34.48279 48.36802 41.42540
#
# Velocity S-wave (km/s) = 3.71326 4.39778 4.06994
# Velocity P-wave (km/s) = 5.79198 7.29896 6.58870
#
# Compressibility (1/GPa) = 0.02637146
#
# Stress axis : x y z
#
# Youngs Moduli (GPa) = 42.40949 123.37409 136.07865
#
# Poissons Ratio (x) = 0.04322 0.56934
# Poissons Ratio (y) = 0.01486 0.24452
# Poissons Ratio (z) = 0.17744 0.22169
#
# Static dielectric constant tensor:
#      x y z
#    x 2.021680 -0.097430 -0.019990 
#    y -0.097430 1.953920 0.023090 
#    z -0.019990 0.023090 1.956900 
# 
# From -- ./inp_files/256667.got.cif
#   From: 2010.05.17/outbox.cif.g08.bks.cpg/sg2_129_cif.got.tgz:256667.got - 2010.06.03 11:33:40.
