data_PCOD9062151
_publ_section_title
;
Structure prediction by ZEFSAII (Michael W. Deem and Ramdas Pophale) SiO2 
 PCOD9062151
Probable space group: P -1
;
_chemical_formula_sum "Si O2"
_cell_formula_units_Z 13
_cell_length_a 9.810588
_cell_length_b 19.021258
_cell_length_c 5.690685
_cell_angle_alpha 76.806061
_cell_angle_beta 106.588664
_cell_angle_gamma 150.131644
_cell_volume 506.426955
_symmetry_space_group_name_H-M "P -1"
_symmetry_group_IT_number 2
_symmetry_cell_setting 'triclinic'
loop_
_space_group_symop_operation_xyz
x,y,z
-x,-y,-z
loop_
_atom_site_type_symbol
_atom_site_label
_atom_site_fract_x
_atom_site_fract_y
_atom_site_fract_z
Si Si1 0.718240 0.777611 0.476317
Si Si2 0.279778 0.841354 0.492478
Si Si3 0.737893 0.623918 0.704274
Si Si4 0.629583 0.299051 0.997668
Si Si5 0.245912 0.066394 0.295726
Si Si6 0.020764 0.365346 0.848146
Si Si7 0.000000 0.500000 0.500000
O O1 0.714236 0.700072 0.668229
O O2 0.755926 0.862473 0.601271
O O3 0.440510 0.673382 0.264186
O O4 0.990185 0.902067 0.347914
O O5 0.473303 0.855195 0.575813
O O6 0.041543 0.744401 0.643659
O O7 0.124597 0.769532 0.223118
O O8 0.500000 0.000000 0.500000
O O9 0.500000 0.500000 0.500000
O O10 0.722086 0.556139 0.949759
O O11 0.325429 0.131464 0.028888
O O12 0.790443 0.397978 0.231178
O O13 0.817594 0.321251 0.950951
O O14 0.054660 0.436634 0.598705
#
# Coordination Sequence:
#
# PCOD9062151 Si02
#       7
#     2   2   2   2   2   2   1
#     4  11  25  46  75 115 155 195 253 322 378 439
#     4  12  25  51  77 111 154 203 255 310 386 464
#     4  12  28  49  74 114 157 196 255 321 383 449
#     4  12  23  45  75 111 146 199 255 312 372 455
#     4  11  23  47  76 112 148 199 261 309 377 457
#     4  12  26  48  78 106 150 201 257 311 383 459
#     4  12  24  42  74 106 144 196 254 306 370 462
#
# _framework density 25.670038000000002
#
# number of rings (size 3 to 8) (size 9 to 14) (size 15 to 20)
#    0.000    0.308    6.154    1.846    0.000    6.154 
#    5.538    0.000    0.000    0.000    0.000    0.000 
#    0.000    0.000    0.000    0.000    0.000    0.000 
#
# Total GULP energy -72469.630358 kJ/mol
# GULP energy per Si atom -5574.586951 kJ/mol
# Density = 2.561161 g / cm^3
# Si number density = 25.670038 Si / 1000 Ang^3
#
#
#
# Elastic Constant Matrix: (Units=GPa)
#
#
# Indices 1 2 3 4 5 6 
#
# 1 133.5980 32.2803 28.4212 -9.3903 29.4975 -6.4416
# 2 32.2803 120.3549 25.9867 -14.7290 8.9022 -8.4246
# 3 28.4212 25.9867 134.6693 1.9632 48.3552 -16.1868
# 4 -9.3903 -14.7290 1.9632 38.2803 -4.4740 -4.1695
# 5 29.4975 8.9022 48.3552 -4.4740 57.1688 -3.0955
# 6 -6.4416 -8.4246 -16.1868 -4.1695 -3.0955 48.1868
#
#
#
# Elastic Compliance Matrix: (Units=1/GPa)
#
#
# Indices 1 2 3 4 5 6 
#
# 1 0.008988 -0.001937 0.000087 0.001031 -0.004291 0.000706
# 2 -0.001937 0.009657 -0.001878 0.003636 0.001433 0.001205
# 3 0.000087 -0.001878 0.011561 -0.002108 -0.009546 0.002771
# 4 0.001031 0.003636 -0.002108 0.028539 0.003066 0.002732
# 5 -0.004291 0.001433 -0.009546 0.003066 0.027717 -0.001484
# 6 0.000706 0.001205 0.002771 0.002732 -0.001484 0.022130
#
#
# Mechanical properties :
#
#
# Convention : Reuss Voigt Hill
#
# Bulk Modulus (GPa) = 43.95074 62.44430 53.19752
# Shear Modulus (GPa) = 40.44326 48.85612 44.64969
#
# Velocity S-wave (km/s) = 3.97357 4.36734 4.17510
# Velocity P-wave (km/s) = 6.18150 7.05763 6.63404
#
# Compressibility (1/GPa) = 0.02275274
#
# Stress axis : x y z
#
# Youngs Moduli (GPa) = 111.25381 103.55311 86.49727
#
# Poissons Ratio (x) = 0.20055 -0.00756
# Poissons Ratio (y) = 0.21547 0.16240
# Poissons Ratio (z) = -0.00973 0.19442
#
# Static dielectric constant tensor:
#      x y z
#    x 3.245550 0.396200 -1.017590 
#    y 0.396200 2.303610 -0.464710 
#    z -1.017590 -0.464710 3.147130 
# 
# From -- ./inp_files/44360.got.cif
#   From: 2010.05.17/outbox.cif.g08.bks.cpg/sg2_23_cif.got.tgz:44360.got - 2010.06.03 11:33:40.
