data_PCOD9062665
_publ_section_title
;
Structure prediction by ZEFSAII (Michael W. Deem and Ramdas Pophale) SiO2 
 PCOD9062665
Probable space group: P -1
;
_chemical_formula_sum "Si O2"
_cell_formula_units_Z 16
_cell_length_a 13.776029
_cell_length_b 12.686707
_cell_length_c 11.860443
_cell_angle_alpha 83.501026
_cell_angle_beta 65.560409
_cell_angle_gamma 141.323040
_cell_volume 757.191227
_symmetry_space_group_name_H-M "P -1"
_symmetry_group_IT_number 2
_symmetry_cell_setting 'triclinic'
loop_
_space_group_symop_operation_xyz
x,y,z
-x,-y,-z
loop_
_atom_site_type_symbol
_atom_site_label
_atom_site_fract_x
_atom_site_fract_y
_atom_site_fract_z
Si Si1 0.188358 0.718051 0.710746
Si Si2 0.956167 0.173850 0.614854
Si Si3 0.100839 0.506925 0.359738
Si Si4 0.966943 0.636725 0.038920
Si Si5 0.348222 0.313466 0.987282
Si Si6 0.757765 0.752301 0.420310
Si Si7 0.338791 0.062606 0.990404
Si Si8 0.538504 0.681617 0.721210
O O1 0.039385 0.604601 0.679091
O O2 0.094441 0.521761 0.835040
O O3 0.500000 0.000000 0.500000
O O4 0.107346 0.729302 0.844314
O O5 0.033309 0.332326 0.469190
O O6 0.184758 0.301661 0.528018
O O7 0.730491 0.896243 0.700814
O O8 0.834642 0.115748 0.792864
O O9 0.415313 0.792360 0.155934
O O10 0.000000 0.500000 0.500000
O O11 0.691370 0.443347 0.170717
O O12 0.156227 0.883956 0.990803
O O13 0.500000 0.500000 0.000000
O O14 0.435502 0.272115 0.930015
O O15 0.411164 0.453252 0.842233
O O16 0.033217 0.020097 0.191188
O O17 0.500000 0.500000 0.500000
O O18 0.709007 0.810617 0.513841
#
# Coordination Sequence:
#
# PCOD9062665 Si02
#       8
#     2   2   2   2   2   2   2   2
#     4  11  25  47  69  97 137 178 232 284 349 414
#     4  11  24  42  67 100 133 179 227 277 340 407
#     4  12  26  42  71  99 130 179 229 283 345 409
#     4  11  26  44  68 101 137 180 227 288 348 406
#     4  11  24  43  69 100 137 182 228 277 340 414
#     4  11  25  42  67 102 141 179 225 284 341 406
#     4  11  24  44  67  98 142 172 227 288 340 407
#     4  12  23  41  70  97 134 179 228 279 338 408
#
# _framework density 21.130727
#
# number of rings (size 3 to 8) (size 9 to 14) (size 15 to 20)
#    0.000    0.750    2.500    5.625    1.750    8.000 
#    0.000    0.000    0.000    0.000    0.000    0.000 
#    0.000    0.000    0.000    0.000    0.000    0.000 
#
# Total GULP energy -89524.785860 kJ/mol
# GULP energy per Si atom -5595.299116 kJ/mol
# Density = 2.108263 g / cm^3
# Si number density = 21.130727 Si / 1000 Ang^3
#
#
#
# Elastic Constant Matrix: (Units=GPa)
#
#
# Indices 1 2 3 4 5 6 
#
# 1 112.8139 46.9168 51.9357 3.3030 -14.5889 24.4045
# 2 46.9168 141.9969 43.8423 12.6084 -19.7423 21.1862
# 3 51.9357 43.8423 122.1785 18.6355 -26.7750 8.7476
# 4 3.3030 12.6084 18.6355 39.5283 -2.7627 -6.3658
# 5 -14.5889 -19.7423 -26.7750 -2.7627 47.9694 -3.2774
# 6 24.4045 21.1862 8.7476 -6.3658 -3.2774 40.2176
#
#
#
# Elastic Compliance Matrix: (Units=1/GPa)
#
#
# Indices 1 2 3 4 5 6 
#
# 1 0.013026 -0.002120 -0.004429 0.000780 0.000274 -0.005678
# 2 -0.002120 0.009177 -0.001310 -0.002556 0.002015 -0.003503
# 3 -0.004429 -0.001310 0.012243 -0.004596 0.004709 0.000370
# 4 0.000780 -0.002556 -0.004596 0.029155 -0.001264 0.006384
# 5 0.000274 0.002015 0.004709 -0.001264 0.024282 -0.000473
# 6 -0.005678 -0.003503 0.000370 0.006384 -0.000473 0.031047
#
#
# Mechanical properties :
#
#
# Convention : Reuss Voigt Hill
#
# Bulk Modulus (GPa) = 53.39291 73.59767 63.49529
# Shear Modulus (GPa) = 35.48859 41.16269 38.32564
#
# Velocity S-wave (km/s) = 4.10259 4.41841 4.26342
# Velocity P-wave (km/s) = 6.91118 7.80609 7.37223
#
# Compressibility (1/GPa) = 0.01872908
#
# Stress axis : x y z
#
# Youngs Moduli (GPa) = 76.77177 108.96690 81.67613
#
# Poissons Ratio (x) = 0.23106 0.36170
# Poissons Ratio (y) = 0.16279 0.10696
# Poissons Ratio (z) = 0.33999 0.14270
#
# Static dielectric constant tensor:
#      x y z
#    x 1.753920 -0.016670 0.033960 
#    y -0.016670 1.741780 0.012080 
#    z 0.033960 0.012080 1.769860 
# 
# From -- ./inp_files/428143.got.cif
#   From: 2010.05.17/outbox.cif.g08.bks.cpg/sg2_215_cif.got.tgz:428143.got - 2010.06.03 11:33:40.
