data_PCOD9062773
_publ_section_title
;
Structure prediction by ZEFSAII (Michael W. Deem and Ramdas Pophale) SiO2 
 PCOD9062773
Probable space group: P -1
;
_chemical_formula_sum "Si O2"
_cell_formula_units_Z 16
_cell_length_a 8.782328
_cell_length_b 18.196258
_cell_length_c 12.182463
_cell_angle_alpha 131.322235
_cell_angle_beta 86.124198
_cell_angle_gamma 134.664889
_cell_volume 696.629572
_symmetry_space_group_name_H-M "P -1"
_symmetry_group_IT_number 2
_symmetry_cell_setting 'triclinic'
loop_
_space_group_symop_operation_xyz
x,y,z
-x,-y,-z
loop_
_atom_site_type_symbol
_atom_site_label
_atom_site_fract_x
_atom_site_fract_y
_atom_site_fract_z
Si Si1 0.642270 0.647833 0.541326
Si Si2 0.742610 0.530450 0.281737
Si Si3 0.823724 0.620981 0.120100
Si Si4 0.542230 0.116650 0.355988
Si Si5 0.880864 0.013968 0.604839
Si Si6 0.185833 0.716292 0.010286
Si Si7 0.207105 0.584633 0.472875
Si Si8 0.238298 0.097282 0.865634
O O1 0.500000 0.500000 0.500000
O O2 0.629208 0.574560 0.360234
O O3 0.389732 0.589739 0.490173
O O4 0.992361 0.897905 0.757769
O O5 0.789179 0.549757 0.168234
O O6 0.094413 0.714958 0.494720
O O7 0.482207 0.308739 0.121916
O O8 0.052525 0.843803 0.317160
O O9 0.943358 0.607930 0.013797
O O10 0.500000 0.500000 0.000000
O O11 0.528233 0.181154 0.319158
O O12 0.463452 0.148095 0.490217
O O13 0.310431 0.894201 0.143828
O O14 0.057594 0.068139 0.759022
O O15 0.000000 0.000000 0.500000
O O16 0.510765 0.837707 0.140409
O O17 0.006043 0.557843 0.765578
O O18 0.000000 0.500000 0.500000
#
# Coordination Sequence:
#
# PCOD9062773 Si02
#       8
#     2   2   2   2   2   2   2   2
#     4  12  28  50  75 105 144 185 243 312 367 426
#     4  12  25  46  74 107 150 190 245 293 363 438
#     4  11  24  42  70 108 149 194 239 293 362 426
#     4  11  25  46  68 105 148 191 240 299 359 431
#     4  11  25  41  69 104 149 198 245 292 356 433
#     4  11  27  46  72 107 150 188 245 300 359 436
#     4  12  27  49  75 103 136 193 243 302 371 433
#     4  12  25  46  73 107 145 191 247 298 366 432
#
# _framework density 22.96773
#
# number of rings (size 3 to 8) (size 9 to 14) (size 15 to 20)
#    0.000    0.500    5.000    2.250    5.250    2.500 
#    0.000    0.000    0.000    0.000    0.000    0.000 
#    0.000    0.000    0.000    0.000    0.000    0.000 
#
# Total GULP energy -89120.450100 kJ/mol
# GULP energy per Si atom -5570.028131 kJ/mol
# Density = 2.291545 g / cm^3
# Si number density = 22.967730 Si / 1000 Ang^3
#
#
#
# Elastic Constant Matrix: (Units=GPa)
#
#
# Indices 1 2 3 4 5 6 
#
# 1 125.3237 21.2024 16.8646 2.5814 -13.1275 24.4239
# 2 21.2024 121.9505 43.9400 22.4845 -14.1778 18.2760
# 3 16.8646 43.9400 66.9588 18.7871 -19.9165 5.8740
# 4 2.5814 22.4845 18.7871 35.6572 -0.1347 -11.4640
# 5 -13.1275 -14.1778 -19.9165 -0.1347 38.4745 -2.2520
# 6 24.4239 18.2760 5.8740 -11.4640 -2.2520 57.1720
#
#
#
# Elastic Compliance Matrix: (Units=1/GPa)
#
#
# Indices 1 2 3 4 5 6 
#
# 1 0.009168 -0.000196 -0.000696 -0.001442 0.002458 -0.003975
# 2 -0.000196 0.012144 -0.005384 -0.006230 0.001339 -0.004442
# 3 -0.000696 -0.005384 0.024842 -0.010308 0.010474 -0.002188
# 4 -0.001442 -0.006230 -0.010308 0.041225 -0.007297 0.011645
# 5 0.002458 0.001339 0.010474 -0.007297 0.032560 -0.002735
# 6 -0.003975 -0.004442 -0.002188 0.011645 -0.002735 0.023061
#
#
# Mechanical properties :
#
#
# Convention : Reuss Voigt Hill
#
# Bulk Modulus (GPa) = 29.75967 53.13856 41.44912
# Shear Modulus (GPa) = 29.98452 41.74248 35.86350
#
# Velocity S-wave (km/s) = 3.61710 4.26777 3.95584
# Velocity P-wave (km/s) = 5.51632 6.88996 6.24105
#
# Compressibility (1/GPa) = 0.03360252
#
# Stress axis : x y z
#
# Youngs Moduli (GPa) = 109.07580 82.34579 40.25369
#
# Poissons Ratio (x) = 0.01612 0.02803
# Poissons Ratio (y) = 0.02136 0.21672
# Poissons Ratio (z) = 0.07595 0.44334
#
# Static dielectric constant tensor:
#      x y z
#    x 1.702120 -0.097650 0.021720 
#    y -0.097650 1.843270 -0.013320 
#    z 0.021720 -0.013320 1.871740 
# 
# From -- ./inp_files/403247.got.cif
#   From: 2010.05.17/outbox.cif.g08.bks.cpg/sg2_202_cif.got.tgz:403247.got - 2010.06.03 11:33:40.
