data_PCOD9062739
_publ_section_title
;
Structure prediction by ZEFSAII (Michael W. Deem and Ramdas Pophale) SiO2 
 PCOD9062739
Probable space group: P -1
;
_chemical_formula_sum "Si O2"
_cell_formula_units_Z 16
_cell_length_a 4.980760
_cell_length_b 14.814030
_cell_length_c 9.753708
_cell_angle_alpha 61.209599
_cell_angle_beta 75.338155
_cell_angle_gamma 79.230057
_cell_volume 608.385052
_symmetry_space_group_name_H-M "P -1"
_symmetry_group_IT_number 2
_symmetry_cell_setting 'triclinic'
loop_
_space_group_symop_operation_xyz
x,y,z
-x,-y,-z
loop_
_atom_site_type_symbol
_atom_site_label
_atom_site_fract_x
_atom_site_fract_y
_atom_site_fract_z
Si Si1 0.157454 0.523965 0.253653
Si Si2 0.879921 0.330043 0.103638
Si Si3 0.186327 0.024955 0.166323
Si Si4 0.652620 0.848324 0.170765
Si Si5 0.422629 0.188146 0.213268
Si Si6 0.817937 0.341094 0.402754
Si Si7 0.154016 0.137492 0.561462
Si Si8 0.577201 0.624127 0.315208
O O1 0.088870 0.405420 0.343585
O O2 0.891414 0.579076 0.328340
O O3 0.427556 0.560154 0.266627
O O4 0.131188 0.575986 0.068949
O O5 0.714834 0.237441 0.130686
O O6 0.731154 0.362998 0.241600
O O7 0.185630 0.280441 0.140671
O O8 0.365386 0.094418 0.189413
O O9 0.380947 0.926284 0.162418
O O10 0.124755 0.094798 0.989330
O O11 0.942381 0.977088 0.317591
O O12 0.752647 0.826222 0.328080
O O13 0.587893 0.742853 0.184297
O O14 0.371058 0.148194 0.403725
O O15 0.601089 0.373454 0.525273
O O16 0.900050 0.219291 0.492773
#
# Coordination Sequence:
#
# PCOD9062739 Si02
#       8
#     2   2   2   2   2   2   2   2
#     4  12  26  45  74 102 138 183 231 282 344 410
#     4  11  25  48  70 104 140 180 228 287 341 407
#     4  11  24  43  66 101 133 181 231 273 346 405
#     4  11  24  42  69  96 138 181 222 286 338 409
#     4  11  26  44  73 100 139 179 228 282 339 406
#     4  11  25  47  70 103 138 183 228 282 345 410
#     4  11  24  45  67  99 138 181 227 283 340 404
#     4  12  25  46  70 104 140 176 232 287 343 403
#
# _framework density 26.299135
#
# number of rings (size 3 to 8) (size 9 to 14) (size 15 to 20)
#    0.000    0.750    1.250    5.625    3.500    4.500 
#    0.000    4.375    0.000    0.000    0.000    0.000 
#    0.000    0.000    0.000    0.000    0.000    0.000 
#
# Total GULP energy -89817.816915 kJ/mol
# GULP energy per Si atom -5613.613557 kJ/mol
# Density = 2.623928 g / cm^3
# Si number density = 26.299135 Si / 1000 Ang^3
#
#
#
# Elastic Constant Matrix: (Units=GPa)
#
#
# Indices 1 2 3 4 5 6 
#
# 1 67.4044 6.7845 26.3634 2.5661 2.9629 7.9469
# 2 6.7845 112.2855 26.4496 -8.1596 1.9557 16.8148
# 3 26.3634 26.4496 164.4529 -21.7984 0.5784 7.6277
# 4 2.5661 -8.1596 -21.7984 43.7897 5.1630 -6.9419
# 5 2.9629 1.9557 0.5784 5.1630 29.0329 1.4509
# 6 7.9469 16.8148 7.6277 -6.9419 1.4509 41.9335
#
#
#
# Elastic Compliance Matrix: (Units=1/GPa)
#
#
# Indices 1 2 3 4 5 6 
#
# 1 0.016459 -0.000057 -0.002852 -0.002755 -0.000979 -0.003000
# 2 -0.000057 0.009810 -0.001311 0.000683 -0.000573 -0.003551
# 3 -0.002852 -0.001311 0.007213 0.003622 -0.000427 0.000369
# 4 -0.002755 0.000683 0.003622 0.026127 -0.004687 0.004077
# 5 -0.000979 -0.000573 -0.000427 -0.004687 0.035500 -0.001511
# 6 -0.003000 -0.003551 0.000369 0.004077 -0.001511 0.026500
#
#
# Mechanical properties :
#
#
# Convention : Reuss Voigt Hill
#
# Bulk Modulus (GPa) = 39.93320 51.48198 45.70759
# Shear Modulus (GPa) = 36.12829 41.92089 39.02459
#
# Velocity S-wave (km/s) = 3.71043 3.99683 3.85629
# Velocity P-wave (km/s) = 5.79427 6.39668 6.10291
#
# Compressibility (1/GPa) = 0.02504182
#
# Stress axis : x y z
#
# Youngs Moduli (GPa) = 60.75858 101.94067 138.63026
#
# Poissons Ratio (x) = 0.00577 0.39537
# Poissons Ratio (y) = 0.00344 0.18180
# Poissons Ratio (z) = 0.17328 0.13368
#
# Static dielectric constant tensor:
#      x y z
#    x 2.031300 -0.011400 -0.017720 
#    y -0.011400 2.025620 -0.007490 
#    z -0.017720 -0.007490 2.054470 
# 
# From -- ./inp_files/47469.got.cif
#   From: 2010.05.17/outbox.cif.g08.bks.cpg/sg2_24_cif.got.tgz:47469.got - 2010.06.03 11:33:40.
