data_PCOD9062433
_publ_section_title
;
Structure prediction by ZEFSAII (Michael W. Deem and Ramdas Pophale) SiO2 
 PCOD9062433
Probable space group: P -1
;
_chemical_formula_sum "Si O2"
_cell_formula_units_Z 12
_cell_length_a 9.008675
_cell_length_b 13.716830
_cell_length_c 10.178979
_cell_angle_alpha 32.688866
_cell_angle_beta 89.646733
_cell_angle_gamma 69.807987
_cell_volume 527.815412
_symmetry_space_group_name_H-M "P -1"
_symmetry_group_IT_number 2
_symmetry_cell_setting 'triclinic'
loop_
_space_group_symop_operation_xyz
x,y,z
-x,-y,-z
loop_
_atom_site_type_symbol
_atom_site_label
_atom_site_fract_x
_atom_site_fract_y
_atom_site_fract_z
Si Si1 0.031904 0.665456 0.155755
Si Si2 0.555638 0.084365 0.283286
Si Si3 0.392509 0.954286 0.234407
Si Si4 0.368740 0.590930 0.769723
Si Si5 0.861852 0.813432 0.263030
Si Si6 0.924770 0.985670 0.326216
O O1 0.023050 0.707125 0.266792
O O2 0.120411 0.402469 0.436951
O O3 0.115869 0.769718 0.959220
O O4 0.806736 0.835136 0.931418
O O5 0.768378 0.000538 0.394378
O O6 0.500000 0.000000 0.500000
O O7 0.541007 0.975532 0.275478
O O8 0.416818 0.363659 0.959786
O O9 0.421640 0.723468 0.530941
O O10 0.331773 0.014426 0.014971
O O11 0.500000 0.500000 0.000000
O O12 0.144767 0.779459 0.592803
O O13 0.897138 0.931246 0.240489
#
# Coordination Sequence:
#
# PCOD9062433 Si02
#       6
#     2   2   2   2   2   2
#     4   8  18  37  65  98 128 170 208 263 326 390
#     4  12  26  44  62  97 133 174 226 270 313 387
#     4   9  20  40  64  92 136 164 208 274 319 380
#     4  11  24  45  65  93 131 173 220 275 317 384
#     4   9  18  38  70  98 132 169 207 269 337 385
#     4  11  24  40  71  98 128 175 218 262 336 389
#
# _framework density 22.735222
#
# number of rings (size 3 to 8) (size 9 to 14) (size 15 to 20)
#    1.000    1.000    1.667    1.500    0.000    3.333 
#    0.000    1.667    0.000    0.000    0.000    0.000 
#    0.000    0.000    0.000    0.000    0.000    0.000 
#
# Total GULP energy -67037.627727 kJ/mol
# GULP energy per Si atom -5586.468977 kJ/mol
# Density = 2.268348 g / cm^3
# Si number density = 22.735222 Si / 1000 Ang^3
#
#
#
# Elastic Constant Matrix: (Units=GPa)
#
#
# Indices 1 2 3 4 5 6 
#
# 1 145.0167 25.0999 70.3645 0.4813 -8.0602 -2.1754
# 2 25.0999 54.6454 33.3121 3.1045 -1.3258 6.2148
# 3 70.3645 33.3121 156.0622 -10.5896 -16.0608 6.5678
# 4 0.4813 3.1045 -10.5896 26.1756 14.2341 8.3318
# 5 -8.0602 -1.3258 -16.0608 14.2341 35.6439 -5.0101
# 6 -2.1754 6.2148 6.5678 8.3318 -5.0101 28.2288
#
#
#
# Elastic Compliance Matrix: (Units=1/GPa)
#
#
# Indices 1 2 3 4 5 6 
#
# 1 0.009377 -0.002015 -0.003981 -0.004012 0.002373 0.003698
# 2 -0.002015 0.022151 -0.003937 -0.002602 -0.000859 -0.003500
# 3 -0.003981 -0.003937 0.009591 0.004854 0.000923 -0.002941
# 4 -0.004012 -0.002602 0.004854 0.063297 -0.027528 -0.024434
# 5 0.002373 -0.000859 0.000923 -0.027528 0.042186 0.015769
# 6 0.003698 -0.003500 -0.002941 -0.024434 0.015769 0.047175
#
#
# Mechanical properties :
#
#
# Convention : Reuss Voigt Hill
#
# Bulk Modulus (GPa) = 47.05503 68.14192 57.59848
# Shear Modulus (GPa) = 22.65240 33.13950 27.89595
#
# Velocity S-wave (km/s) = 3.15994 3.82203 3.50665
# Velocity P-wave (km/s) = 5.83571 7.03664 6.46412
#
# Compressibility (1/GPa) = 0.02125171
#
# Stress axis : x y z
#
# Youngs Moduli (GPa) = 106.64333 45.14552 104.26068
#
# Poissons Ratio (x) = 0.09097 0.41510
# Poissons Ratio (y) = 0.21490 0.41049
# Poissons Ratio (z) = 0.42458 0.17775
#
# Static dielectric constant tensor:
#      x y z
#    x 1.952000 -0.039410 0.042330 
#    y -0.039410 1.878990 -0.002550 
#    z 0.042330 -0.002550 1.806840 
# 
# From -- ./inp_files/393465.got.cif
#   From: 2010.05.17/outbox.cif.g08.bks.cpg/sg2_197_cif.got.tgz:393465.got - 2010.06.03 11:33:40.
