data_PCOD9062528
_publ_section_title
;
Structure prediction by ZEFSAII (Michael W. Deem and Ramdas Pophale) SiO2 
 PCOD9062528
Probable space group: P -1
;
_chemical_formula_sum "Si O2"
_cell_formula_units_Z 14
_cell_length_a 27.949531
_cell_length_b 15.684568
_cell_length_c 15.497538
_cell_angle_alpha 18.981514
_cell_angle_beta 21.464212
_cell_angle_gamma 19.388472
_cell_volume 684.972945
_symmetry_space_group_name_H-M "P -1"
_symmetry_group_IT_number 2
_symmetry_cell_setting 'triclinic'
loop_
_space_group_symop_operation_xyz
x,y,z
-x,-y,-z
loop_
_atom_site_type_symbol
_atom_site_label
_atom_site_fract_x
_atom_site_fract_y
_atom_site_fract_z
Si Si1 0.168060 0.339985 0.414824
Si Si2 0.673385 0.243345 0.981554
Si Si3 0.191188 0.349663 0.572116
Si Si4 0.305511 0.665989 0.575453
Si Si5 0.155103 0.287337 0.139224
Si Si6 0.110343 0.133563 0.180313
Si Si7 0.339068 0.628356 0.758408
O O1 0.162953 0.359112 0.508491
O O2 0.000000 0.500000 0.500000
O O3 0.263167 0.984082 0.568559
O O4 0.257887 0.494118 0.079536
O O5 0.752274 0.421811 0.715552
O O6 0.768036 0.044682 0.929060
O O7 0.500000 0.500000 0.000000
O O8 0.689903 0.994645 0.262355
O O9 0.027381 0.471931 0.776116
O O10 0.311214 0.604493 0.726734
O O11 0.477611 0.548850 0.367303
O O12 0.204053 0.029802 0.377343
O O13 0.239186 0.475526 0.825375
O O14 0.190779 0.105704 0.163282
O O15 0.000000 0.000000 0.500000
O O16 0.000000 0.500000 0.000000
#
# Coordination Sequence:
#
# PCOD9062528 Si02
#       7
#     2   2   2   2   2   2   2
#     4  12  25  43  69 100 137 181 226 279 341 418
#     4  12  26  46  70 102 142 184 227 290 357 409
#     4  12  25  44  70  99 138 180 231 284 340 420
#     4  11  24  41  67  99 131 181 222 284 336 408
#     4  12  23  41  71  99 130 175 237 275 342 408
#     4  12  23  45  68  98 134 172 226 287 338 404
#     4  11  24  44  63  95 145 172 225 280 340 396
#
# _framework density 20.438763000000002
#
# number of rings (size 3 to 8) (size 9 to 14) (size 15 to 20)
#    0.000    0.286    2.857    6.857    0.000    5.714 
#    0.000    0.000    0.000    0.000    0.000    0.000 
#    0.000    0.000    0.000    0.000    0.000    0.000 
#
# Total GULP energy -78395.316610 kJ/mol
# GULP energy per Si atom -5599.665472 kJ/mol
# Density = 2.039224 g / cm^3
# Si number density = 20.438763 Si / 1000 Ang^3
#
#
#
# Elastic Constant Matrix: (Units=GPa)
#
#
# Indices 1 2 3 4 5 6 
#
# 1 111.2543 56.8979 49.4162 15.8455 -3.4322 17.2353
# 2 56.8979 126.2029 47.2435 -8.6653 -2.8887 4.2904
# 3 49.4162 47.2435 144.1007 -17.9984 -4.3414 20.6427
# 4 15.8455 -8.6653 -17.9984 34.9489 2.7146 7.6557
# 5 -3.4322 -2.8887 -4.3414 2.7146 37.7207 -8.1409
# 6 17.2353 4.2904 20.6427 7.6557 -8.1409 38.6047
#
#
#
# Elastic Compliance Matrix: (Units=1/GPa)
#
#
# Indices 1 2 3 4 5 6 
#
# 1 0.015995 -0.006176 -0.004542 -0.010819 0.000872 -0.001696
# 2 -0.006176 0.011449 -0.001215 0.004740 0.000096 0.001215
# 3 -0.004542 -0.001215 0.010720 0.008566 -0.001075 -0.005495
# 4 -0.010819 0.004740 0.008566 0.041550 -0.004677 -0.009503
# 5 0.000872 0.000096 -0.001075 -0.004677 0.028338 0.007078
# 6 -0.001696 0.001215 -0.005495 -0.009503 0.007078 0.032841
#
#
# Mechanical properties :
#
#
# Convention : Reuss Voigt Hill
#
# Bulk Modulus (GPa) = 69.93893 76.51924 73.22909
# Shear Modulus (GPa) = 29.49387 37.45488 33.47438
#
# Velocity S-wave (km/s) = 3.80285 4.28546 4.05135
# Velocity P-wave (km/s) = 7.31952 7.87442 7.60203
#
# Compressibility (1/GPa) = 0.01429819
#
# Stress axis : x y z
#
# Youngs Moduli (GPa) = 62.51860 87.34128 93.28120
#
# Poissons Ratio (x) = 0.53943 0.42372
# Poissons Ratio (y) = 0.38613 0.11332
# Poissons Ratio (z) = 0.28398 0.10610
#
# Static dielectric constant tensor:
#      x y z
#    x 1.745520 -0.020500 0.020320 
#    y -0.020500 1.710290 0.000800 
#    z 0.020320 0.000800 1.678570 
# 
# From -- ./inp_files/358068.got.cif
#   From: 2010.05.17/outbox.cif.g08.bks.cpg/sg2_180_cif.got.tgz:358068.got - 2010.06.03 11:33:40.
