data_PCOD9062272
_publ_section_title
;
Structure prediction by ZEFSAII (Michael W. Deem and Ramdas Pophale) SiO2 
 PCOD9062272
Probable space group: P -1
;
_chemical_formula_sum "Si O2"
_cell_formula_units_Z 14
_cell_length_a 11.976627
_cell_length_b 9.437221
_cell_length_c 15.837099
_cell_angle_alpha 129.036298
_cell_angle_beta 154.073565
_cell_angle_gamma 62.022879
_cell_volume 582.410018
_symmetry_space_group_name_H-M "P -1"
_symmetry_group_IT_number 2
_symmetry_cell_setting 'triclinic'
loop_
_space_group_symop_operation_xyz
x,y,z
-x,-y,-z
loop_
_atom_site_type_symbol
_atom_site_label
_atom_site_fract_x
_atom_site_fract_y
_atom_site_fract_z
Si Si1 0.906059 0.627156 0.915154
Si Si2 0.126395 0.240723 0.508352
Si Si3 0.430334 0.671769 0.858877
Si Si4 0.778998 0.952809 0.672832
Si Si5 0.597436 0.905007 0.219416
Si Si6 0.406227 0.667365 0.653923
Si Si7 0.975865 0.324282 0.177666
O O1 0.588050 0.585264 0.684392
O O2 0.023075 0.619718 0.898584
O O3 0.006459 0.845352 0.095070
O O4 0.000000 0.500000 0.000000
O O5 0.322548 0.453428 0.731908
O O6 0.195250 0.150605 0.435457
O O7 0.173022 0.119298 0.572750
O O8 0.828897 0.253291 0.301283
O O9 0.537871 0.674792 0.838710
O O10 0.607034 0.803843 0.098633
O O11 0.838945 0.816783 0.735071
O O12 0.500000 0.000000 0.500000
O O13 0.603428 0.123359 0.297027
O O14 0.313721 0.787525 0.025152
O O15 0.115243 0.514441 0.397133
#
# Coordination Sequence:
#
# PCOD9062272 Si02
#       7
#     2   2   2   2   2   2   2
#     4  12  28  45  70 109 146 193 246 299 369 436
#     4  11  24  45  76 107 145 193 242 297 371 428
#     4  11  23  49  70 108 149 187 248 296 356 439
#     4  12  24  45  76 105 146 191 241 303 366 433
#     4  12  26  46  77 108 140 197 240 301 368 427
#     4  12  26  46  73 104 148 189 242 305 358 432
#     4  12  25  49  72 106 149 190 243 302 364 439
#
# _framework density 24.038046000000001
#
# number of rings (size 3 to 8) (size 9 to 14) (size 15 to 20)
#    0.000    0.286    4.286    4.286    6.000    0.571 
#    0.000    0.000    0.000    0.000    0.000    0.000 
#    0.000    0.000    0.000    0.000    0.000    0.000 
#
# Total GULP energy -78528.950058 kJ/mol
# GULP energy per Si atom -5609.210718 kJ/mol
# Density = 2.398333 g / cm^3
# Si number density = 24.038046 Si / 1000 Ang^3
#
#
#
# Elastic Constant Matrix: (Units=GPa)
#
#
# Indices 1 2 3 4 5 6 
#
# 1 104.2956 49.4649 30.2038 7.1590 -10.3298 7.2204
# 2 49.4649 27.6915 31.5247 -12.6801 -52.6754 38.4347
# 3 30.2038 31.5247 70.7289 6.8019 -7.8302 9.7901
# 4 7.1590 -12.6801 6.8019 33.2313 2.5589 -1.2484
# 5 -10.3298 -52.6754 -7.8302 2.5589 31.3721 -3.4388
# 6 7.2204 38.4347 9.7901 -1.2484 -3.4388 44.3345
#
#
#
# Elastic Compliance Matrix: (Units=1/GPa)
#
#
# Indices 1 2 3 4 5 6 
#
# 1 0.010473 0.002853 -0.004528 -0.000871 0.006887 -0.002669
# 2 0.002853 -0.010383 0.001080 -0.003365 -0.015181 0.007026
# 3 -0.004528 0.001080 0.016817 -0.002525 0.004326 -0.003648
# 4 -0.000871 -0.003365 -0.002525 0.030319 -0.008623 0.003801
# 5 0.006887 -0.015181 0.004326 -0.008623 0.011725 0.011750
# 6 -0.002669 0.007026 -0.003648 0.003801 0.011750 0.018723
#
#
# Mechanical properties :
#
#
# Convention : Reuss Voigt Hill
#
# Bulk Modulus (GPa) = 63.62671 47.23364 55.43018
# Shear Modulus (GPa) = 59.44979 27.88908 43.66944
#
# Velocity S-wave (km/s) = 4.97848 3.40987 4.26688
# Velocity P-wave (km/s) = 7.71839 5.93255 6.88363
#
# Compressibility (1/GPa) = 0.01571667
#
# Stress axis : x y z
#
# Youngs Moduli (GPa) = 95.48178 -96.30785 59.46188
#
# Poissons Ratio (x) = 0.27474 0.26926
# Poissons Ratio (y) = -0.27239 -0.06423
# Poissons Ratio (z) = 0.43237 0.10403
#
# Static dielectric constant tensor:
#      x y z
#    x 2.001020 -0.006480 0.076460 
#    y -0.006480 1.859900 -0.016120 
#    z 0.076460 -0.016120 1.948930 
# 
# From -- ./inp_files/259530.got.cif
#   From: 2010.05.17/outbox.cif.g08.bks.cpg/sg2_130_cif.got.tgz:259530.got - 2010.06.03 11:33:40.
