data_PCOD9062354
_publ_section_title
;
Structure prediction by ZEFSAII (Michael W. Deem and Ramdas Pophale) SiO2 
 PCOD9062354
Probable space group: P -1
;
_chemical_formula_sum "Si O2"
_cell_formula_units_Z 14
_cell_length_a 17.342413
_cell_length_b 9.479434
_cell_length_c 9.531777
_cell_angle_alpha 31.205792
_cell_angle_beta 125.755272
_cell_angle_gamma 123.834448
_cell_volume 652.769612
_symmetry_space_group_name_H-M "P -1"
_symmetry_group_IT_number 2
_symmetry_cell_setting 'triclinic'
loop_
_space_group_symop_operation_xyz
x,y,z
-x,-y,-z
loop_
_atom_site_type_symbol
_atom_site_label
_atom_site_fract_x
_atom_site_fract_y
_atom_site_fract_z
Si Si1 0.282024 0.704597 0.809676
Si Si2 0.034223 0.263142 0.142834
Si Si3 0.254835 0.276065 0.392799
Si Si4 0.912441 0.580848 0.249813
Si Si5 0.568078 0.275003 0.298724
Si Si6 0.268701 0.616472 0.389467
Si Si7 0.855372 0.891904 0.172499
O O1 0.179346 0.652173 0.665431
O O2 0.364849 0.738529 0.754175
O O3 0.290102 0.981785 0.672835
O O4 0.278972 0.442054 0.132296
O O5 0.139662 0.213058 0.343692
O O6 0.950629 0.008256 0.260565
O O7 0.049930 0.355801 0.919725
O O8 0.000000 0.500000 0.000000
O O9 0.292438 0.474717 0.390257
O O10 0.000000 0.500000 0.500000
O O11 0.878695 0.835671 0.082424
O O12 0.640024 0.342479 0.447799
O O13 0.500000 0.000000 0.500000
O O14 0.500000 0.500000 0.000000
O O15 0.189335 0.399405 0.565920
O O16 0.220803 0.892580 0.079855
#
# Coordination Sequence:
#
# PCOD9062354 Si02
#       7
#     2   2   2   2   2   2   2
#     4  11  25  46  72 102 144 183 232 293 346 425
#     4  11  24  39  63 102 149 189 242 276 330 412
#     4  11  25  45  67 103 147 191 228 279 355 410
#     4  11  24  42  66 103 144 194 240 277 347 408
#     4  12  27  50  78 108 133 177 238 303 369 420
#     4  12  26  45  74 101 138 183 235 297 353 420
#     4  12  24  42  68 101 145 188 241 286 338 408
#
# _framework density 21.447077
#
# number of rings (size 3 to 8) (size 9 to 14) (size 15 to 20)
#    0.000    0.571    2.857    4.714    6.000    1.714 
#    0.000    4.286    0.000    0.000    0.000    0.000 
#    0.000    0.000    0.000    0.000    0.000    0.000 
#
# Total GULP energy -78424.256128 kJ/mol
# GULP energy per Si atom -5601.732581 kJ/mol
# Density = 2.139826 g / cm^3
# Si number density = 21.447077 Si / 1000 Ang^3
#
#
#
# Elastic Constant Matrix: (Units=GPa)
#
#
# Indices 1 2 3 4 5 6 
#
# 1 107.5916 43.4125 12.1300 -1.2522 -15.8480 5.3645
# 2 43.4125 115.9688 -5.2406 -3.4410 -4.4749 -10.3428
# 3 12.1300 -5.2406 48.6695 -10.0274 -5.2166 5.2288
# 4 -1.2522 -3.4410 -10.0274 31.9009 -3.1539 0.8293
# 5 -15.8480 -4.4749 -5.2166 -3.1539 37.9316 -5.7477
# 6 5.3645 -10.3428 5.2288 0.8293 -5.7477 39.1084
#
#
#
# Elastic Compliance Matrix: (Units=1/GPa)
#
#
# Indices 1 2 3 4 5 6 
#
# 1 0.012203 -0.004752 -0.003056 -0.000570 0.003774 -0.001955
# 2 -0.004752 0.010854 0.002380 0.001674 0.000247 0.003205
# 3 -0.003056 0.002380 0.023675 0.007888 0.002628 -0.001898
# 4 -0.000570 0.001674 0.007888 0.034378 0.003796 -0.000705
# 5 0.003774 0.000247 0.002628 0.003796 0.029162 0.003402
# 6 -0.001955 0.003205 -0.001898 -0.000705 0.003402 0.027454
#
#
# Mechanical properties :
#
#
# Convention : Reuss Voigt Hill
#
# Bulk Modulus (GPa) = 27.87281 41.42597 34.64939
# Shear Modulus (GPa) = 31.14451 36.58339 33.86395
#
# Velocity S-wave (km/s) = 3.81485 4.13456 3.97792
# Velocity P-wave (km/s) = 5.69460 6.49231 6.10649
#
# Compressibility (1/GPa) = 0.03587726
#
# Stress axis : x y z
#
# Youngs Moduli (GPa) = 81.94663 92.12776 42.23796
#
# Poissons Ratio (x) = 0.43779 0.12908
# Poissons Ratio (y) = 0.38941 -0.10053
# Poissons Ratio (z) = 0.25043 -0.21927
#
# Static dielectric constant tensor:
#      x y z
#    x 1.776470 -0.014510 -0.021900 
#    y -0.014510 1.779910 0.002770 
#    z -0.021900 0.002770 1.782450 
# 
# From -- ./inp_files/60502.got.cif
#   From: 2010.05.17/outbox.cif.g08.bks.cpg/sg2_31_cif.got.tgz:60502.got - 2010.06.03 11:33:40.
