data_PCOD9062897
_publ_section_title
;
Structure prediction by ZEFSAII (Michael W. Deem and Ramdas Pophale) SiO2 
 PCOD9062897
Probable space group: P -1
;
_chemical_formula_sum "Si O2"
_cell_formula_units_Z 16
_cell_length_a 29.317680
_cell_length_b 12.738785
_cell_length_c 9.676649
_cell_angle_alpha 150.452287
_cell_angle_beta 39.782134
_cell_angle_gamma 155.409468
_cell_volume 737.137866
_symmetry_space_group_name_H-M "P -1"
_symmetry_group_IT_number 2
_symmetry_cell_setting 'triclinic'
loop_
_space_group_symop_operation_xyz
x,y,z
-x,-y,-z
loop_
_atom_site_type_symbol
_atom_site_label
_atom_site_fract_x
_atom_site_fract_y
_atom_site_fract_z
Si Si1 0.965911 0.137552 0.810729
Si Si2 0.193501 0.908015 0.520703
Si Si3 0.165021 0.846645 0.036096
Si Si4 0.536407 0.981038 0.749871
Si Si5 0.029494 0.873482 0.884938
Si Si6 0.653525 0.790982 0.748764
Si Si7 0.703684 0.998102 0.324152
Si Si8 0.484640 0.766077 0.164303
O O1 0.061864 0.528643 0.001509
O O2 0.956134 0.071892 0.920730
O O3 0.000000 0.000000 0.500000
O O4 0.862753 0.008718 0.824396
O O5 0.080613 0.518918 0.325490
O O6 0.145400 0.034033 0.751315
O O7 0.282090 0.042031 0.354343
O O8 0.243522 0.988882 0.648573
O O9 0.203841 0.763333 0.735565
O O10 0.261252 0.094207 0.204595
O O11 0.441237 0.598940 0.492216
O O12 0.645622 0.084013 0.605355
O O13 0.541485 0.183714 0.862721
O O14 0.500000 0.000000 0.000000
O O15 0.000000 0.000000 0.000000
O O16 0.596128 0.881003 0.029398
O O17 0.612972 0.631116 0.046339
O O18 0.500000 0.000000 0.500000
#
# Coordination Sequence:
#
# PCOD9062897 Si02
#       8
#     2   2   2   2   2   2   2   2
#     4  11  26  44  67 101 135 173 227 280 332 400
#     4  11  24  45  66  94 138 175 224 273 342 398
#     4  11  24  45  68  94 138 179 220 275 338 396
#     4  11  24  43  68  98 136 174 223 282 334 396
#     4  11  26  44  69  99 135 175 223 280 335 401
#     4  11  24  43  68  99 134 180 221 278 336 401
#     4  11  24  43  68  99 134 180 221 278 336 401
#     4  11  24  43  66 100 138 170 226 277 335 401
#
# _framework density 21.705573999999999
#
# number of rings (size 3 to 8) (size 9 to 14) (size 15 to 20)
#    0.000    1.000    2.500    3.000    3.500   10.000 
#    0.000    0.000    0.000    0.000    0.000    0.000 
#    0.000    0.000    0.000    0.000    0.000    0.000 
#
# Total GULP energy -89429.473359 kJ/mol
# GULP energy per Si atom -5589.342085 kJ/mol
# Density = 2.165617 g / cm^3
# Si number density = 21.705574 Si / 1000 Ang^3
#
#
#
# Elastic Constant Matrix: (Units=GPa)
#
#
# Indices 1 2 3 4 5 6 
#
# 1 128.2185 -0.0007 22.6149 -9.0370 -5.9068 0.3634
# 2 -0.0007 38.3607 -2.8962 -14.5822 -5.9064 -5.6463
# 3 22.6149 -2.8962 84.6027 -14.6964 -4.5335 3.8080
# 4 -9.0370 -14.5822 -14.6964 29.6073 -0.9358 1.1340
# 5 -5.9068 -5.9064 -4.5335 -0.9358 37.8009 -6.2435
# 6 0.3634 -5.6463 3.8080 1.1340 -6.2435 39.8134
#
#
#
# Elastic Compliance Matrix: (Units=1/GPa)
#
#
# Indices 1 2 3 4 5 6 
#
# 1 0.008324 0.000955 -0.001761 0.002165 0.001355 0.000379
# 2 0.000955 0.036194 0.004722 0.020503 0.007754 0.005305
# 3 -0.001761 0.004722 0.014147 0.008904 0.002287 -0.000562
# 4 0.002165 0.020503 0.008904 0.049086 0.006088 0.001593
# 5 0.001355 0.007754 0.002287 0.006088 0.029173 0.005270
# 6 0.000379 0.005305 -0.000562 0.001593 0.005270 0.026701
#
#
# Mechanical properties :
#
#
# Convention : Reuss Voigt Hill
#
# Bulk Modulus (GPa) = 15.03831 32.29086 23.66459
# Shear Modulus (GPa) = 28.09661 36.87527 32.48594
#
# Velocity S-wave (km/s) = 3.60174 4.12622 3.87287
# Velocity P-wave (km/s) = 4.92342 6.13270 5.56103
#
# Compressibility (1/GPa) = 0.06649684
#
# Stress axis : x y z
#
# Youngs Moduli (GPa) = 120.13927 27.62910 70.68687
#
# Poissons Ratio (x) = -0.02638 0.12445
# Poissons Ratio (y) = -0.11469 -0.33380
# Poissons Ratio (z) = 0.21152 -0.13047
#
# Static dielectric constant tensor:
#      x y z
#    x 1.773790 -0.004670 -0.006240 
#    y -0.004670 1.833160 -0.015050 
#    z -0.006240 -0.015050 1.820640 
# 
# From -- ./inp_files/116994.got.cif
#   From: 2010.05.17/outbox.cif.g08.bks.cpg/sg2_59_cif.got.tgz:116994.got - 2010.06.03 11:33:40.
