data_PCOD9062317
_publ_section_title
;
Structure prediction by ZEFSAII (Michael W. Deem and Ramdas Pophale) SiO2 
 PCOD9062317
Probable space group: P -1
;
_chemical_formula_sum "Si O2"
_cell_formula_units_Z 15
_cell_length_a 9.209502
_cell_length_b 5.693754
_cell_length_c 15.249089
_cell_angle_alpha 60.492359
_cell_angle_beta 116.420976
_cell_angle_gamma 96.629117
_cell_volume 617.663482
_symmetry_space_group_name_H-M "P -1"
_symmetry_group_IT_number 2
_symmetry_cell_setting 'triclinic'
loop_
_space_group_symop_operation_xyz
x,y,z
-x,-y,-z
loop_
_atom_site_type_symbol
_atom_site_label
_atom_site_fract_x
_atom_site_fract_y
_atom_site_fract_z
Si Si1 0.919312 0.507532 0.266169
Si Si2 0.451837 0.823614 0.438386
Si Si3 0.909644 0.042067 0.876338
Si Si4 0.853031 0.829618 0.729261
Si Si5 0.000000 0.500000 0.500000
Si Si6 0.570149 0.414411 0.129227
Si Si7 0.659662 0.836688 0.330218
Si Si8 0.606455 0.421032 0.776214
O O1 0.011509 0.233201 0.296070
O O2 0.946901 0.504552 0.377876
O O3 0.730611 0.544238 0.179259
O O4 0.005975 0.736086 0.197084
O O5 0.500000 0.500000 0.500000
O O6 0.547696 0.942524 0.362909
O O7 0.500000 0.000000 0.500000
O O8 0.255305 0.879240 0.366506
O O9 0.918760 0.802796 0.851115
O O10 0.721330 0.139805 0.835115
O O11 0.000000 0.000000 0.000000
O O12 0.715380 0.629973 0.724196
O O13 0.838095 0.724873 0.432276
O O14 0.429086 0.510119 0.145034
O O15 0.634948 0.090829 0.210922
O O16 0.500000 0.500000 0.000000
O O17 0.568498 0.593878 0.311711
#
# Coordination Sequence:
#
# PCOD9062317 Si02
#       8
#     2   2   2   2   1   2   2   2
#     4  11  29  48  76 117 158 212 267 337 415 493
#     4  12  26  43  79 113 151 205 265 333 399 487
#     4  11  27  47  80 113 155 203 270 346 412 485
#     4  11  25  48  74 114 152 201 269 328 416 479
#     4  12  28  52  72 110 170 210 268 326 416 500
#     4  12  29  49  79 114 158 211 271 332 422 499
#     4  12  27  48  77 113 157 212 264 336 407 494
#     4  11  23  50  76 111 153 204 265 332 414 485
#
# _framework density 24.285067000000002
#
# number of rings (size 3 to 8) (size 9 to 14) (size 15 to 20)
#    0.000    0.533    4.000    1.600   11.200    2.133 
#    0.000    0.000    0.000    0.000    0.000    0.000 
#    0.000    0.000    0.000    0.000    0.000    0.000 
#
# Total GULP energy -83632.762597 kJ/mol
# GULP energy per Si atom -5575.517506 kJ/mol
# Density = 2.422979 g / cm^3
# Si number density = 24.285067 Si / 1000 Ang^3
#
#
#
# Elastic Constant Matrix: (Units=GPa)
#
#
# Indices 1 2 3 4 5 6 
#
# 1 113.6389 21.9188 44.6181 11.6131 8.4617 -9.9193
# 2 21.9188 85.7085 45.2868 28.5297 -9.3549 1.5154
# 3 44.6181 45.2868 175.3476 44.5433 2.8926 4.4000
# 4 11.6131 28.5297 44.5433 39.1264 -4.4094 -9.1705
# 5 8.4617 -9.3549 2.8926 -4.4094 29.2509 7.5962
# 6 -9.9193 1.5154 4.4000 -9.1705 7.5962 51.8771
#
#
#
# Elastic Compliance Matrix: (Units=1/GPa)
#
#
# Indices 1 2 3 4 5 6 
#
# 1 0.010702 -0.002528 -0.002560 0.001875 -0.004222 0.003287
# 2 -0.002528 0.017128 -0.001050 -0.010758 0.005631 -0.003621
# 3 -0.002560 -0.001050 0.009185 -0.009723 -0.001249 -0.002774
# 4 0.001875 -0.010758 -0.009723 0.046302 0.001501 0.009463
# 5 -0.004222 0.005631 -0.001249 0.001501 0.039206 -0.006341
# 6 0.003287 -0.003621 -0.002774 0.009463 -0.006341 0.022847
#
#
# Mechanical properties :
#
#
# Convention : Reuss Voigt Hill
#
# Bulk Modulus (GPa) = 40.41703 66.48249 53.44976
# Shear Modulus (GPa) = 30.14016 41.57562 35.85789
#
# Velocity S-wave (km/s) = 3.52674 4.14210 3.84675
# Velocity P-wave (km/s) = 5.76739 7.09305 6.46429
#
# Compressibility (1/GPa) = 0.02474205
#
# Stress axis : x y z
#
# Youngs Moduli (GPa) = 93.44105 58.38320 108.86804
#
# Poissons Ratio (x) = 0.14757 0.27865
# Poissons Ratio (y) = 0.23618 0.11428
# Poissons Ratio (z) = 0.23916 0.06129
#
# Static dielectric constant tensor:
#      x y z
#    x 1.951370 0.043030 0.004490 
#    y 0.043030 2.054540 -0.061660 
#    z 0.004490 -0.061660 2.004020 
# 
# From -- ./inp_files/488101.got.cif
#   From: 2010.05.17/outbox.cif.g08.bks.cpg/sg2_245_cif.got.tgz:488101.got - 2010.06.03 11:33:40.
