data_PCOD9062840
_publ_section_title
;
Structure prediction by ZEFSAII (Michael W. Deem and Ramdas Pophale) SiO2 
 PCOD9062840
Probable space group: P -1
;
_chemical_formula_sum "Si O2"
_cell_formula_units_Z 14
_cell_length_a 13.721403
_cell_length_b 12.109412
_cell_length_c 5.753664
_cell_angle_alpha 95.738355
_cell_angle_beta 128.194005
_cell_angle_gamma 116.325302
_cell_volume 570.558467
_symmetry_space_group_name_H-M "P -1"
_symmetry_group_IT_number 2
_symmetry_cell_setting 'triclinic'
loop_
_space_group_symop_operation_xyz
x,y,z
-x,-y,-z
loop_
_atom_site_type_symbol
_atom_site_label
_atom_site_fract_x
_atom_site_fract_y
_atom_site_fract_z
Si Si1 0.821106 0.849878 0.713372
Si Si2 0.310620 0.422162 0.756340
Si Si3 0.362146 0.059742 0.703255
Si Si4 0.873711 0.469978 0.499102
Si Si5 0.164216 0.736700 0.252723
Si Si6 0.527125 0.179230 0.461415
Si Si7 0.391779 0.328759 0.241685
O O1 0.794208 0.702581 0.616509
O O2 0.708549 0.856028 0.372603
O O3 0.731409 0.815551 0.816494
O O4 0.000000 0.000000 0.000000
O O5 0.269144 0.524919 0.765863
O O6 0.500000 0.500000 0.000000
O O7 0.268792 0.322016 0.891439
O O8 0.457791 0.112866 0.605201
O O9 0.211663 0.889209 0.409495
O O10 0.443478 0.080441 0.079169
O O11 0.804997 0.322453 0.491360
O O12 0.000000 0.500000 0.500000
O O13 0.986036 0.604597 0.872869
O O14 0.292591 0.765717 0.260409
O O15 0.527728 0.310460 0.416526
O O16 0.500000 0.500000 0.500000
#
# Coordination Sequence:
#
# PCOD9062840 Si02
#       7
#     2   2   2   2   2   2   2
#     4  11  25  44  69 107 150 189 247 318 390 444
#     4  12  24  46  76 104 143 198 260 311 377 461
#     4  11  25  46  73 110 146 195 251 309 379 456
#     4  11  29  44  71 107 149 199 247 320 381 450
#     4  11  26  47  68 102 151 193 251 304 383 455
#     4  11  25  45  77 110 143 196 253 309 378 455
#     4  11  24  42  73 109 143 194 255 317 372 457
#
# _framework density 24.537362000000002
#
# number of rings (size 3 to 8) (size 9 to 14) (size 15 to 20)
#    0.000    0.857    2.857    2.571    6.000    2.857 
#    0.000    0.000    0.000    0.000    0.000    0.000 
#    0.000    0.000    0.000    0.000    0.000    0.000 
#
# Total GULP energy -77987.335404 kJ/mol
# GULP energy per Si atom -5570.523957 kJ/mol
# Density = 2.448151 g / cm^3
# Si number density = 24.537362 Si / 1000 Ang^3
#
#
#
# Elastic Constant Matrix: (Units=GPa)
#
#
# Indices 1 2 3 4 5 6 
#
# 1 88.9583 43.3413 14.5977 -3.7330 5.5383 -7.5503
# 2 43.3413 124.0428 10.5144 1.2842 1.7715 -7.6958
# 3 14.5977 10.5144 69.8524 -7.6797 0.4151 17.2954
# 4 -3.7330 1.2842 -7.6797 44.3513 0.3107 6.9019
# 5 5.5383 1.7715 0.4151 0.3107 31.8219 -3.7756
# 6 -7.5503 -7.6958 17.2954 6.9019 -3.7756 42.1732
#
#
#
# Elastic Compliance Matrix: (Units=1/GPa)
#
#
# Indices 1 2 3 4 5 6 
#
# 1 0.014304 -0.004563 -0.002908 0.000428 -0.001884 0.002682
# 2 -0.004563 0.009852 -0.001060 -0.001111 0.000465 0.001639
# 3 -0.002908 -0.001060 0.017714 0.004218 -0.000744 -0.008736
# 4 0.000428 -0.001111 0.004218 0.024274 -0.001007 -0.005919
# 5 -0.001884 0.000465 -0.000744 -0.001007 0.032113 0.003092
# 6 0.002682 0.001639 -0.008736 -0.005919 0.003092 0.029319
#
#
# Mechanical properties :
#
#
# Convention : Reuss Voigt Hill
#
# Bulk Modulus (GPa) = 40.30893 46.64003 43.47448
# Shear Modulus (GPa) = 32.69900 37.96262 35.33081
#
# Velocity S-wave (km/s) = 3.65447 3.93763 3.79869
# Velocity P-wave (km/s) = 5.85407 6.30256 6.08245
#
# Compressibility (1/GPa) = 0.02480840
#
# Stress axis : x y z
#
# Youngs Moduli (GPa) = 69.90890 101.49819 56.45105
#
# Poissons Ratio (x) = 0.46310 0.16418
# Poissons Ratio (y) = 0.31897 0.05986
# Poissons Ratio (z) = 0.20332 0.10763
#
# Static dielectric constant tensor:
#      x y z
#    x 2.077610 -0.057390 -0.003270 
#    y -0.057390 1.851880 0.034950 
#    z -0.003270 0.034950 1.996900 
# 
# From -- ./inp_files/95103.got.cif
#   From: 2010.05.17/outbox.cif.g08.bks.cpg/sg2_48_cif.got.tgz:95103.got - 2010.06.03 11:33:40.
