data_PCOD9062973
_publ_section_title
;
Structure prediction by ZEFSAII (Michael W. Deem and Ramdas Pophale) SiO2 
 PCOD9062973
Probable space group: P -1
;
_chemical_formula_sum "Si O2"
_cell_formula_units_Z 15
_cell_length_a 8.108276
_cell_length_b 15.774139
_cell_length_c 12.479347
_cell_angle_alpha 154.403989
_cell_angle_beta 78.115280
_cell_angle_gamma 94.211010
_cell_volume 650.536473
_symmetry_space_group_name_H-M "P -1"
_symmetry_group_IT_number 2
_symmetry_cell_setting 'triclinic'
loop_
_space_group_symop_operation_xyz
x,y,z
-x,-y,-z
loop_
_atom_site_type_symbol
_atom_site_label
_atom_site_fract_x
_atom_site_fract_y
_atom_site_fract_z
Si Si1 0.175312 0.699310 0.117756
Si Si2 0.806250 0.352557 0.544370
Si Si3 0.116490 0.117137 0.971822
Si Si4 0.205114 0.094209 0.685840
Si Si5 0.427028 0.554582 0.726212
Si Si6 0.592491 0.790797 0.807430
Si Si7 0.677916 0.562350 0.021964
Si Si8 0.000000 0.500000 0.500000
O O1 0.212305 0.494790 0.949203
O O2 0.981173 0.773149 0.183094
O O3 0.215845 0.871200 0.385618
O O4 0.307462 0.666873 0.964802
O O5 0.613184 0.425586 0.601866
O O6 0.778677 0.431829 0.760260
O O7 0.925022 0.458640 0.580193
O O8 0.882539 0.109959 0.256968
O O9 0.195336 0.102255 0.824971
O O10 0.239841 0.200750 0.134452
O O11 0.943330 0.294065 0.220778
O O12 0.343579 0.205751 0.746509
O O13 0.465909 0.713040 0.816182
O O14 0.349771 0.385906 0.488571
O O15 0.500000 0.000000 0.000000
O O16 0.500000 0.500000 0.000000
#
# Coordination Sequence:
#
# PCOD9062973 Si02
#       8
#     2   2   2   2   2   2   2   1
#     4  11  26  46  73 105 142 196 233 309 361 433
#     4  12  24  46  71 109 140 189 246 294 365 432
#     4  12  25  45  74 102 141 190 240 298 362 438
#     4  11  26  48  70 105 151 185 245 295 369 436
#     4  11  24  44  70 105 146 180 248 295 370 426
#     4  11  24  43  68 102 145 183 236 306 354 432
#     4  12  24  45  76 107 143 190 243 300 358 436
#     4  12  26  46  70  98 148 192 232 298 354 436
#
# _framework density 23.057894999999998
#
# number of rings (size 3 to 8) (size 9 to 14) (size 15 to 20)
#    0.000    0.533    6.667    0.800    1.867    2.667 
#    2.400    0.000    0.000    0.000    0.000    0.000 
#    0.000    0.000    0.000    0.000    0.000    0.000 
#
# Total GULP energy -83769.006982 kJ/mol
# GULP energy per Si atom -5584.600465 kJ/mol
# Density = 2.300541 g / cm^3
# Si number density = 23.057895 Si / 1000 Ang^3
#
#
#
# Elastic Constant Matrix: (Units=GPa)
#
#
# Indices 1 2 3 4 5 6 
#
# 1 70.9745 3.1173 -3.6331 -4.6820 1.6204 -5.2983
# 2 3.1173 112.5196 19.6033 -3.8179 -4.8004 4.6722
# 3 -3.6331 19.6033 95.9315 -12.8334 8.9854 6.9355
# 4 -4.6820 -3.8179 -12.8334 52.7425 -3.2734 -1.0531
# 5 1.6204 -4.8004 8.9854 -3.2734 34.7929 -1.5986
# 6 -5.2983 4.6722 6.9355 -1.0531 -1.5986 37.3881
#
#
#
# Elastic Compliance Matrix: (Units=1/GPa)
#
#
# Indices 1 2 3 4 5 6 
#
# 1 0.014414 -0.000601 0.000784 0.001421 -0.000732 0.001981
# 2 -0.000601 0.009375 -0.002021 0.000231 0.001829 -0.000797
# 3 0.000784 -0.002021 0.011635 0.002521 -0.003169 -0.001859
# 4 0.001421 0.000231 0.002521 0.019796 0.001192 0.000313
# 5 -0.000732 0.001829 -0.003169 0.001192 0.030031 0.001573
# 6 0.001981 -0.000797 -0.001859 0.000313 0.001573 0.027548
#
#
# Mechanical properties :
#
#
# Convention : Reuss Voigt Hill
#
# Bulk Modulus (GPa) = 31.49790 35.28895 33.39343
# Shear Modulus (GPa) = 39.35184 42.34058 40.84621
#
# Velocity S-wave (km/s) = 4.13565 4.28982 4.21344
# Velocity P-wave (km/s) = 6.04109 6.31463 6.17937
#
# Compressibility (1/GPa) = 0.03174815
#
# Stress axis : x y z
#
# Youngs Moduli (GPa) = 69.37477 106.66552 85.94589
#
# Poissons Ratio (x) = 0.06413 -0.06740
# Poissons Ratio (y) = 0.04171 0.17372
# Poissons Ratio (z) = -0.05440 0.21560
#
# Static dielectric constant tensor:
#      x y z
#    x 1.747260 0.032530 0.155600 
#    y 0.032530 1.783140 -0.040210 
#    z 0.155600 -0.040210 1.694080 
# 
# From -- ./inp_files/399933.got.cif
#   From: 2010.05.17/outbox.cif.g08.bks.cpg/sg2_200_cif.got.tgz:399933.got - 2010.06.03 11:33:40.
