data_PCOD9062751
_publ_section_title
;
Structure prediction by ZEFSAII (Michael W. Deem and Ramdas Pophale) SiO2 
 PCOD9062751
Probable space group: P -1
;
_chemical_formula_sum "Si O2"
_cell_formula_units_Z 14
_cell_length_a 16.219189
_cell_length_b 8.251261
_cell_length_c 11.846891
_cell_angle_alpha 133.139111
_cell_angle_beta 148.316320
_cell_angle_gamma 57.738774
_cell_volume 602.836470
_symmetry_space_group_name_H-M "P -1"
_symmetry_group_IT_number 2
_symmetry_cell_setting 'triclinic'
loop_
_space_group_symop_operation_xyz
x,y,z
-x,-y,-z
loop_
_atom_site_type_symbol
_atom_site_label
_atom_site_fract_x
_atom_site_fract_y
_atom_site_fract_z
Si Si1 0.652262 0.459184 0.086117
Si Si2 0.535880 0.597942 0.386711
Si Si3 0.602385 0.895600 0.951266
Si Si4 0.854333 0.072519 0.180420
Si Si5 0.830424 0.916859 0.823979
Si Si6 0.365181 0.881304 0.497338
Si Si7 0.207549 0.039954 0.578521
O O1 0.773666 0.302461 0.208313
O O2 0.743110 0.706906 0.288774
O O3 0.500000 0.500000 0.000000
O O4 0.577106 0.361642 0.832916
O O5 0.496536 0.336536 0.241332
O O6 0.721610 0.677781 0.614133
O O7 0.466713 0.711393 0.470931
O O8 0.491238 0.014549 0.793682
O O9 0.680750 0.003454 0.206668
O O10 0.749740 0.876125 0.032488
O O11 0.030410 0.058187 0.419279
O O12 0.849035 0.031498 0.021498
O O13 0.706258 0.002860 0.634883
O O14 0.000000 0.000000 0.000000
O O15 0.220305 0.855693 0.406935
#
# Coordination Sequence:
#
# PCOD9062751 Si02
#       7
#     2   2   2   2   2   2   2
#     4  11  24  42  70 101 131 178 231 274 329 402
#     4  11  24  44  68 100 133 177 227 278 330 405
#     4  11  25  44  68  97 138 184 226 271 334 406
#     4  12  23  44  70  98 143 172 223 283 337 400
#     4  12  24  42  71 101 132 172 224 288 344 384
#     4  12  22  43  72  97 135 177 233 272 334 400
#     4  11  25  43  66 101 138 180 221 280 339 396
#
# _framework density 23.223545000000001
#
# number of rings (size 3 to 8) (size 9 to 14) (size 15 to 20)
#    0.000    0.571    4.286    4.714    0.000    1.143 
#    0.000    2.857    0.000    0.000    0.000    0.000 
#    0.000    0.000    0.000    0.000    0.000    0.000 
#
# Total GULP energy -77959.577887 kJ/mol
# GULP energy per Si atom -5568.541278 kJ/mol
# Density = 2.317069 g / cm^3
# Si number density = 23.223545 Si / 1000 Ang^3
#
#
#
# Elastic Constant Matrix: (Units=GPa)
#
#
# Indices 1 2 3 4 5 6 
#
# 1 150.3518 46.2060 44.8879 9.0726 1.4633 -10.4135
# 2 46.2060 78.5174 61.1709 -8.3100 10.1903 -5.0203
# 3 44.8879 61.1709 108.4060 -5.1105 22.8187 0.3045
# 4 9.0726 -8.3100 -5.1105 21.2119 14.9423 -0.1569
# 5 1.4633 10.1903 22.8187 14.9423 69.3742 -4.2287
# 6 -10.4135 -5.0203 0.3045 -0.1569 -4.2287 27.3213
#
#
#
# Elastic Compliance Matrix: (Units=1/GPa)
#
#
# Indices 1 2 3 4 5 6 
#
# 1 0.009635 -0.005097 -0.002275 -0.009069 0.003445 0.003242
# 2 -0.005097 0.026743 -0.012008 0.011284 -0.002128 0.002840
# 3 -0.002275 -0.012008 0.018305 0.004468 -0.005421 -0.004091
# 4 -0.009069 0.011284 0.004468 0.069227 -0.018080 -0.003834
# 5 0.003445 -0.002128 -0.005421 -0.018080 0.020580 0.004064
# 6 0.003242 0.002840 -0.004091 -0.003834 0.004064 0.039012
#
#
# Mechanical properties :
#
#
# Convention : Reuss Voigt Hill
#
# Bulk Modulus (GPa) = 62.80090 71.31164 67.05627
# Shear Modulus (GPa) = 21.97140 35.91549 28.94344
#
# Velocity S-wave (km/s) = 3.07918 3.93684 3.53412
# Velocity P-wave (km/s) = 6.30416 7.17204 6.75206
#
# Compressibility (1/GPa) = 0.01592334
#
# Stress axis : x y z
#
# Youngs Moduli (GPa) = 103.78841 37.39359 54.62857
#
# Poissons Ratio (x) = 0.19060 0.12429
# Poissons Ratio (y) = 0.52901 0.65596
# Poissons Ratio (z) = 0.23613 0.44901
#
# Static dielectric constant tensor:
#      x y z
#    x 2.007480 -0.004400 0.063000 
#    y -0.004400 1.910550 -0.000210 
#    z 0.063000 -0.000210 1.925260 
# 
# From -- ./inp_files/193069.got.cif
#   From: 2010.05.17/outbox.cif.g08.bks.cpg/sg2_97_cif.got.tgz:193069.got - 2010.06.03 11:33:40.
