data_PCOD9062555
_publ_section_title
;
Structure prediction by ZEFSAII (Michael W. Deem and Ramdas Pophale) SiO2 
 PCOD9062555
Probable space group: P -1
;
_chemical_formula_sum "Si O2"
_cell_formula_units_Z 14
_cell_length_a 8.438903
_cell_length_b 11.202055
_cell_length_c 20.596242
_cell_angle_alpha 35.732283
_cell_angle_beta 145.124945
_cell_angle_gamma 121.586950
_cell_volume 588.285975
_symmetry_space_group_name_H-M "P -1"
_symmetry_group_IT_number 2
_symmetry_cell_setting 'triclinic'
loop_
_space_group_symop_operation_xyz
x,y,z
-x,-y,-z
loop_
_atom_site_type_symbol
_atom_site_label
_atom_site_fract_x
_atom_site_fract_y
_atom_site_fract_z
Si Si1 0.739990 0.560056 0.294394
Si Si2 0.217867 0.968525 0.649618
Si Si3 0.886256 0.586064 0.638916
Si Si4 0.729419 0.117579 0.532254
Si Si5 0.762216 0.308378 0.592381
Si Si6 0.187187 0.269812 0.979556
Si Si7 0.784812 0.029005 0.001772
O O1 0.621141 0.378242 0.358197
O O2 0.508693 0.807555 0.128824
O O3 0.817926 0.520861 0.261621
O O4 0.073672 0.532199 0.443920
O O5 0.292328 0.178608 0.562741
O O6 0.017238 0.000593 0.632588
O O7 0.544454 0.768382 0.862676
O O8 0.000000 0.000000 0.500000
O O9 0.589764 0.539442 0.575871
O O10 0.043903 0.522690 0.790458
O O11 0.789821 0.135244 0.620704
O O12 0.500000 0.000000 0.500000
O O13 0.964941 0.163165 0.784437
O O14 0.294633 0.095003 0.030765
O O15 0.939013 0.193004 0.959241
#
# Coordination Sequence:
#
# PCOD9062555 Si02
#       7
#     2   2   2   2   2   2   2
#     4  11  24  42  69 109 141 186 239 292 359 422
#     4  11  25  47  70 100 142 193 243 288 355 434
#     4  11  24  42  71 107 144 184 234 296 362 418
#     4  11  26  44  70  99 141 190 240 290 355 421
#     4  12  22  43  73 104 150 186 234 296 359 427
#     4  11  24  43  70 103 146 183 235 298 363 418
#     4  11  24  41  69 110 147 179 234 300 360 426
#
# _framework density 23.797947000000001
#
# number of rings (size 3 to 8) (size 9 to 14) (size 15 to 20)
#    0.000    0.857    2.857    3.857    2.000    2.857 
#    0.000    0.714    0.000    0.000    0.000    0.000 
#    0.000    0.000    0.000    0.000    0.000    0.000 
#
# Total GULP energy -78010.009896 kJ/mol
# GULP energy per Si atom -5572.143564 kJ/mol
# Density = 2.374378 g / cm^3
# Si number density = 23.797947 Si / 1000 Ang^3
#
#
#
# Elastic Constant Matrix: (Units=GPa)
#
#
# Indices 1 2 3 4 5 6 
#
# 1 113.3134 25.2083 50.7426 -0.3963 -4.7571 15.7832
# 2 25.2083 90.6112 16.6096 22.0066 -0.9869 12.6904
# 3 50.7426 16.6096 103.7894 14.6494 6.5339 -0.9183
# 4 -0.3963 22.0066 14.6494 35.6385 -7.4990 -3.2862
# 5 -4.7571 -0.9869 6.5339 -7.4990 28.9902 -1.9292
# 6 15.7832 12.6904 -0.9183 -3.2862 -1.9292 47.1086
#
#
#
# Elastic Compliance Matrix: (Units=1/GPa)
#
#
# Indices 1 2 3 4 5 6 
#
# 1 0.013495 -0.003391 -0.007250 0.006005 0.005079 -0.003122
# 2 -0.003391 0.014878 0.000953 -0.010648 -0.003267 -0.003730
# 3 -0.007250 0.000953 0.014547 -0.007833 -0.006352 0.001649
# 4 0.006005 -0.010648 -0.007833 0.041098 0.013293 0.004115
# 5 0.005079 -0.003267 -0.006352 0.013293 0.040195 0.001628
# 6 -0.003122 -0.003730 0.001649 0.004115 0.001628 0.023664
#
#
# Mechanical properties :
#
#
# Convention : Reuss Voigt Hill
#
# Bulk Modulus (GPa) = 42.47609 54.75947 48.61778
# Shear Modulus (GPa) = 28.55476 36.69102 32.62289
#
# Velocity S-wave (km/s) = 3.46769 3.93080 3.70649
# Velocity P-wave (km/s) = 5.82414 6.60770 6.22825
#
# Compressibility (1/GPa) = 0.02354266
#
# Stress axis : x y z
#
# Youngs Moduli (GPa) = 74.10002 67.21457 68.74218
#
# Poissons Ratio (x) = 0.22794 0.49839
# Poissons Ratio (y) = 0.25129 -0.06549
# Poissons Ratio (z) = 0.53723 -0.06403
#
# Static dielectric constant tensor:
#      x y z
#    x 1.946010 -0.024520 -0.029870 
#    y -0.024520 2.262170 -0.071970 
#    z -0.029870 -0.071970 1.894930 
# 
# From -- ./inp_files/589511.got.cif
#   From: 2010.05.17/outbox.cif.g08.bks.cpg/sg2_295_cif.got.tgz:589511.got - 2010.06.03 11:33:40.
