data_PCOD9062036
_publ_section_title
;
Structure prediction by ZEFSAII (Michael W. Deem and Ramdas Pophale) SiO2 
 PCOD9062036
Probable space group: P -1
;
_chemical_formula_sum "Si O2"
_cell_formula_units_Z 15
_cell_length_a 9.172069
_cell_length_b 28.367446
_cell_length_c 13.303876
_cell_angle_alpha 158.115038
_cell_angle_beta 31.614622
_cell_angle_gamma 147.409468
_cell_volume 651.660471
_symmetry_space_group_name_H-M "P -1"
_symmetry_group_IT_number 2
_symmetry_cell_setting 'triclinic'
loop_
_space_group_symop_operation_xyz
x,y,z
-x,-y,-z
loop_
_atom_site_type_symbol
_atom_site_label
_atom_site_fract_x
_atom_site_fract_y
_atom_site_fract_z
Si Si1 0.451631 0.543544 0.504546
Si Si2 0.304420 0.821571 0.154990
Si Si3 0.696451 0.804118 0.378270
Si Si4 0.000000 0.500000 0.000000
Si Si5 0.627990 0.034853 0.236871
Si Si6 0.929084 0.237702 0.614953
Si Si7 0.525853 0.808615 0.705603
Si Si8 0.076429 0.369102 0.230649
O O1 0.500000 0.500000 0.500000
O O2 0.746592 0.570508 0.321982
O O3 0.225165 0.416208 0.340753
O O4 0.334542 0.674034 0.827643
O O5 0.282072 0.835540 0.315642
O O6 0.010067 0.842306 0.320892
O O7 0.539250 0.926196 0.161067
O O8 0.616341 0.896744 0.524123
O O9 0.496439 0.796108 0.577880
O O10 0.697425 0.670260 0.055023
O O11 0.146961 0.628083 0.098960
O O12 0.873424 0.148230 0.370427
O O13 0.668317 0.954295 0.954048
O O14 0.245465 0.266129 0.536403
O O15 0.211910 0.748690 0.819821
O O16 0.000000 0.500000 0.500000
#
# Coordination Sequence:
#
# PCOD9062036 Si02
#       8
#     2   2   2   1   2   2   2   2
#     4  12  26  46  73 106 145 187 245 297 368 433
#     4  11  23  47  69 109 146 192 243 306 358 441
#     4  11  25  44  72 105 145 192 245 298 363 428
#     4  12  24  46  72 104 146 180 242 302 358 432
#     4  12  23  46  74 105 148 197 245 302 361 429
#     4  11  25  44  74 107 147 194 243 302 367 426
#     4  11  26  46  72 105 150 191 246 302 358 436
#     4  12  24  46  72 104 146 196 235 298 366 429
#
# _framework density 23.018121000000001
#
# number of rings (size 3 to 8) (size 9 to 14) (size 15 to 20)
#    0.000    0.533    4.000    4.000    0.000    2.667 
#    0.000    0.000    0.000    0.000    0.000    0.000 
#    0.000    0.000    0.000    0.000    0.000    0.000 
#
# Total GULP energy -83527.836815 kJ/mol
# GULP energy per Si atom -5568.522454 kJ/mol
# Density = 2.296573 g / cm^3
# Si number density = 23.018121 Si / 1000 Ang^3
#
#
#
# Elastic Constant Matrix: (Units=GPa)
#
#
# Indices 1 2 3 4 5 6 
#
# 1 119.4501 35.5071 42.3289 14.2922 10.4289 -19.6312
# 2 35.5071 68.7557 27.1922 -2.4664 -4.1260 -17.4106
# 3 42.3289 27.1922 112.8630 -3.6538 9.6524 -18.1686
# 4 14.2922 -2.4664 -3.6538 37.0202 -1.6924 -5.1141
# 5 10.4289 -4.1260 9.6524 -1.6924 45.3812 2.8200
# 6 -19.6312 -17.4106 -18.1686 -5.1141 2.8200 34.1002
#
#
#
# Elastic Compliance Matrix: (Units=1/GPa)
#
#
# Indices 1 2 3 4 5 6 
#
# 1 0.012103 -0.004850 -0.002891 -0.005080 -0.002948 0.002433
# 2 -0.004850 0.019859 -0.002034 0.004050 0.003093 0.006615
# 3 -0.002891 -0.002034 0.011319 0.002539 -0.002074 0.003880
# 4 -0.005080 0.004050 0.002539 0.030251 0.001820 0.004883
# 5 -0.002948 0.003093 -0.002074 0.001820 0.023684 -0.002909
# 6 0.002433 0.006615 0.003880 0.004883 -0.002909 0.037144
#
#
# Mechanical properties :
#
#
# Convention : Reuss Voigt Hill
#
# Bulk Modulus (GPa) = 42.14010 56.79168 49.46589
# Shear Modulus (GPa) = 30.89824 36.36970 33.63397
#
# Velocity S-wave (km/s) = 3.66778 3.97929 3.82671
# Velocity P-wave (km/s) = 6.02361 6.77046 6.40793
#
# Compressibility (1/GPa) = 0.02373036
#
# Stress axis : x y z
#
# Youngs Moduli (GPa) = 82.62471 50.35400 88.34689
#
# Poissons Ratio (x) = 0.24421 0.25545
# Poissons Ratio (y) = 0.40071 0.17972
# Poissons Ratio (z) = 0.23890 0.10243
#
# Static dielectric constant tensor:
#      x y z
#    x 1.889640 0.007480 0.007490 
#    y 0.007480 1.956690 -0.057400 
#    z 0.007490 -0.057400 1.889990 
# 
# From -- ./inp_files/407371.got.cif
#   From: 2010.05.17/outbox.cif.g08.bks.cpg/sg2_204_cif.got.tgz:407371.got - 2010.06.03 11:33:40.
