data_PCOD9062173
_publ_section_title
;
Structure prediction by ZEFSAII (Michael W. Deem and Ramdas Pophale) SiO2 
 PCOD9062173
Probable space group: P -1
;
_chemical_formula_sum "Si O2"
_cell_formula_units_Z 14
_cell_length_a 19.398041
_cell_length_b 8.868030
_cell_length_c 5.389402
_cell_angle_alpha 107.795746
_cell_angle_beta 120.203404
_cell_angle_gamma 114.727973
_cell_volume 548.398456
_symmetry_space_group_name_H-M "P -1"
_symmetry_group_IT_number 2
_symmetry_cell_setting 'triclinic'
loop_
_space_group_symop_operation_xyz
x,y,z
-x,-y,-z
loop_
_atom_site_type_symbol
_atom_site_label
_atom_site_fract_x
_atom_site_fract_y
_atom_site_fract_z
Si Si1 0.880121 0.913660 0.296305
Si Si2 0.342179 0.479066 0.601932
Si Si3 0.002095 0.606296 0.309436
Si Si4 0.542617 0.736906 0.730537
Si Si5 0.347578 0.819233 0.964195
Si Si6 0.772343 0.274970 0.804437
Si Si7 0.749137 0.897623 0.425717
O O1 0.836492 0.886031 0.486185
O O2 0.772359 0.691919 0.851305
O O3 0.000000 0.000000 0.500000
O O4 0.904476 0.131597 0.382434
O O5 0.454767 0.662255 0.746481
O O6 0.345091 0.626426 0.874892
O O7 0.338151 0.307646 0.653883
O O8 0.000000 0.500000 0.500000
O O9 0.881730 0.522491 0.057846
O O10 0.000000 0.500000 0.000000
O O11 0.500000 0.500000 0.500000
O O12 0.672275 0.867041 0.058221
O O13 0.553860 0.916296 0.684850
O O14 0.316769 0.803465 0.607736
O O15 0.261724 0.746209 0.986945
O O16 0.797550 0.123693 0.739688
#
# Coordination Sequence:
#
# PCOD9062173 Si02
#       7
#     2   2   2   2   2   2   2
#     4  12  28  47  71 108 151 197 244 306 373 433
#     4  12  26  47  72 109 152 190 244 305 372 441
#     4  12  25  44  74 104 141 193 253 302 355 431
#     4  11  23  47  79 107 143 192 246 303 368 442
#     4  11  27  45  76 108 148 189 240 305 375 437
#     4  11  24  48  72 104 146 193 247 301 364 436
#     4  11  25  46  75 106 144 196 248 300 368 444
#
# _framework density 25.528880999999998
#
# number of rings (size 3 to 8) (size 9 to 14) (size 15 to 20)
#    0.000    0.571    2.857    4.286    8.000    1.714 
#    0.000    4.286    0.000    0.000    0.000    0.000 
#    0.000    0.000    0.000    0.000    0.000    0.000 
#
# Total GULP energy -78011.364318 kJ/mol
# GULP energy per Si atom -5572.240308 kJ/mol
# Density = 2.547078 g / cm^3
# Si number density = 25.528881 Si / 1000 Ang^3
#
#
#
# Elastic Constant Matrix: (Units=GPa)
#
#
# Indices 1 2 3 4 5 6 
#
# 1 156.9479 9.1815 50.9758 11.3195 -4.6443 28.5413
# 2 9.1815 97.9223 28.9941 28.3825 -1.8821 16.1069
# 3 50.9758 28.9941 105.6795 22.8375 -1.7760 -16.6795
# 4 11.3195 28.3825 22.8375 50.1271 0.9360 3.9302
# 5 -4.6443 -1.8821 -1.7760 0.9360 31.5955 7.4240
# 6 28.5413 16.1069 -16.6795 3.9302 7.4240 40.6959
#
#
#
# Elastic Compliance Matrix: (Units=1/GPa)
#
#
# Indices 1 2 3 4 5 6 
#
# 1 0.011854 0.003986 -0.009076 0.000249 0.004875 -0.014524
# 2 0.003986 0.015548 -0.006752 -0.005770 0.004102 -0.011908
# 3 -0.009076 -0.006752 0.019435 -0.004327 -0.004815 0.018299
# 4 0.000249 -0.005770 -0.004327 0.025300 -0.000841 -0.001954
# 5 0.004875 0.004102 -0.004815 -0.000841 0.035517 -0.013414
# 6 -0.014524 -0.011908 0.018299 -0.001954 -0.013414 0.049608
#
#
# Mechanical properties :
#
#
# Convention : Reuss Voigt Hill
#
# Bulk Modulus (GPa) = 43.18932 59.87250 51.53091
# Shear Modulus (GPa) = 26.50243 42.57694 34.53968
#
# Velocity S-wave (km/s) = 3.22551 4.08830 3.68226
# Velocity P-wave (km/s) = 5.55215 6.76678 6.18933
#
# Compressibility (1/GPa) = 0.02315387
#
# Stress axis : x y z
#
# Youngs Moduli (GPa) = 84.36225 64.31868 51.45320
#
# Poissons Ratio (x) = -0.25640 0.46697
# Poissons Ratio (y) = -0.33631 0.34742
# Poissons Ratio (z) = 0.76564 0.43428
#
# Static dielectric constant tensor:
#      x y z
#    x 2.573470 0.172610 0.491260 
#    y 0.172610 2.122950 0.160340 
#    z 0.491260 0.160340 2.667570 
# 
# From -- ./inp_files/107674.got.cif
#   From: 2010.05.17/outbox.cif.g08.bks.cpg/sg2_54_cif.got.tgz:107674.got - 2010.06.03 11:33:40.
