data_PCOD9062855
_publ_section_title
;
Structure prediction by ZEFSAII (Michael W. Deem and Ramdas Pophale) SiO2 
 PCOD9062855
Probable space group: P -1
;
_chemical_formula_sum "Si O2"
_cell_formula_units_Z 16
_cell_length_a 8.565125
_cell_length_b 10.461849
_cell_length_c 8.841998
_cell_angle_alpha 56.284504
_cell_angle_beta 76.074738
_cell_angle_gamma 76.292172
_cell_volume 634.407002
_symmetry_space_group_name_H-M "P -1"
_symmetry_group_IT_number 2
_symmetry_cell_setting 'triclinic'
loop_
_space_group_symop_operation_xyz
x,y,z
-x,-y,-z
loop_
_atom_site_type_symbol
_atom_site_label
_atom_site_fract_x
_atom_site_fract_y
_atom_site_fract_z
Si Si1 0.963913 0.516317 0.820532
Si Si2 0.343594 0.958196 0.149122
Si Si3 0.422334 0.643441 0.229450
Si Si4 0.366891 0.904975 0.523222
Si Si5 0.018471 0.065829 0.116813
Si Si6 0.699637 0.318129 0.069049
Si Si7 0.881480 0.826520 0.472096
Si Si8 0.740377 0.620940 0.380188
O O1 0.096891 0.430898 0.726243
O O2 0.947547 0.691866 0.656486
O O3 0.000000 0.500000 0.000000
O O4 0.786292 0.463434 0.901016
O O5 0.306704 0.804529 0.173154
O O6 0.388462 0.899345 0.344594
O O7 0.200765 0.101764 0.075102
O O8 0.500000 0.000000 0.000000
O O9 0.589183 0.647162 0.280789
O O10 0.323260 0.511541 0.409776
O O11 0.447478 0.658439 0.032613
O O12 0.362864 0.739728 0.717002
O O13 0.500000 0.000000 0.500000
O O14 0.214622 0.031271 0.509762
O O15 0.022740 0.913911 0.318131
O O16 0.861670 0.188839 0.100575
O O17 0.000000 0.000000 0.000000
O O18 0.786229 0.753708 0.401353
#
# Coordination Sequence:
#
# PCOD9062855 Si02
#       8
#     2   2   2   2   2   2   2   2
#     4  12  28  44  72 108 148 193 242 293 364 433
#     4  12  27  44  77 103 145 190 239 296 361 435
#     4  11  24  45  73 107 137 192 247 291 364 424
#     4  11  27  48  72 108 149 184 241 303 363 424
#     4  11  24  42  74 105 140 182 245 290 357 428
#     4  11  25  46  71 105 144 188 241 299 357 428
#     4  11  25  49  75 106 145 196 235 302 363 423
#     4  11  25  46  74 102 147 191 242 296 358 436
#
# _framework density 25.220403000000001
#
# number of rings (size 3 to 8) (size 9 to 14) (size 15 to 20)
#    0.000    0.750    2.500    3.375   10.500    2.000 
#    0.000    1.250    0.000    0.000    0.000    0.000 
#    0.000    0.000    0.000    0.000    0.000    0.000 
#
# Total GULP energy -89255.675728 kJ/mol
# GULP energy per Si atom -5578.479733 kJ/mol
# Density = 2.516300 g / cm^3
# Si number density = 25.220403 Si / 1000 Ang^3
#
#
#
# Elastic Constant Matrix: (Units=GPa)
#
#
# Indices 1 2 3 4 5 6 
#
# 1 87.4356 -6.6369 36.7445 13.7229 7.2440 1.1205
# 2 -6.6369 34.2607 30.8959 3.0133 -7.0711 1.7557
# 3 36.7445 30.8959 190.3272 19.5460 13.3486 -7.3573
# 4 13.7229 3.0133 19.5460 43.3535 3.7686 3.5160
# 5 7.2440 -7.0711 13.3486 3.7686 47.6048 4.9388
# 6 1.1205 1.7557 -7.3573 3.5160 4.9388 24.3400
#
#
#
# Elastic Compliance Matrix: (Units=1/GPa)
#
#
# Indices 1 2 3 4 5 6 
#
# 1 0.013849 0.006186 -0.003435 -0.003144 0.000201 -0.001709
# 2 0.006186 0.040188 -0.008468 -0.001061 0.008240 -0.007262
# 3 -0.003435 -0.008468 0.007873 -0.001925 -0.003213 0.004079
# 4 -0.003144 -0.001061 -0.001925 0.025382 -0.000747 -0.003876
# 5 0.000201 0.008240 -0.003213 -0.000747 0.023813 -0.006299
# 6 -0.001709 -0.007262 0.004079 -0.003876 -0.006299 0.044758
#
#
# Mechanical properties :
#
#
# Convention : Reuss Voigt Hill
#
# Bulk Modulus (GPa) = 19.81132 48.22561 34.01847
# Shear Modulus (GPa) = 27.15585 39.79431 33.47508
#
# Velocity S-wave (km/s) = 3.28493 3.97654 3.64717
# Velocity P-wave (km/s) = 4.71806 6.34405 5.59049
#
# Compressibility (1/GPa) = 0.05047619
#
# Stress axis : x y z
#
# Youngs Moduli (GPa) = 72.20836 24.88274 127.02312
#
# Poissons Ratio (x) = -0.15392 0.43634
# Poissons Ratio (y) = -0.44668 1.07560
# Poissons Ratio (z) = 0.24804 0.21070
#
# Static dielectric constant tensor:
#      x y z
#    x 2.294380 -0.106100 0.025380 
#    y -0.106100 2.399820 0.058530 
#    z 0.025380 0.058530 2.026340 
# 
# From -- ./inp_files/184098.got.cif
#   From: 2010.05.17/outbox.cif.g08.bks.cpg/sg2_93_cif.got.tgz:184098.got - 2010.06.03 11:33:40.
