data_PCOD9062624
_publ_section_title
;
Structure prediction by ZEFSAII (Michael W. Deem and Ramdas Pophale) SiO2 
 PCOD9062624
Probable space group: P -1
;
_chemical_formula_sum "Si O2"
_cell_formula_units_Z 16
_cell_length_a 9.949401
_cell_length_b 11.999830
_cell_length_c 8.805253
_cell_angle_alpha 91.006829
_cell_angle_beta 82.211430
_cell_angle_gamma 49.618637
_cell_volume 785.644994
_symmetry_space_group_name_H-M "P -1"
_symmetry_group_IT_number 2
_symmetry_cell_setting 'triclinic'
loop_
_space_group_symop_operation_xyz
x,y,z
-x,-y,-z
loop_
_atom_site_type_symbol
_atom_site_label
_atom_site_fract_x
_atom_site_fract_y
_atom_site_fract_z
Si Si1 0.237864 0.361787 0.053206
Si Si2 0.957685 0.902543 0.067899
Si Si3 0.917292 0.371205 0.125651
Si Si4 0.597612 0.058068 0.937076
Si Si5 0.662069 0.924312 0.595319
Si Si6 0.804050 0.598623 0.608826
Si Si7 0.002699 0.875401 0.420320
Si Si8 0.295643 0.566996 0.529196
O O1 0.184998 0.448622 0.220824
O O2 0.122684 0.308908 0.087735
O O3 0.180202 0.468108 0.923558
O O4 0.449165 0.231305 0.998631
O O5 0.978570 0.897985 0.244425
O O6 0.084095 0.735230 0.984099
O O7 0.765908 0.982552 0.019894
O O8 0.000000 0.000000 0.000000
O O9 0.824615 0.382299 0.296734
O O10 0.627955 0.019196 0.752203
O O11 0.500000 0.000000 0.000000
O O12 0.714133 0.769007 0.626748
O O13 0.834951 0.889736 0.496042
O O14 0.500000 0.000000 0.500000
O O15 0.695107 0.564055 0.536511
O O16 0.000000 0.500000 0.500000
O O17 0.179189 0.712542 0.443791
O O18 0.000000 0.000000 0.500000
O O19 0.500000 0.500000 0.500000
#
# Coordination Sequence:
#
# PCOD9062624 Si02
#       8
#     2   2   2   2   2   2   2   2
#     4  11  24  41  75 103 143 180 241 297 348 423
#     4  12  26  46  73  99 146 190 233 293 363 430
#     4  11  24  44  69 106 137 188 233 296 362 418
#     4  12  23  45  68 107 142 183 241 290 349 426
#     4  12  27  42  74 109 145 187 240 296 355 430
#     4  12  23  45  69 102 144 185 237 291 357 422
#     4  12  27  48  70 104 144 188 237 295 363 427
#     4  12  28  47  71 101 146 188 239 298 364 433
#
# _framework density 20.365434
#
# number of rings (size 3 to 8) (size 9 to 14) (size 15 to 20)
#    0.000    0.250    5.000    3.750    3.500    2.000 
#    0.000    1.875    0.000    0.000    0.000    0.000 
#    0.000    0.000    0.000    0.000    0.000    0.000 
#
# Total GULP energy -89292.157004 kJ/mol
# GULP energy per Si atom -5580.759813 kJ/mol
# Density = 2.031908 g / cm^3
# Si number density = 20.365434 Si / 1000 Ang^3
#
#
#
# Elastic Constant Matrix: (Units=GPa)
#
#
# Indices 1 2 3 4 5 6 
#
# 1 156.6608 50.2415 52.8389 -9.2054 6.9194 -0.6069
# 2 50.2415 99.1032 42.1442 -10.6863 2.1017 -17.2570
# 3 52.8389 42.1442 158.8253 -9.3653 12.1007 -5.7106
# 4 -9.2054 -10.6863 -9.3653 34.1800 5.3587 7.7002
# 5 6.9194 2.1017 12.1007 5.3587 33.8043 0.5206
# 6 -0.6069 -17.2570 -5.7106 7.7002 0.5206 42.0754
#
#
#
# Elastic Compliance Matrix: (Units=1/GPa)
#
#
# Indices 1 2 3 4 5 6 
#
# 1 0.008220 -0.003610 -0.001694 0.001184 -0.001012 -0.001796
# 2 -0.003610 0.013918 -0.002244 0.001569 0.000350 0.005060
# 3 -0.001694 -0.002244 0.007722 0.001375 -0.002494 -0.000118
# 4 0.001184 0.001569 0.001375 0.032502 -0.005907 -0.005028
# 5 -0.001012 0.000350 -0.002494 -0.005907 0.031589 0.000481
# 6 -0.001796 0.005060 -0.000118 -0.005028 0.000481 0.026715
#
#
# Mechanical properties :
#
#
# Convention : Reuss Voigt Hill
#
# Bulk Modulus (GPa) = 67.73935 78.33760 73.03848
# Shear Modulus (GPa) = 35.54049 39.96959 37.75504
#
# Velocity S-wave (km/s) = 4.18202 4.43495 4.31034
# Velocity P-wave (km/s) = 7.52683 8.04826 7.79191
#
# Compressibility (1/GPa) = 0.01476247
#
# Stress axis : x y z
#
# Youngs Moduli (GPa) = 121.65751 71.84892 129.49470
#
# Poissons Ratio (x) = 0.25939 0.21941
# Poissons Ratio (y) = 0.43922 0.29062
# Poissons Ratio (z) = 0.20613 0.16125
#
# Static dielectric constant tensor:
#      x y z
#    x 1.729360 0.123790 0.050080 
#    y 0.123790 2.689240 0.385600 
#    z 0.050080 0.385600 1.827850 
# 
# From -- ./inp_files/187480.got.cif
#   From: 2010.05.17/outbox.cif.g08.bks.cpg/sg2_94_cif.got.tgz:187480.got - 2010.06.03 11:33:40.
