data_PCOD9062383
_publ_section_title
;
Structure prediction by ZEFSAII (Michael W. Deem and Ramdas Pophale) SiO2 
 PCOD9062383
Probable space group: P -1
;
_chemical_formula_sum "Si O2"
_cell_formula_units_Z 16
_cell_length_a 5.592562
_cell_length_b 9.522407
_cell_length_c 21.422679
_cell_angle_alpha 59.926529
_cell_angle_beta 96.817913
_cell_angle_gamma 128.659334
_cell_volume 738.377012
_symmetry_space_group_name_H-M "P -1"
_symmetry_group_IT_number 2
_symmetry_cell_setting 'triclinic'
loop_
_space_group_symop_operation_xyz
x,y,z
-x,-y,-z
loop_
_atom_site_type_symbol
_atom_site_label
_atom_site_fract_x
_atom_site_fract_y
_atom_site_fract_z
Si Si1 0.430495 0.705781 0.939394
Si Si2 0.417373 0.520021 0.096391
Si Si3 0.671633 0.243994 0.435644
Si Si4 0.082597 0.166153 0.857420
Si Si5 0.888883 0.442492 0.264654
Si Si6 0.227795 0.831142 0.793168
Si Si7 0.566753 0.740551 0.275019
Si Si8 0.396740 0.442106 0.438888
O O1 0.430395 0.549121 0.928357
O O2 0.327523 0.804345 0.869011
O O3 0.275327 0.586087 0.027147
O O4 0.782129 0.925417 0.921594
O O5 0.652971 0.717002 0.106332
O O6 0.152031 0.314889 0.176286
O O7 0.682374 0.313657 0.348771
O O8 0.464021 0.286848 0.455989
O O9 0.045070 0.369624 0.436664
O O10 0.500000 0.000000 0.500000
O O11 0.053908 0.345889 0.801225
O O12 0.181316 0.138567 0.799632
O O13 0.747354 0.282640 0.237530
O O14 0.243223 0.543788 0.273788
O O15 0.434342 0.082802 0.733572
O O16 0.626147 0.642010 0.353971
O O17 0.500000 0.500000 0.500000
#
# Coordination Sequence:
#
# PCOD9062383 Si02
#       8
#     2   2   2   2   2   2   2   2
#     4  11  24  40  62  94 130 168 218 280 338 402
#     4  11  24  40  62  94 130 168 218 280 338 402
#     4  11  25  47  71 105 143 182 228 282 344 412
#     4  12  21  44  63  92 128 174 218 274 335 402
#     4  11  24  42  68  95 135 171 225 276 336 402
#     4  12  23  42  65  96 126 176 222 276 335 398
#     4  11  24  42  68  95 135 171 225 276 336 402
#     4  11  25  47  71 105 143 182 228 282 344 412
#
# _framework density 21.669146999999999
#
# number of rings (size 3 to 8) (size 9 to 14) (size 15 to 20)
#    0.000    0.750    6.250    1.500    1.750    0.000 
#    4.500    1.250    0.000    0.000    0.000    0.000 
#    0.000    0.000    0.000    0.000    0.000    0.000 
#
# Total GULP energy -89238.450975 kJ/mol
# GULP energy per Si atom -5577.403186 kJ/mol
# Density = 2.161983 g / cm^3
# Si number density = 21.669147 Si / 1000 Ang^3
#
#
#
# Elastic Constant Matrix: (Units=GPa)
#
#
# Indices 1 2 3 4 5 6 
#
# 1 30.9658 2.1795 -1.5185 12.0071 8.7734 -9.1302
# 2 2.1795 104.9933 26.1671 7.6369 5.9828 -7.9203
# 3 -1.5185 26.1671 103.9534 12.1981 11.2783 -7.3667
# 4 12.0071 7.6369 12.1981 37.5704 -1.7894 5.6338
# 5 8.7734 5.9828 11.2783 -1.7894 30.7103 -4.3500
# 6 -9.1302 -7.9203 -7.3667 5.6338 -4.3500 32.3037
#
#
#
# Elastic Compliance Matrix: (Units=1/GPa)
#
#
# Indices 1 2 3 4 5 6 
#
# 1 0.050540 0.001278 0.005910 -0.021718 -0.015626 0.017629
# 2 0.001278 0.010449 -0.001990 -0.002358 -0.001427 0.002689
# 3 0.005910 -0.001990 0.011823 -0.006215 -0.005405 0.004235
# 4 -0.021718 -0.002358 -0.006215 0.038536 0.009264 -0.013607
# 5 -0.015626 -0.001427 -0.005405 0.009264 0.039504 -0.002295
# 6 0.017629 0.002689 0.004235 -0.013607 -0.002295 0.039628
#
#
# Mechanical properties :
#
#
# Convention : Reuss Voigt Hill
#
# Bulk Modulus (GPa) = 12.01808 32.61873 22.31841
# Shear Modulus (GPa) = 24.05928 34.32253 29.19091
#
# Velocity S-wave (km/s) = 3.33573 3.98419 3.67429
# Velocity P-wave (km/s) = 4.51601 6.02086 5.32189
#
# Compressibility (1/GPa) = 0.08320797
#
# Stress axis : x y z
#
# Youngs Moduli (GPa) = 19.78630 95.69961 84.58358
#
# Poissons Ratio (x) = -0.12231 -0.49986
# Poissons Ratio (y) = -0.02529 0.16829
# Poissons Ratio (z) = -0.11693 0.19041
#
# Static dielectric constant tensor:
#      x y z
#    x 1.917750 0.030000 0.004710 
#    y 0.030000 1.715840 0.035780 
#    z 0.004710 0.035780 1.725900 
# 
# From -- ./inp_files/47272.got.cif
#   From: 2010.05.17/outbox.cif.g08.bks.cpg/sg2_24_cif.got.tgz:47272.got - 2010.06.03 11:33:40.
