data_PCOD9062539
_publ_section_title
;
Structure prediction by ZEFSAII (Michael W. Deem and Ramdas Pophale) SiO2 
 PCOD9062539
Probable space group: P -1
;
_chemical_formula_sum "Si O2"
_cell_formula_units_Z 16
_cell_length_a 11.646161
_cell_length_b 17.785350
_cell_length_c 5.924632
_cell_angle_alpha 55.095310
_cell_angle_beta 110.309202
_cell_angle_gamma 133.103481
_cell_volume 732.823637
_symmetry_space_group_name_H-M "P -1"
_symmetry_group_IT_number 2
_symmetry_cell_setting 'triclinic'
loop_
_space_group_symop_operation_xyz
x,y,z
-x,-y,-z
loop_
_atom_site_type_symbol
_atom_site_label
_atom_site_fract_x
_atom_site_fract_y
_atom_site_fract_z
Si Si1 0.852172 0.645189 0.749216
Si Si2 0.380906 0.584165 0.309469
Si Si3 0.591770 0.628994 0.737941
Si Si4 0.909695 0.550650 0.341224
Si Si5 0.057768 0.064232 0.178775
Si Si6 0.925078 0.199354 0.734641
Si Si7 0.446790 0.936843 0.320899
Si Si8 0.567334 0.790716 0.753773
O O1 0.713560 0.536775 0.687392
O O2 0.771399 0.683497 0.782948
O O3 0.994734 0.759503 0.525931
O O4 0.902263 0.580354 0.030889
O O5 0.539497 0.619147 0.463620
O O6 0.260598 0.544917 0.499374
O O7 0.440387 0.699619 0.013400
O O8 0.554865 0.704471 0.709603
O O9 0.500000 0.500000 0.000000
O O10 0.998608 0.675435 0.311002
O O11 0.000000 0.500000 0.500000
O O12 0.247536 0.131944 0.183361
O O13 0.987884 0.135469 0.999494
O O14 0.000000 0.000000 0.500000
O O15 0.000000 0.000000 0.000000
O O16 0.740164 0.130254 0.703869
O O17 0.512024 0.863078 0.502021
O O18 0.500000 0.000000 0.500000
O O19 0.500000 0.000000 0.000000
#
# Coordination Sequence:
#
# PCOD9062539 Si02
#       8
#     2   2   2   2   2   2   2   2
#     4  11  24  44  68 110 154 194 240 298 373 464
#     4  11  24  41  68 110 150 190 244 291 378 461
#     4  12  23  41  70 109 155 185 237 296 372 466
#     4  11  26  42  70 107 157 193 241 294 369 479
#     4  12  29  52  77 110 146 194 267 323 372 434
#     4  11  28  46  79 107 148 203 244 316 387 443
#     4  12  31  56  79 109 149 198 269 326 374 438
#     4  12  28  45  80 108 147 203 244 315 391 440
#
# _framework density 21.833358
#
# number of rings (size 3 to 8) (size 9 to 14) (size 15 to 20)
#    0.000    0.500    2.500    3.375   15.750    1.000 
#    0.000    0.000    0.000    0.000    0.000    0.000 
#    0.000    0.000    0.000    0.000    0.000    0.000 
#
# Total GULP energy -89230.913056 kJ/mol
# GULP energy per Si atom -5576.932066 kJ/mol
# Density = 2.178366 g / cm^3
# Si number density = 21.833358 Si / 1000 Ang^3
#
#
#
# Elastic Constant Matrix: (Units=GPa)
#
#
# Indices 1 2 3 4 5 6 
#
# 1 126.7752 64.6992 91.7950 -19.5959 42.6866 3.5501
# 2 64.6992 120.3439 62.4410 4.4311 4.8093 18.1157
# 3 91.7950 62.4410 196.2764 -17.1144 21.7519 13.0190
# 4 -19.5959 4.4311 -17.1144 32.4566 4.3074 -5.0920
# 5 42.6866 4.8093 21.7519 4.3074 53.0321 -5.7128
# 6 3.5501 18.1157 13.0190 -5.0920 -5.7128 44.0376
#
#
#
# Elastic Compliance Matrix: (Units=1/GPa)
#
#
# Indices 1 2 3 4 5 6 
#
# 1 0.027941 -0.012754 -0.005378 0.019114 -0.020231 0.004170
# 2 -0.012754 0.016713 -0.001154 -0.012769 0.009643 -0.005731
# 3 -0.005378 -0.001154 0.008027 0.000823 0.000939 -0.001248
# 4 0.019114 -0.012769 0.000823 0.047935 -0.017735 0.006711
# 5 -0.020231 0.009643 0.000939 -0.017735 0.035312 -0.000084
# 6 0.004170 -0.005731 -0.001248 0.006711 -0.000084 0.025863
#
#
# Mechanical properties :
#
#
# Convention : Reuss Voigt Hill
#
# Bulk Modulus (GPa) = 70.87605 97.91844 84.39724
# Shear Modulus (GPa) = 24.38247 40.86926 32.62587
#
# Velocity S-wave (km/s) = 3.34541 4.33121 3.86983
# Velocity P-wave (km/s) = 6.88877 8.36409 7.66202
#
# Compressibility (1/GPa) = 0.01410914
#
# Stress axis : x y z
#
# Youngs Moduli (GPa) = 35.79031 59.83517 124.57243
#
# Poissons Ratio (x) = 0.76314 0.66992
# Poissons Ratio (y) = 0.45647 0.14374
# Poissons Ratio (z) = 0.19247 0.06904
#
# Static dielectric constant tensor:
#      x y z
#    x 2.240980 -0.063280 -0.406590 
#    y -0.063280 1.878390 0.083380 
#    z -0.406590 0.083380 2.112570 
# 
# From -- ./inp_files/82993.got.cif
#   From: 2010.05.17/outbox.cif.g08.bks.cpg/sg2_42_cif.got.tgz:82993.got - 2010.06.03 11:33:40.
