data_PCOD9062360
_publ_section_title
;
Structure prediction by ZEFSAII (Michael W. Deem and Ramdas Pophale) SiO2 
 PCOD9062360
Probable space group: P -1
;
_chemical_formula_sum "Si O2"
_cell_formula_units_Z 12
_cell_length_a 7.705140
_cell_length_b 5.364398
_cell_length_c 15.829834
_cell_angle_alpha 77.192420
_cell_angle_beta 68.405066
_cell_angle_gamma 62.852113
_cell_volume 540.208444
_symmetry_space_group_name_H-M "P -1"
_symmetry_group_IT_number 2
_symmetry_cell_setting 'triclinic'
loop_
_space_group_symop_operation_xyz
x,y,z
-x,-y,-z
loop_
_atom_site_type_symbol
_atom_site_label
_atom_site_fract_x
_atom_site_fract_y
_atom_site_fract_z
Si Si1 0.083164 0.809651 0.417341
Si Si2 0.164235 0.070566 0.212250
Si Si3 0.506621 0.284681 0.942433
Si Si4 0.688027 0.770700 0.532095
Si Si5 0.516664 0.927582 0.728517
Si Si6 0.274098 0.535035 0.801734
O O1 0.286062 0.544502 0.430529
O O2 0.892557 0.720633 0.446606
O O3 0.107459 0.939069 0.315358
O O4 0.000000 0.000000 0.500000
O O5 0.962923 0.304193 0.190793
O O6 0.285764 0.827826 0.142117
O O7 0.330505 0.177667 0.211017
O O8 0.323200 0.433849 0.897305
O O9 0.500000 0.500000 0.000000
O O10 0.500000 0.000000 0.000000
O O11 0.500000 0.000000 0.500000
O O12 0.657463 0.890314 0.623919
O O13 0.377098 0.253065 0.748496
O O14 0.383572 0.748345 0.752879
#
# Coordination Sequence:
#
# PCOD9062360 Si02
#       6
#     2   2   2   2   2   2
#     4  11  24  42  63 101 137 185 237 284 346 413
#     4  11  25  47  74  98 149 183 232 302 352 419
#     4  11  25  47  72 105 138 177 236 297 357 432
#     4  11  24  39  65  94 141 190 241 288 343 413
#     4  11  24  44  67 104 145 185 239 287 343 422
#     4  11  26  44  75 106 137 191 235 283 371 426
#
# _framework density 22.213649
#
# number of rings (size 3 to 8) (size 9 to 14) (size 15 to 20)
#    0.000    1.000    1.667    5.000    2.333    7.333 
#    0.000    0.000    0.000    0.000    0.000    0.000 
#    0.000    0.000    0.000    0.000    0.000    0.000 
#
# Total GULP energy -67048.208294 kJ/mol
# GULP energy per Si atom -5587.350691 kJ/mol
# Density = 2.216309 g / cm^3
# Si number density = 22.213649 Si / 1000 Ang^3
#
#
#
# Elastic Constant Matrix: (Units=GPa)
#
#
# Indices 1 2 3 4 5 6 
#
# 1 76.5472 70.6428 17.5790 2.2638 7.1138 -21.5958
# 2 70.6428 196.1833 77.9034 5.8421 26.0297 -13.1411
# 3 17.5790 77.9034 138.6002 14.6614 19.5996 -3.9184
# 4 2.2638 5.8421 14.6614 43.2683 2.5963 11.7456
# 5 7.1138 26.0297 19.5996 2.5963 19.7311 -7.9529
# 6 -21.5958 -13.1411 -3.9184 11.7456 -7.9529 53.7723
#
#
#
# Elastic Compliance Matrix: (Units=1/GPa)
#
#
# Indices 1 2 3 4 5 6 
#
# 1 0.023149 -0.009222 0.002036 -0.003388 0.005785 0.008787
# 2 -0.009222 0.010887 -0.004014 0.001683 -0.008462 -0.002955
# 3 0.002036 -0.004014 0.010243 -0.002857 -0.005051 0.000460
# 4 -0.003388 0.001683 -0.002857 0.026379 -0.004701 -0.007615
# 5 0.005785 -0.008462 -0.005051 -0.004701 0.069932 0.011257
# 6 0.008787 -0.002955 0.000460 -0.007615 0.011257 0.024766
#
#
# Mechanical properties :
#
#
# Convention : Reuss Voigt Hill
#
# Bulk Modulus (GPa) = 45.70889 82.62012 64.16450
# Shear Modulus (GPa) = 25.63462 39.70136 32.66799
#
# Velocity S-wave (km/s) = 3.40075 4.23217 3.83904
# Velocity P-wave (km/s) = 6.00348 7.82022 6.97128
#
# Compressibility (1/GPa) = 0.02187758
#
# Stress axis : x y z
#
# Youngs Moduli (GPa) = 43.19891 91.85353 97.63069
#
# Poissons Ratio (x) = 0.84709 -0.19881
# Poissons Ratio (y) = 0.39839 0.39194
# Poissons Ratio (z) = -0.08797 0.36874
#
# Static dielectric constant tensor:
#      x y z
#    x 1.941590 0.087020 -0.049160 
#    y 0.087020 1.866600 -0.026360 
#    z -0.049160 -0.026360 1.835420 
# 
# From -- ./inp_files/323262.got.cif
#   From: 2010.05.17/outbox.cif.g08.bks.cpg/sg2_162_cif.got.tgz:323262.got - 2010.06.03 11:33:40.
