data_PCOD9062384
_publ_section_title
;
Structure prediction by ZEFSAII (Michael W. Deem and Ramdas Pophale) SiO2 
 PCOD9062384
Probable space group: P -1
;
_chemical_formula_sum "Si O2"
_cell_formula_units_Z 10
_cell_length_a 8.891102
_cell_length_b 18.601159
_cell_length_c 7.974469
_cell_angle_alpha 143.061172
_cell_angle_beta 146.682541
_cell_angle_gamma 42.367911
_cell_volume 425.179926
_symmetry_space_group_name_H-M "P -1"
_symmetry_group_IT_number 2
_symmetry_cell_setting 'triclinic'
loop_
_space_group_symop_operation_xyz
x,y,z
-x,-y,-z
loop_
_atom_site_type_symbol
_atom_site_label
_atom_site_fract_x
_atom_site_fract_y
_atom_site_fract_z
Si Si1 0.720652 0.582192 0.820023
Si Si2 0.424830 0.984729 0.132836
Si Si3 0.743310 0.194883 0.142468
Si Si4 0.880333 0.140779 0.815562
Si Si5 0.080503 0.247902 0.887383
O O1 0.500000 0.500000 0.500000
O O2 0.555916 0.712172 0.984161
O O3 0.808816 0.627616 0.805281
O O4 0.000000 0.500000 0.000000
O O5 0.596084 0.091358 0.477655
O O6 0.645193 0.862434 0.055812
O O7 0.145752 0.025649 0.838983
O O8 0.308726 0.939936 0.114962
O O9 0.900466 0.232471 0.523323
O O10 0.912682 0.197260 0.134497
O O11 0.901641 0.231950 0.854662
#
# Coordination Sequence:
#
# PCOD9062384 Si02
#       5
#     2   2   2   2   2
#     4  11  24  45  70  90 122 167 214 273 328 368
#     4  11  24  40  62  98 138 176 200 251 314 378
#     4  11  25  42  68  95 128 172 215 255 318 379
#     4  12  26  39  64 100 136 165 212 256 304 386
#     4  11  25  42  68  95 128 172 215 255 318 379
#
# _framework density 23.519454
#
# number of rings (size 3 to 8) (size 9 to 14) (size 15 to 20)
#    0.000    0.800    4.000    2.400   11.200    0.000 
#    0.000    2.000    0.000    0.000    0.000    0.000 
#    0.000    0.000    0.000    0.000    0.000    0.000 
#
# Total GULP energy -55841.847222 kJ/mol
# GULP energy per Si atom -5584.184722 kJ/mol
# Density = 2.346592 g / cm^3
# Si number density = 23.519454 Si / 1000 Ang^3
#
#
#
# Elastic Constant Matrix: (Units=GPa)
#
#
# Indices 1 2 3 4 5 6 
#
# 1 196.7964 56.6096 59.1942 7.0682 22.8263 56.6545
# 2 56.6096 127.8135 40.4481 -15.9401 16.5316 20.2788
# 3 59.1942 40.4481 131.4550 -14.6884 35.9199 21.5009
# 4 7.0682 -15.9401 -14.6884 44.1429 9.2662 25.9770
# 5 22.8263 16.5316 35.9199 9.2662 45.2534 5.7185
# 6 56.6545 20.2788 21.5009 25.9770 5.7185 45.9341
#
#
#
# Elastic Compliance Matrix: (Units=1/GPa)
#
#
# Indices 1 2 3 4 5 6 
#
# 1 0.010599 0.000352 0.001559 0.012102 -0.006667 -0.019973
# 2 0.000352 0.012161 0.002312 0.015310 -0.007748 -0.014579
# 3 0.001559 0.002312 0.016712 0.022139 -0.016750 -0.021201
# 4 0.012102 0.015310 0.022139 0.086284 -0.037309 -0.076199
# 5 -0.006667 -0.007748 -0.016750 -0.037309 0.044803 0.035006
# 6 -0.019973 -0.014579 -0.021201 -0.076199 0.035006 0.101499
#
#
# Mechanical properties :
#
#
# Convention : Reuss Voigt Hill
#
# Bulk Modulus (GPa) = 20.86828 85.39652 53.13240
# Shear Modulus (GPa) = 17.88371 47.05361 32.46866
#
# Velocity S-wave (km/s) = 2.76049 4.47769 3.71954
# Velocity P-wave (km/s) = 4.36491 7.94485 6.40988
#
# Compressibility (1/GPa) = 0.04791962
#
# Stress axis : x y z
#
# Youngs Moduli (GPa) = 94.34469 82.23123 59.83720
#
# Poissons Ratio (x) = -0.02898 -0.09331
# Poissons Ratio (y) = -0.03325 -0.13834
# Poissons Ratio (z) = -0.14712 -0.19011
#
# Static dielectric constant tensor:
#      x y z
#    x 2.009730 0.011160 -0.012910 
#    y 0.011160 1.885520 0.029740 
#    z -0.012910 0.029740 1.996840 
# 
# From -- ./inp_files/57308.got.cif
#   From: 2010.05.17/outbox.cif.g08.bks.cpg/sg2_29_cif.got.tgz:57308.got - 2010.06.03 11:33:40.
