data_PCOD9062859
_publ_section_title
;
Structure prediction by ZEFSAII (Michael W. Deem and Ramdas Pophale) SiO2 
 PCOD9062859
Probable space group: P -1
;
_chemical_formula_sum "Si O2"
_cell_formula_units_Z 14
_cell_length_a 11.713602
_cell_length_b 8.105207
_cell_length_c 17.246672
_cell_angle_alpha 110.272291
_cell_angle_beta 20.071378
_cell_angle_gamma 109.269399
_cell_volume 527.084721
_symmetry_space_group_name_H-M "P -1"
_symmetry_group_IT_number 2
_symmetry_cell_setting 'triclinic'
loop_
_space_group_symop_operation_xyz
x,y,z
-x,-y,-z
loop_
_atom_site_type_symbol
_atom_site_label
_atom_site_fract_x
_atom_site_fract_y
_atom_site_fract_z
Si Si1 0.422492 0.839399 0.075576
Si Si2 0.351696 0.480213 0.178139
Si Si3 0.668318 0.301639 0.553949
Si Si4 0.295449 0.086316 0.454605
Si Si5 0.864099 0.639726 0.985953
Si Si6 0.155159 0.019647 0.032422
Si Si7 0.285547 0.285838 0.652780
O O1 0.685398 0.863714 0.980709
O O2 0.056748 0.851764 0.345947
O O3 0.462637 0.700372 0.957470
O O4 0.500000 0.000000 0.000000
O O5 0.517149 0.610391 0.153539
O O6 0.962819 0.436562 0.413368
O O7 0.500000 0.500000 0.000000
O O8 0.300235 0.357617 0.824285
O O9 0.626431 0.298946 0.487518
O O10 0.728684 0.109881 0.522847
O O11 0.335711 0.219981 0.522419
O O12 0.564420 0.078482 0.213468
O O13 0.982241 0.835090 0.916947
O O14 0.106263 0.475538 0.796497
O O15 0.915655 0.874274 0.201014
#
# Coordination Sequence:
#
# PCOD9062859 Si02
#       7
#     2   2   2   2   2   2   2
#     4  12  20  42  74 103 143 188 239 299 360 418
#     4  12  23  43  72 101 142 186 238 302 355 420
#     4  11  26  46  72 106 147 191 240 301 365 427
#     4  11  24  42  74 110 141 194 245 294 365 436
#     4  11  25  47  76 104 144 194 245 295 362 432
#     4  11  25  45  76 109 144 190 247 294 366 435
#     4  12  25  51  74 104 155 191 233 310 361 430
#
# _framework density 26.561195999999999
#
# number of rings (size 3 to 8) (size 9 to 14) (size 15 to 20)
#    0.000    0.571    5.714    1.714    0.000    3.429 
#    2.571    2.143    0.000    0.000    0.000    0.000 
#    0.000    0.000    0.000    0.000    0.000    0.000 
#
# Total GULP energy -78248.234746 kJ/mol
# GULP energy per Si atom -5589.159625 kJ/mol
# Density = 2.650074 g / cm^3
# Si number density = 26.561196 Si / 1000 Ang^3
#
#
#
# Elastic Constant Matrix: (Units=GPa)
#
#
# Indices 1 2 3 4 5 6 
#
# 1 87.7501 1.9424 15.4408 -14.5061 -12.1128 18.0010
# 2 1.9424 101.1504 20.4331 -0.8004 -2.4738 -4.1917
# 3 15.4408 20.4331 147.5442 10.3672 -2.8784 0.8415
# 4 -14.5061 -0.8004 10.3672 30.8086 1.9051 9.3434
# 5 -12.1128 -2.4738 -2.8784 1.9051 52.8126 -1.7594
# 6 18.0010 -4.1917 0.8415 9.3434 -1.7594 40.5805
#
#
#
# Elastic Compliance Matrix: (Units=1/GPa)
#
#
# Indices 1 2 3 4 5 6 
#
# 1 0.015945 -0.000073 -0.002321 0.010975 0.002817 -0.009437
# 2 -0.000073 0.010234 -0.001434 0.000370 0.000406 0.001051
# 3 -0.002321 -0.001434 0.007503 -0.004167 0.000016 0.001686
# 4 0.010975 0.000370 -0.004167 0.043495 0.000247 -0.014747
# 5 0.002817 0.000406 0.000016 0.000247 0.019578 -0.000416
# 6 -0.009437 0.001051 0.001686 -0.014747 -0.000416 0.032280
#
#
# Mechanical properties :
#
#
# Convention : Reuss Voigt Hill
#
# Bulk Modulus (GPa) = 38.42230 45.78638 42.10434
# Shear Modulus (GPa) = 34.39635 44.74889 39.57262
#
# Velocity S-wave (km/s) = 3.60249 4.10902 3.86407
# Velocity P-wave (km/s) = 5.63923 6.30774 5.98283
#
# Compressibility (1/GPa) = 0.02602655
#
# Stress axis : x y z
#
# Youngs Moduli (GPa) = 62.71552 97.71620 133.28764
#
# Poissons Ratio (x) = 0.00710 0.30936
# Poissons Ratio (y) = 0.00456 0.19110
# Poissons Ratio (z) = 0.14556 0.14010
#
# Static dielectric constant tensor:
#      x y z
#    x 2.086640 -0.077780 -0.059000 
#    y -0.077780 1.942040 -0.000040 
#    z -0.059000 -0.000040 2.180890 
# 
# From -- ./inp_files/329397.got.cif
#   From: 2010.05.17/outbox.cif.g08.bks.cpg/sg2_165_cif.got.tgz:329397.got - 2010.06.03 11:33:40.
