data_PCOD9062086
_publ_section_title
;
Structure prediction by ZEFSAII (Michael W. Deem and Ramdas Pophale) SiO2 
 PCOD9062086
Probable space group: P -1
;
_chemical_formula_sum "Si O2"
_cell_formula_units_Z 16
_cell_length_a 8.838473
_cell_length_b 8.987747
_cell_length_c 19.066668
_cell_angle_alpha 61.537258
_cell_angle_beta 84.205228
_cell_angle_gamma 134.459984
_cell_volume 685.251966
_symmetry_space_group_name_H-M "P -1"
_symmetry_group_IT_number 2
_symmetry_cell_setting 'triclinic'
loop_
_space_group_symop_operation_xyz
x,y,z
-x,-y,-z
loop_
_atom_site_type_symbol
_atom_site_label
_atom_site_fract_x
_atom_site_fract_y
_atom_site_fract_z
Si Si1 0.755585 0.382711 0.386466
Si Si2 0.924541 0.766874 0.600428
Si Si3 0.689765 0.664136 0.258935
Si Si4 0.779915 0.592424 0.879279
Si Si5 0.693779 0.298017 0.079270
Si Si6 0.710364 0.239781 0.670074
Si Si7 0.159076 0.773211 0.705248
Si Si8 0.704324 0.618066 0.112365
O O1 0.651192 0.474548 0.358582
O O2 0.894596 0.437670 0.295557
O O3 0.031410 0.653609 0.366778
O O4 0.500000 0.000000 0.500000
O O5 0.590623 0.482921 0.702579
O O6 0.905740 0.592730 0.587780
O O7 0.126303 0.903530 0.625321
O O8 0.000000 0.000000 0.500000
O O9 0.702516 0.582827 0.202439
O O10 0.966659 0.047778 0.178200
O O11 0.562418 0.515329 0.868783
O O12 0.934115 0.607018 0.815346
O O13 0.611782 0.324073 0.007176
O O14 0.718555 0.463087 0.101157
O O15 0.474942 0.960876 0.203844
O O16 0.000000 0.500000 0.000000
O O17 0.475338 0.040038 0.665046
O O18 0.000000 0.000000 0.000000
#
# Coordination Sequence:
#
# PCOD9062086 Si02
#       8
#     2   2   2   2   2   2   2   2
#     4  11  27  47  68 101 141 184 236 295 351 411
#     4  11  24  46  72 102 136 179 236 290 346 411
#     4  12  23  45  70 101 143 179 229 294 341 410
#     4  12  25  46  69 106 140 185 231 283 351 422
#     4  12  24  44  72 104 144 185 228 279 350 424
#     4  11  24  46  70 102 143 182 231 288 346 423
#     4  11  23  47  72 103 137 184 233 280 359 414
#     4  12  27  43  69 104 141 190 230 282 349 415
#
# _framework density 23.349077000000001
#
# number of rings (size 3 to 8) (size 9 to 14) (size 15 to 20)
#    0.000    0.500    5.000    3.375    1.750    1.000 
#    2.250    3.125    0.000    0.000    0.000    0.000 
#    0.000    0.000    0.000    0.000    0.000    0.000 
#
# Total GULP energy -89401.982544 kJ/mol
# GULP energy per Si atom -5587.623909 kJ/mol
# Density = 2.329593 g / cm^3
# Si number density = 23.349077 Si / 1000 Ang^3
#
#
#
# Elastic Constant Matrix: (Units=GPa)
#
#
# Indices 1 2 3 4 5 6 
#
# 1 144.1688 40.1801 32.2129 -6.3714 0.3694 28.2698
# 2 40.1801 84.7477 20.1167 5.5501 -8.5657 24.1344
# 3 32.2129 20.1167 57.3584 -8.8371 15.5464 23.4208
# 4 -6.3714 5.5501 -8.8371 25.4631 -0.3919 -6.2811
# 5 0.3694 -8.5657 15.5464 -0.3919 52.1633 1.3481
# 6 28.2698 24.1344 23.4208 -6.2811 1.3481 58.8124
#
#
#
# Elastic Compliance Matrix: (Units=1/GPa)
#
#
# Indices 1 2 3 4 5 6 
#
# 1 0.008867 -0.003042 -0.003153 0.001395 0.000430 -0.001619
# 2 -0.003042 0.016394 -0.004447 -0.006881 0.004099 -0.004323
# 3 -0.003153 -0.004447 0.026850 0.007808 -0.008488 -0.006324
# 4 0.001395 -0.006881 0.007808 0.044743 -0.003232 0.003896
# 5 0.000430 0.004099 -0.008488 -0.003232 0.022330 0.000635
# 6 -0.001619 -0.004323 -0.006324 0.003896 0.000635 0.022475
#
#
# Mechanical properties :
#
#
# Convention : Reuss Voigt Hill
#
# Bulk Modulus (GPa) = 32.44024 52.36602 42.40313
# Shear Modulus (GPa) = 28.86524 40.20545 34.53535
#
# Velocity S-wave (km/s) = 3.51985 4.15411 3.85006
# Velocity P-wave (km/s) = 5.51750 6.74426 6.16149
#
# Compressibility (1/GPa) = 0.03082591
#
# Stress axis : x y z
#
# Youngs Moduli (GPa) = 112.78144 60.99896 37.24331
#
# Poissons Ratio (x) = 0.18557 0.11744
# Poissons Ratio (y) = 0.34311 0.16562
# Poissons Ratio (z) = 0.35563 0.27126
#
# Static dielectric constant tensor:
#      x y z
#    x 1.934730 0.041080 -0.017980 
#    y 0.041080 1.832210 0.024820 
#    z -0.017980 0.024820 1.974800 
# 
# From -- ./inp_files/587903.got.cif
#   From: 2010.05.17/outbox.cif.g08.bks.cpg/sg2_294_cif.got.tgz:587903.got - 2010.06.03 11:33:40.
