data_PCOD9062162
_publ_section_title
;
Structure prediction by ZEFSAII (Michael W. Deem and Ramdas Pophale) SiO2 
 PCOD9062162
Probable space group: P -1
;
_chemical_formula_sum "Si O2"
_cell_formula_units_Z 14
_cell_length_a 5.985068
_cell_length_b 8.300842
_cell_length_c 17.198180
_cell_angle_alpha 53.939076
_cell_angle_beta 66.106642
_cell_angle_gamma 82.045985
_cell_volume 625.704510
_symmetry_space_group_name_H-M "P -1"
_symmetry_group_IT_number 2
_symmetry_cell_setting 'triclinic'
loop_
_space_group_symop_operation_xyz
x,y,z
-x,-y,-z
loop_
_atom_site_type_symbol
_atom_site_label
_atom_site_fract_x
_atom_site_fract_y
_atom_site_fract_z
Si Si1 0.358356 0.068247 0.727769
Si Si2 0.110856 0.709460 0.461646
Si Si3 0.363562 0.677504 0.743218
Si Si4 0.257137 0.088617 0.479988
Si Si5 0.111455 0.468526 0.684455
Si Si6 0.266437 0.951229 0.949190
Si Si7 0.406911 0.666116 0.131496
O O1 0.644126 0.160078 0.643085
O O2 0.226407 0.270009 0.697192
O O3 0.280567 0.880096 0.733420
O O4 0.311491 0.963757 0.847912
O O5 0.167541 0.638650 0.561926
O O6 0.000000 0.500000 0.500000
O O7 0.870923 0.822470 0.454469
O O8 0.624311 0.753783 0.644516
O O9 0.210335 0.565679 0.725250
O O10 0.420976 0.509780 0.844436
O O11 0.500000 0.000000 0.500000
O O12 0.000000 0.000000 0.500000
O O13 0.826140 0.397853 0.761845
O O14 0.448328 0.136725 0.905783
O O15 0.316459 0.742691 0.040273
O O16 0.000000 0.000000 0.000000
#
# Coordination Sequence:
#
# PCOD9062162 Si02
#       7
#     2   2   2   2   2   2   2
#     4  12  26  45  76 113 147 202 263 307 386 464
#     4  12  26  46  75 113 153 205 254 308 382 471
#     4  12  26  45  73 111 152 200 252 313 393 460
#     4  12  26  47  70 108 162 204 246 314 385 456
#     4  12  25  50  73 109 161 197 249 322 390 460
#     4  11  23  49  78 102 147 198 252 322 391 454
#     4  11  23  47  78 102 145 202 247 315 400 449
#
# _framework density 22.374780000000001
#
# number of rings (size 3 to 8) (size 9 to 14) (size 15 to 20)
#    0.000    0.286    5.714    3.000    2.000    0.571 
#    2.571    2.857    0.000    0.000    0.000    0.000 
#    0.000    0.000    0.000    0.000    0.000    0.000 
#
# Total GULP energy -78071.841310 kJ/mol
# GULP energy per Si atom -5576.560094 kJ/mol
# Density = 2.232385 g / cm^3
# Si number density = 22.374780 Si / 1000 Ang^3
#
#
#
# Elastic Constant Matrix: (Units=GPa)
#
#
# Indices 1 2 3 4 5 6 
#
# 1 120.4941 76.8511 49.9991 -5.2813 5.1368 -14.0429
# 2 76.8511 171.0747 32.8068 -7.0570 13.0878 -18.1996
# 3 49.9991 32.8068 137.8610 6.9265 21.3597 -14.3971
# 4 -5.2813 -7.0570 6.9265 29.7742 -5.4292 1.0307
# 5 5.1368 13.0878 21.3597 -5.4292 51.8505 -12.9971
# 6 -14.0429 -18.1996 -14.3971 1.0307 -12.9971 38.6529
#
#
#
# Elastic Compliance Matrix: (Units=1/GPa)
#
#
# Indices 1 2 3 4 5 6 
#
# 1 0.013443 -0.005178 -0.003943 0.002431 0.002274 0.001677
# 2 -0.005178 0.008442 0.000196 0.000761 -0.001181 0.001749
# 3 -0.003943 0.000196 0.009497 -0.003570 -0.003680 0.001055
# 4 0.002431 0.000761 -0.003570 0.035910 0.004953 0.000620
# 5 0.002274 -0.001181 -0.003680 0.004953 0.023025 0.006510
# 6 0.001677 0.001749 0.001055 0.000620 0.006510 0.029870
#
#
# Mechanical properties :
#
#
# Convention : Reuss Voigt Hill
#
# Bulk Modulus (GPa) = 73.89479 83.19376 78.54428
# Shear Modulus (GPa) = 35.07667 42.04038 38.55852
#
# Velocity S-wave (km/s) = 3.96370 4.33935 4.15577
# Velocity P-wave (km/s) = 7.35156 7.89742 7.62938
#
# Compressibility (1/GPa) = 0.01353275
#
# Stress axis : x y z
#
# Youngs Moduli (GPa) = 74.38960 118.46038 105.30155
#
# Poissons Ratio (x) = 0.61339 0.41515
# Poissons Ratio (y) = 0.38519 -0.02069
# Poissons Ratio (z) = 0.29328 -0.02328
#
# Static dielectric constant tensor:
#      x y z
#    x 1.903060 0.096620 0.065090 
#    y 0.096620 2.139040 -0.009640 
#    z 0.065090 -0.009640 1.838180 
# 
# From -- ./inp_files/547715.got.cif
#   From: 2010.05.17/outbox.cif.g08.bks.cpg/sg2_274_cif.got.tgz:547715.got - 2010.06.03 11:33:40.
