data_PCOD9062573
_publ_section_title
;
Structure prediction by ZEFSAII (Michael W. Deem and Ramdas Pophale) SiO2 
 PCOD9062573
Probable space group: P -1
;
_chemical_formula_sum "Si O2"
_cell_formula_units_Z 16
_cell_length_a 24.514029
_cell_length_b 5.149074
_cell_length_c 11.598221
_cell_angle_alpha 62.006323
_cell_angle_beta 31.682142
_cell_angle_gamma 64.987397
_cell_volume 678.066810
_symmetry_space_group_name_H-M "P -1"
_symmetry_group_IT_number 2
_symmetry_cell_setting 'triclinic'
loop_
_space_group_symop_operation_xyz
x,y,z
-x,-y,-z
loop_
_atom_site_type_symbol
_atom_site_label
_atom_site_fract_x
_atom_site_fract_y
_atom_site_fract_z
Si Si1 0.625408 0.652701 0.610544
Si Si2 0.384654 0.159489 0.667091
Si Si3 0.226255 0.160453 0.297026
Si Si4 0.256419 0.597980 0.964822
Si Si5 0.066623 0.713780 0.677651
Si Si6 0.180218 0.157391 0.651728
Si Si7 0.570021 0.111038 0.953719
Si Si8 0.925920 0.257507 0.917771
O O1 0.627152 0.657808 0.469559
O O2 0.713746 0.847062 0.465009
O O3 0.640419 0.346341 0.715522
O O4 0.509620 0.757129 0.836676
O O5 0.346591 0.380971 0.790510
O O6 0.500000 0.000000 0.500000
O O7 0.306146 0.895886 0.854156
O O8 0.200079 0.182039 0.474952
O O9 0.166876 0.879632 0.416338
O O10 0.350969 0.119487 0.081997
O O11 0.202428 0.436209 0.201385
O O12 0.169344 0.662879 0.011349
O O13 0.111854 0.458903 0.736051
O O14 0.995615 0.533355 0.756954
O O15 0.995273 0.983105 0.799776
O O16 0.120253 0.873213 0.854439
O O17 0.500000 0.000000 0.000000
#
# Coordination Sequence:
#
# PCOD9062573 Si02
#       8
#     2   2   2   2   2   2   2   2
#     4  11  25  43  75 112 147 198 244 306 373 440
#     4  12  28  50  79 108 153 202 253 297 369 444
#     4  12  28  46  75 109 155 191 250 307 379 439
#     4  12  30  50  76 110 153 199 250 309 365 449
#     4  12  27  48  76 110 147 197 248 317 374 433
#     4  12  25  47  76 113 149 189 254 310 379 438
#     4  11  24  41  70 110 151 186 240 303 370 447
#     4  12  28  49  76 109 147 196 256 307 370 444
#
# _framework density 23.596496999999999
#
# number of rings (size 3 to 8) (size 9 to 14) (size 15 to 20)
#    0.000    0.250    5.000    2.625    8.750    1.000 
#    0.000    0.000    0.000    0.000    0.000    0.000 
#    0.000    0.000    0.000    0.000    0.000    0.000 
#
# Total GULP energy -89576.938120 kJ/mol
# GULP energy per Si atom -5598.558632 kJ/mol
# Density = 2.354279 g / cm^3
# Si number density = 23.596497 Si / 1000 Ang^3
#
#
#
# Elastic Constant Matrix: (Units=GPa)
#
#
# Indices 1 2 3 4 5 6 
#
# 1 70.7217 26.5902 39.9431 -9.5421 4.8452 -16.4473
# 2 26.5902 75.9666 23.9928 7.4898 6.1766 4.9381
# 3 39.9431 23.9928 73.2415 -8.2315 -0.5041 -7.9481
# 4 -9.5421 7.4898 -8.2315 37.9792 2.2493 -7.5082
# 5 4.8452 6.1766 -0.5041 2.2493 51.1547 -3.0265
# 6 -16.4473 4.9381 -7.9481 -7.5082 -3.0265 43.7255
#
#
#
# Elastic Compliance Matrix: (Units=1/GPa)
#
#
# Indices 1 2 3 4 5 6 
#
# 1 0.025900 -0.007298 -0.009765 0.007901 -0.001421 0.010050
# 2 -0.007298 0.018149 -0.003553 -0.007437 -0.001612 -0.006829
# 3 -0.009765 -0.003553 0.020586 0.002830 0.001495 0.001060
# 4 0.007901 -0.007437 0.002830 0.032380 -0.000664 0.009840
# 5 -0.001421 -0.001612 0.001495 -0.000664 0.019992 0.001189
# 6 0.010050 -0.006829 0.001060 0.009840 0.001189 0.029386
#
#
# Mechanical properties :
#
#
# Convention : Reuss Voigt Hill
#
# Bulk Modulus (GPa) = 42.73187 44.55356 43.64271
# Shear Modulus (GPa) = 25.58504 35.19880 30.39192
#
# Velocity S-wave (km/s) = 3.29640 3.86644 3.59274
# Velocity P-wave (km/s) = 5.71289 6.23337 5.97879
#
# Compressibility (1/GPa) = 0.02340174
#
# Stress axis : x y z
#
# Youngs Moduli (GPa) = 38.61032 55.10033 48.57573
#
# Poissons Ratio (x) = 0.40213 0.47436
# Poissons Ratio (y) = 0.28178 0.17260
# Poissons Ratio (z) = 0.37704 0.19579
#
# Static dielectric constant tensor:
#      x y z
#    x 1.846970 0.034710 -0.007470 
#    y 0.034710 1.929040 0.037140 
#    z -0.007470 0.037140 1.951740 
# 
# From -- ./inp_files/473353.got.cif
#   From: 2010.05.17/outbox.cif.g08.bks.cpg/sg2_237_cif.got.tgz:473353.got - 2010.06.03 11:33:40.
