data_PCOD9062591
_publ_section_title
;
Structure prediction by ZEFSAII (Michael W. Deem and Ramdas Pophale) SiO2 
 PCOD9062591
Probable space group: P -1
;
_chemical_formula_sum "Si O2"
_cell_formula_units_Z 13
_cell_length_a 8.125416
_cell_length_b 20.768191
_cell_length_c 5.284012
_cell_angle_alpha 100.911159
_cell_angle_beta 89.354225
_cell_angle_gamma 144.521014
_cell_volume 491.950386
_symmetry_space_group_name_H-M "P -1"
_symmetry_group_IT_number 2
_symmetry_cell_setting 'triclinic'
loop_
_space_group_symop_operation_xyz
x,y,z
-x,-y,-z
loop_
_atom_site_type_symbol
_atom_site_label
_atom_site_fract_x
_atom_site_fract_y
_atom_site_fract_z
Si Si1 0.500183 0.112307 0.904425
Si Si2 0.782678 0.573457 0.392146
Si Si3 0.204610 0.187462 0.520462
Si Si4 0.672344 0.415762 0.996505
Si Si5 0.786568 0.161110 0.439200
Si Si6 0.669089 0.298040 0.253854
Si Si7 0.000000 0.000000 0.500000
O O1 0.638604 0.113515 0.681708
O O2 0.179521 0.024885 0.750198
O O3 0.565773 0.104777 0.172974
O O4 0.661322 0.237091 0.005240
O O5 0.500000 0.500000 0.500000
O O6 0.675203 0.493743 0.101900
O O7 0.980614 0.702464 0.446237
O O8 0.011846 0.600388 0.552118
O O9 0.407715 0.198986 0.385999
O O10 0.070236 0.098173 0.676406
O O11 0.963837 0.153878 0.372501
O O12 0.444284 0.317266 0.719547
O O13 0.592114 0.344055 0.185008
O O14 0.000000 0.500000 0.000000
#
# Coordination Sequence:
#
# PCOD9062591 Si02
#       7
#     2   2   2   2   2   2   1
#     4  11  26  50  79 107 152 194 256 313 384 448
#     4  11  24  41  71 108 154 202 245 312 381 453
#     4  12  28  47  77 109 152 203 260 314 385 448
#     4  12  24  43  72 108 148 202 256 303 373 462
#     4  11  28  49  72 117 153 195 248 326 382 454
#     4  11  24  46  69 110 151 201 252 312 375 462
#     4  12  26  54  82 108 146 206 258 318 378 458
#
# _framework density 26.425426000000002
#
# number of rings (size 3 to 8) (size 9 to 14) (size 15 to 20)
#    0.000    0.615    3.077    4.154    8.615    4.308 
#    0.000    0.000    0.000    0.000    0.000    0.000 
#    0.000    0.000    0.000    0.000    0.000    0.000 
#
# Total GULP energy -72570.653415 kJ/mol
# GULP energy per Si atom -5582.357955 kJ/mol
# Density = 2.636528 g / cm^3
# Si number density = 26.425426 Si / 1000 Ang^3
#
#
#
# Elastic Constant Matrix: (Units=GPa)
#
#
# Indices 1 2 3 4 5 6 
#
# 1 169.3564 39.5752 62.8654 2.6950 6.6449 5.4657
# 2 39.5752 55.8137 31.4692 13.5500 -4.1705 22.0100
# 3 62.8654 31.4692 118.9990 11.7563 -7.2984 5.3565
# 4 2.6950 13.5500 11.7563 38.3338 0.5879 -6.9639
# 5 6.6449 -4.1705 -7.2984 0.5879 47.9298 4.6176
# 6 5.4657 22.0100 5.3565 -6.9639 4.6176 49.5925
#
#
#
# Elastic Compliance Matrix: (Units=1/GPa)
#
#
# Indices 1 2 3 4 5 6 
#
# 1 0.008630 -0.006271 -0.003513 0.003256 -0.002597 0.002910
# 2 -0.006271 0.034642 -0.003407 -0.013880 0.005148 -0.016744
# 3 -0.003513 -0.003407 0.011475 -0.002063 0.001945 0.000189
# 4 0.003256 -0.013880 -0.002063 0.033456 -0.003448 0.011043
# 5 -0.002597 0.005148 0.001945 -0.003448 0.022471 -0.004785
# 6 0.002910 -0.016744 0.000189 0.011043 -0.004785 0.029251
#
#
# Mechanical properties :
#
#
# Convention : Reuss Voigt Hill
#
# Bulk Modulus (GPa) = 35.25560 67.99875 51.62718
# Shear Modulus (GPa) = 28.44763 41.18849 34.81806
#
# Velocity S-wave (km/s) = 3.28460 3.95228 3.63381
# Velocity P-wave (km/s) = 5.26833 6.82756 6.09799
#
# Compressibility (1/GPa) = 0.02836428
#
# Stress axis : x y z
#
# Youngs Moduli (GPa) = 115.87143 28.86703 87.14662
#
# Poissons Ratio (x) = 0.18102 0.30613
# Poissons Ratio (y) = 0.72662 0.29695
# Poissons Ratio (z) = 0.40704 0.09836
#
# Static dielectric constant tensor:
#      x y z
#    x 1.947480 -0.401340 0.164550 
#    y -0.401340 2.095240 0.287240 
#    z 0.164550 0.287240 1.891640 
# 
# From -- ./inp_files/55035.got.cif
#   From: 2010.05.17/outbox.cif.g08.bks.cpg/sg2_28_cif.got.tgz:55035.got - 2010.06.03 11:33:40.
