data_PCOD9062414
_publ_section_title
;
Structure prediction by ZEFSAII (Michael W. Deem and Ramdas Pophale) SiO2 
 PCOD9062414
Probable space group: P -1
;
_chemical_formula_sum "Si O2"
_cell_formula_units_Z 16
_cell_length_a 10.395477
_cell_length_b 14.167565
_cell_length_c 9.697588
_cell_angle_alpha 62.506240
_cell_angle_beta 71.716352
_cell_angle_gamma 122.173147
_cell_volume 715.099100
_symmetry_space_group_name_H-M "P -1"
_symmetry_group_IT_number 2
_symmetry_cell_setting 'triclinic'
loop_
_space_group_symop_operation_xyz
x,y,z
-x,-y,-z
loop_
_atom_site_type_symbol
_atom_site_label
_atom_site_fract_x
_atom_site_fract_y
_atom_site_fract_z
Si Si1 0.716784 0.072335 0.820066
Si Si2 0.842656 0.575885 0.690734
Si Si3 0.472808 0.415376 0.709377
Si Si4 0.139164 0.343840 0.048236
Si Si5 0.402112 0.785154 0.915299
Si Si6 0.735428 0.351002 0.231328
Si Si7 0.217044 0.064725 0.906095
Si Si8 0.340652 0.980965 0.703501
O O1 0.902091 0.261697 0.559564
O O2 0.626099 0.934585 0.827798
O O3 0.679595 0.145010 0.126324
O O4 0.500000 0.000000 0.000000
O O5 0.687854 0.541480 0.655158
O O6 0.822895 0.612028 0.829389
O O7 0.768606 0.405752 0.831036
O O8 0.500000 0.500000 0.500000
O O9 0.405882 0.255697 0.786949
O O10 0.272170 0.333776 0.931680
O O11 0.868312 0.159879 0.238602
O O12 0.242228 0.513683 0.819372
O O13 0.428058 0.752410 0.777839
O O14 0.828964 0.069820 0.899460
O O15 0.613853 0.172394 0.461430
O O16 0.000000 0.500000 0.000000
O O17 0.295253 0.063549 0.738364
O O18 0.000000 0.000000 0.000000
#
# Coordination Sequence:
#
# PCOD9062414 Si02
#       8
#     2   2   2   2   2   2   2   2
#     4  12  26  47  69 104 147 193 237 301 365 430
#     4  11  27  47  74 107 147 185 242 303 360 432
#     4  12  25  49  76 102 143 189 245 303 359 433
#     4  11  25  46  74 106 143 192 240 295 363 429
#     4  11  24  42  69 105 142 185 237 291 366 425
#     4  11  24  40  68 107 142 185 236 291 363 432
#     4  12  25  46  70 103 143 188 247 290 361 430
#     4  12  24  43  72 105 148 188 237 298 359 432
#
# _framework density 22.374521999999999
#
# number of rings (size 3 to 8) (size 9 to 14) (size 15 to 20)
#    0.000    0.500    5.000    3.000    3.500    0.500 
#    4.500    0.625    0.000    0.000    0.000    0.000 
#    0.000    0.000    0.000    0.000    0.000    0.000 
#
# Total GULP energy -89158.793602 kJ/mol
# GULP energy per Si atom -5572.424600 kJ/mol
# Density = 2.232360 g / cm^3
# Si number density = 22.374522 Si / 1000 Ang^3
#
#
#
# Elastic Constant Matrix: (Units=GPa)
#
#
# Indices 1 2 3 4 5 6 
#
# 1 92.3423 30.7134 55.0570 4.9248 2.1961 4.5355
# 2 30.7134 115.2319 33.4911 -13.6473 -6.9101 1.2578
# 3 55.0570 33.4911 125.1568 -27.5666 1.2717 -1.4039
# 4 4.9248 -13.6473 -27.5666 37.9015 -8.8185 3.3054
# 5 2.1961 -6.9101 1.2717 -8.8185 36.8181 1.4527
# 6 4.5355 1.2578 -1.4039 3.3054 1.4527 46.2108
#
#
#
# Elastic Compliance Matrix: (Units=1/GPa)
#
#
# Indices 1 2 3 4 5 6 
#
# 1 0.018707 -0.003786 -0.009787 -0.011816 -0.004277 -0.001051
# 2 -0.003786 0.010518 -0.000074 0.005056 0.003429 -0.000386
# 3 -0.009787 -0.000074 0.015141 0.012951 0.003133 0.000398
# 4 -0.011816 0.005056 0.012951 0.041967 0.011335 -0.001943
# 5 -0.004277 0.003429 0.003133 0.011335 0.030719 -0.001355
# 6 -0.001051 -0.000386 0.000398 -0.001943 -0.001355 0.021947
#
#
# Mechanical properties :
#
#
# Convention : Reuss Voigt Hill
#
# Bulk Modulus (GPa) = 58.58170 63.47268 61.02719
# Shear Modulus (GPa) = 29.07243 38.41738 33.74490
#
# Velocity S-wave (km/s) = 3.60857 4.14818 3.88775
# Velocity P-wave (km/s) = 6.60314 7.16750 6.89110
#
# Compressibility (1/GPa) = 0.01707018
#
# Stress axis : x y z
#
# Youngs Moduli (GPa) = 53.45455 95.07907 66.04762
#
# Poissons Ratio (x) = 0.35997 0.64643
# Poissons Ratio (y) = 0.20238 0.00491
# Poissons Ratio (z) = 0.52317 0.00707
#
# Static dielectric constant tensor:
#      x y z
#    x 1.859460 0.060280 0.048130 
#    y 0.060280 1.931230 0.087160 
#    z 0.048130 0.087160 2.032000 
# 
# From -- ./inp_files/272466.got.cif
#   From: 2010.05.17/outbox.cif.g08.bks.cpg/sg2_137_cif.got.tgz:272466.got - 2010.06.03 11:33:40.
