data_PCOD9062047
_publ_section_title
;
Structure prediction by ZEFSAII (Michael W. Deem and Ramdas Pophale) SiO2 
 PCOD9062047
Probable space group: P -1
;
_chemical_formula_sum "Si O2"
_cell_formula_units_Z 16
_cell_length_a 14.039353
_cell_length_b 7.767000
_cell_length_c 15.140151
_cell_angle_alpha 81.493143
_cell_angle_beta 152.036485
_cell_angle_gamma 114.460293
_cell_volume 606.021133
_symmetry_space_group_name_H-M "P -1"
_symmetry_group_IT_number 2
_symmetry_cell_setting 'triclinic'
loop_
_space_group_symop_operation_xyz
x,y,z
-x,-y,-z
loop_
_atom_site_type_symbol
_atom_site_label
_atom_site_fract_x
_atom_site_fract_y
_atom_site_fract_z
Si Si1 0.760669 0.139809 0.651564
Si Si2 0.418426 0.389534 0.093553
Si Si3 0.696402 0.285132 0.228879
Si Si4 0.326929 0.262346 0.569816
Si Si5 0.942567 0.032564 0.051293
Si Si6 0.823418 0.198791 0.157824
Si Si7 0.833381 0.374364 0.975288
Si Si8 0.914392 0.229126 0.587165
O O1 0.740265 0.199459 0.530430
O O2 0.956829 0.368189 0.848592
O O3 0.500000 0.000000 0.500000
O O4 0.410929 0.664687 0.270139
O O5 0.627456 0.442682 0.189240
O O6 0.559040 0.582855 0.263635
O O7 0.185543 0.352677 0.851262
O O8 0.300962 0.172493 0.076873
O O9 0.838805 0.309969 0.253711
O O10 0.840404 0.285599 0.432282
O O11 0.404851 0.058377 0.996303
O O12 0.153209 0.018244 0.272566
O O13 0.101890 0.272766 0.350821
O O14 0.166655 0.009646 0.482857
O O15 0.929585 0.237026 0.026830
O O16 0.000000 0.000000 0.000000
O O17 0.730521 0.263670 0.995335
#
# Coordination Sequence:
#
# PCOD9062047 Si02
#       8
#     2   2   2   2   2   2   2   2
#     4  11  28  48  76 118 151 200 261 316 391 465
#     4  11  24  47  69 112 155 198 258 320 383 463
#     4  11  24  45  75 106 160 200 257 328 377 455
#     4  12  24  43  79 104 151 210 256 313 388 457
#     4  11  25  46  76 112 154 199 254 318 391 458
#     4  11  25  44  77 115 147 210 263 310 397 453
#     4  12  25  52  76 107 165 204 251 326 382 462
#     4  11  23  47  70 103 155 199 246 323 382 447
#
# _framework density 26.401721999999999
#
# number of rings (size 3 to 8) (size 9 to 14) (size 15 to 20)
#    0.000    0.750    6.250    0.750    5.250    4.000 
#    0.000    1.250    0.000    0.000    0.000    0.000 
#    0.000    0.000    0.000    0.000    0.000    0.000 
#
# Total GULP energy -89419.521787 kJ/mol
# GULP energy per Si atom -5588.720112 kJ/mol
# Density = 2.634163 g / cm^3
# Si number density = 26.401722 Si / 1000 Ang^3
#
#
#
# Elastic Constant Matrix: (Units=GPa)
#
#
# Indices 1 2 3 4 5 6 
#
# 1 170.6933 37.8003 34.5664 -24.1519 -4.3442 -9.4946
# 2 37.8003 71.0714 35.9206 -0.4342 -1.2339 -20.0407
# 3 34.5664 35.9206 152.9428 -3.4173 9.2083 -15.0768
# 4 -24.1519 -0.4342 -3.4173 49.1329 -4.9872 -10.5644
# 5 -4.3442 -1.2339 9.2083 -4.9872 51.9022 -10.5059
# 6 -9.4946 -20.0407 -15.0768 -10.5644 -10.5059 53.4573
#
#
#
# Elastic Compliance Matrix: (Units=1/GPa)
#
#
# Indices 1 2 3 4 5 6 
#
# 1 0.007358 -0.003212 -0.000810 0.003845 0.001230 0.000876
# 2 -0.003212 0.019191 -0.003307 -0.000136 0.001987 0.006055
# 3 -0.000810 -0.003307 0.007634 0.000072 -0.001391 0.000510
# 4 0.003845 -0.000136 0.000072 0.023959 0.003852 0.006144
# 5 0.001230 0.001987 -0.001391 0.003852 0.021145 0.005488
# 6 0.000876 0.006055 0.000510 0.006144 0.005488 0.023569
#
#
# Mechanical properties :
#
#
# Convention : Reuss Voigt Hill
#
# Bulk Modulus (GPa) = 51.21899 67.92025 59.56962
# Shear Modulus (GPa) = 40.31513 49.99315 45.15414
#
# Velocity S-wave (km/s) = 3.91191 4.35622 4.14003
# Velocity P-wave (km/s) = 6.31237 7.14729 6.74277
#
# Compressibility (1/GPa) = 0.01952401
#
# Stress axis : x y z
#
# Youngs Moduli (GPa) = 135.90656 52.10702 130.99477
#
# Poissons Ratio (x) = 0.16737 0.10616
# Poissons Ratio (y) = 0.43654 0.43322
# Poissons Ratio (z) = 0.11014 0.17232
#
# Static dielectric constant tensor:
#      x y z
#    x 2.161070 0.012650 0.033050 
#    y 0.012650 2.149890 0.055050 
#    z 0.033050 0.055050 2.099320 
# 
# From -- ./inp_files/529849.got.cif
#   From: 2010.05.17/outbox.cif.g08.bks.cpg/sg2_265_cif.got.tgz:529849.got - 2010.06.03 11:33:40.
