data_PCOD9062462
_publ_section_title
;
Structure prediction by ZEFSAII (Michael W. Deem and Ramdas Pophale) SiO2 
 PCOD9062462
Probable space group: P -1
;
_chemical_formula_sum "Si O2"
_cell_formula_units_Z 14
_cell_length_a 21.813340
_cell_length_b 6.734608
_cell_length_c 5.579358
_cell_angle_alpha 46.627256
_cell_angle_beta 110.325447
_cell_angle_gamma 107.785973
_cell_volume 555.995298
_symmetry_space_group_name_H-M "P -1"
_symmetry_group_IT_number 2
_symmetry_cell_setting 'triclinic'
loop_
_space_group_symop_operation_xyz
x,y,z
-x,-y,-z
loop_
_atom_site_type_symbol
_atom_site_label
_atom_site_fract_x
_atom_site_fract_y
_atom_site_fract_z
Si Si1 0.053887 0.764660 0.486676
Si Si2 0.218825 0.081601 0.111385
Si Si3 0.920927 0.900462 0.261806
Si Si4 0.488706 0.282507 0.370037
Si Si5 0.809617 0.384153 0.180062
Si Si6 0.301400 0.994724 0.888837
Si Si7 0.615733 0.500616 0.657324
O O1 0.111734 0.571560 0.780696
O O2 0.975610 0.683567 0.482367
O O3 0.067150 0.974102 0.559724
O O4 0.065100 0.908953 0.119271
O O5 0.156987 0.175750 0.798741
O O6 0.221972 0.329693 0.102512
O O7 0.287248 0.061892 0.090090
O O8 0.200904 0.783559 0.446957
O O9 0.548181 0.356358 0.572045
O O10 0.416238 0.315021 0.341060
O O11 0.500000 0.000000 0.500000
O O12 0.500000 0.500000 0.000000
O O13 0.771528 0.158557 0.142840
O O14 0.337435 0.280883 0.610370
O O15 0.344135 0.761608 0.037453
#
# Coordination Sequence:
#
# PCOD9062462 Si02
#       7
#     2   2   2   2   2   2   2
#     4   9  18  37  63  93 130 176 233 295 355 414
#     4  11  24  41  63  92 130 175 223 277 340 406
#     4   9  18  37  63  93 130 176 233 295 355 414
#     4  11  24  45  70  98 132 169 212 265 326 388
#     4  11  24  41  63  92 130 175 223 277 340 406
#     4  12  24  43  63  96 134 170 218 268 328 398
#     4  11  26  42  68 100 131 168 218 268 319 400
#
# _framework density 25.180071999999999
#
# number of rings (size 3 to 8) (size 9 to 14) (size 15 to 20)
#    0.000    1.429    1.429    3.429    0.000    9.714 
#    0.000    0.000    0.000    8.571    0.000    0.000 
#    0.000    0.000    0.000    0.000    0.000    0.000 
#
# Total GULP energy -78021.049663 kJ/mol
# GULP energy per Si atom -5572.932119 kJ/mol
# Density = 2.512276 g / cm^3
# Si number density = 25.180072 Si / 1000 Ang^3
#
#
#
# Elastic Constant Matrix: (Units=GPa)
#
#
# Indices 1 2 3 4 5 6 
#
# 1 111.2725 44.7298 16.2581 7.3778 15.2501 -18.8881
# 2 44.7298 102.3847 28.4141 -31.3131 1.0297 -0.8129
# 3 16.2581 28.4141 44.2583 -15.2538 0.6588 -9.9441
# 4 7.3778 -31.3131 -15.2538 35.9709 6.5351 11.6298
# 5 15.2501 1.0297 0.6588 6.5351 35.9125 2.7916
# 6 -18.8881 -0.8129 -9.9441 11.6298 2.7916 51.5050
#
#
#
# Elastic Compliance Matrix: (Units=1/GPa)
#
#
# Indices 1 2 3 4 5 6 
#
# 1 0.018027 -0.012648 -0.002383 -0.018193 -0.004740 0.010316
# 2 -0.012648 0.024120 -0.004708 0.024906 0.001077 -0.010849
# 3 -0.002383 -0.004708 0.030078 0.008377 -0.001165 0.003030
# 4 -0.018193 0.024906 0.008377 0.063432 -0.003223 -0.018810
# 5 -0.004740 0.001077 -0.001165 -0.003223 0.030659 -0.002880
# 6 0.010316 -0.010849 0.003030 -0.018810 -0.002880 0.028016
#
#
# Mechanical properties :
#
#
# Convention : Reuss Voigt Hill
#
# Bulk Modulus (GPa) = 30.53970 48.52440 39.53205
# Shear Modulus (GPa) = 20.43091 35.91192 28.17141
#
# Velocity S-wave (km/s) = 2.85158 3.78061 3.34847
# Velocity P-wave (km/s) = 4.79551 6.19436 5.53927
#
# Compressibility (1/GPa) = 0.03274426
#
# Stress axis : x y z
#
# Youngs Moduli (GPa) = 55.47355 41.45949 33.24647
#
# Poissons Ratio (x) = 0.52440 0.07924
# Poissons Ratio (y) = 0.70166 0.15654
# Poissons Ratio (z) = 0.13222 0.19521
#
# Static dielectric constant tensor:
#      x y z
#    x 1.928740 -0.053030 0.018540 
#    y -0.053030 2.124540 0.126400 
#    z 0.018540 0.126400 1.994370 
# 
# From -- ./inp_files/10471.got.cif
#   From: 2010.05.17/outbox.cif.g08.bks.cpg/sg2_6_cif.got.tgz:10471.got - 2010.06.03 11:33:40.
