data_PCOD9062576
_publ_section_title
;
Structure prediction by ZEFSAII (Michael W. Deem and Ramdas Pophale) SiO2 
 PCOD9062576
Probable space group: P -1
;
_chemical_formula_sum "Si O2"
_cell_formula_units_Z 14
_cell_length_a 5.214294
_cell_length_b 29.314645
_cell_length_c 23.703906
_cell_angle_alpha 9.376694
_cell_angle_beta 73.283846
_cell_angle_gamma 73.081789
_cell_volume 564.767729
_symmetry_space_group_name_H-M "P -1"
_symmetry_group_IT_number 2
_symmetry_cell_setting 'triclinic'
loop_
_space_group_symop_operation_xyz
x,y,z
-x,-y,-z
loop_
_atom_site_type_symbol
_atom_site_label
_atom_site_fract_x
_atom_site_fract_y
_atom_site_fract_z
Si Si1 0.385433 0.028745 0.179682
Si Si2 0.046769 0.337235 0.637490
Si Si3 0.493704 0.954505 0.970983
Si Si4 0.628843 0.893584 0.492667
Si Si5 0.982685 0.969091 0.605919
Si Si6 0.381436 0.591032 0.213378
Si Si7 0.865619 0.665980 0.646557
O O1 0.419858 0.165233 0.949797
O O2 0.650405 0.831193 0.418647
O O3 0.393633 0.261740 0.943410
O O4 0.128239 0.843535 0.421660
O O5 0.000000 0.500000 0.500000
O O6 0.140297 0.534159 0.341211
O O7 0.791309 0.163007 0.853877
O O8 0.297159 0.132878 0.887977
O O9 0.479603 0.287428 0.556920
O O10 0.311512 0.923708 0.486046
O O11 0.795896 0.872789 0.565134
O O12 0.720850 0.664150 0.719665
O O13 0.696657 0.188960 0.098435
O O14 0.000000 0.000000 0.500000
O O15 0.043999 0.634892 0.016638
#
# Coordination Sequence:
#
# PCOD9062576 Si02
#       7
#     2   2   2   2   2   2   2
#     4  11  24  41  70  97 137 181 225 289 331 402
#     4  12  26  44  63  95 137 177 227 281 341 391
#     4  12  25  42  66  93 131 180 229 282 340 386
#     4  11  26  45  71 105 137 181 230 278 339 415
#     4  12  26  47  74 106 142 177 223 280 341 417
#     4  11  25  44  69  96 133 176 231 279 333 402
#     4  11  24  44  70 104 141 179 228 275 347 399
#
# _framework density 24.788951000000001
#
# number of rings (size 3 to 8) (size 9 to 14) (size 15 to 20)
#    0.000    0.571    1.429    6.857    2.000    5.714 
#    0.000    0.000    0.000    0.000    0.000    0.000 
#    0.000    0.000    0.000    0.000    0.000    0.000 
#
# Total GULP energy -78547.235015 kJ/mol
# GULP energy per Si atom -5610.516787 kJ/mol
# Density = 2.473253 g / cm^3
# Si number density = 24.788951 Si / 1000 Ang^3
#
#
#
# Elastic Constant Matrix: (Units=GPa)
#
#
# Indices 1 2 3 4 5 6 
#
# 1 174.1119 44.3700 26.5188 -19.0840 3.0130 1.2697
# 2 44.3700 110.0732 -3.0524 0.2513 1.1724 5.9839
# 3 26.5188 -3.0524 60.9534 -1.6006 -3.0878 5.6988
# 4 -19.0840 0.2513 -1.6006 37.6627 11.9814 3.3492
# 5 3.0130 1.1724 -3.0878 11.9814 19.4177 1.6353
# 6 1.2697 5.9839 5.6988 3.3492 1.6353 47.5427
#
#
#
# Elastic Compliance Matrix: (Units=1/GPa)
#
#
# Indices 1 2 3 4 5 6 
#
# 1 0.007800 -0.003230 -0.003706 0.005350 -0.004942 0.000436
# 2 -0.003230 0.010509 0.002088 -0.001984 0.001541 -0.001400
# 3 -0.003706 0.002088 0.018541 -0.002534 0.005161 -0.002385
# 4 0.005350 -0.001984 -0.002534 0.036838 -0.023728 -0.001368
# 5 -0.004942 0.001541 0.005161 -0.023728 0.067748 -0.001339
# 6 0.000436 -0.001400 -0.002385 -0.001368 -0.001339 0.021627
#
#
# Mechanical properties :
#
#
# Convention : Reuss Voigt Hill
#
# Bulk Modulus (GPa) = 36.82600 53.42350 45.12475
# Shear Modulus (GPa) = 27.50143 39.41142 33.45642
#
# Velocity S-wave (km/s) = 3.33441 3.99165 3.67774
# Velocity P-wave (km/s) = 5.45092 6.54542 6.02308
#
# Compressibility (1/GPa) = 0.02715473
#
# Stress axis : x y z
#
# Youngs Moduli (GPa) = 128.20998 95.15637 53.93512
#
# Poissons Ratio (x) = 0.30736 0.19987
# Poissons Ratio (y) = 0.41412 -0.11264
# Poissons Ratio (z) = 0.47512 -0.19873
#
# Static dielectric constant tensor:
#      x y z
#    x 2.121880 0.135660 0.138320 
#    y 0.135660 2.132260 0.057710 
#    z 0.138320 0.057710 2.016270 
# 
# From -- ./inp_files/550938.got.cif
#   From: 2010.05.17/outbox.cif.g08.bks.cpg/sg2_276_cif.got.tgz:550938.got - 2010.06.03 11:33:40.
