data_PCOD9062979
_publ_section_title
;
Structure prediction by ZEFSAII (Michael W. Deem and Ramdas Pophale) SiO2 
 PCOD9062979
Probable space group: P -1
;
_chemical_formula_sum "Si O2"
_cell_formula_units_Z 15
_cell_length_a 12.937522
_cell_length_b 12.839532
_cell_length_c 9.826142
_cell_angle_alpha 132.231017
_cell_angle_beta 132.840701
_cell_angle_gamma 45.145614
_cell_volume 788.086298
_symmetry_space_group_name_H-M "P -1"
_symmetry_group_IT_number 2
_symmetry_cell_setting 'triclinic'
loop_
_space_group_symop_operation_xyz
x,y,z
-x,-y,-z
loop_
_atom_site_type_symbol
_atom_site_label
_atom_site_fract_x
_atom_site_fract_y
_atom_site_fract_z
Si Si1 0.195586 0.576798 0.494944
Si Si2 0.726305 0.545446 0.953366
Si Si3 0.500000 0.500000 0.500000
Si Si4 0.935250 0.935406 0.508498
Si Si5 0.922448 0.681159 0.905505
Si Si6 0.685219 0.437019 0.102532
Si Si7 0.932281 0.130112 0.939553
Si Si8 0.678234 0.876215 0.088569
O O1 0.343359 0.537539 0.491953
O O2 0.135943 0.444318 0.304824
O O3 0.244468 0.570003 0.691141
O O4 0.056982 0.752822 0.490588
O O5 0.604513 0.498653 0.727625
O O6 0.721167 0.535145 0.103481
O O7 0.681241 0.722459 0.025098
O O8 0.905754 0.423914 0.963595
O O9 0.766026 0.948473 0.326080
O O10 0.921162 0.046600 0.719429
O O11 0.000000 0.000000 0.500000
O O12 0.792399 0.806461 0.998975
O O13 0.960708 0.780140 0.912257
O O14 0.500000 0.500000 0.000000
O O15 0.764803 0.262530 0.956844
O O16 0.000000 0.000000 0.000000
O O17 0.500000 0.000000 0.000000
#
# Coordination Sequence:
#
# PCOD9062979 Si02
#       8
#     2   2   1   2   2   2   2   2
#     4  12  25  45  74 101 142 188 239 284 357 423
#     4  11  24  43  68 103 138 180 238 285 343 422
#     4  12  24  36  74 100 132 180 232 288 336 408
#     4  12  26  43  72 100 137 189 233 281 358 416
#     4  11  24  45  71 100 139 185 237 292 343 424
#     4  11  25  43  70 104 141 181 230 294 346 417
#     4  11  25  45  70 102 142 183 235 287 352 424
#     4  12  26  41  67 105 144 174 231 303 353 399
#
# _framework density 19.033449000000001
#
# number of rings (size 3 to 8) (size 9 to 14) (size 15 to 20)
#    0.000    0.533    6.667    1.200    3.733    5.333 
#    0.000    0.000    0.000    3.200    0.000    0.000 
#    0.000    0.000    0.000    0.000    0.000    0.000 
#
# Total GULP energy -83563.978064 kJ/mol
# GULP energy per Si atom -5570.931871 kJ/mol
# Density = 1.899013 g / cm^3
# Si number density = 19.033449 Si / 1000 Ang^3
#
#
#
# Elastic Constant Matrix: (Units=GPa)
#
#
# Indices 1 2 3 4 5 6 
#
# 1 126.9175 87.0288 63.9885 -6.8288 -3.0896 -16.3250
# 2 87.0288 141.1937 46.8710 -7.3005 11.4596 3.7964
# 3 63.9885 46.8710 136.5696 -11.2403 3.2391 -7.2368
# 4 -6.8288 -7.3005 -11.2403 33.2551 -4.2991 -4.2930
# 5 -3.0896 11.4596 3.2391 -4.2991 38.8050 -10.7303
# 6 -16.3250 3.7964 -7.2368 -4.2930 -10.7303 32.3333
#
#
#
# Elastic Compliance Matrix: (Units=1/GPa)
#
#
# Indices 1 2 3 4 5 6 
#
# 1 0.021336 -0.012618 -0.004847 0.003251 0.010347 0.015034
# 2 -0.012618 0.015831 -0.000063 -0.001789 -0.009048 -0.011484
# 3 -0.004847 -0.000063 0.009798 0.002129 -0.001035 -0.000308
# 4 0.003251 -0.001789 0.002129 0.033096 0.006755 0.008964
# 5 0.010347 -0.009048 -0.001035 0.006755 0.035258 0.018653
# 6 0.015034 -0.011484 -0.000308 0.008964 0.018653 0.047179
#
#
# Mechanical properties :
#
#
# Convention : Reuss Voigt Hill
#
# Bulk Modulus (GPa) = 83.96233 88.93970 86.45102
# Shear Modulus (GPa) = 24.81101 34.66485 29.73793
#
# Velocity S-wave (km/s) = 3.61438 4.27225 3.95701
# Velocity P-wave (km/s) = 7.85030 8.43598 8.14840
#
# Compressibility (1/GPa) = 0.01191010
#
# Stress axis : x y z
#
# Youngs Moduli (GPa) = 46.86937 63.16650 102.05695
#
# Poissons Ratio (x) = 0.79702 0.49472
# Poissons Ratio (y) = 0.59139 0.00638
# Poissons Ratio (z) = 0.22720 0.00395
#
# Static dielectric constant tensor:
#      x y z
#    x 1.682460 0.017560 -0.009820 
#    y 0.017560 1.660850 -0.006480 
#    z -0.009820 -0.006480 1.657530 
# 
# From -- ./inp_files/260797.got.cif
#   From: 2010.05.17/outbox.cif.g08.bks.cpg/sg2_131_cif.got.tgz:260797.got - 2010.06.03 11:33:40.
