data_PCOD9062863
_publ_section_title
;
Structure prediction by ZEFSAII (Michael W. Deem and Ramdas Pophale) SiO2 
 PCOD9062863
Probable space group: P -1
;
_chemical_formula_sum "Si O2"
_cell_formula_units_Z 16
_cell_length_a 26.176948
_cell_length_b 8.771673
_cell_length_c 8.340566
_cell_angle_alpha 101.571625
_cell_angle_beta 49.762757
_cell_angle_gamma 140.344563
_cell_volume 739.948289
_symmetry_space_group_name_H-M "P -1"
_symmetry_group_IT_number 2
_symmetry_cell_setting 'triclinic'
loop_
_space_group_symop_operation_xyz
x,y,z
-x,-y,-z
loop_
_atom_site_type_symbol
_atom_site_label
_atom_site_fract_x
_atom_site_fract_y
_atom_site_fract_z
Si Si1 0.987098 0.126481 0.941622
Si Si2 0.139215 0.240901 0.407388
Si Si3 0.995307 0.332484 0.570052
Si Si4 0.752739 0.297501 0.939404
Si Si5 0.462250 0.768855 0.432436
Si Si6 0.364071 0.726443 0.306143
Si Si7 0.229640 0.755561 0.731178
Si Si8 0.772542 0.894208 0.192058
O O1 0.036780 0.158495 0.676571
O O2 0.089249 0.450677 0.873777
O O3 0.849757 0.938061 0.170854
O O4 0.000000 0.000000 0.000000
O O5 0.206083 0.448618 0.156411
O O6 0.252377 0.448131 0.352673
O O7 0.061564 0.928634 0.467297
O O8 0.000000 0.500000 0.500000
O O9 0.148249 0.607030 0.346413
O O10 0.889241 0.145093 0.882123
O O11 0.776190 0.305323 0.081294
O O12 0.600665 0.967900 0.153380
O O13 0.391080 0.677003 0.395758
O O14 0.358071 0.454967 0.668894
O O15 0.500000 0.000000 0.500000
O O16 0.321360 0.811702 0.472342
O O17 0.500000 0.000000 0.000000
O O18 0.268225 0.009601 0.671400
#
# Coordination Sequence:
#
# PCOD9062863 Si02
#       8
#     2   2   2   2   2   2   2   2
#     4  11  24  43  73 101 140 185 244 294 350 429
#     4  11  24  42  75 102 134 191 247 294 348 426
#     4  12  26  44  71 109 146 184 237 302 361 419
#     4  12  23  45  70 105 142 183 246 289 351 432
#     4  12  26  45  73 104 142 192 244 289 354 436
#     4  11  24  48  73 101 142 190 242 293 356 436
#     4  11  25  44  71 106 142 180 241 305 366 415
#     4  12  26  46  71 107 145 190 233 299 370 420
#
# _framework density 21.623134
#
# number of rings (size 3 to 8) (size 9 to 14) (size 15 to 20)
#    0.000    0.500    5.000    3.750    3.500    0.500 
#    4.500    0.625    0.000    0.000    0.000    0.000 
#    0.000    0.000    0.000    0.000    0.000    0.000 
#
# Total GULP energy -89348.387627 kJ/mol
# GULP energy per Si atom -5584.274227 kJ/mol
# Density = 2.157392 g / cm^3
# Si number density = 21.623134 Si / 1000 Ang^3
#
#
#
# Elastic Constant Matrix: (Units=GPa)
#
#
# Indices 1 2 3 4 5 6 
#
# 1 102.6593 41.3426 46.5843 -12.8165 -6.2362 3.4198
# 2 41.3426 83.9922 25.9173 -23.9086 -5.5457 0.8706
# 3 46.5843 25.9173 137.8079 -27.3794 -19.5185 -2.1749
# 4 -12.8165 -23.9086 -27.3794 33.3530 4.0841 1.1170
# 5 -6.2362 -5.5457 -19.5185 4.0841 40.3119 -6.8807
# 6 3.4198 0.8706 -2.1749 1.1170 -6.8807 30.5266
#
#
#
# Elastic Compliance Matrix: (Units=1/GPa)
#
#
# Indices 1 2 3 4 5 6 
#
# 1 0.013840 -0.006256 -0.004113 -0.002390 -0.000768 -0.001751
# 2 -0.006256 0.017897 0.001107 0.011221 0.000904 0.000063
# 3 -0.004113 0.001107 0.010503 0.007261 0.004182 0.001855
# 4 -0.002390 0.011221 0.007261 0.043087 0.000140 -0.001080
# 5 -0.000768 0.000904 0.004182 0.000140 0.027959 0.006655
# 6 -0.001751 0.000063 0.001855 -0.001080 0.006655 0.034624
#
#
# Mechanical properties :
#
#
# Convention : Reuss Voigt Hill
#
# Bulk Modulus (GPa) = 42.16540 61.34975 51.75758
# Shear Modulus (GPa) = 28.67975 34.87932 31.77953
#
# Velocity S-wave (km/s) = 3.64585 4.02064 3.83783
# Velocity P-wave (km/s) = 6.10454 7.07022 6.60505
#
# Compressibility (1/GPa) = 0.02371613
#
# Stress axis : x y z
#
# Youngs Moduli (GPa) = 72.25363 55.87609 95.21272
#
# Poissons Ratio (x) = 0.34957 0.39162
# Poissons Ratio (y) = 0.45203 -0.10545
# Poissons Ratio (z) = 0.29719 -0.06188
#
# Static dielectric constant tensor:
#      x y z
#    x 1.890140 -0.007880 0.034070 
#    y -0.007880 1.779100 0.023860 
#    z 0.034070 0.023860 1.833220 
# 
# From -- ./inp_files/356459.got.cif
#   From: 2010.05.17/outbox.cif.g08.bks.cpg/sg2_179_cif.got.tgz:356459.got - 2010.06.03 11:33:40.
