data_PCOD9062303
_publ_section_title
;
Structure prediction by ZEFSAII (Michael W. Deem and Ramdas Pophale) SiO2 
 PCOD9062303
Probable space group: P -1
;
_chemical_formula_sum "Si O2"
_cell_formula_units_Z 10
_cell_length_a 9.353438
_cell_length_b 6.998018
_cell_length_c 6.557272
_cell_angle_alpha 78.405977
_cell_angle_beta 119.396286
_cell_angle_gamma 105.811988
_cell_volume 358.638346
_symmetry_space_group_name_H-M "P -1"
_symmetry_group_IT_number 2
_symmetry_cell_setting 'triclinic'
loop_
_space_group_symop_operation_xyz
x,y,z
-x,-y,-z
loop_
_atom_site_type_symbol
_atom_site_label
_atom_site_fract_x
_atom_site_fract_y
_atom_site_fract_z
Si Si1 0.489140 0.268107 0.549955
Si Si2 0.834260 0.020005 0.503517
Si Si3 0.361563 0.309672 0.031845
Si Si4 0.816268 0.114079 0.940160
Si Si5 0.883443 0.405084 0.248907
O O1 0.500000 0.500000 0.500000
O O2 0.454916 0.220942 0.300530
O O3 0.653424 0.211528 0.765950
O O4 0.319908 0.166425 0.566360
O O5 0.874413 0.064867 0.764266
O O6 0.775156 0.212750 0.328942
O O7 0.000000 0.000000 0.500000
O O8 0.253142 0.090369 0.940187
O O9 0.500000 0.500000 0.000000
O O10 0.213739 0.431088 0.934024
O O11 0.939865 0.287612 0.118095
O O12 0.000000 0.500000 0.500000
#
# Coordination Sequence:
#
# PCOD9062303 Si02
#       5
#     2   2   2   2   2
#     4  11  23  49  86 122 161 214 284 346 418 502
#     4  11  28  51  79 122 173 216 274 344 429 510
#     4  11  24  46  84 120 158 216 280 343 419 502
#     4  11  26  52  83 119 169 216 282 355 404 502
#     4  12  29  50  77 120 167 224 279 338 428 496
#
# _framework density 27.883243
#
# number of rings (size 3 to 8) (size 9 to 14) (size 15 to 20)
#    0.000    0.800    2.000    4.800    5.600    4.800 
#    3.600    0.000    0.000    0.000    0.000    0.000 
#    0.000    0.000    0.000    0.000    0.000    0.000 
#
# Total GULP energy -55838.279949 kJ/mol
# GULP energy per Si atom -5583.827995 kJ/mol
# Density = 2.781978 g / cm^3
# Si number density = 27.883243 Si / 1000 Ang^3
#
#
#
# Elastic Constant Matrix: (Units=GPa)
#
#
# Indices 1 2 3 4 5 6 
#
# 1 198.8284 77.6319 56.5861 0.9189 -17.8279 9.5151
# 2 77.6319 234.1198 36.0827 -21.5809 0.3487 -0.6707
# 3 56.5861 36.0827 138.2944 -18.0519 -7.1875 -0.7568
# 4 0.9189 -21.5809 -18.0519 70.3677 0.7307 -10.4999
# 5 -17.8279 0.3487 -7.1875 0.7307 46.4068 -8.8312
# 6 9.5151 -0.6707 -0.7568 -10.4999 -8.8312 54.8312
#
#
#
# Elastic Compliance Matrix: (Units=1/GPa)
#
#
# Indices 1 2 3 4 5 6 
#
# 1 0.006724 -0.002016 -0.002321 -0.001499 0.002037 -0.001182
# 2 -0.002016 0.005144 -0.000344 0.001612 -0.000779 0.000591
# 3 -0.002321 -0.000344 0.008606 0.002283 0.000608 0.001053
# 4 -0.001499 0.001612 0.002283 0.015811 0.000157 0.003364
# 5 0.002037 -0.000779 0.000608 0.000157 0.023074 0.003392
# 6 -0.001182 0.000591 0.001053 0.003364 0.003392 0.019655
#
#
# Mechanical properties :
#
#
# Convention : Reuss Voigt Hill
#
# Bulk Modulus (GPa) = 90.00476 101.31597 95.66037
# Shear Modulus (GPa) = 54.29976 61.05060 57.67518
#
# Velocity S-wave (km/s) = 4.41772 4.68429 4.55296
# Velocity P-wave (km/s) = 7.64009 8.10380 7.87535
#
# Compressibility (1/GPa) = 0.01111052
#
# Stress axis : x y z
#
# Youngs Moduli (GPa) = 148.73105 194.38636 116.19894
#
# Poissons Ratio (x) = 0.39195 0.26973
# Poissons Ratio (y) = 0.29989 0.03998
# Poissons Ratio (z) = 0.34525 0.06688
#
# Static dielectric constant tensor:
#      x y z
#    x 2.216810 -0.109110 -0.136370 
#    y -0.109110 2.514890 0.327800 
#    z -0.136370 0.327800 2.373400 
# 
# From -- ./inp_files/144257.got.cif
#   From: 2010.05.17/outbox.cif.g08.bks.cpg/sg2_73_cif.got.tgz:144257.got - 2010.06.03 11:33:40.
