data_PCOD9062905
_publ_section_title
;
Structure prediction by ZEFSAII (Michael W. Deem and Ramdas Pophale) SiO2 
 PCOD9062905
Probable space group: P -1
;
_chemical_formula_sum "Si O2"
_cell_formula_units_Z 16
_cell_length_a 9.460341
_cell_length_b 13.665264
_cell_length_c 8.976887
_cell_angle_alpha 92.926959
_cell_angle_beta 121.616330
_cell_angle_gamma 124.871134
_cell_volume 701.213730
_symmetry_space_group_name_H-M "P -1"
_symmetry_group_IT_number 2
_symmetry_cell_setting 'triclinic'
loop_
_space_group_symop_operation_xyz
x,y,z
-x,-y,-z
loop_
_atom_site_type_symbol
_atom_site_label
_atom_site_fract_x
_atom_site_fract_y
_atom_site_fract_z
Si Si1 0.755831 0.845492 0.032207
Si Si2 0.408387 0.442158 0.115732
Si Si3 0.244818 0.132007 0.304619
Si Si4 0.631877 0.149507 0.520367
Si Si5 0.466413 0.193486 0.801267
Si Si6 0.039721 0.631397 0.053917
Si Si7 0.762388 0.709553 0.488820
Si Si8 0.693397 0.077725 0.245689
O O1 0.713744 0.713640 0.975449
O O2 0.751202 0.889098 0.869232
O O3 0.561127 0.797311 0.036829
O O4 0.013111 0.987926 0.237125
O O5 0.634491 0.559085 0.351314
O O6 0.500000 0.500000 0.000000
O O7 0.218955 0.431469 0.096395
O O8 0.475379 0.174956 0.489373
O O9 0.267438 0.255818 0.361608
O O10 0.874908 0.279061 0.739850
O O11 0.649217 0.139156 0.353894
O O12 0.500000 0.000000 0.500000
O O13 0.730048 0.265493 0.916010
O O14 0.347250 0.243043 0.666548
O O15 0.318647 0.033228 0.689103
O O16 0.000000 0.500000 0.000000
O O17 0.038076 0.804688 0.643603
O O18 0.500000 0.000000 0.000000
#
# Coordination Sequence:
#
# PCOD9062905 Si02
#       8
#     2   2   2   2   2   2   2   2
#     4  11  25  42  69  99 143 187 231 287 358 418
#     4  12  24  44  73 105 139 185 237 290 347 423
#     4  11  24  43  66 102 141 186 229 288 356 418
#     4  12  23  40  67 103 130 180 237 287 338 418
#     4  12  23  44  71 101 137 188 233 292 348 416
#     4  12  23  42  70 106 140 174 231 296 350 407
#     4  12  24  45  73 101 135 186 241 283 352 426
#     4  12  27  43  67 105 144 179 234 299 354 410
#
# _framework density 22.81758
#
# number of rings (size 3 to 8) (size 9 to 14) (size 15 to 20)
#    0.000    0.250    6.250    2.625    3.500    0.500 
#    0.000    1.250    0.000    6.000    0.000    0.000 
#    0.000    0.000    0.000    0.000    0.000    0.000 
#
# Total GULP energy -89105.969657 kJ/mol
# GULP energy per Si atom -5569.123104 kJ/mol
# Density = 2.276565 g / cm^3
# Si number density = 22.817580 Si / 1000 Ang^3
#
#
#
# Elastic Constant Matrix: (Units=GPa)
#
#
# Indices 1 2 3 4 5 6 
#
# 1 151.6672 10.3577 21.8221 -2.5489 -13.2642 19.6643
# 2 10.3577 36.9470 16.0312 7.4681 3.2711 -0.8802
# 3 21.8221 16.0312 98.3254 16.0879 -6.5657 18.6828
# 4 -2.5489 7.4681 16.0879 33.4646 -1.8111 -13.1988
# 5 -13.2642 3.2711 -6.5657 -1.8111 46.5898 8.8063
# 6 19.6643 -0.8802 18.6828 -13.1988 8.8063 40.4075
#
#
#
# Elastic Compliance Matrix: (Units=1/GPa)
#
#
# Indices 1 2 3 4 5 6 
#
# 1 0.007633 -0.002367 -0.000173 -0.000415 0.003151 -0.004508
# 2 -0.002367 0.031094 -0.005071 -0.003320 -0.004469 0.004064
# 3 -0.000173 -0.005071 0.015183 -0.010438 0.004190 -0.011369
# 4 -0.000415 -0.003320 -0.010438 0.043245 -0.003422 0.019827
# 5 0.003151 -0.004469 0.004190 -0.003422 0.025050 -0.010145
# 6 -0.004508 0.004064 -0.011369 0.019827 -0.010145 0.040974
#
#
# Mechanical properties :
#
#
# Convention : Reuss Voigt Hill
#
# Bulk Modulus (GPa) = 25.84901 42.59575 34.22238
# Shear Modulus (GPa) = 26.13726 40.00762 33.07244
#
# Velocity S-wave (km/s) = 3.38818 4.19187 3.81127
# Velocity P-wave (km/s) = 5.16328 6.49134 5.86502
#
# Compressibility (1/GPa) = 0.03868621
#
# Stress axis : x y z
#
# Youngs Moduli (GPa) = 131.00849 32.16106 65.86111
#
# Poissons Ratio (x) = 0.07613 0.01141
# Poissons Ratio (y) = 0.31013 0.33401
# Poissons Ratio (z) = 0.02270 0.16310
#
# Static dielectric constant tensor:
#      x y z
#    x 1.904200 0.047090 0.023530 
#    y 0.047090 1.930830 -0.045830 
#    z 0.023530 -0.045830 1.960930 
# 
# From -- ./inp_files/207948.got.cif
#   From: 2010.05.17/outbox.cif.g08.bks.cpg/sg2_104_cif.got.tgz:207948.got - 2010.06.03 11:33:40.
