data_PCOD9062520
_publ_section_title
;
Structure prediction by ZEFSAII (Michael W. Deem and Ramdas Pophale) SiO2 
 PCOD9062520
Probable space group: P -1
;
_chemical_formula_sum "Si O2"
_cell_formula_units_Z 14
_cell_length_a 9.666795
_cell_length_b 22.555623
_cell_length_c 22.582736
_cell_angle_alpha 17.863928
_cell_angle_beta 25.987715
_cell_angle_gamma 26.303297
_cell_volume 630.450601
_symmetry_space_group_name_H-M "P -1"
_symmetry_group_IT_number 2
_symmetry_cell_setting 'triclinic'
loop_
_space_group_symop_operation_xyz
x,y,z
-x,-y,-z
loop_
_atom_site_type_symbol
_atom_site_label
_atom_site_fract_x
_atom_site_fract_y
_atom_site_fract_z
Si Si1 0.877144 0.038642 0.654559
Si Si2 0.376054 0.508809 0.701928
Si Si3 0.659350 0.147428 0.018033
Si Si4 0.799424 0.439807 0.489193
Si Si5 0.756981 0.384649 0.060300
Si Si6 0.311395 0.680834 0.031340
Si Si7 0.838266 0.028330 0.817670
O O1 0.786286 0.082948 0.716727
O O2 0.211316 0.846861 0.713955
O O3 0.839406 0.255592 0.433262
O O4 0.620381 0.950095 0.802889
O O5 0.564045 0.375914 0.810724
O O6 0.646672 0.491453 0.563637
O O7 0.114830 0.392708 0.893417
O O8 0.665793 0.179585 0.054898
O O9 0.000000 0.000000 0.000000
O O10 0.500000 0.500000 0.500000
O O11 0.065019 0.553259 0.265245
O O12 0.932691 0.200686 0.654295
O O13 0.650434 0.523154 0.028169
O O14 0.500000 0.500000 0.000000
O O15 0.133378 0.824955 0.909055
O O16 0.500000 0.000000 0.000000
#
# Coordination Sequence:
#
# PCOD9062520 Si02
#       7
#     2   2   2   2   2   2   2
#     4  11  24  41  67  95 133 179 221 271 334 393
#     4  11  24  43  67  98 136 179 219 279 332 395
#     4  11  25  45  67  98 140 176 220 274 338 401
#     4  12  22  37  67  99 128 165 227 277 331 384
#     4  11  24  44  67  97 139 175 221 277 334 393
#     4  12  26  43  67 100 133 177 222 276 332 397
#     4  12  21  38  66  97 128 168 221 278 330 381
#
# _framework density 22.206339
#
# number of rings (size 3 to 8) (size 9 to 14) (size 15 to 20)
#    0.000    0.571    4.286    5.143    0.000    7.429 
#    0.000    1.429    0.000    0.000    0.000    0.000 
#    0.000    0.000    0.000    0.000    0.000    0.000 
#
# Total GULP energy -78245.668597 kJ/mol
# GULP energy per Si atom -5588.976328 kJ/mol
# Density = 2.215580 g / cm^3
# Si number density = 22.206339 Si / 1000 Ang^3
#
#
#
# Elastic Constant Matrix: (Units=GPa)
#
#
# Indices 1 2 3 4 5 6 
#
# 1 95.1115 11.1368 17.1071 -14.4781 4.9894 0.2739
# 2 11.1368 84.5182 13.2280 -34.8186 10.8998 3.2119
# 3 17.1071 13.2280 90.2149 -30.8777 8.7953 -10.9144
# 4 -14.4781 -34.8186 -30.8777 45.1626 -2.8028 2.6193
# 5 4.9894 10.8998 8.7953 -2.8028 28.7563 -8.7989
# 6 0.2739 3.2119 -10.9144 2.6193 -8.7989 31.9892
#
#
#
# Elastic Compliance Matrix: (Units=1/GPa)
#
#
# Indices 1 2 3 4 5 6 
#
# 1 0.011238 0.000175 -0.001132 0.002925 -0.001759 -0.001223
# 2 0.000175 0.019567 0.003191 0.017080 -0.008140 -0.004515
# 3 -0.001132 0.003191 0.015849 0.012527 -0.003706 0.003052
# 4 0.002925 0.017080 0.012527 0.044534 -0.007439 -0.003158
# 5 -0.001759 -0.008140 -0.003706 -0.007439 0.042178 0.011778
# 6 -0.001223 -0.004515 0.003052 -0.003158 0.011778 0.036264
#
#
# Mechanical properties :
#
#
# Convention : Reuss Voigt Hill
#
# Bulk Modulus (GPa) = 19.56093 39.19871 29.37982
# Shear Modulus (GPa) = 27.44191 36.40646 31.92419
#
# Velocity S-wave (km/s) = 3.51916 4.05342 3.79570
# Velocity P-wave (km/s) = 5.03394 6.29264 5.69815
#
# Compressibility (1/GPa) = 0.05112232
#
# Stress axis : x y z
#
# Youngs Moduli (GPa) = 88.98216 51.10681 63.09396
#
# Poissons Ratio (x) = -0.00894 0.07142
# Poissons Ratio (y) = -0.01556 -0.20133
# Poissons Ratio (z) = 0.10072 -0.16308
#
# Static dielectric constant tensor:
#      x y z
#    x 1.790200 -0.009200 0.016580 
#    y -0.009200 1.894170 -0.093600 
#    z 0.016580 -0.093600 1.865380 
# 
# From -- ./inp_files/473773.got.cif
#   From: 2010.05.17/outbox.cif.g08.bks.cpg/sg2_237_cif.got.tgz:473773.got - 2010.06.03 11:33:40.
