data_PCOD9062343
_publ_section_title
;
Structure prediction by ZEFSAII (Michael W. Deem and Ramdas Pophale) SiO2 
 PCOD9062343
Probable space group: P -1
;
_chemical_formula_sum "Si O2"
_cell_formula_units_Z 16
_cell_length_a 9.764314
_cell_length_b 12.171266
_cell_length_c 16.115932
_cell_angle_alpha 133.273895
_cell_angle_beta 135.443606
_cell_angle_gamma 36.267890
_cell_volume 765.986373
_symmetry_space_group_name_H-M "P -1"
_symmetry_group_IT_number 2
_symmetry_cell_setting 'triclinic'
loop_
_space_group_symop_operation_xyz
x,y,z
-x,-y,-z
loop_
_atom_site_type_symbol
_atom_site_label
_atom_site_fract_x
_atom_site_fract_y
_atom_site_fract_z
Si Si1 0.962848 0.922517 0.831069
Si Si2 0.171179 0.536071 0.142905
Si Si3 0.741119 0.739216 0.728185
Si Si4 0.862535 0.677542 0.248203
Si Si5 0.245362 0.949115 0.536457
Si Si6 0.481101 0.879634 0.860381
Si Si7 0.090552 0.900939 0.273303
Si Si8 0.608965 0.293470 0.977125
O O1 0.827499 0.837216 0.760581
O O2 0.926423 0.978295 0.748614
O O3 0.825678 0.127147 0.924216
O O4 0.247865 0.769985 0.906280
O O5 0.414875 0.325724 0.163335
O O6 0.200181 0.682139 0.185645
O O7 0.035190 0.638414 0.224506
O O8 0.000000 0.500000 0.000000
O O9 0.648339 0.836786 0.829943
O O10 0.971893 0.517079 0.727433
O O11 0.501382 0.776790 0.602099
O O12 0.777666 0.860958 0.359709
O O13 0.620354 0.711430 0.124802
O O14 0.236734 0.902875 0.413787
O O15 0.000000 0.000000 0.500000
O O16 0.196240 0.994439 0.771610
O O17 0.500000 0.000000 0.000000
O O18 0.500000 0.500000 0.000000
#
# Coordination Sequence:
#
# PCOD9062343 Si02
#       8
#     2   2   2   2   2   2   2   2
#     4  11  27  41  69 103 140 176 223 281 353 413
#     4  11  24  38  66 101 135 172 222 284 343 401
#     4  11  24  47  69  99 132 185 231 277 340 409
#     4  11  24  44  73 100 131 181 232 281 336 407
#     4  12  24  47  71  93 138 189 236 275 332 403
#     4  11  24  39  69  97 135 172 229 285 344 403
#     4  12  27  44  64 103 138 181 225 287 339 400
#     4  11  24  43  71 101 139 178 221 278 351 416
#
# _framework density 20.888099
#
# number of rings (size 3 to 8) (size 9 to 14) (size 15 to 20)
#    0.000    0.750    6.250    0.000    7.000    2.000 
#    0.000    0.625    0.000    0.000    0.000    0.000 
#    0.000    0.000    0.000    0.000    0.000    0.000 
#
# Total GULP energy -89504.731752 kJ/mol
# GULP energy per Si atom -5594.045734 kJ/mol
# Density = 2.084056 g / cm^3
# Si number density = 20.888099 Si / 1000 Ang^3
#
#
#
# Elastic Constant Matrix: (Units=GPa)
#
#
# Indices 1 2 3 4 5 6 
#
# 1 81.6650 28.4492 18.9789 -8.4041 2.9976 22.3267
# 2 28.4492 144.7320 20.2476 -24.4861 6.5237 12.7832
# 3 18.9789 20.2476 83.9699 -31.3318 -2.6124 1.3332
# 4 -8.4041 -24.4861 -31.3318 32.4587 -0.4414 0.5556
# 5 2.9976 6.5237 -2.6124 -0.4414 31.3938 -5.8582
# 6 22.3267 12.7832 1.3332 0.5556 -5.8582 35.3434
#
#
#
# Elastic Compliance Matrix: (Units=1/GPa)
#
#
# Indices 1 2 3 4 5 6 
#
# 1 0.016538 -0.001745 -0.003291 -0.000082 -0.003405 -0.010255
# 2 -0.001745 0.008601 0.000873 0.006895 -0.001911 -0.002467
# 3 -0.003291 0.000873 0.019421 0.018564 0.002216 0.001106
# 4 -0.000082 0.006895 0.018564 0.053978 0.000138 -0.003968
# 5 -0.003405 -0.001911 0.002216 0.000138 0.034339 0.008448
# 6 -0.010255 -0.002467 0.001106 -0.003968 0.008448 0.037085
#
#
# Mechanical properties :
#
#
# Convention : Reuss Voigt Hill
#
# Bulk Modulus (GPa) = 27.59835 49.52426 38.56131
# Shear Modulus (GPa) = 26.26537 36.01860 31.14199
#
# Velocity S-wave (km/s) = 3.54988 4.15705 3.86540
# Velocity P-wave (km/s) = 5.48118 6.84121 6.19861
#
# Compressibility (1/GPa) = 0.03623404
#
# Stress axis : x y z
#
# Youngs Moduli (GPa) = 60.46654 116.26855 51.49196
#
# Poissons Ratio (x) = 0.20289 0.16945
# Poissons Ratio (y) = 0.10551 -0.04496
# Poissons Ratio (z) = 0.19898 -0.10152
#
# Static dielectric constant tensor:
#      x y z
#    x 1.790560 -0.006000 -0.006140 
#    y -0.006000 1.774950 0.001350 
#    z -0.006140 0.001350 1.748010 
# 
# From -- ./inp_files/500890.got.cif
#   From: 2010.05.17/outbox.cif.g08.bks.cpg/sg2_251_cif.got.tgz:500890.got - 2010.06.03 11:33:40.
