data_PCOD9062197
_publ_section_title
;
Structure prediction by ZEFSAII (Michael W. Deem and Ramdas Pophale) SiO2 
 PCOD9062197
Probable space group: P -1
;
_chemical_formula_sum "Si O2"
_cell_formula_units_Z 12
_cell_length_a 12.920780
_cell_length_b 8.249631
_cell_length_c 12.565274
_cell_angle_alpha 48.168377
_cell_angle_beta 145.848707
_cell_angle_gamma 108.857048
_cell_volume 469.059925
_symmetry_space_group_name_H-M "P -1"
_symmetry_group_IT_number 2
_symmetry_cell_setting 'triclinic'
loop_
_space_group_symop_operation_xyz
x,y,z
-x,-y,-z
loop_
_atom_site_type_symbol
_atom_site_label
_atom_site_fract_x
_atom_site_fract_y
_atom_site_fract_z
Si Si1 0.536570 0.630621 0.631680
Si Si2 0.861682 0.657136 0.210497
Si Si3 0.245591 0.084404 0.353033
Si Si4 0.138920 0.587821 0.283282
Si Si5 0.612804 0.012532 0.266618
Si Si6 0.222720 0.724906 0.828472
O O1 0.649748 0.744975 0.610602
O O2 0.345410 0.609902 0.429888
O O3 0.410210 0.841643 0.526157
O O4 0.723914 0.371802 0.963018
O O5 0.791688 0.486371 0.159385
O O6 0.000000 0.500000 0.500000
O O7 0.999667 0.714651 0.218710
O O8 0.631513 0.904234 0.946011
O O9 0.969818 0.731008 0.980064
O O10 0.253555 0.975907 0.523298
O O11 0.238754 0.282578 0.516922
O O12 0.591568 0.225012 0.073509
O O13 0.000000 0.000000 0.500000
#
# Coordination Sequence:
#
# PCOD9062197 Si02
#       6
#     2   2   2   2   2   2
#     4  11  24  45  75  99 147 185 235 294 347 413
#     4  12  26  44  70 107 143 182 239 286 353 420
#     4  11  23  48  70 104 142 189 235 285 352 421
#     4  12  26  47  73 108 139 188 237 290 348 423
#     4  12  26  45  74 103 145 185 233 292 355 415
#     4  12  24  47  72 104 144 187 230 299 352 411
#
# _framework density 25.583086999999999
#
# number of rings (size 3 to 8) (size 9 to 14) (size 15 to 20)
#    0.000    0.333    5.000    3.500    4.667    2.000 
#    0.000    0.000    0.000    0.000    0.000    0.000 
#    0.000    0.000    0.000    0.000    0.000    0.000 
#
# Total GULP energy -67270.756765 kJ/mol
# GULP energy per Si atom -5605.896397 kJ/mol
# Density = 2.552486 g / cm^3
# Si number density = 25.583087 Si / 1000 Ang^3
#
#
#
# Elastic Constant Matrix: (Units=GPa)
#
#
# Indices 1 2 3 4 5 6 
#
# 1 54.7913 -17.0203 19.1389 3.8930 0.7981 -3.3295
# 2 -17.0203 45.0379 8.4204 10.4747 1.6249 12.9632
# 3 19.1389 8.4204 174.9178 13.7182 -5.5573 1.4361
# 4 3.8930 10.4747 13.7182 45.1905 -8.1026 2.5084
# 5 0.7981 1.6249 -5.5573 -8.1026 46.0332 -6.1016
# 6 -3.3295 12.9632 1.4361 2.5084 -6.1016 24.6296
#
#
#
# Elastic Compliance Matrix: (Units=1/GPa)
#
#
# Indices 1 2 3 4 5 6 
#
# 1 0.022723 0.010827 -0.002750 -0.003871 -0.002134 -0.002601
# 2 0.010827 0.033529 -0.002198 -0.008060 -0.005247 -0.016534
# 3 -0.002750 -0.002198 0.006225 -0.001042 0.000789 0.000724
# 4 -0.003871 -0.008060 -0.001042 0.025412 0.005022 0.002436
# 5 -0.002134 -0.005247 0.000789 0.005022 0.023966 0.007853
# 6 -0.002601 -0.016534 0.000724 0.002436 0.007853 0.050608
#
#
# Mechanical properties :
#
#
# Convention : Reuss Voigt Hill
#
# Bulk Modulus (GPa) = 13.47056 32.86945 23.17000
# Shear Modulus (GPa) = 28.49841 40.78452 34.64147
#
# Velocity S-wave (km/s) = 3.34122 3.99707 3.68377
# Velocity P-wave (km/s) = 4.49019 5.84621 5.21248
#
# Compressibility (1/GPa) = 0.07423597
#
# Stress axis : x y z
#
# Youngs Moduli (GPa) = 44.00775 29.82475 160.65435
#
# Poissons Ratio (x) = -0.32293 0.44187
# Poissons Ratio (y) = -0.47649 0.35305
# Poissons Ratio (z) = 0.12104 0.06554
#
# Static dielectric constant tensor:
#      x y z
#    x 2.029810 0.023630 0.050540 
#    y 0.023630 2.018630 0.000500 
#    z 0.050540 0.000500 1.953850 
# 
# From -- ./inp_files/529425.got.cif
#   From: 2010.05.17/outbox.cif.g08.bks.cpg/sg2_265_cif.got.tgz:529425.got - 2010.06.03 11:33:40.
