data_PCOD9062010
_publ_section_title
;
Structure prediction by ZEFSAII (Michael W. Deem and Ramdas Pophale) SiO2 
 PCOD9062010
Probable space group: P -1
;
_chemical_formula_sum "Si O2"
_cell_formula_units_Z 12
_cell_length_a 8.059314
_cell_length_b 10.540053
_cell_length_c 10.873944
_cell_angle_alpha 135.924010
_cell_angle_beta 63.407425
_cell_angle_gamma 135.769744
_cell_volume 443.883666
_symmetry_space_group_name_H-M "P -1"
_symmetry_group_IT_number 2
_symmetry_cell_setting 'triclinic'
loop_
_space_group_symop_operation_xyz
x,y,z
-x,-y,-z
loop_
_atom_site_type_symbol
_atom_site_label
_atom_site_fract_x
_atom_site_fract_y
_atom_site_fract_z
Si Si1 0.967273 0.350471 0.701702
Si Si2 0.759877 0.472550 0.636821
Si Si3 0.527372 0.220815 0.099094
Si Si4 0.877953 0.846760 0.679790
Si Si5 0.446943 0.009695 0.731500
Si Si6 0.647277 0.713006 0.194309
O O1 0.193824 0.557754 0.848672
O O2 0.071561 0.241869 0.518036
O O3 0.882783 0.453010 0.701115
O O4 0.732039 0.154421 0.721521
O O5 0.910641 0.726018 0.699649
O O6 0.502837 0.399074 0.709833
O O7 0.691057 0.267610 0.422577
O O8 0.384925 0.244602 0.266291
O O9 0.408968 0.124732 0.937106
O O10 0.500000 0.000000 0.000000
O O11 0.069171 0.131351 0.806558
O O12 0.379328 0.088311 0.689956
O O13 0.500000 0.500000 0.000000
#
# Coordination Sequence:
#
# PCOD9062010 Si02
#       6
#     2   2   2   2   2   2
#     4  11  23  48  71 103 142 187 229 287 349 420
#     4  11  23  46  79 104 137 180 241 289 344 411
#     4  12  29  44  66 104 148 185 231 285 356 415
#     4  12  25  46  75 103 139 187 235 287 346 418
#     4  11  23  47  72 105 140 184 232 291 348 412
#     4  11  24  42  72 110 138 177 239 292 340 409
#
# _framework density 27.034109000000001
#
# number of rings (size 3 to 8) (size 9 to 14) (size 15 to 20)
#    0.000    0.667    3.333    4.500    7.000    1.333 
#    3.000    1.667    0.000    0.000    0.000    0.000 
#    0.000    0.000    0.000    0.000    0.000    0.000 
#
# Total GULP energy -67213.365554 kJ/mol
# GULP energy per Si atom -5601.113796 kJ/mol
# Density = 2.697258 g / cm^3
# Si number density = 27.034109 Si / 1000 Ang^3
#
#
#
# Elastic Constant Matrix: (Units=GPa)
#
#
# Indices 1 2 3 4 5 6 
#
# 1 63.3490 3.6442 10.7336 4.9765 -3.5652 16.1594
# 2 3.6442 135.0946 9.7687 7.3368 -4.2136 19.5105
# 3 10.7336 9.7687 101.8948 7.1464 2.4262 5.7598
# 4 4.9765 7.3368 7.1464 45.3249 15.0725 -3.6543
# 5 -3.5652 -4.2136 2.4262 15.0725 39.9708 0.7938
# 6 16.1594 19.5105 5.7598 -3.6543 0.7938 40.9894
#
#
#
# Elastic Compliance Matrix: (Units=1/GPa)
#
#
# Indices 1 2 3 4 5 6 
#
# 1 0.018494 0.001071 -0.001416 -0.003766 0.003427 -0.008004
# 2 0.001071 0.008258 -0.000528 -0.002399 0.001993 -0.004531
# 3 -0.001416 -0.000528 0.010155 -0.001325 -0.000284 -0.000730
# 4 -0.003766 -0.002399 -0.001325 0.027118 -0.010842 0.005440
# 5 0.003427 0.001993 -0.000284 -0.010842 0.029715 -0.003802
# 6 -0.008004 -0.004531 -0.000730 0.005440 -0.003802 0.030370
#
#
# Mechanical properties :
#
#
# Convention : Reuss Voigt Hill
#
# Bulk Modulus (GPa) = 28.43970 38.73680 33.58825
# Shear Modulus (GPa) = 36.34342 43.66982 40.00662
#
# Velocity S-wave (km/s) = 3.67052 4.02351 3.85106
# Velocity P-wave (km/s) = 5.33914 5.99540 5.67676
#
# Compressibility (1/GPa) = 0.03516211
#
# Stress axis : x y z
#
# Youngs Moduli (GPa) = 54.07077 121.08931 98.47644
#
# Poissons Ratio (x) = -0.12967 0.13943
# Poissons Ratio (y) = -0.05790 0.05195
# Poissons Ratio (z) = 0.07656 0.06388
#
# Static dielectric constant tensor:
#      x y z
#    x 2.309590 -0.088050 0.077460 
#    y -0.088050 2.291110 -0.152960 
#    z 0.077460 -0.152960 2.152620 
# 
# From -- ./inp_files/173640.got.cif
#   From: 2010.05.17/outbox.cif.g08.bks.cpg/sg2_87_cif.got.tgz:173640.got - 2010.06.03 11:33:40.
