data_PCOD9062789
_publ_section_title
;
Structure prediction by ZEFSAII (Michael W. Deem and Ramdas Pophale) SiO2 
 PCOD9062789
Probable space group: P -1
;
_chemical_formula_sum "Si O2"
_cell_formula_units_Z 15
_cell_length_a 16.218165
_cell_length_b 18.734205
_cell_length_c 8.174027
_cell_angle_alpha 42.911931
_cell_angle_beta 138.017289
_cell_angle_gamma 157.985189
_cell_volume 613.382481
_symmetry_space_group_name_H-M "P -1"
_symmetry_group_IT_number 2
_symmetry_cell_setting 'triclinic'
loop_
_space_group_symop_operation_xyz
x,y,z
-x,-y,-z
loop_
_atom_site_type_symbol
_atom_site_label
_atom_site_fract_x
_atom_site_fract_y
_atom_site_fract_z
Si Si1 0.720060 0.368361 0.333268
Si Si2 0.611443 0.165572 0.191884
Si Si3 0.417507 0.635092 0.350032
Si Si4 0.500000 0.500000 0.500000
Si Si5 0.136264 0.054480 0.306815
Si Si6 0.860852 0.273204 0.854031
Si Si7 0.657041 0.730505 0.063150
Si Si8 0.948806 0.247555 0.389861
O O1 0.656209 0.238876 0.315846
O O2 0.791380 0.346786 0.626971
O O3 0.932566 0.583362 0.210750
O O4 0.505840 0.288394 0.174532
O O5 0.780470 0.193135 0.345649
O O6 0.354998 0.945852 0.155852
O O7 0.642591 0.289090 0.915432
O O8 0.419602 0.563509 0.311882
O O9 0.672827 0.814003 0.495249
O O10 0.215161 0.452660 0.477144
O O11 0.521078 0.540222 0.266217
O O12 0.112947 0.918913 0.431987
O O13 0.223827 0.196743 0.058528
O O14 0.875641 0.899091 0.225995
O O15 0.921883 0.274869 0.120234
#
# Coordination Sequence:
#
# PCOD9062789 Si02
#       8
#     2   2   2   1   2   2   2   2
#     4  11  25  45  67 108 148 183 239 300 359 421
#     4  12  24  41  71 106 143 188 237 292 366 428
#     4  12  26  45  76 103 144 194 242 300 362 428
#     4  12  24  50  74 100 146 186 244 300 354 422
#     4  11  27  49  76 104 144 193 242 296 365 426
#     4  11  24  42  71 102 145 190 232 296 361 426
#     4  11  25  50  73 105 146 186 247 301 345 441
#     4  12  24  45  71 109 145 184 242 292 356 446
#
# _framework density 24.454563
#
# number of rings (size 3 to 8) (size 9 to 14) (size 15 to 20)
#    0.000    0.533    5.333    2.000    1.867    2.133 
#    4.800    0.000    0.000    0.000    0.000    0.000 
#    0.000    0.000    0.000    0.000    0.000    0.000 
#
# Total GULP energy -83726.328386 kJ/mol
# GULP energy per Si atom -5581.755226 kJ/mol
# Density = 2.439890 g / cm^3
# Si number density = 24.454563 Si / 1000 Ang^3
#
#
#
# Elastic Constant Matrix: (Units=GPa)
#
#
# Indices 1 2 3 4 5 6 
#
# 1 73.4238 33.6411 8.8162 1.7530 26.9181 12.0166
# 2 33.6411 98.4330 -5.1812 10.3342 30.6892 -0.5176
# 3 8.8162 -5.1812 124.4822 -2.8567 10.9497 10.1769
# 4 1.7530 10.3342 -2.8567 49.3423 8.1354 9.5135
# 5 26.9181 30.6892 10.9497 8.1354 32.0482 12.0554
# 6 12.0166 -0.5176 10.1769 9.5135 12.0554 18.6186
#
#
#
# Elastic Compliance Matrix: (Units=1/GPa)
#
#
# Indices 1 2 3 4 5 6 
#
# 1 0.020917 -0.003842 0.000122 0.003529 -0.011905 -0.007768
# 2 -0.003842 0.018386 0.001335 -0.003610 -0.020443 0.017343
# 3 0.000122 0.001335 0.008686 0.001422 -0.003483 -0.003261
# 4 0.003529 -0.003610 0.001422 0.023964 -0.000374 -0.015158
# 5 -0.011905 -0.020443 -0.003483 -0.000374 0.077467 -0.040949
# 6 -0.007768 0.017343 -0.003261 -0.015158 -0.040949 0.095247
#
#
# Mechanical properties :
#
#
# Convention : Reuss Voigt Hill
#
# Bulk Modulus (GPa) = 23.13805 41.21016 32.17410
# Shear Modulus (GPa) = 18.95064 37.27268 28.11166
#
# Velocity S-wave (km/s) = 2.78678 3.90829 3.39417
# Velocity P-wave (km/s) = 4.45388 6.10365 5.34283
#
# Compressibility (1/GPa) = 0.04321885
#
# Stress axis : x y z
#
# Youngs Moduli (GPa) = 47.80847 54.38787 115.13112
#
# Poissons Ratio (x) = 0.20896 -0.01404
# Poissons Ratio (y) = 0.18368 -0.15369
# Poissons Ratio (z) = -0.00583 -0.07260
#
# Static dielectric constant tensor:
#      x y z
#    x 2.395060 0.054380 -0.145720 
#    y 0.054380 2.028340 -0.017830 
#    z -0.145720 -0.017830 2.044460 
# 
# From -- ./inp_files/338112.got.cif
#   From: 2010.05.17/outbox.cif.g08.bks.cpg/sg2_170_cif.got.tgz:338112.got - 2010.06.03 11:33:40.
