data_PCOD9062448
_publ_section_title
;
Structure prediction by ZEFSAII (Michael W. Deem and Ramdas Pophale) SiO2 
 PCOD9062448
Probable space group: P -1
;
_chemical_formula_sum "Si O2"
_cell_formula_units_Z 16
_cell_length_a 6.703395
_cell_length_b 25.762306
_cell_length_c 5.835132
_cell_angle_alpha 79.072442
_cell_angle_beta 132.348380
_cell_angle_gamma 101.095262
_cell_volume 728.331437
_symmetry_space_group_name_H-M "P -1"
_symmetry_group_IT_number 2
_symmetry_cell_setting 'triclinic'
loop_
_space_group_symop_operation_xyz
x,y,z
-x,-y,-z
loop_
_atom_site_type_symbol
_atom_site_label
_atom_site_fract_x
_atom_site_fract_y
_atom_site_fract_z
Si Si1 0.520270 0.090072 0.903199
Si Si2 0.699772 0.990706 0.864786
Si Si3 0.716019 0.403656 0.806780
Si Si4 0.794155 0.662361 0.681790
Si Si5 0.633955 0.747608 0.803295
Si Si6 0.923881 0.843347 0.659650
Si Si7 0.961253 0.244691 0.499030
Si Si8 0.731809 0.462247 0.270613
O O1 0.275696 0.110311 0.550919
O O2 0.655352 0.038413 0.963826
O O3 0.377528 0.067579 0.043844
O O4 0.767489 0.135271 0.067802
O O5 0.500000 0.000000 0.500000
O O6 0.000000 0.000000 0.000000
O O7 0.426345 0.368194 0.630056
O O8 0.678111 0.432605 0.503000
O O9 0.757349 0.430726 0.071914
O O10 0.996639 0.375695 0.016652
O O11 0.605249 0.695483 0.668714
O O12 0.998992 0.710170 0.699534
O O13 0.789234 0.798920 0.761391
O O14 0.345176 0.762049 0.652518
O O15 0.833528 0.733689 0.167790
O O16 0.940123 0.810909 0.462753
O O17 0.000000 0.500000 0.500000
O O18 0.500000 0.500000 0.000000
#
# Coordination Sequence:
#
# PCOD9062448 Si02
#       8
#     2   2   2   2   2   2   2   2
#     4  11  24  41  62  89 130 157 220 274 324 411
#     4  11  24  41  62  90 120 167 210 277 332 388
#     4  12  26  44  76 104 142 190 238 288 360 417
#     4  11  26  43  66 105 136 176 234 281 336 417
#     4  11  24  42  66  93 137 172 217 279 333 398
#     4  11  24  41  62  96 124 172 214 264 340 403
#     4  11  24  42  66  93 137 172 217 279 333 398
#     4  12  26  48  72 106 146 186 238 296 352 417
#
# _framework density 21.968018000000001
#
# number of rings (size 3 to 8) (size 9 to 14) (size 15 to 20)
#    0.000    0.750    0.000    6.750    5.250   12.000 
#    0.000    0.000    0.000    0.000    0.000    0.000 
#    0.000    0.000    0.000    0.000    0.000    0.000 
#
# Total GULP energy -89263.290725 kJ/mol
# GULP energy per Si atom -5578.955670 kJ/mol
# Density = 2.191802 g / cm^3
# Si number density = 21.968018 Si / 1000 Ang^3
#
#
#
# Elastic Constant Matrix: (Units=GPa)
#
#
# Indices 1 2 3 4 5 6 
#
# 1 118.4682 33.8406 25.7371 0.7426 19.0966 8.7869
# 2 33.8406 62.7040 14.9262 5.1962 3.1962 0.7510
# 3 25.7371 14.9262 90.8779 0.6132 19.2399 6.4395
# 4 0.7426 5.1962 0.6132 45.8655 1.1374 10.5217
# 5 19.0966 3.1962 19.2399 1.1374 46.6466 9.7739
# 6 8.7869 0.7510 6.4395 10.5217 9.7739 18.3025
#
#
#
# Elastic Compliance Matrix: (Units=1/GPa)
#
#
# Indices 1 2 3 4 5 6 
#
# 1 0.011063 -0.005578 -0.001355 0.001445 -0.002797 -0.003942
# 2 -0.005578 0.019610 -0.002120 -0.002991 0.001101 0.003750
# 3 -0.001355 -0.002120 0.012750 0.000625 -0.004181 -0.001875
# 4 0.001445 -0.002991 0.000625 0.025933 0.002266 -0.016909
# 5 -0.002797 0.001101 -0.004181 0.002266 0.026877 -0.012887
# 6 -0.003942 0.003750 -0.001875 -0.016909 -0.012887 0.073638
#
#
# Mechanical properties :
#
#
# Convention : Reuss Voigt Hill
#
# Bulk Modulus (GPa) = 39.50005 46.78421 43.14213
# Shear Modulus (GPa) = 25.45631 35.33268 30.39450
#
# Velocity S-wave (km/s) = 3.40779 4.01480 3.72368
# Velocity P-wave (km/s) = 5.78825 6.54479 6.17811
#
# Compressibility (1/GPa) = 0.02531642
#
# Stress axis : x y z
#
# Youngs Moduli (GPa) = 90.39069 50.99528 78.43418
#
# Poissons Ratio (x) = 0.28445 0.10629
# Poissons Ratio (y) = 0.50419 0.16627
# Poissons Ratio (z) = 0.12250 0.10810
#
# Static dielectric constant tensor:
#      x y z
#    x 1.892720 -0.070410 -0.110650 
#    y -0.070410 2.064060 0.086710 
#    z -0.110650 0.086710 1.800400 
# 
# From -- ./inp_files/14525.got.cif
#   From: 2010.05.17/outbox.cif.g08.bks.cpg/sg2_8_cif.got.tgz:14525.got - 2010.06.03 11:33:40.
