data_PCOD9062953
_publ_section_title
;
Structure prediction by ZEFSAII (Michael W. Deem and Ramdas Pophale) SiO2 
 PCOD9062953
Probable space group: P -1
;
_chemical_formula_sum "Si O2"
_cell_formula_units_Z 14
_cell_length_a 19.514921
_cell_length_b 20.335624
_cell_length_c 5.500459
_cell_angle_alpha 58.867647
_cell_angle_beta 51.369246
_cell_angle_gamma 19.961708
_cell_volume 561.866955
_symmetry_space_group_name_H-M "P -1"
_symmetry_group_IT_number 2
_symmetry_cell_setting 'triclinic'
loop_
_space_group_symop_operation_xyz
x,y,z
-x,-y,-z
loop_
_atom_site_type_symbol
_atom_site_label
_atom_site_fract_x
_atom_site_fract_y
_atom_site_fract_z
Si Si1 0.842395 0.766928 0.040198
Si Si2 0.249527 0.367679 0.676187
Si Si3 0.795815 0.112535 0.156968
Si Si4 0.679860 0.782100 0.698310
Si Si5 0.619314 0.477307 0.405231
Si Si6 0.523812 0.279361 0.047451
Si Si7 0.078975 0.118553 0.358758
O O1 0.846801 0.718125 0.381709
O O2 0.577178 0.980811 0.157585
O O3 0.989500 0.603659 0.828843
O O4 0.929939 0.782830 0.817464
O O5 0.300491 0.283715 0.470090
O O6 0.403253 0.320240 0.424620
O O7 0.286961 0.292621 0.988313
O O8 0.572950 0.326161 0.377885
O O9 0.717806 0.176112 0.932626
O O10 0.887130 0.953253 0.324715
O O11 0.000000 0.000000 0.000000
O O12 0.500000 0.500000 0.500000
O O13 0.850798 0.273503 0.430263
O O14 0.658708 0.515033 0.054628
O O15 0.678423 0.100767 0.877995
#
# Coordination Sequence:
#
# PCOD9062953 Si02
#       7
#     2   2   2   2   2   2   2
#     4  11  25  45  75 102 145 195 242 296 374 429
#     4  12  26  47  75 105 151 190 248 300 367 430
#     4  11  24  43  67  98 140 181 233 303 361 426
#     4  11  27  49  70 111 147 193 244 310 356 442
#     4  11  25  43  68 100 136 183 238 290 368 437
#     4  11  25  43  69 100 144 183 235 308 354 433
#     4  11  24  45  67 103 140 183 240 294 362 435
#
# _framework density 24.916931999999999
#
# number of rings (size 3 to 8) (size 9 to 14) (size 15 to 20)
#    0.000    0.857    1.429    4.286    4.000   12.571 
#    2.571    0.000    0.000    0.000    0.000    0.000 
#    0.000    0.000    0.000    0.000    0.000    0.000 
#
# Total GULP energy -78285.737890 kJ/mol
# GULP energy per Si atom -5591.838421 kJ/mol
# Density = 2.486022 g / cm^3
# Si number density = 24.916932 Si / 1000 Ang^3
#
#
#
# Elastic Constant Matrix: (Units=GPa)
#
#
# Indices 1 2 3 4 5 6 
#
# 1 57.8361 28.4933 11.4899 -8.8013 2.9654 11.7380
# 2 28.4933 147.4359 44.9735 7.5273 17.3153 3.7372
# 3 11.4899 44.9735 70.9514 -4.7415 -0.9667 8.3354
# 4 -8.8013 7.5273 -4.7415 47.2081 -2.2962 -4.8634
# 5 2.9654 17.3153 -0.9667 -2.2962 37.3190 1.4881
# 6 11.7380 3.7372 8.3354 -4.8634 1.4881 37.8014
#
#
#
# Elastic Compliance Matrix: (Units=1/GPa)
#
#
# Indices 1 2 3 4 5 6 
#
# 1 0.021103 -0.004324 0.000277 0.004105 0.000816 -0.005691
# 2 -0.004324 0.010201 -0.006216 -0.003137 -0.004803 0.001490
# 3 0.000277 -0.006216 0.018618 0.002743 0.003647 -0.003368
# 4 0.004105 -0.003137 0.002743 0.022981 0.002563 0.001286
# 5 0.000816 -0.004803 0.003647 0.002563 0.029268 -0.001405
# 6 -0.005691 0.001490 -0.003368 0.001286 -0.001405 0.029037
#
#
# Mechanical properties :
#
#
# Convention : Reuss Voigt Hill
#
# Bulk Modulus (GPa) = 34.01730 49.57075 41.79403
# Shear Modulus (GPa) = 30.95361 37.21680 34.08520
#
# Velocity S-wave (km/s) = 3.52841 3.86895 3.70260
# Velocity P-wave (km/s) = 5.50286 6.31632 5.92357
#
# Compressibility (1/GPa) = 0.02939680
#
# Stress axis : x y z
#
# Youngs Moduli (GPa) = 47.38600 98.03144 53.71188
#
# Poissons Ratio (x) = 0.42391 -0.01490
# Poissons Ratio (y) = 0.20491 0.33386
# Poissons Ratio (z) = -0.01315 0.60935
#
# Static dielectric constant tensor:
#      x y z
#    x 2.039590 0.007820 -0.005120 
#    y 0.007820 1.976100 -0.052480 
#    z -0.005120 -0.052480 2.046070 
# 
# From -- ./inp_files/120353.got.cif
#   From: 2010.05.17/outbox.cif.g08.bks.cpg/sg2_61_cif.got.tgz:120353.got - 2010.06.03 11:33:40.
