data_PCOD9062060
_publ_section_title
;
Structure prediction by ZEFSAII (Michael W. Deem and Ramdas Pophale) SiO2 
 PCOD9062060
Probable space group: P -1
;
_chemical_formula_sum "Si O2"
_cell_formula_units_Z 15
_cell_length_a 6.263455
_cell_length_b 19.656046
_cell_length_c 7.290381
_cell_angle_alpha 48.101378
_cell_angle_beta 113.332480
_cell_angle_gamma 102.609963
_cell_volume 612.037841
_symmetry_space_group_name_H-M "P -1"
_symmetry_group_IT_number 2
_symmetry_cell_setting 'triclinic'
loop_
_space_group_symop_operation_xyz
x,y,z
-x,-y,-z
loop_
_atom_site_type_symbol
_atom_site_label
_atom_site_fract_x
_atom_site_fract_y
_atom_site_fract_z
Si Si1 0.838411 0.156743 0.938558
Si Si2 0.595775 0.324811 0.039137
Si Si3 0.786673 0.518291 0.254631
Si Si4 0.255120 0.189515 0.295056
Si Si5 0.535423 0.006700 0.281113
Si Si6 0.433886 0.663603 0.413374
Si Si7 0.906164 0.654717 0.748569
Si Si8 0.000000 0.000000 0.000000
O O1 0.689695 0.089396 0.131453
O O2 0.055970 0.185769 0.080662
O O3 0.669077 0.245843 0.683136
O O4 0.933195 0.099377 0.901083
O O5 0.398339 0.404498 0.868341
O O6 0.657686 0.331224 0.834690
O O7 0.482740 0.230062 0.211764
O O8 0.824851 0.337729 0.211045
O O9 0.654569 0.426124 0.361215
O O10 0.000000 0.500000 0.500000
O O11 0.876851 0.561955 0.020660
O O12 0.167426 0.258889 0.299671
O O13 0.320217 0.086388 0.566663
O O14 0.500000 0.000000 0.500000
O O15 0.280204 0.013596 0.097407
O O16 0.714705 0.658369 0.517833
#
# Coordination Sequence:
#
# PCOD9062060 Si02
#       8
#     2   2   2   2   2   2   2   1
#     4  12  26  49  71 104 145 190 239 299 360 422
#     4  11  24  46  69 104 140 184 230 285 360 417
#     4  11  23  47  71 102 146 182 227 292 352 421
#     4  11  24  47  70  99 143 184 233 294 356 419
#     4  12  26  46  73 103 140 188 240 299 360 421
#     4  12  24  45  72 101 143 182 237 292 348 426
#     4  11  25  44  71 102 140 183 231 289 347 427
#     4  12  28  44  72 104 140 188 242 296 358 424
#
# _framework density 24.508289000000001
#
# number of rings (size 3 to 8) (size 9 to 14) (size 15 to 20)
#    0.000    0.533    4.000    4.000    0.000    1.600 
#    9.600    0.000    0.000    0.000    0.000    0.000 
#    0.000    0.000    0.000    0.000    0.000    0.000 
#
# Total GULP energy -83914.973547 kJ/mol
# GULP energy per Si atom -5594.331570 kJ/mol
# Density = 2.445251 g / cm^3
# Si number density = 24.508289 Si / 1000 Ang^3
#
#
#
# Elastic Constant Matrix: (Units=GPa)
#
#
# Indices 1 2 3 4 5 6 
#
# 1 81.1077 36.4463 39.9865 6.9518 20.8371 28.2484
# 2 36.4463 100.0255 34.1824 -10.5090 -1.4592 22.8420
# 3 39.9865 34.1824 95.5184 -13.7602 10.6281 14.0096
# 4 6.9518 -10.5090 -13.7602 43.0745 12.2635 8.1049
# 5 20.8371 -1.4592 10.6281 12.2635 48.1540 8.0856
# 6 28.2484 22.8420 14.0096 8.1049 8.0856 61.4141
#
#
#
# Elastic Compliance Matrix: (Units=1/GPa)
#
#
# Indices 1 2 3 4 5 6 
#
# 1 0.021400 -0.004951 -0.006304 -0.003944 -0.006135 -0.005235
# 2 -0.004951 0.013633 -0.002194 0.003225 0.002736 -0.003078
# 3 -0.006304 -0.002194 0.015014 0.005923 -0.002125 -0.000211
# 4 -0.003944 0.003225 0.005923 0.029019 -0.006265 -0.003741
# 5 -0.006135 0.002736 -0.002125 -0.006265 0.025612 -0.000256
# 6 -0.005235 -0.003078 -0.000211 -0.003741 -0.000256 0.020411
#
#
# Mechanical properties :
#
#
# Convention : Reuss Voigt Hill
#
# Bulk Modulus (GPa) = 43.20162 55.32020 49.26091
# Shear Modulus (GPa) = 31.30769 41.59763 36.45266
#
# Velocity S-wave (km/s) = 3.57800 4.12429 3.86082
# Velocity P-wave (km/s) = 5.89364 6.73058 6.32597
#
# Compressibility (1/GPa) = 0.02314728
#
# Stress axis : x y z
#
# Youngs Moduli (GPa) = 46.72932 73.35062 66.60313
#
# Poissons Ratio (x) = 0.36319 0.41988
# Poissons Ratio (y) = 0.23137 0.14615
# Poissons Ratio (z) = 0.29459 0.16096
#
# Static dielectric constant tensor:
#      x y z
#    x 1.961820 -0.001540 -0.023790 
#    y -0.001540 1.911940 0.007830 
#    z -0.023790 0.007830 1.916290 
# 
# From -- ./inp_files/52835.got.cif
#   From: 2010.05.17/outbox.cif.g08.bks.cpg/sg2_27_cif.got.tgz:52835.got - 2010.06.03 11:33:40.
