data_PCOD9062455
_publ_section_title
;
Structure prediction by ZEFSAII (Michael W. Deem and Ramdas Pophale) SiO2 
 PCOD9062455
Probable space group: P -1
;
_chemical_formula_sum "Si O2"
_cell_formula_units_Z 14
_cell_length_a 5.706738
_cell_length_b 5.392581
_cell_length_c 25.079233
_cell_angle_alpha 72.843299
_cell_angle_beta 69.540104
_cell_angle_gamma 52.530579
_cell_volume 570.381552
_symmetry_space_group_name_H-M "P -1"
_symmetry_group_IT_number 2
_symmetry_cell_setting 'triclinic'
loop_
_space_group_symop_operation_xyz
x,y,z
-x,-y,-z
loop_
_atom_site_type_symbol
_atom_site_label
_atom_site_fract_x
_atom_site_fract_y
_atom_site_fract_z
Si Si1 0.544502 0.831514 0.258542
Si Si2 0.272483 0.739715 0.459739
Si Si3 0.482165 0.097575 0.351061
Si Si4 0.075685 0.748689 0.365035
Si Si5 0.287133 0.524533 0.966508
Si Si6 0.118287 0.908546 0.109799
Si Si7 0.087776 0.325435 0.182203
O O1 0.303181 0.802319 0.312076
O O2 0.806119 0.505383 0.233571
O O3 0.639844 0.968215 0.289500
O O4 0.382922 0.080315 0.208320
O O5 0.500000 0.500000 0.500000
O O6 0.144273 0.641622 0.427897
O O7 0.427084 0.873806 0.403971
O O8 0.000000 0.000000 0.500000
O O9 0.161808 0.426998 0.350176
O O10 0.748915 0.071639 0.365930
O O11 0.536953 0.240153 0.927163
O O12 0.500000 0.500000 0.000000
O O13 0.127312 0.862808 0.929175
O O14 0.000000 0.500000 0.000000
O O15 0.107528 0.606937 0.140293
O O16 0.052670 0.128491 0.152098
#
# Coordination Sequence:
#
# PCOD9062455 Si02
#       7
#     2   2   2   2   2   2   2
#     4  11  26  44  69 101 136 196 239 300 376 442
#     4  11  24  41  62  96 134 170 228 298 366 432
#     4  11  24  42  67  95 132 178 243 289 355 463
#     4  11  24  42  67  95 132 178 243 289 355 463
#     4  12  27  52  86 116 161 216 263 323 390 466
#     4  12  28  50  77 122 157 200 266 317 385 456
#     4  12  27  47  76 107 160 196 248 324 377 448
#
# _framework density 24.544974
#
# number of rings (size 3 to 8) (size 9 to 14) (size 15 to 20)
#    0.000    0.571    0.000    6.857    6.000   10.286 
#    0.000    0.000    0.000    0.000    0.000    0.000 
#    0.000    0.000    0.000    0.000    0.000    0.000 
#
# Total GULP energy -78300.525629 kJ/mol
# GULP energy per Si atom -5592.894688 kJ/mol
# Density = 2.448911 g / cm^3
# Si number density = 24.544974 Si / 1000 Ang^3
#
#
#
# Elastic Constant Matrix: (Units=GPa)
#
#
# Indices 1 2 3 4 5 6 
#
# 1 67.7050 23.5916 29.1862 -3.8638 7.6297 -11.3667
# 2 23.5916 128.1391 32.7560 2.4196 12.2169 -21.1793
# 3 29.1862 32.7560 95.8889 -2.9832 9.2218 -2.0952
# 4 -3.8638 2.4196 -2.9832 64.2015 -13.6105 -2.6624
# 5 7.6297 12.2169 9.2218 -13.6105 31.6461 -1.8069
# 6 -11.3667 -21.1793 -2.0952 -2.6624 -1.8069 48.4386
#
#
#
# Elastic Compliance Matrix: (Units=1/GPa)
#
#
# Indices 1 2 3 4 5 6 
#
# 1 0.018137 -0.001382 -0.004764 0.000644 -0.001980 0.003407
# 2 -0.001382 0.009593 -0.002534 -0.001021 -0.002865 0.003598
# 3 -0.004764 -0.002534 0.012872 -0.000033 -0.001738 -0.001736
# 4 0.000644 -0.001021 -0.000033 0.017336 0.007758 0.000946
# 5 -0.001980 -0.002865 -0.001738 0.007758 0.037027 0.000015
# 6 0.003407 0.003598 -0.001736 0.000946 0.000015 0.022995
#
#
# Mechanical properties :
#
#
# Convention : Reuss Voigt Hill
#
# Bulk Modulus (GPa) = 43.02207 51.42229 47.22218
# Shear Modulus (GPa) = 34.94876 42.60384 38.77630
#
# Velocity S-wave (km/s) = 3.77751 4.17075 3.97899
# Velocity P-wave (km/s) = 6.04913 6.64750 6.35536
#
# Compressibility (1/GPa) = 0.02324388
#
# Stress axis : x y z
#
# Youngs Moduli (GPa) = 55.13664 104.23931 77.68514
#
# Poissons Ratio (x) = 0.14402 0.37006
# Poissons Ratio (y) = 0.07618 0.19686
# Poissons Ratio (z) = 0.26264 0.26416
#
# Static dielectric constant tensor:
#      x y z
#    x 2.232510 0.164110 0.073830 
#    y 0.164110 1.994180 0.060730 
#    z 0.073830 0.060730 1.961200 
# 
# From -- ./inp_files/13054.got.cif
#   From: 2010.05.17/outbox.cif.g08.bks.cpg/sg2_7_cif.got.tgz:13054.got - 2010.06.03 11:33:40.
