data_PCOD9062019
_publ_section_title
;
Structure prediction by ZEFSAII (Michael W. Deem and Ramdas Pophale) SiO2 
 PCOD9062019
Probable space group: P -1
;
_chemical_formula_sum "Si O2"
_cell_formula_units_Z 16
_cell_length_a 9.157359
_cell_length_b 7.843542
_cell_length_c 20.263307
_cell_angle_alpha 40.014186
_cell_angle_beta 140.421652
_cell_angle_gamma 126.613422
_cell_volume 596.170021
_symmetry_space_group_name_H-M "P -1"
_symmetry_group_IT_number 2
_symmetry_cell_setting 'triclinic'
loop_
_space_group_symop_operation_xyz
x,y,z
-x,-y,-z
loop_
_atom_site_type_symbol
_atom_site_label
_atom_site_fract_x
_atom_site_fract_y
_atom_site_fract_z
Si Si1 0.724545 0.528480 0.159702
Si Si2 0.525792 0.221654 0.346218
Si Si3 0.642109 0.156199 0.711208
Si Si4 0.729017 0.558571 0.431512
Si Si5 0.967982 0.945215 0.584205
Si Si6 0.288812 0.209637 0.044846
Si Si7 0.991339 0.628488 0.885152
Si Si8 0.944988 0.789789 0.264809
O O1 0.515984 0.359339 0.107275
O O2 0.736819 0.609302 0.216701
O O3 0.942317 0.340760 0.282650
O O4 0.719236 0.794087 0.035316
O O5 0.635628 0.459641 0.358413
O O6 0.260137 0.277349 0.250593
O O7 0.707755 0.997369 0.499558
O O8 0.490382 0.091566 0.298423
O O9 0.468545 0.390969 0.597461
O O10 0.862230 0.202919 0.728603
O O11 0.721506 0.059146 0.839259
O O12 0.858017 0.840607 0.387474
O O13 0.910911 0.355330 0.585682
O O14 0.000000 0.000000 0.500000
O O15 0.090177 0.403448 0.940815
O O16 0.130144 0.907579 0.842960
O O17 0.000000 0.500000 0.000000
#
# Coordination Sequence:
#
# PCOD9062019 Si02
#       8
#     2   2   2   2   2   2   2   2
#     4  11  25  44  75 103 139 193 236 294 355 423
#     4  11  25  43  71 104 138 188 238 288 360 417
#     4  11  23  47  68 102 151 180 234 297 352 421
#     4  12  25  42  75 107 139 190 240 291 364 419
#     4  12  22  47  72 100 152 186 229 309 354 413
#     4  11  24  48  69 100 144 192 233 286 363 417
#     4  11  25  47  69  98 149 187 229 298 352 426
#     4  11  25  42  69 109 137 186 241 289 359 431
#
# _framework density 26.837980000000002
#
# number of rings (size 3 to 8) (size 9 to 14) (size 15 to 20)
#    0.000    0.750    6.250    0.750    3.500    5.000 
#    0.000    0.000    0.000    0.000    0.000    0.000 
#    0.000    0.000    0.000    0.000    0.000    0.000 
#
# Total GULP energy -89404.944637 kJ/mol
# GULP energy per Si atom -5587.809040 kJ/mol
# Density = 2.677690 g / cm^3
# Si number density = 26.837980 Si / 1000 Ang^3
#
#
#
# Elastic Constant Matrix: (Units=GPa)
#
#
# Indices 1 2 3 4 5 6 
#
# 1 50.5903 -15.7471 39.2691 5.1548 10.4456 -30.4288
# 2 -15.7471 124.8389 67.7853 1.9111 5.8807 -30.7306
# 3 39.2691 67.7853 90.4821 32.8370 -18.7154 4.7937
# 4 5.1548 1.9111 32.8370 25.6295 11.4442 -14.1350
# 5 10.4456 5.8807 -18.7154 11.4442 45.4918 17.2740
# 6 -30.4288 -30.7306 4.7937 -14.1350 17.2740 28.0081
#
#
#
# Elastic Compliance Matrix: (Units=1/GPa)
#
#
# Indices 1 2 3 4 5 6 
#
# 1 0.010252 -0.003649 0.005999 -0.016242 0.007136 -0.006491
# 2 -0.003649 0.004981 0.001915 -0.007491 0.005036 -0.005714
# 3 0.005999 0.001915 0.004097 0.002984 -0.005574 0.012861
# 4 -0.016242 -0.007491 0.002984 0.030401 0.003221 -0.013019
# 5 0.007136 0.005036 -0.005574 0.003221 0.013799 0.007347
# 6 -0.006491 -0.005714 0.012861 -0.013019 0.007347 0.009080
#
#
# Mechanical properties :
#
#
# Convention : Reuss Voigt Hill
#
# Bulk Modulus (GPa) = 35.89550 49.83621 42.86586
# Shear Modulus (GPa) = 68.15123 31.46614 49.80868
#
# Velocity S-wave (km/s) = 5.04467 3.42782 4.31269
# Velocity P-wave (km/s) = 6.88008 5.85459 6.38795
#
# Compressibility (1/GPa) = 0.02785865
#
# Stress axis : x y z
#
# Youngs Moduli (GPa) = 97.54238 200.75969 244.10892
#
# Poissons Ratio (x) = 0.73263 -1.46434
# Poissons Ratio (y) = 0.35596 -0.46750
# Poissons Ratio (z) = -0.58513 -0.38448
#
# Static dielectric constant tensor:
#      x y z
#    x 2.182160 0.092080 -0.050250 
#    y 0.092080 2.156690 0.036220 
#    z -0.050250 0.036220 2.028220 
# 
# From -- ./inp_files/609775.got.cif
#   From: 2010.05.17/outbox.cif.g08.bks.cpg/sg2_305_cif.got.tgz:609775.got - 2010.06.03 11:33:40.
