data_PCOD9062191
_publ_section_title
;
Structure prediction by ZEFSAII (Michael W. Deem and Ramdas Pophale) SiO2 
 PCOD9062191
Probable space group: P -1
;
_chemical_formula_sum "Si O2"
_cell_formula_units_Z 14
_cell_length_a 19.350006
_cell_length_b 10.837307
_cell_length_c 9.750820
_cell_angle_alpha 59.644266
_cell_angle_beta 41.761894
_cell_angle_gamma 29.742540
_cell_volume 609.785334
_symmetry_space_group_name_H-M "P -1"
_symmetry_group_IT_number 2
_symmetry_cell_setting 'triclinic'
loop_
_space_group_symop_operation_xyz
x,y,z
-x,-y,-z
loop_
_atom_site_type_symbol
_atom_site_label
_atom_site_fract_x
_atom_site_fract_y
_atom_site_fract_z
Si Si1 0.124507 0.139642 0.566320
Si Si2 0.258900 0.206966 0.913786
Si Si3 0.043223 0.687312 0.776004
Si Si4 0.478465 0.577131 0.206450
Si Si5 0.617362 0.587246 0.730131
Si Si6 0.147284 0.928772 0.906176
Si Si7 0.262618 0.276734 0.183258
O O1 0.193778 0.220684 0.401815
O O2 0.887222 0.417797 0.727636
O O3 0.264118 0.884788 0.401696
O O4 0.167550 0.038666 0.713084
O O5 0.197335 0.405104 0.790784
O O6 0.484489 0.886330 0.748444
O O7 0.219552 0.303570 0.071737
O O8 0.124681 0.224445 0.076303
O O9 0.157720 0.634357 0.515656
O O10 0.948303 0.909402 0.899877
O O11 0.453010 0.447645 0.257653
O O12 0.637364 0.390432 0.199341
O O13 0.565758 0.574572 0.958373
O O14 0.000000 0.000000 0.000000
O O15 0.500000 0.000000 0.000000
#
# Coordination Sequence:
#
# PCOD9062191 Si02
#       7
#     2   2   2   2   2   2   2
#     4  11  25  47  70 103 145 182 232 295 349 414
#     4  11  23  48  69 105 140 177 242 294 344 422
#     4  11  25  45  73 101 139 187 237 292 351 408
#     4  11  25  46  69 105 143 185 237 286 348 430
#     4  11  24  46  72 101 140 185 236 289 352 414
#     4  12  26  44  71 105 145 191 235 283 355 422
#     4  11  26  46  75 105 138 185 237 294 356 414
#
# _framework density 22.9589
#
# number of rings (size 3 to 8) (size 9 to 14) (size 15 to 20)
#    0.000    0.857    4.286    1.714    2.000    5.143 
#    0.000    0.000    0.000    0.000    0.000    0.000 
#    0.000    0.000    0.000    0.000    0.000    0.000 
#
# Total GULP energy -78385.339620 kJ/mol
# GULP energy per Si atom -5598.952830 kJ/mol
# Density = 2.290664 g / cm^3
# Si number density = 22.958900 Si / 1000 Ang^3
#
#
#
# Elastic Constant Matrix: (Units=GPa)
#
#
# Indices 1 2 3 4 5 6 
#
# 1 78.6613 22.3445 19.5396 14.5458 9.5655 -5.2224
# 2 22.3445 105.1907 42.7125 22.5157 5.4186 -2.7705
# 3 19.5396 42.7125 130.9333 24.4584 13.9045 -3.5735
# 4 14.5458 22.5157 24.4584 26.8873 3.6682 13.2641
# 5 9.5655 5.4186 13.9045 3.6682 27.9355 4.7525
# 6 -5.2224 -2.7705 -3.5735 13.2641 4.7525 28.1135
#
#
#
# Elastic Compliance Matrix: (Units=1/GPa)
#
#
# Indices 1 2 3 4 5 6 
#
# 1 0.016691 -0.000335 0.001323 -0.014617 -0.006294 0.011196
# 2 -0.000335 0.013233 -0.001499 -0.013018 -0.001256 0.007406
# 3 0.001323 -0.001499 0.011212 -0.013190 -0.005487 0.008674
# 4 -0.014617 -0.013018 -0.013190 0.091538 0.010696 -0.050671
# 5 -0.006294 -0.001256 -0.005487 0.010696 0.041925 -0.014124
# 6 0.011196 0.007406 0.008674 -0.050671 -0.014124 0.065777
#
#
# Mechanical properties :
#
#
# Convention : Reuss Voigt Hill
#
# Bulk Modulus (GPa) = 24.92932 53.77540 39.35236
# Shear Modulus (GPa) = 19.62561 31.93318 25.77940
#
# Velocity S-wave (km/s) = 2.92689 3.73350 3.35453
# Velocity P-wave (km/s) = 4.72272 6.48527 5.67286
#
# Compressibility (1/GPa) = 0.04011341
#
# Stress axis : x y z
#
# Youngs Moduli (GPa) = 59.91292 75.57011 89.18628
#
# Poissons Ratio (x) = 0.02530 -0.11798
# Poissons Ratio (y) = 0.02005 0.13373
# Poissons Ratio (z) = -0.07925 0.11331
#
# Static dielectric constant tensor:
#      x y z
#    x 1.855570 0.016280 0.000040 
#    y 0.016280 1.882230 0.028020 
#    z 0.000040 0.028020 1.866240 
# 
# From -- ./inp_files/346022.got.cif
#   From: 2010.05.17/outbox.cif.g08.bks.cpg/sg2_174_cif.got.tgz:346022.got - 2010.06.03 11:33:40.
