data_PCOD9062198
_publ_section_title
;
Structure prediction by ZEFSAII (Michael W. Deem and Ramdas Pophale) SiO2 
 PCOD9062198
Probable space group: P -1
;
_chemical_formula_sum "Si O2"
_cell_formula_units_Z 14
_cell_length_a 5.288931
_cell_length_b 10.008178
_cell_length_c 22.041596
_cell_angle_alpha 30.722375
_cell_angle_beta 100.116145
_cell_angle_gamma 109.114218
_cell_volume 549.482279
_symmetry_space_group_name_H-M "P -1"
_symmetry_group_IT_number 2
_symmetry_cell_setting 'triclinic'
loop_
_space_group_symop_operation_xyz
x,y,z
-x,-y,-z
loop_
_atom_site_type_symbol
_atom_site_label
_atom_site_fract_x
_atom_site_fract_y
_atom_site_fract_z
Si Si1 0.827011 0.580483 0.305180
Si Si2 0.714117 0.844376 0.081944
Si Si3 0.336295 0.859681 0.278739
Si Si4 0.035651 0.763224 0.857444
Si Si5 0.624874 0.234862 0.546759
Si Si6 0.132266 0.843633 0.611048
Si Si7 0.751512 0.680793 0.755543
O O1 0.767002 0.804373 0.171589
O O2 0.717972 0.491517 0.403578
O O3 0.710729 0.300671 0.369414
O O4 0.154634 0.658675 0.297870
O O5 0.556071 0.536189 0.167180
O O6 0.500000 0.000000 0.000000
O O7 0.000000 0.000000 0.000000
O O8 0.648344 0.036764 0.208226
O O9 0.164629 0.069122 0.197980
O O10 0.329646 0.704418 0.403644
O O11 0.934122 0.651501 0.830096
O O12 0.000000 0.500000 0.000000
O O13 0.315710 0.055188 0.585667
O O14 0.762763 0.000878 0.630418
O O15 0.887545 0.618702 0.724834
O O16 0.000000 0.000000 0.500000
#
# Coordination Sequence:
#
# PCOD9062198 Si02
#       7
#     2   2   2   2   2   2   2
#     4  12  26  47  75 113 152 193 248 312 382 444
#     4  12  29  46  70 106 152 195 243 305 365 434
#     4  11  27  47  75 112 148 191 245 315 377 434
#     4  11  26  48  76 101 146 204 254 296 360 453
#     4  11  23  48  70 112 143 192 247 307 375 446
#     4  12  22  42  76 107 147 193 246 301 375 447
#     4  11  24  46  74 104 145 194 254 305 367 440
#
# _framework density 25.478528000000001
#
# number of rings (size 3 to 8) (size 9 to 14) (size 15 to 20)
#    0.000    0.571    4.286    3.000    4.000    2.286 
#    0.000    2.857    0.000    0.000    0.000    0.000 
#    0.000    0.000    0.000    0.000    0.000    0.000 
#
# Total GULP energy -78423.915510 kJ/mol
# GULP energy per Si atom -5601.708251 kJ/mol
# Density = 2.542054 g / cm^3
# Si number density = 25.478528 Si / 1000 Ang^3
#
#
#
# Elastic Constant Matrix: (Units=GPa)
#
#
# Indices 1 2 3 4 5 6 
#
# 1 139.8999 35.7513 81.2014 5.1938 -3.7790 30.4708
# 2 35.7513 125.6018 60.4176 19.3501 -4.5984 29.2250
# 3 81.2014 60.4176 227.1395 29.8033 5.1693 17.6357
# 4 5.1938 19.3501 29.8033 43.0909 14.1214 3.0812
# 5 -3.7790 -4.5984 5.1693 14.1214 50.0897 -4.6542
# 6 30.4708 29.2250 17.6357 3.0812 -4.6542 49.3711
#
#
#
# Elastic Compliance Matrix: (Units=1/GPa)
#
#
# Indices 1 2 3 4 5 6 
#
# 1 0.010236 -0.000362 -0.003387 0.001566 0.000185 -0.004974
# 2 -0.000362 0.010797 -0.001902 -0.003691 0.001727 -0.005095
# 3 -0.003387 -0.001902 0.006463 -0.003262 -0.000075 0.001104
# 4 0.001566 -0.003691 -0.003262 0.029659 -0.008269 -0.000247
# 5 0.000185 0.001727 -0.000075 -0.008269 0.022618 0.001538
# 6 -0.004974 -0.005095 0.001104 -0.000247 0.001538 0.026107
#
#
# Mechanical properties :
#
#
# Convention : Reuss Voigt Hill
#
# Bulk Modulus (GPa) = 61.74445 94.15356 77.94900
# Shear Modulus (GPa) = 40.78937 49.52839 45.15888
#
# Velocity S-wave (km/s) = 4.00550 4.41378 4.21459
# Velocity P-wave (km/s) = 6.75860 7.93786 7.37185
#
# Compressibility (1/GPa) = 0.01619579
#
# Stress axis : x y z
#
# Youngs Moduli (GPa) = 97.69071 92.61812 154.71964
#
# Poissons Ratio (x) = 0.03350 0.52400
# Poissons Ratio (y) = 0.03534 0.29428
# Poissons Ratio (z) = 0.33085 0.17616
#
# Static dielectric constant tensor:
#      x y z
#    x 2.048900 -0.038170 -0.000600 
#    y -0.038170 2.053410 -0.034730 
#    z -0.000600 -0.034730 1.993070 
# 
# From -- ./inp_files/72471.got.cif
#   From: 2010.05.17/outbox.cif.g08.bks.cpg/sg2_37_cif.got.tgz:72471.got - 2010.06.03 11:33:40.
