data_PCOD9062999
_publ_section_title
;
Structure prediction by ZEFSAII (Michael W. Deem and Ramdas Pophale) SiO2 
 PCOD9062999
Probable space group: P -1
;
_chemical_formula_sum "Si O2"
_cell_formula_units_Z 16
_cell_length_a 14.944901
_cell_length_b 23.275485
_cell_length_c 16.730100
_cell_angle_alpha 22.358658
_cell_angle_beta 33.873633
_cell_angle_gamma 20.087478
_cell_volume 726.939088
_symmetry_space_group_name_H-M "P -1"
_symmetry_group_IT_number 2
_symmetry_cell_setting 'triclinic'
loop_
_space_group_symop_operation_xyz
x,y,z
-x,-y,-z
loop_
_atom_site_type_symbol
_atom_site_label
_atom_site_fract_x
_atom_site_fract_y
_atom_site_fract_z
Si Si1 0.557885 0.430652 0.639201
Si Si2 0.073179 0.609006 0.836718
Si Si3 0.589835 0.140725 0.420423
Si Si4 0.893899 0.679870 0.511554
Si Si5 0.501670 0.260830 0.588757
Si Si6 0.972169 0.695078 0.987341
Si Si7 0.189210 0.958216 0.793578
Si Si8 0.599353 0.388806 0.210130
O O1 0.500000 0.500000 0.500000
O O2 0.357072 0.457669 0.788481
O O3 0.507429 0.625224 0.473792
O O4 0.874185 0.151963 0.774541
O O5 0.069084 0.607509 0.937046
O O6 0.836491 0.894053 0.609158
O O7 0.000000 0.500000 0.000000
O O8 0.339234 0.215407 0.504720
O O9 0.501182 0.364193 0.240028
O O10 0.704388 0.074768 0.330817
O O11 0.792416 0.912626 0.327268
O O12 0.189927 0.477692 0.512587
O O13 0.960025 0.507506 0.754281
O O14 0.661799 0.229216 0.442040
O O15 0.660364 0.986049 0.841622
O O16 0.144340 0.703446 0.885203
O O17 0.373049 0.675879 0.042013
#
# Coordination Sequence:
#
# PCOD9062999 Si02
#       8
#     2   2   2   2   2   2   2   2
#     4  11  24  43  68  98 134 177 229 281 333 410
#     4  12  26  43  72 103 137 178 231 281 341 403
#     4  12  24  45  69 105 135 180 231 282 337 411
#     4  11  27  44  72  99 142 180 227 283 345 403
#     4  11  25  46  68 101 136 181 226 282 347 400
#     4  12  24  47  71  98 138 183 225 285 340 411
#     4  11  25  44  71  99 139 182 227 281 343 405
#     4  12  25  43  72 100 134 183 231 278 344 407
#
# _framework density 22.010096000000001
#
# number of rings (size 3 to 8) (size 9 to 14) (size 15 to 20)
#    0.000    0.500    5.000    3.000    3.500    3.500 
#    2.250    0.000    0.000    0.000    0.000    0.000 
#    0.000    0.000    0.000    0.000    0.000    0.000 
#
# Total GULP energy -89594.440429 kJ/mol
# GULP energy per Si atom -5599.652527 kJ/mol
# Density = 2.196000 g / cm^3
# Si number density = 22.010096 Si / 1000 Ang^3
#
#
#
# Elastic Constant Matrix: (Units=GPa)
#
#
# Indices 1 2 3 4 5 6 
#
# 1 76.4587 20.3828 1.2700 -4.5699 -29.5141 -12.9378
# 2 20.3828 102.7974 22.2599 -3.6808 -26.8999 -16.0025
# 3 1.2700 22.2599 77.5656 -6.6190 -12.2125 -5.2417
# 4 -4.5699 -3.6808 -6.6190 37.0973 1.5306 -2.6688
# 5 -29.5141 -26.8999 -12.2125 1.5306 36.6674 5.4612
# 6 -12.9378 -16.0025 -5.2417 -2.6688 5.4612 32.1923
#
#
#
# Elastic Compliance Matrix: (Units=1/GPa)
#
#
# Indices 1 2 3 4 5 6 
#
# 1 0.020696 0.000905 0.002793 0.002901 0.017155 0.006552
# 2 0.000905 0.013142 -0.001944 0.001072 0.008909 0.005157
# 3 0.002793 -0.001944 0.014591 0.002670 0.005294 0.001855
# 4 0.002901 0.001072 0.002670 0.028098 0.002229 0.004085
# 5 0.017155 0.008909 0.005294 0.002229 0.048674 0.004113
# 6 0.006552 0.005157 0.001855 0.004085 0.004113 0.036203
#
#
# Mechanical properties :
#
#
# Convention : Reuss Voigt Hill
#
# Bulk Modulus (GPa) = 19.25429 38.29413 28.77421
# Shear Modulus (GPa) = 28.53744 35.38532 31.96138
#
# Velocity S-wave (km/s) = 3.60469 4.01395 3.81481
# Velocity P-wave (km/s) = 5.10803 6.23847 5.70134
#
# Compressibility (1/GPa) = 0.05193648
#
# Stress axis : x y z
#
# Youngs Moduli (GPa) = 48.31944 76.09239 68.53491
#
# Poissons Ratio (x) = -0.06884 -0.19141
# Poissons Ratio (y) = -0.04371 0.13320
# Poissons Ratio (z) = -0.13495 0.14789
#
# Static dielectric constant tensor:
#      x y z
#    x 1.792810 -0.020610 0.004910 
#    y -0.020610 1.812300 -0.013180 
#    z 0.004910 -0.013180 1.821090 
# 
# From -- ./inp_files/190254.got.cif
#   From: 2010.05.17/outbox.cif.g08.bks.cpg/sg2_96_cif.got.tgz:190254.got - 2010.06.03 11:33:40.
