data_PCOD9062296
_publ_section_title
;
Structure prediction by ZEFSAII (Michael W. Deem and Ramdas Pophale) SiO2 
 PCOD9062296
Probable space group: P -1
;
_chemical_formula_sum "Si O2"
_cell_formula_units_Z 12
_cell_length_a 5.017626
_cell_length_b 9.180409
_cell_length_c 11.266617
_cell_angle_alpha 81.818312
_cell_angle_beta 98.682892
_cell_angle_gamma 73.707862
_cell_volume 483.018251
_symmetry_space_group_name_H-M "P -1"
_symmetry_group_IT_number 2
_symmetry_cell_setting 'triclinic'
loop_
_space_group_symop_operation_xyz
x,y,z
-x,-y,-z
loop_
_atom_site_type_symbol
_atom_site_label
_atom_site_fract_x
_atom_site_fract_y
_atom_site_fract_z
Si Si1 0.994413 0.325407 0.035597
Si Si2 0.563129 0.949645 0.781632
Si Si3 0.681948 0.266713 0.790219
Si Si4 0.798551 0.457869 0.589554
Si Si5 0.958375 0.096211 0.367460
Si Si6 0.172390 0.583346 0.736174
O O1 0.809666 0.348244 0.140609
O O2 0.282420 0.190906 0.103615
O O3 0.865363 0.274528 0.916490
O O4 0.000000 0.500000 0.000000
O O5 0.246928 0.955158 0.730142
O O6 0.746506 0.917089 0.675837
O O7 0.591758 0.112888 0.805963
O O8 0.835749 0.293152 0.675271
O O9 0.405409 0.418634 0.757382
O O10 0.500000 0.500000 0.500000
O O11 0.000000 0.500000 0.500000
O O12 0.870311 0.554870 0.694391
O O13 0.812678 0.277992 0.363487
O O14 0.000000 0.000000 0.500000
#
# Coordination Sequence:
#
# PCOD9062296 Si02
#       6
#     2   2   2   2   2   2
#     4  11  23  49  76 107 146 193 248 298 365 436
#     4  11  28  46  71 112 143 188 244 302 365 425
#     4  12  26  47  77 108 149 192 241 309 363 430
#     4  12  27  44  72 109 150 188 244 297 363 430
#     4  11  27  48  72 102 152 194 240 295 363 435
#     4  11  26  47  77 109 143 196 249 296 363 436
#
# _framework density 24.843779000000001
#
# number of rings (size 3 to 8) (size 9 to 14) (size 15 to 20)
#    0.000    0.667    3.333    2.500    9.333    1.333 
#    0.000    5.000    0.000    0.000    0.000    0.000 
#    0.000    0.000    0.000    0.000    0.000    0.000 
#
# Total GULP energy -67163.594810 kJ/mol
# GULP energy per Si atom -5596.966234 kJ/mol
# Density = 2.478723 g / cm^3
# Si number density = 24.843779 Si / 1000 Ang^3
#
#
#
# Elastic Constant Matrix: (Units=GPa)
#
#
# Indices 1 2 3 4 5 6 
#
# 1 92.0368 23.0822 28.6590 -9.7489 9.4315 14.5500
# 2 23.0822 177.5361 54.2047 -36.0792 17.8615 20.8297
# 3 28.6590 54.2047 149.6354 -27.2553 17.4754 9.1530
# 4 -9.7489 -36.0792 -27.2553 48.5970 -1.0241 -0.8088
# 5 9.4315 17.8615 17.4754 -1.0241 37.8700 4.0814
# 6 14.5500 20.8297 9.1530 -0.8088 4.0814 48.4703
#
#
#
# Elastic Compliance Matrix: (Units=1/GPa)
#
#
# Indices 1 2 3 4 5 6 
#
# 1 0.012244 -0.000309 -0.001611 0.001235 -0.001797 -0.003067
# 2 -0.000309 0.007611 -0.001392 0.004713 -0.002460 -0.002630
# 3 -0.001611 -0.001392 0.008430 0.003311 -0.002719 -0.000226
# 4 0.001235 0.004713 0.003311 0.026077 -0.003102 -0.002325
# 5 -0.001797 -0.002460 -0.002719 -0.003102 0.029228 -0.000403
# 6 -0.003067 -0.002630 -0.000226 -0.002325 -0.000403 0.022720
#
#
# Mechanical properties :
#
#
# Convention : Reuss Voigt Hill
#
# Bulk Modulus (GPa) = 46.16120 70.12222 58.14171
# Shear Modulus (GPa) = 41.61373 47.87163 44.74268
#
# Velocity S-wave (km/s) = 4.09714 4.39442 4.24838
# Velocity P-wave (km/s) = 6.40336 7.35081 6.89338
#
# Compressibility (1/GPa) = 0.02166321
#
# Stress axis : x y z
#
# Youngs Moduli (GPa) = 81.67308 131.38111 118.62628
#
# Poissons Ratio (x) = 0.04054 0.19110
# Poissons Ratio (y) = 0.02520 0.16507
# Poissons Ratio (z) = 0.13157 0.18282
#
# Static dielectric constant tensor:
#      x y z
#    x 2.031630 -0.053860 -0.074540 
#    y -0.053860 2.001120 0.015140 
#    z -0.074540 0.015140 2.011590 
# 
# From -- ./inp_files/24626.got.cif
#   From: 2010.05.17/outbox.cif.g08.bks.cpg/sg2_13_cif.got.tgz:24626.got - 2010.06.03 11:33:40.
