data_PCOD9062586
_publ_section_title
;
Structure prediction by ZEFSAII (Michael W. Deem and Ramdas Pophale) SiO2 
 PCOD9062586
Probable space group: P -1
;
_chemical_formula_sum "Si O2"
_cell_formula_units_Z 15
_cell_length_a 17.519476
_cell_length_b 18.083998
_cell_length_c 12.036698
_cell_angle_alpha 31.629910
_cell_angle_beta 27.042630
_cell_angle_gamma 20.418393
_cell_volume 601.501539
_symmetry_space_group_name_H-M "P -1"
_symmetry_group_IT_number 2
_symmetry_cell_setting 'triclinic'
loop_
_space_group_symop_operation_xyz
x,y,z
-x,-y,-z
loop_
_atom_site_type_symbol
_atom_site_label
_atom_site_fract_x
_atom_site_fract_y
_atom_site_fract_z
Si Si1 0.916987 0.858739 0.442649
Si Si2 0.888056 0.416939 0.663971
Si Si3 0.500000 0.500000 0.500000
Si Si4 0.819734 0.219813 0.175995
Si Si5 0.264983 0.494062 0.619624
Si Si6 0.226072 0.941160 0.177287
Si Si7 0.584503 0.797054 0.694891
Si Si8 0.386528 0.109486 0.887823
O O1 0.088583 0.688943 0.340424
O O2 0.030674 0.729275 0.575990
O O3 0.624850 0.994267 0.645353
O O4 0.918076 0.025302 0.228918
O O5 0.633291 0.665399 0.694861
O O6 0.136117 0.359649 0.413429
O O7 0.898039 0.310306 0.895213
O O8 0.332968 0.478217 0.679787
O O9 0.327585 0.731199 0.363401
O O10 0.519986 0.394966 0.356845
O O11 0.940487 0.129446 0.257523
O O12 0.238896 0.348914 0.796692
O O13 0.394753 0.860184 0.951622
O O14 0.255088 0.056193 0.073818
O O15 0.500000 0.000000 0.500000
O O16 0.500000 0.000000 0.000000
#
# Coordination Sequence:
#
# PCOD9062586 Si02
#       8
#     2   2   1   2   2   2   2   2
#     4  11  25  45  70 103 146 185 234 300 356 430
#     4  11  24  41  71 105 140 190 234 296 357 423
#     4  12  24  46  74 100 140 188 240 296 356 424
#     4  11  25  44  71 104 144 187 240 289 365 426
#     4  11  26  45  67 103 142 191 238 290 360 425
#     4  12  24  47  73 103 143 185 241 300 349 432
#     4  11  24  43  70 106 142 187 239 292 361 425
#     4  11  25  46  70 103 137 185 241 294 360 419
#
# _framework density 24.937593
#
# number of rings (size 3 to 8) (size 9 to 14) (size 15 to 20)
#    0.000    0.800    5.333    1.200    1.867    2.667 
#    2.400    0.000    0.000    0.000    0.000    0.000 
#    0.000    0.000    0.000    0.000    0.000    0.000 
#
# Total GULP energy -83797.554352 kJ/mol
# GULP energy per Si atom -5586.503623 kJ/mol
# Density = 2.488083 g / cm^3
# Si number density = 24.937593 Si / 1000 Ang^3
#
#
#
# Elastic Constant Matrix: (Units=GPa)
#
#
# Indices 1 2 3 4 5 6 
#
# 1 102.7421 33.9955 12.1234 -3.6828 -12.8518 20.8053
# 2 33.9955 98.9054 45.4283 -11.0630 -2.5883 20.0153
# 3 12.1234 45.4283 103.6730 -11.6309 1.2776 9.4389
# 4 -3.6828 -11.0630 -11.6309 44.9877 8.0825 2.4853
# 5 -12.8518 -2.5883 1.2776 8.0825 41.2280 -4.6277
# 6 20.8053 20.0153 9.4389 2.4853 -4.6277 50.0426
#
#
#
# Elastic Compliance Matrix: (Units=1/GPa)
#
#
# Indices 1 2 3 4 5 6 
#
# 1 0.011917 -0.003549 0.000405 -0.000174 0.003142 -0.003312
# 2 -0.003549 0.014811 -0.005479 0.002289 -0.000860 -0.003608
# 3 0.000405 -0.005479 0.012291 0.002082 -0.001063 -0.000497
# 4 -0.000174 0.002289 0.002082 0.024390 -0.005084 -0.002917
# 5 0.003142 -0.000860 -0.001063 -0.005084 0.026427 0.001935
# 6 -0.003312 -0.003608 -0.000497 -0.002917 0.001935 0.023221
#
#
# Mechanical properties :
#
#
# Convention : Reuss Voigt Hill
#
# Bulk Modulus (GPa) = 45.92900 54.26835 50.09867
# Shear Modulus (GPa) = 36.34758 41.50321 38.92539
#
# Velocity S-wave (km/s) = 3.82192 4.08399 3.95512
# Velocity P-wave (km/s) = 6.15903 6.63683 6.40239
#
# Compressibility (1/GPa) = 0.02177274
#
# Stress axis : x y z
#
# Youngs Moduli (GPa) = 83.91269 67.51836 81.35978
#
# Poissons Ratio (x) = 0.23963 -0.03294
# Poissons Ratio (y) = 0.29781 0.44577
# Poissons Ratio (z) = -0.03398 0.36993
#
# Static dielectric constant tensor:
#      x y z
#    x 2.031120 0.068830 -0.031490 
#    y 0.068830 2.041560 0.035440 
#    z -0.031490 0.035440 1.971940 
# 
# From -- ./inp_files/337539.got.cif
#   From: 2010.05.17/outbox.cif.g08.bks.cpg/sg2_169_cif.got.tgz:337539.got - 2010.06.03 11:33:40.
