data_PCOD9062351
_publ_section_title
;
Structure prediction by ZEFSAII (Michael W. Deem and Ramdas Pophale) SiO2 
 PCOD9062351
Probable space group: P -1
;
_chemical_formula_sum "Si O2"
_cell_formula_units_Z 16
_cell_length_a 15.873782
_cell_length_b 8.029055
_cell_length_c 9.747872
_cell_angle_alpha 110.381590
_cell_angle_beta 143.988844
_cell_angle_gamma 83.546628
_cell_volume 651.602903
_symmetry_space_group_name_H-M "P -1"
_symmetry_group_IT_number 2
_symmetry_cell_setting 'triclinic'
loop_
_space_group_symop_operation_xyz
x,y,z
-x,-y,-z
loop_
_atom_site_type_symbol
_atom_site_label
_atom_site_fract_x
_atom_site_fract_y
_atom_site_fract_z
Si Si1 0.885963 0.585970 0.629679
Si Si2 0.432879 0.704371 0.318132
Si Si3 0.368107 0.432997 0.914961
Si Si4 0.565599 0.900985 0.932872
Si Si5 0.284088 0.006292 0.126566
Si Si6 0.970420 0.865747 0.083268
Si Si7 0.234657 0.747846 0.422537
Si Si8 0.849715 0.523553 0.006964
O O1 0.789369 0.620588 0.386823
O O2 0.912012 0.748269 0.830359
O O3 0.789455 0.383007 0.511725
O O4 0.037782 0.542481 0.766759
O O5 0.602593 0.793747 0.615442
O O6 0.324227 0.528821 0.204209
O O7 0.347840 0.860143 0.247912
O O8 0.408576 0.619514 0.111597
O O9 0.500000 0.500000 0.000000
O O10 0.380979 0.259904 0.972524
O O11 0.683860 0.001675 0.997863
O O12 0.406314 0.814513 0.621943
O O13 0.500000 0.000000 0.000000
O O14 0.118364 0.987090 0.960881
O O15 0.915418 0.732325 0.104742
O O16 0.150547 0.905841 0.347428
O O17 0.143252 0.598145 0.151000
#
# Coordination Sequence:
#
# PCOD9062351 Si02
#       8
#     2   2   2   2   2   2   2   2
#     4   9  19  37  63  93 121 152 205 249 296 364
#     4  11  24  39  62  88 125 159 203 255 294 355
#     4  12  23  38  63  89 120 165 198 245 308 358
#     4  12  25  41  63  91 125 158 200 250 304 364
#     4  11  24  41  59  92 124 158 207 250 296 356
#     4   9  19  38  68  91 119 156 201 253 300 355
#     4   9  18  39  64  91 120 158 200 248 301 359
#     4   9  18  38  64  90 115 159 205 248 297 354
#
# _framework density 24.554832000000001
#
# number of rings (size 3 to 8) (size 9 to 14) (size 15 to 20)
#    0.000    1.750    2.500    3.750    1.750    2.500 
#    2.250    1.875    0.000    0.000    0.000    0.000 
#    0.000    0.000    0.000    0.000    0.000    0.000 
#
# Total GULP energy -89231.876235 kJ/mol
# GULP energy per Si atom -5576.992265 kJ/mol
# Density = 2.449894 g / cm^3
# Si number density = 24.554832 Si / 1000 Ang^3
#
#
#
# Elastic Constant Matrix: (Units=GPa)
#
#
# Indices 1 2 3 4 5 6 
#
# 1 73.6207 8.5265 20.0770 -4.9133 -0.0259 2.8400
# 2 8.5265 86.4381 22.6902 -36.0387 -6.2006 -7.4593
# 3 20.0770 22.6902 79.2211 -28.3512 -1.0119 -11.0616
# 4 -4.9133 -36.0387 -28.3512 36.2025 -3.2842 0.2061
# 5 -0.0259 -6.2006 -1.0119 -3.2842 32.8233 2.1605
# 6 2.8400 -7.4593 -11.0616 0.2061 2.1605 34.7755
#
#
#
# Elastic Compliance Matrix: (Units=1/GPa)
#
#
# Indices 1 2 3 4 5 6 
#
# 1 0.015102 -0.002278 -0.005201 -0.004344 -0.000796 -0.003301
# 2 -0.002278 0.022493 0.004361 0.026063 0.006606 0.005833
# 3 -0.005201 0.004361 0.021115 0.020400 0.003000 0.007769
# 4 -0.004344 0.026063 0.020400 0.069960 0.011806 0.011286
# 5 -0.000796 0.006606 0.003000 0.011806 0.032966 0.000318
# 6 -0.003301 0.005833 0.007769 0.011286 0.000318 0.032661
#
#
# Mechanical properties :
#
#
# Convention : Reuss Voigt Hill
#
# Bulk Modulus (GPa) = 19.05633 37.98524 28.52078
# Shear Modulus (GPa) = 22.93322 33.29269 28.11295
#
# Velocity S-wave (km/s) = 3.05939 3.68618 3.38732
# Velocity P-wave (km/s) = 4.50082 5.79831 5.19027
#
# Compressibility (1/GPa) = 0.05247601
#
# Stress axis : x y z
#
# Youngs Moduli (GPa) = 66.21496 44.45921 47.35864
#
# Poissons Ratio (x) = 0.10126 0.24630
# Poissons Ratio (y) = 0.15081 -0.20654
# Poissons Ratio (z) = 0.34436 -0.19389
#
# Static dielectric constant tensor:
#      x y z
#    x 1.916980 -0.013530 0.056000 
#    y -0.013530 2.051570 0.011570 
#    z 0.056000 0.011570 1.964220 
# 
# From -- ./inp_files/190378.got.cif
#   From: 2010.05.17/outbox.cif.g08.bks.cpg/sg2_96_cif.got.tgz:190378.got - 2010.06.03 11:33:40.
