data_PCOD9062958
_publ_section_title
;
Structure prediction by ZEFSAII (Michael W. Deem and Ramdas Pophale) SiO2 
 PCOD9062958
Probable space group: P -1
;
_chemical_formula_sum "Si O2"
_cell_formula_units_Z 15
_cell_length_a 17.909329
_cell_length_b 8.120602
_cell_length_c 8.490663
_cell_angle_alpha 74.161744
_cell_angle_beta 141.737693
_cell_angle_gamma 122.549254
_cell_volume 617.566540
_symmetry_space_group_name_H-M "P -1"
_symmetry_group_IT_number 2
_symmetry_cell_setting 'triclinic'
loop_
_space_group_symop_operation_xyz
x,y,z
-x,-y,-z
loop_
_atom_site_type_symbol
_atom_site_label
_atom_site_fract_x
_atom_site_fract_y
_atom_site_fract_z
Si Si1 0.621534 0.393927 0.999831
Si Si2 0.602428 0.834599 0.792421
Si Si3 0.500000 0.500000 0.500000
Si Si4 0.731568 0.164302 0.431612
Si Si5 0.095119 0.217862 0.510144
Si Si6 0.972548 0.477743 0.273075
Si Si7 0.660441 0.767760 0.256678
Si Si8 0.690446 0.265284 0.690092
O O1 0.644577 0.221300 0.151376
O O2 0.779087 0.598053 0.224583
O O3 0.552741 0.371262 0.723613
O O4 0.504065 0.397717 0.916703
O O5 0.634695 0.716688 0.747181
O O6 0.428644 0.679881 0.543473
O O7 0.638586 0.055085 0.750241
O O8 0.657568 0.844714 0.055714
O O9 0.711733 0.217311 0.560199
O O10 0.898141 0.313914 0.633798
O O11 0.692313 0.941257 0.389132
O O12 0.196158 0.239543 0.522805
O O13 0.989180 0.295405 0.284003
O O14 0.000000 0.000000 0.500000
O O15 0.000000 0.500000 0.500000
O O16 0.824945 0.431503 0.969771
#
# Coordination Sequence:
#
# PCOD9062958 Si02
#       8
#     2   2   1   2   2   2   2   2
#     4  11  25  43  70 100 138 183 229 287 345 408
#     4  11  25  39  70  98 136 178 222 298 333 410
#     4  12  26  40  62 106 138 168 238 284 350 396
#     4  11  24  44  71 100 137 181 231 285 342 410
#     4  11  24  43  67  99 138 181 227 279 349 405
#     4  11  25  43  70  97 139 187 230 277 341 416
#     4  12  23  46  73 102 137 180 235 285 350 403
#     4  11  24  44  66 102 136 177 236 274 344 407
#
# _framework density 24.288882999999998
#
# number of rings (size 3 to 8) (size 9 to 14) (size 15 to 20)
#    0.000    0.800    2.667    4.400    7.467    0.000 
#    0.000    0.667    0.000    0.000    0.000    0.000 
#    0.000    0.000    0.000    0.000    0.000    0.000 
#
# Total GULP energy -83511.018254 kJ/mol
# GULP energy per Si atom -5567.401217 kJ/mol
# Density = 2.423360 g / cm^3
# Si number density = 24.288883 Si / 1000 Ang^3
#
#
#
# Elastic Constant Matrix: (Units=GPa)
#
#
# Indices 1 2 3 4 5 6 
#
# 1 65.1610 -18.3081 16.4436 -8.9602 2.1714 5.2833
# 2 -18.3081 29.2760 9.0918 5.0221 15.7659 9.4908
# 3 16.4436 9.0918 85.5921 -15.9179 2.8801 2.6586
# 4 -8.9602 5.0221 -15.9179 24.0292 3.0737 7.1263
# 5 2.1714 15.7659 2.8801 3.0737 51.9701 1.5873
# 6 5.2833 9.4908 2.6586 7.1263 1.5873 31.1269
#
#
#
# Elastic Compliance Matrix: (Units=1/GPa)
#
#
# Indices 1 2 3 4 5 6 
#
# 1 0.026308 0.026272 -0.006220 0.005059 -0.008637 -0.012662
# 2 0.026272 0.074835 -0.012231 -0.003936 -0.022150 -0.024202
# 3 -0.006220 -0.012231 0.015965 0.010215 0.002452 0.000958
# 4 0.005059 -0.003936 0.010215 0.055279 -0.002454 -0.013062
# 5 -0.008637 -0.022150 0.002452 -0.002454 0.026110 0.007241
# 6 -0.012662 -0.024202 0.000958 -0.013062 0.007241 0.044194
#
#
# Mechanical properties :
#
#
# Convention : Reuss Voigt Hill
#
# Bulk Modulus (GPa) = 7.53300 21.60931 14.57115
# Shear Modulus (GPa) = 18.42975 32.94536 25.68756
#
# Velocity S-wave (km/s) = 2.75757 3.68692 3.25558
# Velocity P-wave (km/s) = 3.63966 5.20006 4.48819
#
# Compressibility (1/GPa) = 0.13274919
#
# Stress axis : x y z
#
# Youngs Moduli (GPa) = 38.01127 13.36273 62.63704
#
# Poissons Ratio (x) = -0.35107 0.38961
# Poissons Ratio (y) = -0.99863 0.76613
# Poissons Ratio (z) = 0.23644 0.16344
#
# Static dielectric constant tensor:
#      x y z
#    x 2.030780 0.013970 0.203940 
#    y 0.013970 2.051580 -0.027940 
#    z 0.203940 -0.027940 1.773860 
# 
# From -- ./inp_files/328968.got.cif
#   From: 2010.05.17/outbox.cif.g08.bks.cpg/sg2_165_cif.got.tgz:328968.got - 2010.06.03 11:33:40.
