data_PCOD9062868
_publ_section_title
;
Structure prediction by ZEFSAII (Michael W. Deem and Ramdas Pophale) SiO2 
 PCOD9062868
Probable space group: P -1
;
_chemical_formula_sum "Si O2"
_cell_formula_units_Z 15
_cell_length_a 11.638985
_cell_length_b 7.589275
_cell_length_c 20.678861
_cell_angle_alpha 53.089356
_cell_angle_beta 23.974184
_cell_angle_gamma 61.999211
_cell_volume 575.498911
_symmetry_space_group_name_H-M "P -1"
_symmetry_group_IT_number 2
_symmetry_cell_setting 'triclinic'
loop_
_space_group_symop_operation_xyz
x,y,z
-x,-y,-z
loop_
_atom_site_type_symbol
_atom_site_label
_atom_site_fract_x
_atom_site_fract_y
_atom_site_fract_z
Si Si1 0.297231 0.344467 0.742307
Si Si2 0.816726 0.960269 0.858003
Si Si3 0.826709 0.814946 0.743576
Si Si4 0.397165 0.180367 0.341067
Si Si5 0.693639 0.085642 0.081556
Si Si6 0.938787 0.521662 0.371855
Si Si7 0.000000 0.500000 0.500000
Si Si8 0.879153 0.303151 0.156700
O O1 0.620165 0.400048 0.535910
O O2 0.243154 0.574121 0.749019
O O3 0.294265 0.159260 0.842364
O O4 0.019041 0.227528 0.868125
O O5 0.868385 0.808384 0.924082
O O6 0.886968 0.843847 0.781782
O O7 0.017811 0.210028 0.709306
O O8 0.500000 0.000000 0.000000
O O9 0.544198 0.908739 0.851610
O O10 0.821474 0.568522 0.772401
O O11 0.100397 0.985624 0.530664
O O12 0.572510 0.204538 0.178809
O O13 0.615221 0.130315 0.294529
O O14 0.289490 0.396568 0.372816
O O15 0.968555 0.460454 0.445309
O O16 0.000000 0.500000 0.000000
#
# Coordination Sequence:
#
# PCOD9062868 Si02
#       8
#     2   2   2   2   2   2   1   2
#     4  11  24  43  76 113 160 202 265 317 389 467
#     4  12  33  54  79 113 160 209 269 343 408 477
#     4  12  26  49  80 113 167 205 266 326 400 480
#     4  12  23  42  81 116 160 207 270 324 384 475
#     4  11  24  42  75 126 154 210 267 320 382 474
#     4  12  26  48  80 117 164 215 262 323 404 470
#     4  12  22  40  82 120 156 214 260 318 386 472
#     4  12  28  50  79 110 149 205 271 333 402 481
#
# _framework density 26.064342
#
# number of rings (size 3 to 8) (size 9 to 14) (size 15 to 20)
#    0.000    0.267    6.667    1.200    5.600    2.667 
#    2.400    1.333    0.000    0.000    0.000    0.000 
#    0.000    0.000    0.000    0.000    0.000    0.000 
#
# Total GULP energy -83898.769664 kJ/mol
# GULP energy per Si atom -5593.251311 kJ/mol
# Density = 2.600502 g / cm^3
# Si number density = 26.064342 Si / 1000 Ang^3
#
#
#
# Elastic Constant Matrix: (Units=GPa)
#
#
# Indices 1 2 3 4 5 6 
#
# 1 118.2541 64.9700 31.1873 2.5763 -16.0229 -15.0860
# 2 64.9700 131.5650 20.3389 26.1154 -6.2687 -2.9533
# 3 31.1873 20.3389 99.0563 7.6887 -26.8318 -20.8570
# 4 2.5763 26.1154 7.6887 38.0906 2.0676 -5.0063
# 5 -16.0229 -6.2687 -26.8318 2.0676 29.9832 14.5060
# 6 -15.0860 -2.9533 -20.8570 -5.0063 14.5060 55.1919
#
#
#
# Elastic Compliance Matrix: (Units=1/GPa)
#
#
# Indices 1 2 3 4 5 6 
#
# 1 0.013356 -0.007008 -0.001950 0.004458 0.002515 0.002282
# 2 -0.007008 0.012747 -0.000067 -0.008564 0.000499 -0.002167
# 3 -0.001950 -0.000067 0.014346 -0.003107 0.011192 0.001661
# 4 0.004458 -0.008564 -0.003107 0.033379 -0.006593 0.004347
# 5 0.002515 0.000499 0.011192 -0.006593 0.049457 -0.008653
# 6 0.002282 -0.002167 0.001661 0.004347 -0.008653 0.021923
#
#
# Mechanical properties :
#
#
# Convention : Reuss Voigt Hill
#
# Bulk Modulus (GPa) = 44.64819 64.65198 54.65008
# Shear Modulus (GPa) = 29.28699 40.14508 34.71604
#
# Velocity S-wave (km/s) = 3.35571 3.92883 3.65353
# Velocity P-wave (km/s) = 5.67288 6.74089 6.22982
#
# Compressibility (1/GPa) = 0.02239732
#
# Stress axis : x y z
#
# Youngs Moduli (GPa) = 74.87467 78.45106 69.70717
#
# Poissons Ratio (x) = 0.54977 0.13595
# Poissons Ratio (y) = 0.52470 0.00469
# Poissons Ratio (z) = 0.14603 0.00528
#
# Static dielectric constant tensor:
#      x y z
#    x 2.025510 -0.000140 -0.017280 
#    y -0.000140 2.062050 -0.041380 
#    z -0.017280 -0.041380 2.076070 
# 
# From -- ./inp_files/623358.got.cif
#   From: 2010.05.17/outbox.cif.g08.bks.cpg/sg2_312_cif.got.tgz:623358.got - 2010.06.03 11:33:40.
