data_PCOD9062399
_publ_section_title
;
Structure prediction by ZEFSAII (Michael W. Deem and Ramdas Pophale) SiO2 
 PCOD9062399
Probable space group: P -1
;
_chemical_formula_sum "Si O2"
_cell_formula_units_Z 16
_cell_length_a 25.244364
_cell_length_b 13.727913
_cell_length_c 16.328935
_cell_angle_alpha 154.017991
_cell_angle_beta 157.740446
_cell_angle_gamma 20.339435
_cell_volume 723.905767
_symmetry_space_group_name_H-M "P -1"
_symmetry_group_IT_number 2
_symmetry_cell_setting 'triclinic'
loop_
_space_group_symop_operation_xyz
x,y,z
-x,-y,-z
loop_
_atom_site_type_symbol
_atom_site_label
_atom_site_fract_x
_atom_site_fract_y
_atom_site_fract_z
Si Si1 0.248768 0.440495 0.344748
Si Si2 0.413317 0.406092 0.716224
Si Si3 0.508194 0.310476 0.487296
Si Si4 0.464288 0.836052 0.761382
Si Si5 0.034000 0.288344 0.460584
Si Si6 0.862477 0.925492 0.140324
Si Si7 0.230858 0.234023 0.433418
Si Si8 0.828337 0.056503 0.010752
O O1 0.374013 0.309327 0.504247
O O2 0.342061 0.498881 0.455009
O O3 0.050330 0.715039 0.297607
O O4 0.229220 0.221454 0.109119
O O5 0.359754 0.300813 0.634919
O O6 0.617531 0.286962 0.911265
O O7 0.276160 0.751838 0.783217
O O8 0.551082 0.518932 0.679484
O O9 0.466307 0.215692 0.272565
O O10 0.662748 0.026245 0.545243
O O11 0.246592 0.030266 0.584148
O O12 0.500000 0.000000 0.000000
O O13 0.941536 0.481532 0.555352
O O14 0.000000 0.500000 0.500000
O O15 0.920117 0.180390 0.197669
O O16 0.924171 0.913385 0.126013
O O17 0.168508 0.146524 0.202252
#
# Coordination Sequence:
#
# PCOD9062399 Si02
#       8
#     2   2   2   2   2   2   2   2
#     4  11  24  43  67 104 147 184 236 289 362 428
#     4  12  24  43  72 108 141 191 242 284 361 433
#     4  11  25  46  74 103 142 186 236 300 357 423
#     4  11  28  52  74 102 141 190 247 296 361 426
#     4  12  28  47  73 107 142 184 248 299 353 421
#     4  11  24  40  66 101 148 186 230 294 351 421
#     4  12  25  44  77 106 146 190 236 299 359 424
#     4  12  25  43  72 102 144 187 237 298 351 427
#
# _framework density 22.102323999999999
#
# number of rings (size 3 to 8) (size 9 to 14) (size 15 to 20)
#    0.000    0.500    5.000    2.625    3.500    4.500 
#    0.000    0.000    0.000    0.000    0.000    0.000 
#    0.000    0.000    0.000    0.000    0.000    0.000 
#
# Total GULP energy -89507.482670 kJ/mol
# GULP energy per Si atom -5594.217667 kJ/mol
# Density = 2.205202 g / cm^3
# Si number density = 22.102324 Si / 1000 Ang^3
#
#
#
# Elastic Constant Matrix: (Units=GPa)
#
#
# Indices 1 2 3 4 5 6 
#
# 1 85.3451 1.3425 20.9841 -6.0116 1.5078 -2.0333
# 2 1.3425 96.7125 16.9903 -0.2226 4.1061 -6.7101
# 3 20.9841 16.9903 99.1317 2.1746 -1.4200 -0.4020
# 4 -6.0116 -0.2226 2.1746 34.8725 -6.8322 -5.8009
# 5 1.5078 4.1061 -1.4200 -6.8322 37.1994 8.6888
# 6 -2.0333 -6.7101 -0.4020 -5.8009 8.6888 36.6269
#
#
#
# Elastic Compliance Matrix: (Units=1/GPa)
#
#
# Indices 1 2 3 4 5 6 
#
# 1 0.012611 0.000431 -0.002800 0.002461 -0.000508 0.001259
# 2 0.000431 0.010934 -0.001988 0.000325 -0.001822 0.002489
# 3 -0.002800 -0.001988 0.011054 -0.001170 0.000716 -0.000754
# 4 0.002461 0.000325 -0.001170 0.030725 0.004535 0.003974
# 5 -0.000508 -0.001822 0.000716 0.004535 0.029514 -0.006637
# 6 0.001259 0.002489 -0.000754 0.003974 -0.006637 0.030024
#
#
# Mechanical properties :
#
#
# Convention : Reuss Voigt Hill
#
# Bulk Modulus (GPa) = 38.63163 39.98033 39.30598
# Shear Modulus (GPa) = 35.16085 37.86457 36.51271
#
# Velocity S-wave (km/s) = 3.99284 4.14351 4.06887
# Velocity P-wave (km/s) = 6.22684 6.40465 6.31637
#
# Compressibility (1/GPa) = 0.02588553
#
# Stress axis : x y z
#
# Youngs Moduli (GPa) = 79.29584 91.45739 90.46613
#
# Poissons Ratio (x) = -0.03945 0.25327
# Poissons Ratio (y) = -0.03420 0.17989
# Poissons Ratio (z) = 0.22199 0.18186
#
# Static dielectric constant tensor:
#      x y z
#    x 1.817740 0.010600 0.011220 
#    y 0.010600 1.817590 0.006340 
#    z 0.011220 0.006340 1.810900 
# 
# From -- ./inp_files/579912.got.cif
#   From: 2010.05.17/outbox.cif.g08.bks.cpg/sg2_290_cif.got.tgz:579912.got - 2010.06.03 11:33:40.
