data_PCOD9062266
_publ_section_title
;
Structure prediction by ZEFSAII (Michael W. Deem and Ramdas Pophale) SiO2 
 PCOD9062266
Probable space group: P -1
;
_chemical_formula_sum "Si O2"
_cell_formula_units_Z 16
_cell_length_a 7.783356
_cell_length_b 15.384101
_cell_length_c 9.436053
_cell_angle_alpha 111.895824
_cell_angle_beta 47.918212
_cell_angle_gamma 82.909097
_cell_volume 653.797337
_symmetry_space_group_name_H-M "P -1"
_symmetry_group_IT_number 2
_symmetry_cell_setting 'triclinic'
loop_
_space_group_symop_operation_xyz
x,y,z
-x,-y,-z
loop_
_atom_site_type_symbol
_atom_site_label
_atom_site_fract_x
_atom_site_fract_y
_atom_site_fract_z
Si Si1 0.484852 0.242365 0.514447
Si Si2 0.881862 0.302458 0.427164
Si Si3 0.441283 0.096219 0.980848
Si Si4 0.304786 0.631809 0.851145
Si Si5 0.353539 0.944315 0.474268
Si Si6 0.903119 0.467799 0.315421
Si Si7 0.783097 0.141608 0.006313
Si Si8 0.894037 0.383814 0.773263
O O1 0.517276 0.176611 0.600704
O O2 0.182287 0.307154 0.653140
O O3 0.600410 0.320705 0.532698
O O4 0.680159 0.153457 0.231043
O O5 0.877650 0.322640 0.608027
O O6 0.963056 0.380778 0.352684
O O7 0.117095 0.175731 0.182336
O O8 0.599186 0.057367 0.720907
O O9 0.533802 0.169042 0.057090
O O10 0.500000 0.000000 0.000000
O O11 0.607070 0.577061 0.585132
O O12 0.146669 0.584959 0.826703
O O13 0.151117 0.763852 0.997170
O O14 0.332345 0.595322 0.975306
O O15 0.500000 0.000000 0.500000
O O16 0.035794 0.022806 0.743888
O O17 0.110726 0.506387 0.199469
#
# Coordination Sequence:
#
# PCOD9062266 Si02
#       8
#     2   2   2   2   2   2   2   2
#     4  12  24  47  71 108 145 191 242 297 363 429
#     4  12  26  46  75 103 145 190 243 295 363 431
#     4  12  27  47  71 108 146 191 241 302 363 432
#     4  11  24  44  77 104 146 190 242 298 367 425
#     4  12  27  43  73 107 143 191 248 292 365 442
#     4  11  23  49  69 109 142 190 243 300 361 428
#     4  12  23  47  72 102 149 190 240 305 359 431
#     4  12  26  46  76 105 147 197 236 304 361 430
#
# _framework density 24.472414000000001
#
# number of rings (size 3 to 8) (size 9 to 14) (size 15 to 20)
#    0.000    0.250    3.750    5.250    5.250    0.500 
#    0.000    0.000    0.000    0.000    0.000    0.000 
#    0.000    0.000    0.000    0.000    0.000    0.000 
#
# Total GULP energy -89734.696525 kJ/mol
# GULP energy per Si atom -5608.418533 kJ/mol
# Density = 2.441671 g / cm^3
# Si number density = 24.472414 Si / 1000 Ang^3
#
#
#
# Elastic Constant Matrix: (Units=GPa)
#
#
# Indices 1 2 3 4 5 6 
#
# 1 94.1827 12.7406 34.2753 -3.5217 4.9793 -17.6182
# 2 12.7406 131.6190 37.4453 -14.5095 6.8534 -15.0257
# 3 34.2753 37.4453 104.9295 -23.6258 28.3159 -12.7186
# 4 -3.5217 -14.5095 -23.6258 41.2263 -11.8024 4.7194
# 5 4.9793 6.8534 28.3159 -11.8024 31.8258 -4.3311
# 6 -17.6182 -15.0257 -12.7186 4.7194 -4.3311 31.4604
#
#
#
# Elastic Compliance Matrix: (Units=1/GPa)
#
#
# Indices 1 2 3 4 5 6 
#
# 1 0.013261 0.000491 -0.004694 -0.001442 0.002318 0.006299
# 2 0.000491 0.008873 -0.003053 0.001539 0.001747 0.003288
# 3 -0.004694 -0.003053 0.016278 0.004572 -0.011362 0.000244
# 4 -0.001442 0.001539 0.004572 0.029347 0.006473 -0.001735
# 5 0.002318 0.001747 -0.011362 0.006473 0.043541 0.002562
# 6 0.006299 0.003288 0.000244 -0.001735 0.002562 0.037595
#
#
# Mechanical properties :
#
#
# Convention : Reuss Voigt Hill
#
# Bulk Modulus (GPa) = 41.83979 55.51707 48.67843
# Shear Modulus (GPa) = 29.17597 37.32050 33.24824
#
# Velocity S-wave (km/s) = 3.45657 3.90936 3.68992
# Velocity P-wave (km/s) = 5.75016 6.56600 6.17157
#
# Compressibility (1/GPa) = 0.02390069
#
# Stress axis : x y z
#
# Youngs Moduli (GPa) = 75.40791 112.70380 61.43151
#
# Poissons Ratio (x) = -0.05535 0.28834
# Poissons Ratio (y) = -0.03704 0.18757
# Poissons Ratio (z) = 0.35394 0.34411
#
# Static dielectric constant tensor:
#      x y z
#    x 1.955020 -0.006670 -0.061310 
#    y -0.006670 1.932700 0.008400 
#    z -0.061310 0.008400 1.962450 
# 
# From -- ./inp_files/208139.got.cif
#   From: 2010.05.17/outbox.cif.g08.bks.cpg/sg2_105_cif.got.tgz:208139.got - 2010.06.03 11:33:40.
