data_PCOD9062824
_publ_section_title
;
Structure prediction by ZEFSAII (Michael W. Deem and Ramdas Pophale) SiO2 
 PCOD9062824
Probable space group: P -1
;
_chemical_formula_sum "Si O2"
_cell_formula_units_Z 16
_cell_length_a 11.623615
_cell_length_b 21.320379
_cell_length_c 5.360088
_cell_angle_alpha 68.935862
_cell_angle_beta 65.841868
_cell_angle_gamma 33.581217
_cell_volume 669.930889
_symmetry_space_group_name_H-M "P -1"
_symmetry_group_IT_number 2
_symmetry_cell_setting 'triclinic'
loop_
_space_group_symop_operation_xyz
x,y,z
-x,-y,-z
loop_
_atom_site_type_symbol
_atom_site_label
_atom_site_fract_x
_atom_site_fract_y
_atom_site_fract_z
Si Si1 0.288752 0.770432 0.109677
Si Si2 0.502397 0.400789 0.199655
Si Si3 0.850377 0.348257 0.986136
Si Si4 0.233750 0.186953 0.522196
Si Si5 0.651402 0.976646 0.717913
Si Si6 0.022560 0.910354 0.638688
Si Si7 0.033117 0.381850 0.114577
Si Si8 0.328750 0.360762 0.749336
O O1 0.417819 0.648080 0.084065
O O2 0.150054 0.845850 0.878364
O O3 0.485186 0.732686 0.081159
O O4 0.140093 0.834584 0.390731
O O5 0.310786 0.535714 0.197504
O O6 0.431508 0.360214 0.436655
O O7 0.708767 0.347730 0.207648
O O8 0.060851 0.238206 0.807321
O O9 0.920785 0.367799 0.108549
O O10 0.477759 0.086621 0.536756
O O11 0.160991 0.292085 0.351519
O O12 0.226055 0.132333 0.396294
O O13 0.801524 0.964330 0.746157
O O14 0.500000 0.000000 0.000000
O O15 0.000000 0.000000 0.500000
O O16 0.851655 0.511966 0.165257
O O17 0.200156 0.347844 0.833542
#
# Coordination Sequence:
#
# PCOD9062824 Si02
#       8
#     2   2   2   2   2   2   2   2
#     4  12  26  49  79 110 151 198 247 319 380 449
#     4  11  24  44  73 111 157 193 253 301 387 453
#     4  11  24  42  72 112 146 203 244 314 370 469
#     4  11  25  45  75 105 149 193 257 315 380 450
#     4  11  28  50  74 105 143 197 259 323 385 437
#     4  12  30  51  79 108 150 197 262 319 382 451
#     4  11  25  43  72 107 156 196 254 299 381 459
#     4  11  25  46  69 113 153 207 243 311 376 466
#
# _framework density 23.883061000000001
#
# number of rings (size 3 to 8) (size 9 to 14) (size 15 to 20)
#    0.000    0.750    3.750    1.875    8.750    5.000 
#    0.000    0.000    0.000    0.000    0.000    0.000 
#    0.000    0.000    0.000    0.000    0.000    0.000 
#
# Total GULP energy -89428.164915 kJ/mol
# GULP energy per Si atom -5589.260307 kJ/mol
# Density = 2.382870 g / cm^3
# Si number density = 23.883061 Si / 1000 Ang^3
#
#
#
# Elastic Constant Matrix: (Units=GPa)
#
#
# Indices 1 2 3 4 5 6 
#
# 1 40.4547 36.2066 28.6045 -2.9917 -5.8597 -7.4164
# 2 36.2066 112.2006 38.8956 -4.0212 -2.2110 -21.1142
# 3 28.6045 38.8956 99.4558 3.8686 -2.7251 -3.3259
# 4 -2.9917 -4.0212 3.8686 39.7936 2.2647 7.8648
# 5 -5.8597 -2.2110 -2.7251 2.2647 40.8591 6.9581
# 6 -7.4164 -21.1142 -3.3259 7.8648 6.9581 19.9452
#
#
#
# Elastic Compliance Matrix: (Units=1/GPa)
#
#
# Indices 1 2 3 4 5 6 
#
# 1 0.039899 -0.010002 -0.007517 0.002366 0.004462 0.000505
# 2 -0.010002 0.015635 -0.002795 -0.001498 -0.003081 0.014032
# 3 -0.007517 -0.002795 0.013276 -0.001557 0.000256 -0.003015
# 4 0.002366 -0.001498 -0.001557 0.027662 0.000684 -0.012112
# 5 0.004462 -0.003081 0.000256 0.000684 0.026832 -0.011190
# 6 0.000505 0.014032 -0.003015 -0.012112 -0.011190 0.073357
#
#
# Mechanical properties :
#
#
# Convention : Reuss Voigt Hill
#
# Bulk Modulus (GPa) = 35.48126 51.05828 43.26977
# Shear Modulus (GPa) = 20.26878 30.01319 25.14098
#
# Velocity S-wave (km/s) = 2.91635 3.54880 3.24801
# Velocity P-wave (km/s) = 5.12139 6.18198 5.67651
#
# Compressibility (1/GPa) = 0.02818389
#
# Stress axis : x y z
#
# Youngs Moduli (GPa) = 25.06305 63.95794 75.32141
#
# Poissons Ratio (x) = 0.63970 0.56618
# Poissons Ratio (y) = 0.25068 0.21052
# Poissons Ratio (z) = 0.18839 0.17876
#
# Static dielectric constant tensor:
#      x y z
#    x 1.902540 -0.044420 0.017220 
#    y -0.044420 1.998580 -0.064400 
#    z 0.017220 -0.064400 1.987430 
# 
# From -- ./inp_files/84271.got.cif
#   From: 2010.05.17/outbox.cif.g08.bks.cpg/sg2_43_cif.got.tgz:84271.got - 2010.06.03 11:33:40.
