data_PCOD9062129
_publ_section_title
;
Structure prediction by ZEFSAII (Michael W. Deem and Ramdas Pophale) SiO2 
 PCOD9062129
Probable space group: P -1
;
_chemical_formula_sum "Si O2"
_cell_formula_units_Z 14
_cell_length_a 13.750804
_cell_length_b 8.419256
_cell_length_c 12.331196
_cell_angle_alpha 64.893717
_cell_angle_beta 124.162899
_cell_angle_gamma 152.360438
_cell_volume 537.949138
_symmetry_space_group_name_H-M "P -1"
_symmetry_group_IT_number 2
_symmetry_cell_setting 'triclinic'
loop_
_space_group_symop_operation_xyz
x,y,z
-x,-y,-z
loop_
_atom_site_type_symbol
_atom_site_label
_atom_site_fract_x
_atom_site_fract_y
_atom_site_fract_z
Si Si1 0.007573 0.214509 0.869650
Si Si2 0.536542 0.473158 0.703363
Si Si3 0.227751 0.072947 0.963736
Si Si4 0.477154 0.174518 0.950836
Si Si5 0.937296 0.602898 0.378836
Si Si6 0.637954 0.348244 0.443953
Si Si7 0.849713 0.754617 0.657981
O O1 0.051824 0.403597 0.742354
O O2 0.253000 0.429889 0.966352
O O3 0.805649 0.833064 0.805834
O O4 0.902769 0.126736 0.945909
O O5 0.410298 0.197983 0.795683
O O6 0.467679 0.590185 0.631947
O O7 0.587592 0.420892 0.643764
O O8 0.287583 0.959893 0.985582
O O9 0.500000 0.500000 0.000000
O O10 0.057174 0.945700 0.806719
O O11 0.500000 0.000000 0.000000
O O12 0.000000 0.500000 0.500000
O O13 0.705728 0.384840 0.352830
O O14 0.110905 0.985794 0.410922
O O15 0.846487 0.643717 0.575976
O O16 0.500000 0.000000 0.500000
#
# Coordination Sequence:
#
# PCOD9062129 Si02
#       7
#     2   2   2   2   2   2   2
#     4  11  25  48  79 108 156 199 262 318 394 467
#     4  11  23  47  74 110 155 200 257 325 390 479
#     4  12  24  48  85 112 151 206 260 322 406 471
#     4  12  27  44  72 117 156 200 255 323 396 471
#     4  11  26  48  72 110 159 206 258 329 386 475
#     4  12  27  48  79 113 151 217 270 324 398 469
#     4  11  25  48  79 110 160 200 264 333 393 471
#
# _framework density 26.024764999999999
#
# number of rings (size 3 to 8) (size 9 to 14) (size 15 to 20)
#    0.000    0.571    2.857    5.571    2.000    5.143 
#    2.571    0.000    0.000    0.000    0.000    0.000 
#    0.000    0.000    0.000    0.000    0.000    0.000 
#
# Total GULP energy -78098.555128 kJ/mol
# GULP energy per Si atom -5578.468223 kJ/mol
# Density = 2.596553 g / cm^3
# Si number density = 26.024765 Si / 1000 Ang^3
#
#
#
# Elastic Constant Matrix: (Units=GPa)
#
#
# Indices 1 2 3 4 5 6 
#
# 1 215.7631 47.2128 81.5317 -28.6541 0.6161 34.4545
# 2 47.2128 80.1100 54.4115 -12.0051 -9.6708 2.7539
# 3 81.5317 54.4115 150.0382 -30.8847 0.3063 4.0637
# 4 -28.6541 -12.0051 -30.8847 46.9128 13.2612 -3.8628
# 5 0.6161 -9.6708 0.3063 13.2612 40.9325 -12.5833
# 6 34.4545 2.7539 4.0637 -3.8628 -12.5833 48.9931
#
#
#
# Elastic Compliance Matrix: (Units=1/GPa)
#
#
# Indices 1 2 3 4 5 6 
#
# 1 0.007309 -0.002510 -0.002342 0.002751 -0.003243 -0.005421
# 2 -0.002510 0.018159 -0.005735 -0.002101 0.005837 0.002553
# 3 -0.002342 -0.005735 0.011091 0.005280 -0.002891 0.000723
# 4 0.002751 -0.002101 0.005280 0.028743 -0.010733 -0.002745
# 5 -0.003243 0.005837 -0.002891 -0.010733 0.032323 0.009648
# 6 -0.005421 0.002553 0.000723 -0.002745 0.009648 0.026281
#
#
# Mechanical properties :
#
#
# Convention : Reuss Voigt Hill
#
# Bulk Modulus (GPa) = 64.99843 90.24704 77.62274
# Shear Modulus (GPa) = 33.28697 44.88470 39.08584
#
# Velocity S-wave (km/s) = 3.58026 4.15745 3.87960
# Velocity P-wave (km/s) = 6.49006 7.60253 7.06821
#
# Compressibility (1/GPa) = 0.01538499
#
# Stress axis : x y z
#
# Youngs Moduli (GPa) = 136.81615 55.06789 90.16559
#
# Poissons Ratio (x) = 0.13821 0.21116
# Poissons Ratio (y) = 0.34339 0.51713
# Poissons Ratio (z) = 0.32041 0.31583
#
# Static dielectric constant tensor:
#      x y z
#    x 2.284120 -0.465050 -0.205910 
#    y -0.465050 3.930990 0.384960 
#    z -0.205910 0.384960 2.248570 
# 
# From -- ./inp_files/446986.got.cif
#   From: 2010.05.17/outbox.cif.g08.bks.cpg/sg2_224_cif.got.tgz:446986.got - 2010.06.03 11:33:40.
