data_PCOD9062671
_publ_section_title
;
Structure prediction by ZEFSAII (Michael W. Deem and Ramdas Pophale) SiO2 
 PCOD9062671
Probable space group: P -1
;
_chemical_formula_sum "Si O2"
_cell_formula_units_Z 12
_cell_length_a 8.599843
_cell_length_b 5.026826
_cell_length_c 12.058597
_cell_angle_alpha 74.503370
_cell_angle_beta 108.760153
_cell_angle_gamma 115.839654
_cell_volume 439.284947
_symmetry_space_group_name_H-M "P -1"
_symmetry_group_IT_number 2
_symmetry_cell_setting 'triclinic'
loop_
_space_group_symop_operation_xyz
x,y,z
-x,-y,-z
loop_
_atom_site_type_symbol
_atom_site_label
_atom_site_fract_x
_atom_site_fract_y
_atom_site_fract_z
Si Si1 0.236630 0.251272 0.741588
Si Si2 0.582084 0.270259 0.902354
Si Si3 0.108526 0.723345 0.612313
Si Si4 0.910707 0.683280 0.069778
Si Si5 0.632672 0.823311 0.544624
Si Si6 0.817331 0.507810 0.746675
O O1 0.432098 0.386640 0.818839
O O2 0.207311 0.938877 0.713438
O O3 0.116595 0.228923 0.821772
O O4 0.183966 0.471289 0.627274
O O5 0.267016 0.491523 0.017056
O O6 0.664507 0.229369 0.806143
O O7 0.500000 0.000000 0.000000
O O8 0.189599 0.970496 0.507019
O O9 0.912282 0.545250 0.642256
O O10 0.975686 0.522897 0.864852
O O11 0.000000 0.000000 0.000000
O O12 0.500000 0.500000 0.500000
O O13 0.720984 0.741873 0.683427
O O14 0.500000 0.000000 0.500000
#
# Coordination Sequence:
#
# PCOD9062671 Si02
#       6
#     2   2   2   2   2   2
#     4  11  24  43  71 102 142 186 234 293 354 423
#     4  12  23  42  69 104 145 192 240 294 352 425
#     4  11  24  47  71 105 142 184 236 295 361 431
#     4  11  24  42  67 105 145 193 243 294 356 430
#     4  12  27  48  75 105 138 183 240 301 365 430
#     4  11  25  44  71 103 144 190 236 297 361 427
#
# _framework density 27.317121
#
# number of rings (size 3 to 8) (size 9 to 14) (size 15 to 20)
#    0.000    0.667    0.000    8.500    0.000    6.667 
#    0.000    5.833    0.000    0.000    0.000    0.000 
#    0.000    0.000    0.000    0.000    0.000    0.000 
#
# Total GULP energy -66975.059100 kJ/mol
# GULP energy per Si atom -5581.254925 kJ/mol
# Density = 2.725495 g / cm^3
# Si number density = 27.317121 Si / 1000 Ang^3
#
#
#
# Elastic Constant Matrix: (Units=GPa)
#
#
# Indices 1 2 3 4 5 6 
#
# 1 119.9107 59.9745 67.7811 -31.8029 -0.7627 -1.3952
# 2 59.9745 156.0347 55.6292 -12.0627 -7.2842 12.8526
# 3 67.7811 55.6292 146.0171 -36.5945 -25.8206 18.2635
# 4 -31.8029 -12.0627 -36.5945 52.8077 18.5697 -15.4985
# 5 -0.7627 -7.2842 -25.8206 18.5697 46.7330 -22.0514
# 6 -1.3952 12.8526 18.2635 -15.4985 -22.0514 42.3463
#
#
#
# Elastic Compliance Matrix: (Units=1/GPa)
#
#
# Indices 1 2 3 4 5 6 
#
# 1 0.015144 -0.004065 -0.004853 0.007541 -0.003920 0.004544
# 2 -0.004065 0.008611 -0.001653 -0.002479 -0.000054 -0.002970
# 3 -0.004853 -0.001653 0.011313 0.002656 0.004211 -0.001373
# 4 0.007541 -0.002479 0.002656 0.029291 -0.007218 0.006817
# 5 -0.003920 -0.000054 0.004211 -0.007218 0.032300 0.012249
# 6 0.004544 -0.002970 -0.001373 0.006817 0.012249 0.034132
#
#
# Mechanical properties :
#
#
# Convention : Reuss Voigt Hill
#
# Bulk Modulus (GPa) = 71.80783 87.63691 79.72237
# Shear Modulus (GPa) = 31.93370 44.28257 38.10813
#
# Velocity S-wave (km/s) = 3.42277 4.03060 3.73906
# Velocity P-wave (km/s) = 6.47799 7.33566 6.92013
#
# Compressibility (1/GPa) = 0.01392606
#
# Stress axis : x y z
#
# Youngs Moduli (GPa) = 66.03424 116.12953 88.39566
#
# Poissons Ratio (x) = 0.47207 0.42896
# Poissons Ratio (y) = 0.26843 0.14612
# Poissons Ratio (z) = 0.32044 0.19197
#
# Static dielectric constant tensor:
#      x y z
#    x 2.207570 -0.014460 -0.067140 
#    y -0.014460 2.098650 -0.005820 
#    z -0.067140 -0.005820 2.144930 
# 
# From -- ./inp_files/372420.got.cif
#   From: 2010.05.17/outbox.cif.g08.bks.cpg/sg2_187_cif.got.tgz:372420.got - 2010.06.03 11:33:40.
