data_PCOD9062203
_publ_section_title
;
Structure prediction by ZEFSAII (Michael W. Deem and Ramdas Pophale) SiO2 
 PCOD9062203
Probable space group: P -1
;
_chemical_formula_sum "Si O2"
_cell_formula_units_Z 16
_cell_length_a 11.140679
_cell_length_b 13.931358
_cell_length_c 11.927600
_cell_angle_alpha 111.148514
_cell_angle_beta 129.757025
_cell_angle_gamma 110.661744
_cell_volume 771.088723
_symmetry_space_group_name_H-M "P -1"
_symmetry_group_IT_number 2
_symmetry_cell_setting 'triclinic'
loop_
_space_group_symop_operation_xyz
x,y,z
-x,-y,-z
loop_
_atom_site_type_symbol
_atom_site_label
_atom_site_fract_x
_atom_site_fract_y
_atom_site_fract_z
Si Si1 0.575642 0.047200 0.192891
Si Si2 0.201498 0.879474 0.246215
Si Si3 0.991035 0.881681 0.498203
Si Si4 0.817438 0.633216 0.112334
Si Si5 0.295958 0.140285 0.291669
Si Si6 0.137911 0.615770 0.388617
Si Si7 0.285455 0.320893 0.524175
Si Si8 0.037545 0.706941 0.843630
O O1 0.763514 0.247747 0.403802
O O2 0.725529 0.023163 0.305069
O O3 0.500000 0.000000 0.000000
O O4 0.315018 0.909527 0.056536
O O5 0.043183 0.795395 0.231454
O O6 0.500000 0.000000 0.500000
O O7 0.239469 0.013479 0.281644
O O8 0.038940 0.730508 0.988317
O O9 0.804248 0.703316 0.239581
O O10 0.915241 0.831397 0.563529
O O11 0.000000 0.000000 0.500000
O O12 0.925065 0.574861 0.177888
O O13 0.543626 0.489504 0.820461
O O14 0.572529 0.263006 0.441211
O O15 0.356877 0.270912 0.458436
O O16 0.000000 0.000000 0.000000
O O17 0.990852 0.430275 0.251111
O O18 0.172986 0.351195 0.390322
#
# Coordination Sequence:
#
# PCOD9062203 Si02
#       8
#     2   2   2   2   2   2   2   2
#     4  11  23  48  71  98 141 178 231 286 338 418
#     4  12  23  44  72  98 138 183 231 286 346 411
#     4  11  25  47  71 100 135 186 231 280 350 410
#     4  11  26  45  67 102 140 180 234 287 340 418
#     4  12  24  43  71 101 143 179 229 289 347 408
#     4  11  26  45  69 104 137 181 236 280 348 415
#     4  12  26  44  67 104 143 179 230 290 343 414
#     4  12  26  45  71 106 139 184 232 285 355 408
#
# _framework density 20.749883000000001
#
# number of rings (size 3 to 8) (size 9 to 14) (size 15 to 20)
#    0.000    0.500    5.000    2.625    5.250    3.500 
#    0.000    0.000    0.000    0.000    0.000    0.000 
#    0.000    0.000    0.000    0.000    0.000    0.000 
#
# Total GULP energy -89251.360941 kJ/mol
# GULP energy per Si atom -5578.210059 kJ/mol
# Density = 2.070266 g / cm^3
# Si number density = 20.749883 Si / 1000 Ang^3
#
#
#
# Elastic Constant Matrix: (Units=GPa)
#
#
# Indices 1 2 3 4 5 6 
#
# 1 55.7354 9.7595 11.2440 -17.6868 -10.9813 -8.0688
# 2 9.7595 117.1546 27.9491 -20.9950 -7.1855 -30.8544
# 3 11.2440 27.9491 112.6476 -27.8110 -0.4009 -20.1840
# 4 -17.6868 -20.9950 -27.8110 39.6638 0.2695 7.0860
# 5 -10.9813 -7.1855 -0.4009 0.2695 26.2600 -1.9919
# 6 -8.0688 -30.8544 -20.1840 7.0860 -1.9919 38.8327
#
#
#
# Elastic Compliance Matrix: (Units=1/GPa)
#
#
# Indices 1 2 3 4 5 6 
#
# 1 0.023930 0.001913 0.000945 0.011294 0.010845 0.005479
# 2 0.001913 0.012104 -0.000187 0.005459 0.004748 0.009165
# 3 0.000945 -0.000187 0.011545 0.007571 0.000800 0.004708
# 4 0.011294 0.005459 0.007571 0.037677 0.006254 0.004065
# 5 0.010845 0.004748 0.000800 0.006254 0.044438 0.007580
# 6 0.005479 0.009165 0.004708 0.004065 0.007580 0.036266
#
#
# Mechanical properties :
#
#
# Convention : Reuss Voigt Hill
#
# Bulk Modulus (GPa) = 18.89595 42.60477 30.75036
# Shear Modulus (GPa) = 28.04909 36.72365 32.38637
#
# Velocity S-wave (km/s) = 3.68063 4.21149 3.95498
# Velocity P-wave (km/s) = 5.21431 6.65026 5.97558
#
# Compressibility (1/GPa) = 0.05292139
#
# Stress axis : x y z
#
# Youngs Moduli (GPa) = 41.78859 82.61487 86.61875
#
# Poissons Ratio (x) = -0.15805 -0.08189
# Poissons Ratio (y) = -0.07994 0.01622
# Poissons Ratio (z) = -0.03951 0.01547
#
# Static dielectric constant tensor:
#      x y z
#    x 2.363580 -0.012900 0.584680 
#    y -0.012900 1.699100 0.010450 
#    z 0.584680 0.010450 2.216630 
# 
# From -- ./inp_files/272415.got.cif
#   From: 2010.05.17/outbox.cif.g08.bks.cpg/sg2_137_cif.got.tgz:272415.got - 2010.06.03 11:33:40.
