data_PCOD9062439
_publ_section_title
;
Structure prediction by ZEFSAII (Michael W. Deem and Ramdas Pophale) SiO2 
 PCOD9062439
Probable space group: P -1
;
_chemical_formula_sum "Si O2"
_cell_formula_units_Z 16
_cell_length_a 11.959204
_cell_length_b 15.043720
_cell_length_c 5.712604
_cell_angle_alpha 88.824927
_cell_angle_beta 122.339513
_cell_angle_gamma 62.640278
_cell_volume 720.994514
_symmetry_space_group_name_H-M "P -1"
_symmetry_group_IT_number 2
_symmetry_cell_setting 'triclinic'
loop_
_space_group_symop_operation_xyz
x,y,z
-x,-y,-z
loop_
_atom_site_type_symbol
_atom_site_label
_atom_site_fract_x
_atom_site_fract_y
_atom_site_fract_z
Si Si1 0.067337 0.311615 0.052338
Si Si2 0.908807 0.868454 0.189407
Si Si3 0.634944 0.694881 0.409639
Si Si4 0.849634 0.309142 0.200854
Si Si5 0.798650 0.158043 0.666268
Si Si6 0.435568 0.624903 0.415294
Si Si7 0.297537 0.895432 0.934703
Si Si8 0.133305 0.511624 0.533798
O O1 0.217451 0.301990 0.338620
O O2 0.953532 0.299919 0.096604
O O3 0.130828 0.214865 0.943944
O O4 0.949566 0.428431 0.804017
O O5 0.040499 0.801574 0.538335
O O6 0.015826 0.883854 0.124196
O O7 0.764056 0.980829 0.112499
O O8 0.572399 0.646822 0.533379
O O9 0.707512 0.604748 0.297042
O O10 0.486786 0.808969 0.157536
O O11 0.830910 0.407995 0.312420
O O12 0.679795 0.333616 0.942593
O O13 0.685407 0.289583 0.530657
O O14 0.763112 0.117069 0.387988
O O15 0.759312 0.127651 0.876867
O O16 0.500000 0.500000 0.500000
O O17 0.000000 0.500000 0.500000
#
# Coordination Sequence:
#
# PCOD9062439 Si02
#       8
#     2   2   2   2   2   2   2   2
#     4  11  24  44  69 100 142 184 240 287 355 435
#     4  11  24  44  73  98 139 190 246 287 350 429
#     4  11  25  44  66 105 142 182 234 294 364 420
#     4  11  24  44  68 104 134 190 239 287 353 432
#     4  11  24  46  70 108 143 188 242 291 361 425
#     4  11  25  42  71 105 145 183 229 302 360 422
#     4  11  27  45  73 107 144 189 236 309 354 412
#     4  11  24  40  73  98 138 189 235 288 354 437
#
# _framework density 22.191566999999999
#
# number of rings (size 3 to 8) (size 9 to 14) (size 15 to 20)
#    0.000    1.000    2.500    3.375    7.000    2.000 
#    0.000    0.625    0.000    0.000    0.000    0.000 
#    0.000    0.000    0.000    0.000    0.000    0.000 
#
# Total GULP energy -89340.436334 kJ/mol
# GULP energy per Si atom -5583.777271 kJ/mol
# Density = 2.214106 g / cm^3
# Si number density = 22.191567 Si / 1000 Ang^3
#
#
#
# Elastic Constant Matrix: (Units=GPa)
#
#
# Indices 1 2 3 4 5 6 
#
# 1 45.8273 -1.9352 1.5623 -0.2570 2.7687 -9.4410
# 2 -1.9352 151.3975 27.8954 -23.5387 1.5892 -28.3108
# 3 1.5623 27.8954 73.1660 5.7304 -4.1861 0.0365
# 4 -0.2570 -23.5387 5.7304 37.1255 -1.6392 6.7656
# 5 2.7687 1.5892 -4.1861 -1.6392 26.5191 -4.4255
# 6 -9.4410 -28.3108 0.0365 6.7656 -4.4255 30.6550
#
#
#
# Elastic Compliance Matrix: (Units=1/GPa)
#
#
# Indices 1 2 3 4 5 6 
#
# 1 0.023980 0.002368 -0.001506 0.000137 -0.001314 0.009354
# 2 0.002368 0.009871 -0.004222 0.005352 0.000279 0.008710
# 3 -0.001506 -0.004222 0.015781 -0.004466 0.002109 -0.003091
# 4 0.000137 0.005352 -0.004466 0.031382 0.000591 -0.001851
# 5 -0.001314 0.000279 0.002109 0.000591 0.039094 0.005364
# 6 0.009354 0.008710 -0.003091 -0.001851 0.005364 0.044732
#
#
# Mechanical properties :
#
#
# Convention : Reuss Voigt Hill
#
# Bulk Modulus (GPa) = 23.30230 36.15954 29.73092
# Shear Modulus (GPa) = 26.90156 35.05113 30.97635
#
# Velocity S-wave (km/s) = 3.48550 3.97858 3.74018
# Velocity P-wave (km/s) = 5.16930 6.11842 5.66378
#
# Compressibility (1/GPa) = 0.04291422
#
# Stress axis : x y z
#
# Youngs Moduli (GPa) = 41.70210 101.30640 63.36629
#
# Poissons Ratio (x) = -0.23992 0.09540
# Poissons Ratio (y) = -0.09876 0.26750
# Poissons Ratio (z) = 0.06278 0.42767
#
# Static dielectric constant tensor:
#      x y z
#    x 1.955020 0.085800 -0.080080 
#    y 0.085800 1.945770 -0.000160 
#    z -0.080080 -0.000160 1.849110 
# 
# From -- ./inp_files/77972.got.cif
#   From: 2010.05.17/outbox.cif.g08.bks.cpg/sg2_39_cif.got.tgz:77972.got - 2010.06.03 11:33:40.
