data_PCOD9062628
_publ_section_title
;
Structure prediction by ZEFSAII (Michael W. Deem and Ramdas Pophale) SiO2 
 PCOD9062628
Probable space group: P -1
;
_chemical_formula_sum "Si O2"
_cell_formula_units_Z 13
_cell_length_a 5.580010
_cell_length_b 6.773571
_cell_length_c 18.936321
_cell_angle_alpha 120.932842
_cell_angle_beta 71.961202
_cell_angle_gamma 105.060196
_cell_volume 579.291495
_symmetry_space_group_name_H-M "P -1"
_symmetry_group_IT_number 2
_symmetry_cell_setting 'triclinic'
loop_
_space_group_symop_operation_xyz
x,y,z
-x,-y,-z
loop_
_atom_site_type_symbol
_atom_site_label
_atom_site_fract_x
_atom_site_fract_y
_atom_site_fract_z
Si Si1 0.000000 0.500000 0.000000
Si Si2 0.102501 0.935465 0.403004
Si Si3 0.660538 0.829572 0.874070
Si Si4 0.343100 0.238936 0.979075
Si Si5 0.215664 0.431878 0.822248
Si Si6 0.043559 0.589470 0.715066
Si Si7 0.697347 0.044422 0.339059
O O1 0.889294 0.747371 0.048694
O O2 0.993006 0.525505 0.092600
O O3 0.084369 0.656755 0.346550
O O4 0.402040 0.025800 0.385154
O O5 0.908249 0.020339 0.377157
O O6 0.000000 0.000000 0.500000
O O7 0.457863 0.599088 0.857853
O O8 0.848348 0.768527 0.785646
O O9 0.529082 0.053480 0.907389
O O10 0.744791 0.846162 0.950836
O O11 0.500000 0.500000 0.000000
O O12 0.273173 0.171948 0.755726
O O13 0.157871 0.531078 0.769273
O O14 0.235275 0.716453 0.664924
#
# Coordination Sequence:
#
# PCOD9062628 Si02
#       7
#     1   2   2   2   2   2   2
#     4  12  24  40  62  92 140 192 244 304 360 410
#     4  11  26  51  78 113 148 183 241 306 369 460
#     4  11  24  42  63  91 139 189 245 304 361 422
#     4  11  25  38  60  92 130 187 251 303 352 420
#     4  11  25  41  65  99 143 189 252 305 360 426
#     4  11  26  44  72 104 147 191 243 300 376 435
#     4  11  27  45  77 109 147 194 237 300 378 447
#
# _framework density 22.441209000000001
#
# number of rings (size 3 to 8) (size 9 to 14) (size 15 to 20)
#    0.000    0.923    4.615    0.462    6.462    1.846 
#    0.000    0.000    0.000    0.000    0.000    0.000 
#    0.000    0.000    0.000    0.000    0.000    0.000 
#
# Total GULP energy -72399.035856 kJ/mol
# GULP energy per Si atom -5569.156604 kJ/mol
# Density = 2.239013 g / cm^3
# Si number density = 22.441209 Si / 1000 Ang^3
#
#
#
# Elastic Constant Matrix: (Units=GPa)
#
#
# Indices 1 2 3 4 5 6 
#
# 1 103.5836 48.4914 41.3242 -18.4672 -17.4518 -3.3748
# 2 48.4914 97.4024 26.0970 -26.7168 -2.5820 1.8038
# 3 41.3242 26.0970 113.7760 -20.7872 -18.7033 -6.2269
# 4 -18.4672 -26.7168 -20.7872 19.3953 3.0350 -10.0247
# 5 -17.4518 -2.5820 -18.7033 3.0350 32.7285 -5.4539
# 6 -3.3748 1.8038 -6.2269 -10.0247 -5.4539 44.5704
#
#
#
# Elastic Compliance Matrix: (Units=1/GPa)
#
#
# Indices 1 2 3 4 5 6 
#
# 1 0.015155 -0.005412 -0.002047 0.005355 0.006501 0.003080
# 2 -0.005412 0.019730 0.002508 0.027631 -0.001598 0.005161
# 3 -0.002047 0.002508 0.013790 0.018733 0.006360 0.006662
# 4 0.005355 0.027631 0.018733 0.130056 0.009057 0.032265
# 5 0.006501 -0.001598 0.006360 0.009057 0.038045 0.008138
# 6 0.003080 0.005161 0.006662 0.032265 0.008138 0.031644
#
#
# Mechanical properties :
#
#
# Convention : Reuss Voigt Hill
#
# Bulk Modulus (GPa) = 25.79142 60.73191 43.26167
# Shear Modulus (GPa) = 18.43341 32.59547 25.51444
#
# Velocity S-wave (km/s) = 2.86913 3.81528 3.37552
# Velocity P-wave (km/s) = 4.74276 6.82128 5.87468
#
# Compressibility (1/GPa) = 0.03877258
#
# Stress axis : x y z
#
# Youngs Moduli (GPa) = 65.98607 50.68438 72.51518
#
# Poissons Ratio (x) = 0.27430 0.14846
# Poissons Ratio (y) = 0.35711 -0.18187
# Poissons Ratio (z) = 0.13509 -0.12712
#
# Static dielectric constant tensor:
#      x y z
#    x 2.510570 0.094830 0.016360 
#    y 0.094830 1.903560 0.010820 
#    z 0.016360 0.010820 1.826930 
# 
# From -- ./inp_files/478240.got.cif
#   From: 2010.05.17/outbox.cif.g08.bks.cpg/sg2_240_cif.got.tgz:478240.got - 2010.06.03 11:33:40.
