data_PCOD9063268
_publ_section_title
;
Structure prediction by ZEFSAII (Michael W. Deem and Ramdas Pophale) SiO2 
 PCOD9063268
Probable space group: P -1
;
_chemical_formula_sum "Si O2"
_cell_formula_units_Z 16
_cell_length_a 11.957594
_cell_length_b 12.394610
_cell_length_c 5.609265
_cell_angle_alpha 96.670305
_cell_angle_beta 61.885355
_cell_angle_gamma 123.521860
_cell_volume 599.444300
_symmetry_space_group_name_H-M "P -1"
_symmetry_group_IT_number 2
_symmetry_cell_setting 'triclinic'
loop_
_space_group_symop_operation_xyz
x,y,z
-x,-y,-z
loop_
_atom_site_type_symbol
_atom_site_label
_atom_site_fract_x
_atom_site_fract_y
_atom_site_fract_z
Si Si1 0.030983 0.806376 0.292599
Si Si2 0.144423 0.101555 0.717395
Si Si3 0.301215 0.952839 0.373517
Si Si4 0.571758 0.206750 0.269448
Si Si5 0.630644 0.606303 0.216426
Si Si6 0.143465 0.449988 0.265510
Si Si7 0.873709 0.303870 0.210730
Si Si8 0.441875 0.685489 0.189406
O O1 0.934950 0.870378 0.411220
O O2 0.947909 0.683324 0.522451
O O3 0.210413 0.909850 0.204008
O O4 0.032889 0.748984 0.022062
O O5 0.232979 0.032414 0.568019
O O6 0.258420 0.247755 0.747052
O O7 0.000000 0.000000 0.000000
O O8 0.482207 0.051296 0.266087
O O9 0.239812 0.814235 0.524107
O O10 0.756764 0.294108 0.129850
O O11 0.523504 0.232134 0.580811
O O12 0.527178 0.248495 0.082904
O O13 0.500000 0.500000 0.500000
O O14 0.541702 0.625487 0.099848
O O15 0.733806 0.555517 0.020460
O O16 0.258023 0.574717 0.346959
O O17 0.008098 0.436661 0.238979
#
# Coordination Sequence:
#
# PCOD9063268 Si02
#       8
#     2   2   2   2   2   2   2   2
#     4  11  24  43  74 105 151 193 249 313 388 452
#     4  12  22  42  74 109 152 190 249 316 386 457
#     4  11  25  44  72 107 148 196 252 315 380 454
#     4  12  30  48  76 109 155 201 259 312 370 450
#     4  12  25  48  79 112 158 197 246 319 396 463
#     4  11  26  47  77 106 145 196 251 312 386 458
#     4  11  26  50  72 106 146 205 252 312 378 445
#     4  12  29  49  76 113 150 198 252 312 377 454
#
# _framework density 26.691383999999999
#
# number of rings (size 3 to 8) (size 9 to 14) (size 15 to 20)
#    0.000    0.500    3.750    3.375   10.500    1.500 
#    0.000    0.000    0.000    0.000    0.000    0.000 
#    0.000    0.000    0.000    0.000    0.000    0.000 
#
# Total GULP energy -89588.869736 kJ/mol
# GULP energy per Si atom -5599.304359 kJ/mol
# Density = 2.663063 g / cm^3
# Si number density = 26.691384 Si / 1000 Ang^3
#
#
#
# Elastic Constant Matrix: (Units=GPa)
#
#
# Indices 1 2 3 4 5 6 
#
# 1 139.2163 22.2591 44.2328 -6.2749 4.3861 33.3727
# 2 22.2591 161.1694 45.4312 -7.8677 7.2402 46.8532
# 3 44.2328 45.4312 60.4237 -6.9566 10.9725 11.1284
# 4 -6.2749 -7.8677 -6.9566 54.0650 -1.0986 -3.6172
# 5 4.3861 7.2402 10.9725 -1.0986 47.7944 0.0698
# 6 33.3727 46.8532 11.1284 -3.6172 0.0698 56.0042
#
#
#
# Elastic Compliance Matrix: (Units=1/GPa)
#
#
# Indices 1 2 3 4 5 6 
#
# 1 0.011568 0.003367 -0.009678 0.000080 0.000663 -0.007783
# 2 0.003367 0.011026 -0.009015 0.000207 0.000109 -0.009427
# 3 -0.009678 -0.009015 0.030091 0.001842 -0.004623 0.007454
# 4 0.000080 0.000207 0.001842 0.018814 -0.000030 0.000628
# 5 0.000663 0.000109 -0.004623 -0.000030 0.021906 0.000403
# 6 -0.007783 -0.009427 0.007454 0.000628 0.000403 0.028939
#
#
# Mechanical properties :
#
#
# Convention : Reuss Voigt Hill
#
# Bulk Modulus (GPa) = 45.38458 64.96173 55.17315
# Shear Modulus (GPa) = 31.18364 48.16513 39.67439
#
# Velocity S-wave (km/s) = 3.42175 4.25257 3.85958
# Velocity P-wave (km/s) = 5.71416 6.96444 6.37005
#
# Compressibility (1/GPa) = 0.02203392
#
# Stress axis : x y z
#
# Youngs Moduli (GPa) = 86.44546 90.69093 33.23227
#
# Poissons Ratio (x) = -0.30535 0.32161
# Poissons Ratio (y) = -0.29106 0.29959
# Poissons Ratio (z) = 0.83659 0.81759
#
# Static dielectric constant tensor:
#      x y z
#    x 2.612960 1.203780 -0.021380 
#    y 1.203780 5.049800 -0.016260 
#    z -0.021380 -0.016260 2.093800 
# 
# From -- ./inp_files/69019.got.cif
#   From: 2010.05.17/outbox.cif.g08.bks.cpg/sg2_35_cif.got.tgz:69019.got - 2010.06.03 11:33:40.
