data_PCOD9063695
_publ_section_title
;
Structure prediction by ZEFSAII (Michael W. Deem and Ramdas Pophale) SiO2 
 PCOD9063695
Probable space group: P -1
;
_chemical_formula_sum "Si O2"
_cell_formula_units_Z 14
_cell_length_a 12.847492
_cell_length_b 7.922428
_cell_length_c 12.427057
_cell_angle_alpha 128.201286
_cell_angle_beta 36.662156
_cell_angle_gamma 121.084458
_cell_volume 592.953949
_symmetry_space_group_name_H-M "P -1"
_symmetry_group_IT_number 2
_symmetry_cell_setting 'triclinic'
loop_
_space_group_symop_operation_xyz
x,y,z
-x,-y,-z
loop_
_atom_site_type_symbol
_atom_site_label
_atom_site_fract_x
_atom_site_fract_y
_atom_site_fract_z
Si Si1 0.616622 0.350837 0.115228
Si Si2 0.470782 0.746264 0.089444
Si Si3 0.097080 0.576916 0.608913
Si Si4 0.147463 0.201214 0.259792
Si Si5 0.632349 0.838766 0.574389
Si Si6 0.976960 0.246520 0.754745
Si Si7 0.546454 0.241594 0.525913
O O1 0.611666 0.255593 0.961720
O O2 0.455766 0.245454 0.274997
O O3 0.573318 0.599728 0.246013
O O4 0.809799 0.320872 0.990019
O O5 0.664579 0.853361 0.961710
O O6 0.500000 0.500000 0.000000
O O7 0.365993 0.900361 0.315652
O O8 0.170769 0.419579 0.394865
O O9 0.254392 0.691918 0.588231
O O10 0.978851 0.744405 0.712207
O O11 0.988998 0.412507 0.711181
O O12 0.072109 0.007259 0.319370
O O13 0.507505 0.745879 0.548397
O O14 0.826061 0.757324 0.366006
O O15 0.500000 0.000000 0.500000
#
# Coordination Sequence:
#
# PCOD9063695 Si02
#       7
#     2   2   2   2   2   2   2
#     4  12  26  47  73 109 144 191 248 300 363 438
#     4  12  25  45  73 110 149 189 245 308 361 433
#     4  11  25  44  72 108 147 191 243 304 363 438
#     4  11  24  44  72 112 145 186 246 305 368 429
#     4  12  27  47  75 104 151 194 240 300 371 433
#     4  12  26  45  76 109 145 188 244 305 365 433
#     4  12  26  51  73 104 151 198 240 302 368 440
#
# _framework density 23.610603999999999
#
# number of rings (size 3 to 8) (size 9 to 14) (size 15 to 20)
#    0.000    0.286    4.286    3.857    8.000    0.571 
#    0.000    1.429    0.000    0.000    0.000    0.000 
#    0.000    0.000    0.000    0.000    0.000    0.000 
#
# Total GULP energy -78371.517339 kJ/mol
# GULP energy per Si atom -5597.965524 kJ/mol
# Density = 2.355687 g / cm^3
# Si number density = 23.610604 Si / 1000 Ang^3
#
#
#
# Elastic Constant Matrix: (Units=GPa)
#
#
# Indices 1 2 3 4 5 6 
#
# 1 136.1631 46.9835 46.6561 -2.5209 -17.5227 13.1014
# 2 46.9835 147.6644 35.2275 -1.8546 -21.9480 -5.1173
# 3 46.6561 35.2275 65.3736 2.1418 -31.2209 15.8250
# 4 -2.5209 -1.8546 2.1418 40.0392 3.4987 -3.7699
# 5 -17.5227 -21.9480 -31.2209 3.4987 40.2200 0.5387
# 6 13.1014 -5.1173 15.8250 -3.7699 0.5387 34.4436
#
#
#
# Elastic Compliance Matrix: (Units=1/GPa)
#
#
# Indices 1 2 3 4 5 6 
#
# 1 0.010282 -0.001884 -0.007284 0.001085 -0.002288 -0.000690
# 2 -0.001884 0.008545 -0.003873 0.000783 0.000716 0.003840
# 3 -0.007284 -0.003873 0.039381 -0.006628 0.026087 -0.017032
# 4 0.001085 0.000783 -0.006628 0.026556 -0.006632 0.005759
# 5 -0.002288 0.000716 0.026087 -0.006632 0.045251 -0.012443
# 6 -0.000690 0.003840 -0.017032 0.005759 -0.012443 0.038516
#
#
# Mechanical properties :
#
#
# Convention : Reuss Voigt Hill
#
# Bulk Modulus (GPa) = 31.12841 67.43726 49.28283
# Shear Modulus (GPa) = 24.35182 37.62950 30.99066
#
# Velocity S-wave (km/s) = 3.21502 3.99652 3.62688
# Velocity P-wave (km/s) = 5.19562 7.06544 6.20141
#
# Compressibility (1/GPa) = 0.03212500
#
# Stress axis : x y z
#
# Youngs Moduli (GPa) = 97.25538 117.02796 25.39281
#
# Poissons Ratio (x) = 0.22050 0.18497
# Poissons Ratio (y) = 0.18325 0.09835
# Poissons Ratio (z) = 0.70843 0.45328
#
# Static dielectric constant tensor:
#      x y z
#    x 1.932700 -0.064430 -0.002230 
#    y -0.064430 1.952290 -0.011250 
#    z -0.002230 -0.011250 1.896870 
# 
# From -- ./inp_files/419879.got.cif
#   From: 2010.05.17/outbox.cif.g08.bks.cpg/sg2_210_cif.got.tgz:419879.got - 2010.06.03 11:33:40.
