data_PCOD9063888
_publ_section_title
;
Structure prediction by ZEFSAII (Michael W. Deem and Ramdas Pophale) SiO2 
 PCOD9063888
Probable space group: P -1
;
_chemical_formula_sum "Si O2"
_cell_formula_units_Z 14
_cell_length_a 24.963358
_cell_length_b 5.033945
_cell_length_c 14.471595
_cell_angle_alpha 58.516957
_cell_angle_beta 19.248055
_cell_angle_gamma 63.834579
_cell_volume 502.401951
_symmetry_space_group_name_H-M "P -1"
_symmetry_group_IT_number 2
_symmetry_cell_setting 'triclinic'
loop_
_space_group_symop_operation_xyz
x,y,z
-x,-y,-z
loop_
_atom_site_type_symbol
_atom_site_label
_atom_site_fract_x
_atom_site_fract_y
_atom_site_fract_z
Si Si1 0.777049 0.589963 0.882185
Si Si2 0.553479 0.798510 0.791752
Si Si3 0.563977 0.030097 0.240811
Si Si4 0.180200 0.716118 0.674805
Si Si5 0.039348 0.484518 0.224382
Si Si6 0.245867 0.942269 0.318990
Si Si7 0.770018 0.838629 0.184183
O O1 0.711750 0.237225 0.018522
O O2 0.627031 0.722438 0.154628
O O3 0.920250 0.608384 0.720728
O O4 0.821542 0.795930 0.679712
O O5 0.475041 0.781958 0.821448
O O6 0.745976 0.961339 0.447140
O O7 0.500000 0.500000 0.000000
O O8 0.443253 0.034724 0.973269
O O9 0.395741 0.009835 0.576493
O O10 0.216470 0.845568 0.489566
O O11 0.905275 0.137735 0.943275
O O12 0.266116 0.458058 0.633719
O O13 0.153371 0.314450 0.001006
O O14 0.851357 0.369091 0.520274
O O15 0.000000 0.500000 0.000000
#
# Coordination Sequence:
#
# PCOD9063888 Si02
#       7
#     2   2   2   2   2   2   2
#     4  11  25  47  74 108 144 204 259 312 371 445
#     4  11  24  44  76 113 151 205 255 312 384 461
#     4  11  24  45  75 104 154 193 252 315 380 454
#     4  12  25  46  78 115 156 196 250 320 387 458
#     4  12  27  45  73 108 152 201 256 313 370 457
#     4  11  25  46  74 109 154 199 255 312 382 453
#     4  12  26  46  72 112 154 196 252 309 396 446
#
# _framework density 27.866135
#
# number of rings (size 3 to 8) (size 9 to 14) (size 15 to 20)
#    0.000    0.571    1.429    6.857    2.000    6.286 
#    0.000    5.000    0.000    0.000    0.000    0.000 
#    0.000    0.000    0.000    0.000    0.000    0.000 
#
# Total GULP energy -78340.198010 kJ/mol
# GULP energy per Si atom -5595.728429 kJ/mol
# Density = 2.780271 g / cm^3
# Si number density = 27.866135 Si / 1000 Ang^3
#
#
#
# Elastic Constant Matrix: (Units=GPa)
#
#
# Indices 1 2 3 4 5 6 
#
# 1 176.4909 39.2008 30.2835 -12.7969 1.8196 -14.5849
# 2 39.2008 134.4907 29.8990 -18.1602 7.2677 -1.3399
# 3 30.2835 29.8990 119.7035 -4.9524 7.8380 1.4900
# 4 -12.7969 -18.1602 -4.9524 49.0785 2.8229 0.1058
# 5 1.8196 7.2677 7.8380 2.8229 47.5464 -9.2147
# 6 -14.5849 -1.3399 1.4900 0.1058 -9.2147 54.9289
#
#
#
# Elastic Compliance Matrix: (Units=1/GPa)
#
#
# Indices 1 2 3 4 5 6 
#
# 1 0.006423 -0.001466 -0.001272 0.000973 0.000476 0.001782
# 2 -0.001466 0.008648 -0.001591 0.002729 -0.001233 -0.000347
# 3 -0.001272 -0.001591 0.009179 0.000088 -0.001393 -0.000859
# 4 0.000973 0.002729 0.000088 0.021749 -0.001763 -0.000015
# 5 0.000476 -0.001233 -0.001393 -0.001763 0.022288 0.003876
# 6 0.001782 -0.000347 -0.000859 -0.000015 0.003876 0.019344
#
#
# Mechanical properties :
#
#
# Convention : Reuss Voigt Hill
#
# Bulk Modulus (GPa) = 64.13725 69.93909 67.03817
# Shear Modulus (GPa) = 49.26810 52.39755 50.83283
#
# Velocity S-wave (km/s) = 4.20935 4.34098 4.27567
# Velocity P-wave (km/s) = 6.83308 7.09071 6.96309
#
# Compressibility (1/GPa) = 0.01559156
#
# Stress axis : x y z
#
# Youngs Moduli (GPa) = 155.69713 115.63179 108.94767
#
# Poissons Ratio (x) = 0.16951 0.13856
# Poissons Ratio (y) = 0.22824 0.17337
# Poissons Ratio (z) = 0.19801 0.18400
#
# Static dielectric constant tensor:
#      x y z
#    x 2.149420 0.047220 0.041950 
#    y 0.047220 2.204490 0.068430 
#    z 0.041950 0.068430 2.229630 
# 
# From -- ./inp_files/542096.got.cif
#   From: 2010.05.17/outbox.cif.g08.bks.cpg/sg2_272_cif.got.tgz:542096.got - 2010.06.03 11:33:40.
