data_PCOD9063759
_publ_section_title
;
Structure prediction by ZEFSAII (Michael W. Deem and Ramdas Pophale) SiO2 
 PCOD9063759
Probable space group: P -1
;
_chemical_formula_sum "Si O2"
_cell_formula_units_Z 16
_cell_length_a 8.904672
_cell_length_b 26.607683
_cell_length_c 11.280341
_cell_angle_alpha 152.715177
_cell_angle_beta 140.219000
_cell_angle_gamma 30.860939
_cell_volume 628.293773
_symmetry_space_group_name_H-M "P -1"
_symmetry_group_IT_number 2
_symmetry_cell_setting 'triclinic'
loop_
_space_group_symop_operation_xyz
x,y,z
-x,-y,-z
loop_
_atom_site_type_symbol
_atom_site_label
_atom_site_fract_x
_atom_site_fract_y
_atom_site_fract_z
Si Si1 0.560263 0.184246 0.571175
Si Si2 0.228277 0.339074 0.466402
Si Si3 0.698663 0.893297 0.572341
Si Si4 0.093421 0.124194 0.917691
Si Si5 0.170836 0.834609 0.895501
Si Si6 0.437993 0.474398 0.539802
Si Si7 0.311746 0.539122 0.849435
Si Si8 0.744500 0.823854 0.194307
O O1 0.419172 0.289035 0.596795
O O2 0.340275 0.209633 0.595735
O O3 0.845133 0.160426 0.748680
O O4 0.658717 0.037652 0.274347
O O5 0.317620 0.403592 0.558826
O O6 0.896561 0.469777 0.562066
O O7 0.210623 0.215194 0.164430
O O8 0.840243 0.833716 0.404883
O O9 0.886072 0.925694 0.831926
O O10 0.374779 0.035083 0.650337
O O11 0.936882 0.155620 0.016067
O O12 0.315653 0.683003 0.620370
O O13 0.438484 0.844291 0.071224
O O14 0.500000 0.500000 0.500000
O O15 0.426814 0.546841 0.807128
O O16 0.500000 0.500000 0.000000
O O17 0.999336 0.682634 0.991565
#
# Coordination Sequence:
#
# PCOD9063759 Si02
#       8
#     2   2   2   2   2   2   2   2
#     4  11  25  45  73 110 149 202 263 315 384 456
#     4  12  26  47  76 108 151 200 249 314 382 453
#     4  11  24  44  73 108 151 202 260 318 383 452
#     4  11  25  44  74 109 151 200 258 320 382 455
#     4  12  23  45  70 108 150 199 255 315 388 450
#     4  12  26  48  75 109 154 197 251 310 379 460
#     4  12  30  51  79 116 154 206 256 319 387 460
#     4  11  26  47  70 109 155 198 256 321 382 454
#
# _framework density 25.465796000000001
#
# number of rings (size 3 to 8) (size 9 to 14) (size 15 to 20)
#    0.000    0.500    5.000    1.875    3.500    1.000 
#    2.250    1.875    0.000    0.000    0.000    0.000 
#    0.000    0.000    0.000    0.000    0.000    0.000 
#
# Total GULP energy -89552.396794 kJ/mol
# GULP energy per Si atom -5597.024800 kJ/mol
# Density = 2.540783 g / cm^3
# Si number density = 25.465796 Si / 1000 Ang^3
#
#
#
# Elastic Constant Matrix: (Units=GPa)
#
#
# Indices 1 2 3 4 5 6 
#
# 1 126.3246 36.0607 45.5868 1.1819 -24.7833 19.0696
# 2 36.0607 136.6976 28.0507 -14.1891 -23.2499 24.9180
# 3 45.5868 28.0507 100.9910 -4.2881 -14.3012 11.1109
# 4 1.1819 -14.1891 -4.2881 54.6471 2.3908 -2.2931
# 5 -24.7833 -23.2499 -14.3012 2.3908 46.3727 0.1021
# 6 19.0696 24.9180 11.1109 -2.2931 0.1021 34.1057
#
#
#
# Elastic Compliance Matrix: (Units=1/GPa)
#
#
# Indices 1 2 3 4 5 6 
#
# 1 0.011018 -0.000669 -0.003699 -0.001089 0.004479 -0.004554
# 2 -0.000669 0.009766 -0.001048 0.002023 0.004125 -0.006296
# 3 -0.003699 -0.001048 0.012184 0.000665 0.001224 -0.001095
# 4 -0.001089 0.002023 0.000665 0.018923 -0.000339 0.000188
# 5 0.004479 0.004125 0.001224 -0.000339 0.026434 -0.006019
# 6 -0.004554 -0.006296 -0.001095 0.000188 -0.006019 0.036854
#
#
# Mechanical properties :
#
#
# Convention : Reuss Voigt Hill
#
# Bulk Modulus (GPa) = 45.17153 64.82328 54.99741
# Shear Modulus (GPa) = 37.48386 43.97942 40.73164
#
# Velocity S-wave (km/s) = 3.84074 4.16023 4.00367
# Velocity P-wave (km/s) = 6.11923 6.97043 6.55866
#
# Compressibility (1/GPa) = 0.02213784
#
# Stress axis : x y z
#
# Youngs Moduli (GPa) = 90.76009 102.39278 82.07169
#
# Poissons Ratio (x) = 0.06848 0.30356
# Poissons Ratio (y) = 0.06070 0.08600
# Poissons Ratio (z) = 0.33570 0.10730
#
# Static dielectric constant tensor:
#      x y z
#    x 2.119910 0.040690 0.072890 
#    y 0.040690 1.973000 -0.032820 
#    z 0.072890 -0.032820 2.066360 
# 
# From -- ./inp_files/407365.got.cif
#   From: 2010.05.17/outbox.cif.g08.bks.cpg/sg2_204_cif.got.tgz:407365.got - 2010.06.03 11:33:40.
