data_PCOD9063954
_publ_section_title
;
Structure prediction by ZEFSAII (Michael W. Deem and Ramdas Pophale) SiO2 
 PCOD9063954
Probable space group: P -1
;
_chemical_formula_sum "Si O2"
_cell_formula_units_Z 13
_cell_length_a 12.338552
_cell_length_b 11.973259
_cell_length_c 15.546530
_cell_angle_alpha 145.733382
_cell_angle_beta 28.128633
_cell_angle_gamma 144.756239
_cell_volume 575.280173
_symmetry_space_group_name_H-M "P -1"
_symmetry_group_IT_number 2
_symmetry_cell_setting 'triclinic'
loop_
_space_group_symop_operation_xyz
x,y,z
-x,-y,-z
loop_
_atom_site_type_symbol
_atom_site_label
_atom_site_fract_x
_atom_site_fract_y
_atom_site_fract_z
Si Si1 0.780078 0.840308 0.696455
Si Si2 0.500000 0.500000 0.000000
Si Si3 0.588375 0.095400 0.121096
Si Si4 0.844271 0.651623 0.696238
Si Si5 0.943698 0.272689 0.142542
Si Si6 0.231938 0.757604 0.272268
Si Si7 0.252769 0.990276 0.716065
O O1 0.740849 0.657072 0.677794
O O2 0.055385 0.887760 0.503523
O O3 0.582216 0.784213 0.723651
O O4 0.736206 0.032218 0.900687
O O5 0.358204 0.409924 0.129331
O O6 0.383666 0.702021 0.207858
O O7 0.402184 0.881415 0.155580
O O8 0.766025 0.204765 0.143265
O O9 0.000000 0.500000 0.500000
O O10 0.032522 0.879257 0.733528
O O11 0.053161 0.522890 0.227212
O O12 0.805420 0.160495 0.254545
O O13 0.186065 0.199127 0.922302
O O14 0.500000 0.000000 0.500000
#
# Coordination Sequence:
#
# PCOD9063954 Si02
#       7
#     2   1   2   2   2   2   2
#     4  11  24  45  68 100 135 184 232 277 342 416
#     4  12  22  38  68 100 134 168 222 288 328 408
#     4  11  26  47  70  94 143 184 227 285 336 409
#     4  12  23  41  71 100 132 180 225 279 350 403
#     4  11  25  44  66 104 135 180 231 282 343 408
#     4  12  25  43  70 101 136 181 230 279 349 405
#     4  11  25  40  63 104 142 173 226 288 344 408
#
# _framework density 22.597684999999998
#
# number of rings (size 3 to 8) (size 9 to 14) (size 15 to 20)
#    0.000    0.615    6.154    0.462    6.462    1.846 
#    0.000    3.077    0.000    0.000    0.000    0.000 
#    0.000    0.000    0.000    0.000    0.000    0.000 
#
# Total GULP energy -72461.796951 kJ/mol
# GULP energy per Si atom -5573.984381 kJ/mol
# Density = 2.254625 g / cm^3
# Si number density = 22.597685 Si / 1000 Ang^3
#
#
#
# Elastic Constant Matrix: (Units=GPa)
#
#
# Indices 1 2 3 4 5 6 
#
# 1 173.5522 31.8211 38.3864 -11.2967 -28.1155 -8.0319
# 2 31.8211 80.1380 29.3335 -22.1267 1.4048 -2.1279
# 3 38.3864 29.3335 122.2520 -21.3598 -5.4915 -5.9724
# 4 -11.2967 -22.1267 -21.3598 31.7875 -10.2274 -5.1566
# 5 -28.1155 1.4048 -5.4915 -10.2274 35.3718 6.0631
# 6 -8.0319 -2.1279 -5.9724 -5.1566 6.0631 25.3374
#
#
#
# Elastic Compliance Matrix: (Units=1/GPa)
#
#
# Indices 1 2 3 4 5 6 
#
# 1 0.007680 -0.001919 -0.001077 0.002993 0.006703 0.001025
# 2 -0.001919 0.016722 -0.001452 0.010448 0.000170 0.002539
# 3 -0.001077 -0.001452 0.010271 0.006684 0.002252 0.002779
# 4 0.002993 0.010448 0.006684 0.051068 0.016061 0.009951
# 5 0.006703 0.000170 0.002252 0.016061 0.039175 -0.003435
# 6 0.001025 0.002539 0.002779 0.009951 -0.003435 0.043508
#
#
# Mechanical properties :
#
#
# Convention : Reuss Voigt Hill
#
# Bulk Modulus (GPa) = 38.79653 63.89158 51.34405
# Shear Modulus (GPa) = 26.89424 36.92610 31.91017
#
# Velocity S-wave (km/s) = 3.45357 4.04674 3.76187
# Velocity P-wave (km/s) = 5.75400 7.08306 6.45284
#
# Compressibility (1/GPa) = 0.02577550
#
# Stress axis : x y z
#
# Youngs Moduli (GPa) = 130.20403 59.80312 97.36018
#
# Poissons Ratio (x) = 0.11479 0.10485
# Poissons Ratio (y) = 0.24993 0.14139
# Poissons Ratio (z) = 0.14022 0.08685
#
# Static dielectric constant tensor:
#      x y z
#    x 1.858590 0.025930 -0.039430 
#    y 0.025930 1.819240 0.036890 
#    z -0.039430 0.036890 1.924780 
# 
# From -- ./inp_files/518261.got.cif
#   From: 2010.05.17/outbox.cif.g08.bks.cpg/sg2_260_cif.got.tgz:518261.got - 2010.06.03 11:33:40.
