data_PCOD9063387
_publ_section_title
;
Structure prediction by ZEFSAII (Michael W. Deem and Ramdas Pophale) SiO2 
 PCOD9063387
Probable space group: P -1
;
_chemical_formula_sum "Si O2"
_cell_formula_units_Z 16
_cell_length_a 5.691885
_cell_length_b 5.310680
_cell_length_c 21.238130
_cell_angle_alpha 85.855110
_cell_angle_beta 95.912466
_cell_angle_gamma 84.352545
_cell_volume 633.260537
_symmetry_space_group_name_H-M "P -1"
_symmetry_group_IT_number 2
_symmetry_cell_setting 'triclinic'
loop_
_space_group_symop_operation_xyz
x,y,z
-x,-y,-z
loop_
_atom_site_type_symbol
_atom_site_label
_atom_site_fract_x
_atom_site_fract_y
_atom_site_fract_z
Si Si1 0.934006 0.438321 0.864417
Si Si2 0.300985 0.707334 0.018935
Si Si3 0.399857 0.654172 0.249776
Si Si4 0.729655 0.932971 0.329578
Si Si5 0.155893 0.559604 0.372008
Si Si6 0.800377 0.245489 0.216424
Si Si7 0.344018 0.014159 0.900929
Si Si8 0.599064 0.964214 0.573205
O O1 0.847468 0.441372 0.933527
O O2 0.758243 0.301104 0.817219
O O3 0.981762 0.683211 0.821297
O O4 0.187808 0.274772 0.876826
O O5 0.419483 0.914946 0.060529
O O6 0.500000 0.500000 0.000000
O O7 0.204169 0.861646 0.951958
O O8 0.502574 0.889462 0.281494
O O9 0.251776 0.537113 0.303286
O O10 0.634763 0.474427 0.239361
O O11 0.881656 0.674714 0.359986
O O12 0.885048 0.068020 0.280754
O O13 0.620679 0.073775 0.385228
O O14 0.215760 0.287253 0.410694
O O15 0.289370 0.780827 0.405712
O O16 0.634682 0.135199 0.160621
O O17 0.500000 0.000000 0.500000
#
# Coordination Sequence:
#
# PCOD9063387 Si02
#       8
#     2   2   2   2   2   2   2   2
#     4  12  25  41  68  99 133 179 239 293 375 436
#     4  11  25  47  66  91 133 179 232 298 364 444
#     4  11  24  44  67 102 145 185 241 300 367 439
#     4  11  26  46  73 106 152 193 250 302 375 440
#     4  11  25  45  78 109 153 203 251 308 379 438
#     4  12  24  42  68 100 140 181 236 303 366 442
#     4  11  25  43  66  96 131 179 232 295 369 443
#     4  11  26  48  76 115 156 200 255 311 368 444
#
# _framework density 25.266061000000001
#
# number of rings (size 3 to 8) (size 9 to 14) (size 15 to 20)
#    0.000    0.750    1.250    6.000    3.500    7.000 
#    0.000    1.250    0.000    0.000    0.000    0.000 
#    0.000    0.000    0.000    0.000    0.000    0.000 
#
# Total GULP energy -89614.012073 kJ/mol
# GULP energy per Si atom -5600.875755 kJ/mol
# Density = 2.520855 g / cm^3
# Si number density = 25.266061 Si / 1000 Ang^3
#
#
#
# Elastic Constant Matrix: (Units=GPa)
#
#
# Indices 1 2 3 4 5 6 
#
# 1 53.6659 12.2755 21.3809 -2.2220 1.1813 1.8123
# 2 12.2755 92.0907 44.0595 -9.5700 -3.0556 -2.8083
# 3 21.3809 44.0595 180.2068 -3.8220 6.2825 4.2399
# 4 -2.2220 -9.5700 -3.8220 44.7571 -0.9689 6.1182
# 5 1.1813 -3.0556 6.2825 -0.9689 24.5069 -4.3100
# 6 1.8123 -2.8083 4.2399 6.1182 -4.3100 35.4573
#
#
#
# Elastic Compliance Matrix: (Units=1/GPa)
#
#
# Indices 1 2 3 4 5 6 
#
# 1 0.019858 -0.001762 -0.001855 0.000588 -0.000879 -0.001141
# 2 -0.001762 0.012919 -0.003033 0.002282 0.002814 0.001424
# 3 -0.001855 -0.003033 0.006614 -0.000060 -0.002196 -0.001193
# 4 0.000588 0.002282 -0.000060 0.023388 0.000526 -0.003814
# 5 -0.000879 0.002814 -0.002196 0.000526 0.042774 0.005639
# 6 -0.001141 0.001424 -0.001193 -0.003814 0.005639 0.029860
#
#
# Mechanical properties :
#
#
# Convention : Reuss Voigt Hill
#
# Bulk Modulus (GPa) = 38.32809 53.48837 45.90823
# Shear Modulus (GPa) = 31.76424 37.49409 34.62916
#
# Velocity S-wave (km/s) = 3.54953 3.85641 3.70615
# Velocity P-wave (km/s) = 5.65700 6.40666 6.04346
#
# Compressibility (1/GPa) = 0.02609053
#
# Stress axis : x y z
#
# Youngs Moduli (GPa) = 50.35682 77.40752 151.19144
#
# Poissons Ratio (x) = 0.13642 0.28050
# Poissons Ratio (y) = 0.08875 0.45851
# Poissons Ratio (z) = 0.09343 0.23475
#
# Static dielectric constant tensor:
#      x y z
#    x 2.072950 0.094150 -0.010200 
#    y 0.094150 2.089210 -0.020280 
#    z -0.010200 -0.020280 1.933540 
# 
# From -- ./inp_files/13284.got.cif
#   From: 2010.05.17/outbox.cif.g08.bks.cpg/sg2_7_cif.got.tgz:13284.got - 2010.06.03 11:33:40.
