data_PCOD9063396
_publ_section_title
;
Structure prediction by ZEFSAII (Michael W. Deem and Ramdas Pophale) SiO2 
 PCOD9063396
Probable space group: P -1
;
_chemical_formula_sum "Si O2"
_cell_formula_units_Z 16
_cell_length_a 8.133244
_cell_length_b 21.171884
_cell_length_c 23.343375
_cell_angle_alpha 17.850033
_cell_angle_beta 144.137178
_cell_angle_gamma 137.319998
_cell_volume 706.969871
_symmetry_space_group_name_H-M "P -1"
_symmetry_group_IT_number 2
_symmetry_cell_setting 'triclinic'
loop_
_space_group_symop_operation_xyz
x,y,z
-x,-y,-z
loop_
_atom_site_type_symbol
_atom_site_label
_atom_site_fract_x
_atom_site_fract_y
_atom_site_fract_z
Si Si1 0.889826 0.872340 0.818377
Si Si2 0.276760 0.844917 0.683198
Si Si3 0.245705 0.004982 0.709453
Si Si4 0.030900 0.595737 0.736423
Si Si5 0.288528 0.585916 0.014687
Si Si6 0.828729 0.935718 0.170207
Si Si7 0.118654 0.080082 0.021572
Si Si8 0.091271 0.540252 0.664299
O O1 0.552620 0.949752 0.667332
O O2 0.995682 0.007348 0.682401
O O3 0.081966 0.893831 0.908983
O O4 0.944011 0.623603 0.034816
O O5 0.377729 0.641841 0.927861
O O6 0.227930 0.740492 0.698480
O O7 0.000000 0.000000 0.500000
O O8 0.215855 0.816294 0.822879
O O9 0.255785 0.225012 0.491909
O O10 0.548143 0.941071 0.879516
O O11 0.029990 0.555240 0.702625
O O12 0.563247 0.464906 0.231967
O O13 0.000000 0.500000 0.000000
O O14 0.914564 0.724206 0.415651
O O15 0.032123 0.938107 0.170751
O O16 0.500000 0.000000 0.000000
O O17 0.031311 0.320760 0.811765
O O18 0.000000 0.000000 0.000000
#
# Coordination Sequence:
#
# PCOD9063396 Si02
#       8
#     2   2   2   2   2   2   2   2
#     4  12  25  46  71 107 148 186 251 295 355 441
#     4  12  26  43  70 105 148 199 241 294 361 428
#     4  11  25  43  70 105 142 193 235 300 362 421
#     4  12  24  43  73 104 149 191 242 293 361 426
#     4  11  24  44  67 106 151 192 244 291 360 434
#     4  12  27  47  79 107 141 192 247 301 369 430
#     4  11  26  50  74 105 146 177 242 306 365 434
#     4  11  26  47  74 108 147 191 240 301 363 429
#
# _framework density 22.631798
#
# number of rings (size 3 to 8) (size 9 to 14) (size 15 to 20)
#    0.000    0.500    5.000    2.625    3.500    4.500 
#    0.000    0.000    0.000    0.000    0.000    0.000 
#    0.000    0.000    0.000    0.000    0.000    0.000 
#
# Total GULP energy -89191.989257 kJ/mol
# GULP energy per Si atom -5574.499329 kJ/mol
# Density = 2.258029 g / cm^3
# Si number density = 22.631798 Si / 1000 Ang^3
#
#
#
# Elastic Constant Matrix: (Units=GPa)
#
#
# Indices 1 2 3 4 5 6 
#
# 1 86.8300 37.8180 27.0521 20.3406 -9.6278 4.4035
# 2 37.8180 178.5686 52.8553 15.4185 3.8166 -14.4144
# 3 27.0521 52.8553 127.2199 2.7916 -9.8045 -0.2860
# 4 20.3406 15.4185 2.7916 40.4327 -3.1046 -2.5604
# 5 -9.6278 3.8166 -9.8045 -3.1046 34.5682 5.4412
# 6 4.4035 -14.4144 -0.2860 -2.5604 5.4412 35.3780
#
#
#
# Elastic Compliance Matrix: (Units=1/GPa)
#
#
# Indices 1 2 3 4 5 6 
#
# 1 0.015398 -0.002597 -0.001741 -0.006578 0.004136 -0.004101
# 2 -0.002597 0.007438 -0.002733 -0.001339 -0.003022 0.003700
# 3 -0.001741 -0.002733 0.009551 0.001403 0.002833 -0.001154
# 4 -0.006578 -0.001339 0.001403 0.028668 0.000940 0.002215
# 5 0.004136 -0.003022 0.002833 0.000940 0.032346 -0.006630
# 6 -0.004101 0.003700 -0.001154 0.002215 -0.006630 0.031455
#
#
# Mechanical properties :
#
#
# Convention : Reuss Voigt Hill
#
# Bulk Modulus (GPa) = 54.81302 69.78546 62.29924
# Shear Modulus (GPa) = 34.46383 40.40199 37.43291
#
# Velocity S-wave (km/s) = 3.90655 4.22973 4.07135
# Velocity P-wave (km/s) = 6.67984 7.39975 7.04899
#
# Compressibility (1/GPa) = 0.01824384
#
# Stress axis : x y z
#
# Youngs Moduli (GPa) = 64.94388 134.44527 104.69883
#
# Poissons Ratio (x) = 0.34917 0.18232
# Poissons Ratio (y) = 0.16867 0.28616
# Poissons Ratio (z) = 0.11309 0.36746
#
# Static dielectric constant tensor:
#      x y z
#    x 1.900150 -0.037180 0.022590 
#    y -0.037180 1.847600 -0.008090 
#    z 0.022590 -0.008090 1.911360 
# 
# From -- ./inp_files/608644.got.cif
#   From: 2010.05.17/outbox.cif.g08.bks.cpg/sg2_305_cif.got.tgz:608644.got - 2010.06.03 11:33:40.
