data_PCOD9063762
_publ_section_title
;
Structure prediction by ZEFSAII (Michael W. Deem and Ramdas Pophale) SiO2 
 PCOD9063762
Probable space group: P -1
;
_chemical_formula_sum "Si O2"
_cell_formula_units_Z 15
_cell_length_a 11.311657
_cell_length_b 9.056878
_cell_length_c 7.410947
_cell_angle_alpha 84.796616
_cell_angle_beta 82.672028
_cell_angle_gamma 54.277971
_cell_volume 611.236415
_symmetry_space_group_name_H-M "P -1"
_symmetry_group_IT_number 2
_symmetry_cell_setting 'triclinic'
loop_
_space_group_symop_operation_xyz
x,y,z
-x,-y,-z
loop_
_atom_site_type_symbol
_atom_site_label
_atom_site_fract_x
_atom_site_fract_y
_atom_site_fract_z
Si Si1 0.636776 0.613093 0.173707
Si Si2 0.963620 0.356195 0.066590
Si Si3 0.616826 0.306740 0.269264
Si Si4 0.500000 0.000000 0.000000
Si Si5 0.161658 0.948524 0.458877
Si Si6 0.893689 0.697542 0.581819
Si Si7 0.398402 0.217425 0.455731
Si Si8 0.773150 0.012888 0.970297
O O1 0.791925 0.461736 0.073140
O O2 0.557197 0.513877 0.226708
O O3 0.547750 0.796636 0.060499
O O4 0.659184 0.675358 0.357059
O O5 0.015933 0.305615 0.268253
O O6 0.066960 0.160450 0.976280
O O7 0.000000 0.500000 0.000000
O O8 0.724210 0.230114 0.430077
O O9 0.494371 0.273136 0.337602
O O10 0.710270 0.180415 0.097401
O O11 0.329888 0.059237 0.994572
O O12 0.215317 0.934519 0.243800
O O13 0.154987 0.118249 0.531757
O O14 0.000000 0.000000 0.500000
O O15 0.737920 0.732777 0.645207
O O16 0.000000 0.500000 0.500000
O O17 0.500000 0.000000 0.500000
#
# Coordination Sequence:
#
# PCOD9063762 Si02
#       8
#     2   2   2   1   2   2   2   2
#     4  12  27  49  75 112 156 205 263 325 390 473
#     4  11  24  44  73 109 149 196 258 324 377 464
#     4  12  27  49  80 115 157 210 256 324 407 465
#     4  12  26  48  76 108 160 196 262 324 382 476
#     4  11  26  48  75 114 159 198 256 326 382 467
#     4  11  24  45  74 111 141 202 263 307 388 454
#     4  12  25  46  79 112 152 207 264 322 386 472
#     4  11  27  48  77 116 156 202 259 323 396 465
#
# _framework density 24.540420999999998
#
# number of rings (size 3 to 8) (size 9 to 14) (size 15 to 20)
#    0.000    0.533    4.000    3.600    7.467    2.667 
#    0.000    1.333    0.000    0.000    0.000    0.000 
#    0.000    0.000    0.000    0.000    0.000    0.000 
#
# Total GULP energy -83777.752277 kJ/mol
# GULP energy per Si atom -5585.183485 kJ/mol
# Density = 2.448457 g / cm^3
# Si number density = 24.540421 Si / 1000 Ang^3
#
#
#
# Elastic Constant Matrix: (Units=GPa)
#
#
# Indices 1 2 3 4 5 6 
#
# 1 114.4234 49.7789 9.0405 -22.0517 -32.5720 6.2526
# 2 49.7789 172.4153 37.7610 -29.3763 -13.9415 2.9802
# 3 9.0405 37.7610 76.1552 -4.2196 -11.5134 4.2606
# 4 -22.0517 -29.3763 -4.2196 34.8872 8.2658 -3.6420
# 5 -32.5720 -13.9415 -11.5134 8.2658 28.0865 -9.3377
# 6 6.2526 2.9802 4.2606 -3.6420 -9.3377 42.8477
#
#
#
# Elastic Compliance Matrix: (Units=1/GPa)
#
#
# Indices 1 2 3 4 5 6 
#
# 1 0.015157 -0.002946 0.002269 0.003632 0.016535 0.001680
# 2 -0.002946 0.008157 -0.003778 0.005128 -0.002373 0.000157
# 3 0.002269 -0.003778 0.015812 -0.001669 0.007693 -0.000106
# 4 0.003632 0.005128 -0.001669 0.036198 -0.004093 0.001464
# 5 0.016535 -0.002373 0.007693 -0.004093 0.061282 0.009994
# 6 0.001680 0.000157 -0.000106 0.001464 0.009994 0.025396
#
#
# Mechanical properties :
#
#
# Convention : Reuss Voigt Hill
#
# Bulk Modulus (GPa) = 33.09742 61.79496 47.44619
# Shear Modulus (GPa) = 27.62660 38.92518 33.27589
#
# Velocity S-wave (km/s) = 3.35887 3.98699 3.68633
# Velocity P-wave (km/s) = 5.34405 6.81398 6.12328
#
# Compressibility (1/GPa) = 0.03021383
#
# Stress axis : x y z
#
# Youngs Moduli (GPa) = 65.97691 122.59174 63.24403
#
# Poissons Ratio (x) = 0.36117 -0.14347
# Poissons Ratio (y) = 0.19437 0.23896
# Poissons Ratio (z) = -0.14967 0.46320
#
# Static dielectric constant tensor:
#      x y z
#    x 1.930150 -0.019820 -0.009750 
#    y -0.019820 2.009900 0.015450 
#    z -0.009750 0.015450 1.895730 
# 
# From -- ./inp_files/238364.got.cif
#   From: 2010.05.17/outbox.cif.g08.bks.cpg/sg2_120_cif.got.tgz:238364.got - 2010.06.03 11:33:40.
