data_PCOD9063036
_publ_section_title
;
Structure prediction by ZEFSAII (Michael W. Deem and Ramdas Pophale) SiO2 
 PCOD9063036
Probable space group: P -1
;
_chemical_formula_sum "Si O2"
_cell_formula_units_Z 14
_cell_length_a 10.799979
_cell_length_b 10.035645
_cell_length_c 9.182155
_cell_angle_alpha 64.170068
_cell_angle_beta 115.260089
_cell_angle_gamma 69.884702
_cell_volume 615.025310
_symmetry_space_group_name_H-M "P -1"
_symmetry_group_IT_number 2
_symmetry_cell_setting 'triclinic'
loop_
_space_group_symop_operation_xyz
x,y,z
-x,-y,-z
loop_
_atom_site_type_symbol
_atom_site_label
_atom_site_fract_x
_atom_site_fract_y
_atom_site_fract_z
Si Si1 0.272267 0.426906 0.728395
Si Si2 0.504718 0.163372 0.488116
Si Si3 0.744569 0.218971 0.396364
Si Si4 0.892478 0.432718 0.929495
Si Si5 0.364214 0.896862 0.088810
Si Si6 0.858675 0.149997 0.165022
Si Si7 0.063321 0.323945 0.775001
O O1 0.310278 0.570861 0.715637
O O2 0.455776 0.225210 0.858438
O O3 0.174913 0.398069 0.817776
O O4 0.119283 0.527135 0.478392
O O5 0.615564 0.194512 0.423197
O O6 0.305836 0.371690 0.302150
O O7 0.589223 0.106746 0.718717
O O8 0.500000 0.000000 0.500000
O O9 0.765185 0.168517 0.259954
O O10 0.944403 0.061189 0.639642
O O11 0.000367 0.298007 0.906752
O O12 0.885312 0.306551 0.101250
O O13 0.000000 0.500000 0.000000
O O14 0.268680 0.807013 0.052560
O O15 0.207369 0.121667 0.859485
#
# Coordination Sequence:
#
# PCOD9063036 Si02
#       7
#     2   2   2   2   2   2   2
#     4  11  24  43  71 104 141 189 231 292 349 421
#     4  12  28  46  72 105 142 186 243 293 357 429
#     4  11  25  48  70 105 147 183 241 293 352 432
#     4  12  25  46  70 101 144 190 236 295 357 419
#     4  12  25  46  74 106 140 189 240 295 350 428
#     4  11  26  44  75 104 142 193 235 293 362 411
#     4  11  24  43  69 104 145 181 237 290 349 416
#
# _framework density 22.763289
#
# number of rings (size 3 to 8) (size 9 to 14) (size 15 to 20)
#    0.000    0.571    2.857    4.714    2.000    9.143 
#    0.000    0.000    0.000    0.000    0.000    0.000 
#    0.000    0.000    0.000    0.000    0.000    0.000 
#
# Total GULP energy -78353.456315 kJ/mol
# GULP energy per Si atom -5596.675451 kJ/mol
# Density = 2.271148 g / cm^3
# Si number density = 22.763289 Si / 1000 Ang^3
#
#
#
# Elastic Constant Matrix: (Units=GPa)
#
#
# Indices 1 2 3 4 5 6 
#
# 1 151.1926 50.7605 29.1943 5.4762 10.3081 -0.2762
# 2 50.7605 91.6267 15.9167 -9.1832 22.2900 -1.9869
# 3 29.1943 15.9167 73.0291 -6.1825 27.4730 -13.9557
# 4 5.4762 -9.1832 -6.1825 38.4317 -5.7275 9.2752
# 5 10.3081 22.2900 27.4730 -5.7275 35.2265 -8.6383
# 6 -0.2762 -1.9869 -13.9557 9.2752 -8.6383 43.1936
#
#
#
# Elastic Compliance Matrix: (Units=1/GPa)
#
#
# Indices 1 2 3 4 5 6 
#
# 1 0.009074 -0.005435 -0.003995 -0.002671 0.003410 -0.000227
# 2 -0.005435 0.016390 0.002631 0.003874 -0.010539 -0.001370
# 3 -0.003995 0.002631 0.021632 0.001401 -0.016273 0.003529
# 4 -0.002671 0.003874 0.001401 0.028966 0.000602 -0.005486
# 5 0.003410 -0.010539 -0.016273 0.000602 0.047755 0.003701
# 6 -0.000227 -0.001370 0.003529 -0.005486 0.003701 0.026145
#
#
# Mechanical properties :
#
#
# Convention : Reuss Voigt Hill
#
# Bulk Modulus (GPa) = 29.85253 56.39903 43.12578
# Shear Modulus (GPa) = 28.61619 38.03547 33.32583
#
# Velocity S-wave (km/s) = 3.54944 4.09211 3.83040
# Velocity P-wave (km/s) = 5.47182 6.86712 6.20879
#
# Compressibility (1/GPa) = 0.03349800
#
# Stress axis : x y z
#
# Youngs Moduli (GPa) = 110.20305 61.01230 46.22851
#
# Poissons Ratio (x) = 0.33161 0.18469
# Poissons Ratio (y) = 0.59897 -0.12164
# Poissons Ratio (z) = 0.44028 -0.16054
#
# Static dielectric constant tensor:
#      x y z
#    x 1.828520 0.026370 0.006880 
#    y 0.026370 1.872990 0.000870 
#    z 0.006880 0.000870 1.853770 
# 
# From -- ./inp_files/243147.got.cif
#   From: 2010.05.17/outbox.cif.g08.bks.cpg/sg2_122_cif.got.tgz:243147.got - 2010.06.03 11:33:40.
