data_PCOD9063947
_publ_section_title
;
Structure prediction by ZEFSAII (Michael W. Deem and Ramdas Pophale) SiO2 
 PCOD9063947
Probable space group: P -1
;
_chemical_formula_sum "Si O2"
_cell_formula_units_Z 16
_cell_length_a 24.535224
_cell_length_b 20.787230
_cell_length_c 8.961338
_cell_angle_alpha 150.323963
_cell_angle_beta 31.345482
_cell_angle_gamma 158.279987
_cell_volume 809.511483
_symmetry_space_group_name_H-M "P -1"
_symmetry_group_IT_number 2
_symmetry_cell_setting 'triclinic'
loop_
_space_group_symop_operation_xyz
x,y,z
-x,-y,-z
loop_
_atom_site_type_symbol
_atom_site_label
_atom_site_fract_x
_atom_site_fract_y
_atom_site_fract_z
Si Si1 0.899401 0.789266 0.863092
Si Si2 0.573180 0.683344 0.787229
Si Si3 0.446009 0.818765 0.189306
Si Si4 0.560341 0.931282 0.810223
Si Si5 0.082429 0.459467 0.319953
Si Si6 0.074350 0.691025 0.293715
Si Si7 0.566779 0.437385 0.804419
Si Si8 0.880156 0.805558 0.302307
O O1 0.743818 0.627815 0.809354
O O2 0.995525 0.747007 0.525014
O O3 0.877129 0.787012 0.090420
O O4 0.000000 0.000000 0.000000
O O5 0.500000 0.500000 0.500000
O O6 0.736077 0.765971 0.595863
O O7 0.536641 0.780154 0.974461
O O8 0.501837 0.640001 0.027297
O O9 0.263350 0.648651 0.299232
O O10 0.500000 0.000000 0.500000
O O11 0.491705 0.864350 0.001449
O O12 0.490694 0.740873 0.509671
O O13 0.744177 0.118933 0.759770
O O14 0.500000 0.000000 0.000000
O O15 0.000000 0.500000 0.500000
O O16 0.984656 0.369257 0.519204
O O17 0.093045 0.318945 0.954046
O O18 0.000000 0.500000 0.000000
O O19 0.500000 0.500000 0.000000
O O20 0.000000 0.000000 0.500000
#
# Coordination Sequence:
#
# PCOD9063947 Si02
#       8
#     2   2   2   2   2   2   2   2
#     4  11  25  44  67  99 140 179 227 284 349 417
#     4  12  23  47  70  97 141 182 237 287 347 419
#     4  12  26  45  73 102 137 188 233 287 352 415
#     4  12  26  44  71 105 140 182 237 289 350 419
#     4  11  25  45  67  99 137 175 229 283 342 413
#     4  11  24  45  67  96 137 182 223 282 348 408
#     4  12  26  43  70 103 138 181 234 291 347 416
#     4  11  27  43  71 101 136 184 229 286 349 416
#
# _framework density 19.765007000000001
#
# number of rings (size 3 to 8) (size 9 to 14) (size 15 to 20)
#    0.000    0.500    2.500    5.250    8.750    1.000 
#    0.000    0.000    0.000    0.000    0.000    0.000 
#    0.000    0.000    0.000    0.000    0.000    0.000 
#
# Total GULP energy -89220.553231 kJ/mol
# GULP energy per Si atom -5576.284577 kJ/mol
# Density = 1.972002 g / cm^3
# Si number density = 19.765007 Si / 1000 Ang^3
#
#
#
# Elastic Constant Matrix: (Units=GPa)
#
#
# Indices 1 2 3 4 5 6 
#
# 1 124.6068 40.4922 60.1697 12.9375 -28.2657 -0.6803
# 2 40.4922 142.9944 58.8062 17.8663 -10.6162 34.2882
# 3 60.1697 58.8062 141.7947 41.1732 -21.2972 5.6775
# 4 12.9375 17.8663 41.1732 54.3641 -0.5217 -0.0575
# 5 -28.2657 -10.6162 -21.2972 -0.5217 58.7381 -2.7349
# 6 -0.6803 34.2882 5.6775 -0.0575 -2.7349 49.3066
#
#
#
# Elastic Compliance Matrix: (Units=1/GPa)
#
#
# Indices 1 2 3 4 5 6 
#
# 1 0.011257 -0.002013 -0.003693 0.000819 0.003824 0.002194
# 2 -0.002013 0.010592 -0.003154 -0.000626 -0.000532 -0.007061
# 3 -0.003693 -0.003154 0.012369 -0.007432 0.002110 0.000826
# 4 0.000819 -0.000626 -0.007432 0.024014 -0.002144 0.001211
# 5 0.003824 -0.000532 0.002110 -0.002144 0.019573 0.001263
# 6 0.002194 -0.007061 0.000826 0.001211 0.001263 0.025198
#
#
# Mechanical properties :
#
#
# Convention : Reuss Voigt Hill
#
# Bulk Modulus (GPa) = 60.61501 80.92578 70.77039
# Shear Modulus (GPa) = 39.61177 49.14363 44.37770
#
# Velocity S-wave (km/s) = 4.48162 4.99179 4.74356
# Velocity P-wave (km/s) = 7.58382 8.61724 8.11699
#
# Compressibility (1/GPa) = 0.01649756
#
# Stress axis : x y z
#
# Youngs Moduli (GPa) = 88.83228 94.40848 80.84404
#
# Poissons Ratio (x) = 0.19008 0.29857
# Poissons Ratio (y) = 0.17885 0.25499
# Poissons Ratio (z) = 0.32808 0.29777
#
# Static dielectric constant tensor:
#      x y z
#    x 1.656710 -0.034570 -0.009070 
#    y -0.034570 1.680000 -0.018390 
#    z -0.009070 -0.018390 1.619320 
# 
# From -- ./inp_files/355304.got.cif
#   From: 2010.05.17/outbox.cif.g08.bks.cpg/sg2_178_cif.got.tgz:355304.got - 2010.06.03 11:33:40.
