data_PCOD9063587
_publ_section_title
;
Structure prediction by ZEFSAII (Michael W. Deem and Ramdas Pophale) SiO2 
 PCOD9063587
Probable space group: P -1
;
_chemical_formula_sum "Si O2"
_cell_formula_units_Z 12
_cell_length_a 8.560100
_cell_length_b 10.353664
_cell_length_c 17.258772
_cell_angle_alpha 149.038924
_cell_angle_beta 39.600299
_cell_angle_gamma 135.756810
_cell_volume 494.326968
_symmetry_space_group_name_H-M "P -1"
_symmetry_group_IT_number 2
_symmetry_cell_setting 'triclinic'
loop_
_space_group_symop_operation_xyz
x,y,z
-x,-y,-z
loop_
_atom_site_type_symbol
_atom_site_label
_atom_site_fract_x
_atom_site_fract_y
_atom_site_fract_z
Si Si1 0.561706 0.257211 0.961811
Si Si2 0.363318 0.652137 0.565984
Si Si3 0.095303 0.155386 0.348292
Si Si4 0.097557 0.110600 0.147414
Si Si5 0.212787 0.886303 0.404513
Si Si6 0.171611 0.367667 0.054638
O O1 0.364492 0.215943 0.945325
O O2 0.380369 0.248476 0.099734
O O3 0.729256 0.521973 0.010077
O O4 0.733777 0.045865 0.792355
O O5 0.500000 0.500000 0.500000
O O6 0.263553 0.434159 0.429634
O O7 0.106682 0.741483 0.736732
O O8 0.545033 0.897753 0.589335
O O9 0.023058 0.087349 0.253275
O O10 0.872210 0.149940 0.492279
O O11 0.071775 0.833348 0.974676
O O12 0.194224 0.615997 0.228298
O O13 0.000000 0.000000 0.500000
#
# Coordination Sequence:
#
# PCOD9063587 Si02
#       6
#     2   2   2   2   2   2
#     4  11  24  44  71 102 139 187 233 282 343 416
#     4  12  25  45  74 101 138 187 235 284 342 415
#     4  12  27  46  71 107 143 185 229 287 358 407
#     4  12  28  45  70 108 146 180 228 295 353 409
#     4  12  25  46  75 101 135 186 240 286 338 420
#     4  11  24  44  72 102 135 184 242 283 340 411
#
# _framework density 24.27543
#
# number of rings (size 3 to 8) (size 9 to 14) (size 15 to 20)
#    0.000    0.333    3.333    5.500    2.333    4.000 
#    0.000    0.000    0.000    0.000    0.000    0.000 
#    0.000    0.000    0.000    0.000    0.000    0.000 
#
# Total GULP energy -67081.305323 kJ/mol
# GULP energy per Si atom -5590.108777 kJ/mol
# Density = 2.422018 g / cm^3
# Si number density = 24.275430 Si / 1000 Ang^3
#
#
#
# Elastic Constant Matrix: (Units=GPa)
#
#
# Indices 1 2 3 4 5 6 
#
# 1 50.9412 37.9486 54.8255 14.5120 3.7134 -12.8256
# 2 37.9486 183.6596 63.5466 -4.0201 16.9210 -11.6259
# 3 54.8255 63.5466 118.5846 -0.5319 11.5574 -11.5330
# 4 14.5120 -4.0201 -0.5319 45.3487 -3.7788 5.2487
# 5 3.7134 16.9210 11.5574 -3.7788 46.2623 -7.9934
# 6 -12.8256 -11.6259 -11.5330 5.2487 -7.9934 27.5985
#
#
#
# Elastic Compliance Matrix: (Units=1/GPa)
#
#
# Indices 1 2 3 4 5 6 
#
# 1 0.059314 -0.003476 -0.024002 -0.021687 0.004447 0.021483
# 2 -0.003476 0.007035 -0.002018 0.001604 -0.001710 -0.000295
# 3 -0.024002 -0.002018 0.020347 0.008189 -0.002762 -0.005859
# 4 -0.021687 0.001604 0.008189 0.030572 -0.000455 -0.011927
# 5 0.004447 -0.001710 -0.002762 -0.000455 0.023775 0.007165
# 6 0.021483 -0.000295 -0.005859 -0.011927 0.007165 0.047988
#
#
# Mechanical properties :
#
#
# Convention : Reuss Voigt Hill
#
# Bulk Modulus (GPa) = 36.09345 73.98078 55.03712
# Shear Modulus (GPa) = 19.43575 36.96620 28.20097
#
# Velocity S-wave (km/s) = 2.83262 3.90652 3.41208
# Velocity P-wave (km/s) = 5.05953 7.13369 6.18419
#
# Compressibility (1/GPa) = 0.02770586
#
# Stress axis : x y z
#
# Youngs Moduli (GPa) = 16.85935 142.14247 49.14707
#
# Poissons Ratio (x) = 0.49404 1.17962
# Poissons Ratio (y) = 0.05860 0.09918
# Poissons Ratio (z) = 0.40465 0.28683
#
# Static dielectric constant tensor:
#      x y z
#    x 1.906720 -0.055920 -0.023360 
#    y -0.055920 1.998960 -0.045400 
#    z -0.023360 -0.045400 2.009570 
# 
# From -- ./inp_files/558171.got.cif
#   From: 2010.05.17/outbox.cif.g08.bks.cpg/sg2_280_cif.got.tgz:558171.got - 2010.06.03 11:33:40.
