data_PCOD9063389
_publ_section_title
;
Structure prediction by ZEFSAII (Michael W. Deem and Ramdas Pophale) SiO2 
 PCOD9063389
Probable space group: P -1
;
_chemical_formula_sum "Si O2"
_cell_formula_units_Z 14
_cell_length_a 23.539955
_cell_length_b 12.410510
_cell_length_c 10.325094
_cell_angle_alpha 48.039445
_cell_angle_beta 31.742174
_cell_angle_gamma 26.379372
_cell_volume 646.552291
_symmetry_space_group_name_H-M "P -1"
_symmetry_group_IT_number 2
_symmetry_cell_setting 'triclinic'
loop_
_space_group_symop_operation_xyz
x,y,z
-x,-y,-z
loop_
_atom_site_type_symbol
_atom_site_label
_atom_site_fract_x
_atom_site_fract_y
_atom_site_fract_z
Si Si1 0.446468 0.396003 0.652119
Si Si2 0.608838 0.672146 0.454812
Si Si3 0.953172 0.144757 0.347293
Si Si4 0.837174 0.802602 0.031420
Si Si5 0.027586 0.865121 0.178306
Si Si6 0.170846 0.310298 0.125415
Si Si7 0.785372 0.859498 0.566797
O O1 0.500000 0.500000 0.500000
O O2 0.409990 0.421852 0.549587
O O3 0.621929 0.095670 0.595833
O O4 0.254096 0.564077 0.969336
O O5 0.733981 0.458952 0.499548
O O6 0.390068 0.971732 0.672753
O O7 0.737316 0.657532 0.155440
O O8 0.000000 0.000000 0.500000
O O9 0.991117 0.999426 0.268165
O O10 0.097486 0.121021 0.091461
O O11 0.841419 0.802097 0.867060
O O12 0.000000 0.500000 0.000000
O O13 0.887797 0.885530 0.411830
O O14 0.000000 0.000000 0.000000
O O15 0.290054 0.143524 0.159553
O O16 0.954254 0.588884 0.375928
#
# Coordination Sequence:
#
# PCOD9063389 Si02
#       7
#     2   2   2   2   2   2   2
#     4  12  23  38  70  98 129 179 226 277 346 398
#     4  12  25  45  70 100 137 185 233 282 344 424
#     4  12  27  46  71 106 140 182 232 292 349 410
#     4  12  26  45  73  98 138 188 230 276 352 419
#     4  12  22  44  70  98 138 177 231 281 342 411
#     4  11  24  46  67  99 142 179 227 287 339 415
#     4  11  24  44  67 103 139 174 231 289 339 406
#
# _framework density 21.653314999999999
#
# number of rings (size 3 to 8) (size 9 to 14) (size 15 to 20)
#    0.000    0.286    5.714    3.000    0.000    2.286 
#    2.571    0.000    0.000    0.000    0.000    0.000 
#    0.000    0.000    0.000    0.000    0.000    0.000 
#
# Total GULP energy -78324.888483 kJ/mol
# GULP energy per Si atom -5594.634892 kJ/mol
# Density = 2.160403 g / cm^3
# Si number density = 21.653315 Si / 1000 Ang^3
#
#
#
# Elastic Constant Matrix: (Units=GPa)
#
#
# Indices 1 2 3 4 5 6 
#
# 1 111.7541 12.2052 26.8053 0.9983 12.0360 -0.2595
# 2 12.2052 89.9357 39.5528 1.2901 6.3347 -31.2306
# 3 26.8053 39.5528 77.8446 10.6848 9.5044 -12.9677
# 4 0.9983 1.2901 10.6848 34.5833 0.6580 0.8150
# 5 12.0360 6.3347 9.5044 0.6580 37.8584 0.1642
# 6 -0.2595 -31.2306 -12.9677 0.8150 0.1642 45.4177
#
#
#
# Elastic Compliance Matrix: (Units=1/GPa)
#
#
# Indices 1 2 3 4 5 6 
#
# 1 0.010013 -0.000032 -0.003420 0.000835 -0.002330 -0.000948
# 2 -0.000032 0.018043 -0.007500 0.001426 -0.001195 0.010244
# 3 -0.003420 -0.007500 0.018917 -0.005430 -0.002314 0.000330
# 4 0.000835 0.001426 -0.005430 0.030536 0.000333 -0.001114
# 5 -0.002330 -0.001195 -0.002314 0.000333 0.027937 -0.001603
# 6 -0.000948 0.010244 0.000330 -0.001114 -0.001603 0.029177
#
#
# Mechanical properties :
#
#
# Convention : Reuss Voigt Hill
#
# Bulk Modulus (GPa) = 39.88830 48.51791 44.20310
# Shear Modulus (GPa) = 30.32456 36.96996 33.64726
#
# Velocity S-wave (km/s) = 3.74633 4.13650 3.94624
# Velocity P-wave (km/s) = 6.09710 6.72826 6.42044
#
# Compressibility (1/GPa) = 0.02507001
#
# Stress axis : x y z
#
# Youngs Moduli (GPa) = 99.86758 55.42393 52.86163
#
# Poissons Ratio (x) = 0.00176 0.18078
# Poissons Ratio (y) = 0.00318 0.39646
# Poissons Ratio (z) = 0.34154 0.41568
#
# Static dielectric constant tensor:
#      x y z
#    x 1.813660 -0.006420 -0.017920 
#    y -0.006420 1.830650 -0.001400 
#    z -0.017920 -0.001400 1.790680 
# 
# From -- ./inp_files/283342.got.cif
#   From: 2010.05.17/outbox.cif.g08.bks.cpg/sg2_142_cif.got.tgz:283342.got - 2010.06.03 11:33:40.
