data_PCOD9063394
_publ_section_title
;
Structure prediction by ZEFSAII (Michael W. Deem and Ramdas Pophale) SiO2 
 PCOD9063394
Probable space group: P -1
;
_chemical_formula_sum "Si O2"
_cell_formula_units_Z 13
_cell_length_a 9.216969
_cell_length_b 13.943766
_cell_length_c 6.919746
_cell_angle_alpha 83.564507
_cell_angle_beta 57.471293
_cell_angle_gamma 121.852124
_cell_volume 530.755008
_symmetry_space_group_name_H-M "P -1"
_symmetry_group_IT_number 2
_symmetry_cell_setting 'triclinic'
loop_
_space_group_symop_operation_xyz
x,y,z
-x,-y,-z
loop_
_atom_site_type_symbol
_atom_site_label
_atom_site_fract_x
_atom_site_fract_y
_atom_site_fract_z
Si Si1 0.901636 0.321380 0.177808
Si Si2 0.252313 0.262738 0.551508
Si Si3 0.500000 0.000000 0.000000
Si Si4 0.735738 0.917659 0.616799
Si Si5 0.785283 0.063598 0.165099
Si Si6 0.296382 0.570545 0.570450
Si Si7 0.244874 0.437534 0.270982
O O1 0.821155 0.184896 0.201154
O O2 0.700578 0.316959 0.394698
O O3 0.076911 0.385912 0.221652
O O4 0.058518 0.430666 0.869171
O O5 0.357431 0.226470 0.333791
O O6 0.464810 0.379560 0.514713
O O7 0.142162 0.309591 0.503898
O O8 0.035561 0.135708 0.861573
O O9 0.415577 0.072129 0.139247
O O10 0.587387 0.995976 0.154587
O O11 0.750809 0.978945 0.387648
O O12 0.000000 0.000000 0.500000
O O13 0.281470 0.542399 0.361762
O O14 0.500000 0.500000 0.000000
#
# Coordination Sequence:
#
# PCOD9063394 Si02
#       7
#     2   2   1   2   2   2   2
#     4  11  24  44  71 102 146 185 237 302 357 437
#     4  12  24  47  72 105 145 189 242 303 360 438
#     4  12  28  50  74 104 150 194 250 304 362 436
#     4  12  27  51  75 110 143 194 253 300 371 434
#     4  12  26  50  75 105 150 193 246 308 364 439
#     4  11  24  44  67 106 143 185 239 293 365 434
#     4  12  23  44  69 104 142 188 234 288 365 437
#
# _framework density 24.493410999999998
#
# number of rings (size 3 to 8) (size 9 to 14) (size 15 to 20)
#    0.000    0.308    4.615    4.615    0.000    0.000 
#    2.769    0.000    0.000    0.000    0.000    0.000 
#    0.000    0.000    0.000    0.000    0.000    0.000 
#
# Total GULP energy -72591.767563 kJ/mol
# GULP energy per Si atom -5583.982120 kJ/mol
# Density = 2.443766 g / cm^3
# Si number density = 24.493411 Si / 1000 Ang^3
#
#
#
# Elastic Constant Matrix: (Units=GPa)
#
#
# Indices 1 2 3 4 5 6 
#
# 1 119.1330 36.3733 21.7470 29.2806 10.0616 12.6596
# 2 36.3733 99.4913 35.8278 43.4746 6.0398 -9.5890
# 3 21.7470 35.8278 102.3430 37.4274 -0.1155 0.8446
# 4 29.2806 43.4746 37.4274 48.9461 -3.2269 1.6633
# 5 10.0616 6.0398 -0.1155 -3.2269 35.1380 18.0949
# 6 12.6596 -9.5890 0.8446 1.6633 18.0949 47.0085
#
#
#
# Elastic Compliance Matrix: (Units=1/GPa)
#
#
# Indices 1 2 3 4 5 6 
#
# 1 0.010535 -0.001945 0.000208 -0.004781 -0.001921 -0.002329
# 2 -0.001945 0.019591 -0.000376 -0.016813 -0.008722 0.008479
# 3 0.000208 -0.000376 0.013617 -0.010290 -0.001108 0.000413
# 4 -0.004781 -0.016813 -0.010290 0.047244 0.013012 -0.008637
# 5 -0.001921 -0.008722 -0.001108 0.013012 0.040631 -0.017342
# 6 -0.002329 0.008479 0.000413 -0.008637 -0.017342 0.030603
#
#
# Mechanical properties :
#
#
# Convention : Reuss Voigt Hill
#
# Bulk Modulus (GPa) = 25.30606 56.54038 40.92322
# Shear Modulus (GPa) = 27.83668 41.35314 34.59491
#
# Velocity S-wave (km/s) = 3.37485 4.11340 3.76229
# Velocity P-wave (km/s) = 5.05375 6.75974 5.96802
#
# Compressibility (1/GPa) = 0.03951623
#
# Stress axis : x y z
#
# Youngs Moduli (GPa) = 94.92469 51.04327 73.43803
#
# Poissons Ratio (x) = 0.09927 -0.01526
# Poissons Ratio (y) = 0.18461 0.02763
# Poissons Ratio (z) = -0.01973 0.01921
#
# Static dielectric constant tensor:
#      x y z
#    x 1.970690 -0.010610 -0.044780 
#    y -0.010610 1.979000 -0.054130 
#    z -0.044780 -0.054130 1.972710 
# 
# From -- ./inp_files/28816.got.cif
#   From: 2010.05.17/outbox.cif.g08.bks.cpg/sg2_15_cif.got.tgz:28816.got - 2010.06.03 11:33:40.
