data_PCOD9063851
_publ_section_title
;
Structure prediction by ZEFSAII (Michael W. Deem and Ramdas Pophale) SiO2 
 PCOD9063851
Probable space group: P -1
;
_chemical_formula_sum "Si O2"
_cell_formula_units_Z 16
_cell_length_a 8.702233
_cell_length_b 10.981498
_cell_length_c 15.742196
_cell_angle_alpha 73.016015
_cell_angle_beta 94.227412
_cell_angle_gamma 149.478388
_cell_volume 679.913578
_symmetry_space_group_name_H-M "P -1"
_symmetry_group_IT_number 2
_symmetry_cell_setting 'triclinic'
loop_
_space_group_symop_operation_xyz
x,y,z
-x,-y,-z
loop_
_atom_site_type_symbol
_atom_site_label
_atom_site_fract_x
_atom_site_fract_y
_atom_site_fract_z
Si Si1 0.712535 0.678317 0.331876
Si Si2 0.360541 0.823992 0.448490
Si Si3 0.372545 0.831085 0.947845
Si Si4 0.351658 0.228625 0.006087
Si Si5 0.279393 0.445608 0.216474
Si Si6 0.335232 0.820923 0.761105
Si Si7 0.658790 0.777509 0.489575
Si Si8 0.393760 0.249656 0.191712
O O1 0.510708 0.620765 0.271456
O O2 0.669832 0.712100 0.414699
O O3 0.589066 0.448708 0.400855
O O4 0.062838 0.929260 0.252678
O O5 0.597873 0.876726 0.442114
O O6 0.000000 0.500000 0.500000
O O7 0.500000 0.000000 0.500000
O O8 0.403544 0.946407 0.344898
O O9 0.403308 0.918860 0.839865
O O10 0.628707 0.904093 0.941755
O O11 0.000000 0.500000 0.000000
O O12 0.500000 0.000000 0.000000
O O13 0.591718 0.418612 0.898204
O O14 0.441644 0.346112 0.079847
O O15 0.000000 0.000000 0.000000
O O16 0.300544 0.304892 0.234717
O O17 0.985346 0.329899 0.244686
O O18 0.335280 0.663899 0.796557
O O19 0.000000 0.000000 0.500000
#
# Coordination Sequence:
#
# PCOD9063851 Si02
#       8
#     2   2   2   2   2   2   2   2
#     4  11  24  44  75 106 143 193 254 314 380 464
#     4  12  30  50  77 112 157 200 259 326 389 460
#     4  11  26  48  76 111 155 202 256 318 379 462
#     4  11  24  45  70 110 149 198 251 312 377 458
#     4  12  25  47  76 105 152 198 254 312 385 460
#     4  11  27  49  74 112 151 205 258 317 391 461
#     4  11  26  47  75 103 148 195 253 316 391 451
#     4  11  25  45  70 106 147 194 249 308 381 451
#
# _framework density 23.532402000000001
#
# number of rings (size 3 to 8) (size 9 to 14) (size 15 to 20)
#    0.000    0.750    2.500    3.375   10.500    4.000 
#    0.000    0.000    0.000    0.000    0.000    0.000 
#    0.000    0.000    0.000    0.000    0.000    0.000 
#
# Total GULP energy -89146.402904 kJ/mol
# GULP energy per Si atom -5571.650182 kJ/mol
# Density = 2.347884 g / cm^3
# Si number density = 23.532402 Si / 1000 Ang^3
#
#
#
# Elastic Constant Matrix: (Units=GPa)
#
#
# Indices 1 2 3 4 5 6 
#
# 1 128.8924 35.3606 9.1780 9.9268 15.2216 34.5289
# 2 35.3606 77.0829 40.0381 15.9798 -7.8323 11.5351
# 3 9.1780 40.0381 173.5416 1.1585 10.9876 1.4539
# 4 9.9268 15.9798 1.1585 43.0762 3.4073 2.4265
# 5 15.2216 -7.8323 10.9876 3.4073 35.8057 6.8675
# 6 34.5289 11.5351 1.4539 2.4265 6.8675 33.5460
#
#
#
# Elastic Compliance Matrix: (Units=1/GPa)
#
#
# Indices 1 2 3 4 5 6 
#
# 1 0.012336 -0.005103 0.000908 -0.000037 -0.004715 -0.010014
# 2 -0.005103 0.020839 -0.005070 -0.006997 0.009552 -0.003142
# 3 0.000908 -0.005070 0.007120 0.001734 -0.004077 0.001210
# 4 -0.000037 -0.006997 0.001734 0.026070 -0.004809 0.001468
# 5 -0.004715 0.009552 -0.004077 -0.004809 0.034692 -0.005009
# 6 -0.010014 -0.003142 0.001210 0.001468 -0.005009 0.042065
#
#
# Mechanical properties :
#
#
# Convention : Reuss Voigt Hill
#
# Bulk Modulus (GPa) = 45.94603 60.96336 53.45469
# Shear Modulus (GPa) = 29.60213 42.14827 35.87520
#
# Velocity S-wave (km/s) = 3.55058 4.23670 3.90872
# Velocity P-wave (km/s) = 6.03123 7.06365 6.56776
#
# Compressibility (1/GPa) = 0.02176467
#
# Stress axis : x y z
#
# Youngs Moduli (GPa) = 81.06213 47.98802 140.44315
#
# Poissons Ratio (x) = 0.24490 -0.12747
# Poissons Ratio (y) = 0.41368 0.71198
# Poissons Ratio (z) = -0.07357 0.24328
#
# Static dielectric constant tensor:
#      x y z
#    x 2.003790 -0.126590 -0.012090 
#    y -0.126590 2.063970 -0.066360 
#    z -0.012090 -0.066360 1.913160 
# 
# From -- ./inp_files/500288.got.cif
#   From: 2010.05.17/outbox.cif.g08.bks.cpg/sg2_251_cif.got.tgz:500288.got - 2010.06.03 11:33:40.
