data_PCOD9063119
_publ_section_title
;
Structure prediction by ZEFSAII (Michael W. Deem and Ramdas Pophale) SiO2 
 PCOD9063119
Probable space group: P -1
;
_chemical_formula_sum "Si O2"
_cell_formula_units_Z 15
_cell_length_a 9.446264
_cell_length_b 8.896603
_cell_length_c 11.345924
_cell_angle_alpha 76.221492
_cell_angle_beta 133.807950
_cell_angle_gamma 99.558126
_cell_volume 668.310009
_symmetry_space_group_name_H-M "P -1"
_symmetry_group_IT_number 2
_symmetry_cell_setting 'triclinic'
loop_
_space_group_symop_operation_xyz
x,y,z
-x,-y,-z
loop_
_atom_site_type_symbol
_atom_site_label
_atom_site_fract_x
_atom_site_fract_y
_atom_site_fract_z
Si Si1 0.865615 0.522239 0.303575
Si Si2 0.545845 0.334029 0.509117
Si Si3 0.546719 0.550301 0.822817
Si Si4 0.309635 0.119087 0.102372
Si Si5 0.500000 0.000000 0.000000
Si Si6 0.787083 0.883147 0.684728
Si Si7 0.063277 0.815682 0.254718
Si Si8 0.183362 0.712012 0.896587
O O1 0.637717 0.523177 0.204660
O O2 0.880493 0.387743 0.238142
O O3 0.000000 0.500000 0.500000
O O4 0.935629 0.689102 0.270137
O O5 0.500000 0.500000 0.500000
O O6 0.538566 0.371475 0.358781
O O7 0.376396 0.211383 0.461787
O O8 0.755195 0.272891 0.680646
O O9 0.638063 0.698551 0.911861
O O10 0.708226 0.415139 0.934157
O O11 0.442844 0.030034 0.101801
O O12 0.305804 0.082581 0.246006
O O13 0.086291 0.102151 0.933588
O O14 0.665448 0.147658 0.070969
O O15 0.982852 0.779794 0.823087
O O16 0.845613 0.049868 0.636483
#
# Coordination Sequence:
#
# PCOD9063119 Si02
#       8
#     2   2   2   2   1   2   2   2
#     4  12  24  45  72 101 144 187 237 295 358 422
#     4  11  26  44  68 100 142 187 236 281 356 425
#     4  11  24  43  71 101 139 187 233 296 348 417
#     4  11  24  45  73 105 140 183 234 292 354 413
#     4  12  24  42  72 108 144 180 232 298 352 424
#     4  11  27  44  72 105 140 186 231 294 348 425
#     4  12  23  45  69  98 143 186 225 291 353 412
#     4  12  25  44  72 107 138 185 244 287 355 421
#
# _framework density 22.444673000000002
#
# number of rings (size 3 to 8) (size 9 to 14) (size 15 to 20)
#    0.000    0.533    5.333    2.800    1.867    1.067 
#    0.000    2.000    5.867    0.000    0.000    0.000 
#    0.000    0.000    0.000    0.000    0.000    0.000 
#
# Total GULP energy -83516.379169 kJ/mol
# GULP energy per Si atom -5567.758611 kJ/mol
# Density = 2.239359 g / cm^3
# Si number density = 22.444673 Si / 1000 Ang^3
#
#
#
# Elastic Constant Matrix: (Units=GPa)
#
#
# Indices 1 2 3 4 5 6 
#
# 1 86.7183 37.9589 8.0763 7.6620 11.4013 1.4721
# 2 37.9589 119.8053 -5.6654 23.2173 -4.1879 31.8075
# 3 8.0763 -5.6654 31.1534 6.7360 0.1589 7.2804
# 4 7.6620 23.2173 6.7360 27.9249 -4.5633 13.3599
# 5 11.4013 -4.1879 0.1589 -4.5633 31.4621 6.4556
# 6 1.4721 31.8075 7.2804 13.3599 6.4556 48.8556
#
#
#
# Elastic Compliance Matrix: (Units=1/GPa)
#
#
# Indices 1 2 3 4 5 6 
#
# 1 0.016560 -0.007430 -0.006908 -0.001392 -0.008569 0.006881
# 2 -0.007430 0.015278 0.008501 -0.007102 0.005663 -0.009796
# 3 -0.006908 0.008501 0.039648 -0.009758 0.003882 -0.009079
# 4 -0.001392 -0.007102 -0.009758 0.050029 0.008650 -0.008704
# 5 -0.008569 0.005663 0.003882 0.008650 0.039250 -0.011559
# 6 0.006881 -0.009796 -0.009079 -0.008704 -0.011559 0.031899
#
#
# Mechanical properties :
#
#
# Convention : Reuss Voigt Hill
#
# Bulk Modulus (GPa) = 16.71915 35.37965 26.04940
# Shear Modulus (GPa) = 22.29410 34.80234 28.54822
#
# Velocity S-wave (km/s) = 3.15507 3.94202 3.57029
# Velocity P-wave (km/s) = 4.55388 6.04290 5.35044
#
# Compressibility (1/GPa) = 0.05981165
#
# Stress axis : x y z
#
# Youngs Moduli (GPa) = 60.38640 65.45350 25.22224
#
# Poissons Ratio (x) = 0.48632 0.17422
# Poissons Ratio (y) = 0.44867 -0.21440
# Poissons Ratio (z) = 0.41712 -0.55639
#
# Static dielectric constant tensor:
#      x y z
#    x 1.866120 0.001700 -0.143130 
#    y 0.001700 1.851920 0.045600 
#    z -0.143130 0.045600 2.185130 
# 
# From -- ./inp_files/177658.got.cif
#   From: 2010.05.17/outbox.cif.g08.bks.cpg/sg2_89_cif.got.tgz:177658.got - 2010.06.03 11:33:40.
