data_PCOD9063340
_publ_section_title
;
Structure prediction by ZEFSAII (Michael W. Deem and Ramdas Pophale) SiO2 
 PCOD9063340
Probable space group: P -1
;
_chemical_formula_sum "Si O2"
_cell_formula_units_Z 14
_cell_length_a 7.348921
_cell_length_b 13.847196
_cell_length_c 13.662812
_cell_angle_alpha 139.604810
_cell_angle_beta 41.436034
_cell_angle_gamma 125.660762
_cell_volume 596.050748
_symmetry_space_group_name_H-M "P -1"
_symmetry_group_IT_number 2
_symmetry_cell_setting 'triclinic'
loop_
_space_group_symop_operation_xyz
x,y,z
-x,-y,-z
loop_
_atom_site_type_symbol
_atom_site_label
_atom_site_fract_x
_atom_site_fract_y
_atom_site_fract_z
Si Si1 0.526483 0.162021 0.569058
Si Si2 0.381187 0.334546 0.445602
Si Si3 0.216695 0.394212 0.774326
Si Si4 0.854465 0.192317 0.044502
Si Si5 0.518823 0.315247 0.089494
Si Si6 0.522524 0.673467 0.099904
Si Si7 0.926639 0.839162 0.740342
O O1 0.260048 0.243663 0.700481
O O2 0.624473 0.253578 0.694126
O O3 0.747302 0.167270 0.398557
O O4 0.500000 0.000000 0.500000
O O5 0.500000 0.500000 0.500000
O O6 0.217338 0.352662 0.627600
O O7 0.191294 0.256918 0.378491
O O8 0.656282 0.236478 0.248487
O O9 0.486544 0.505815 0.760805
O O10 0.000000 0.500000 0.000000
O O11 0.159707 0.266462 0.984584
O O12 0.860997 0.013819 0.894503
O O13 0.710010 0.256669 0.054348
O O14 0.226833 0.234400 0.162950
O O15 0.607375 0.285821 0.920174
O O16 0.500000 0.500000 0.000000
#
# Coordination Sequence:
#
# PCOD9063340 Si02
#       7
#     2   2   2   2   2   2   2
#     4  12  28  47  70 112 152 193 246 318 378 444
#     4  11  24  43  79 107 137 202 252 304 379 447
#     4  12  27  47  73 110 152 194 251 312 374 454
#     4  11  25  50  73 109 159 186 252 322 372 452
#     4  11  25  44  78 105 144 202 250 304 379 439
#     4  12  27  45  75 108 149 204 252 307 382 444
#     4  11  26  48  73 109 155 189 250 315 381 450
#
# _framework density 23.487932000000001
#
# number of rings (size 3 to 8) (size 9 to 14) (size 15 to 20)
#    0.000    0.571    5.714    2.571    6.000    3.429 
#    0.000    1.429    0.000    0.000    0.000    0.000 
#    0.000    0.000    0.000    0.000    0.000    0.000 
#
# Total GULP energy -78212.500486 kJ/mol
# GULP energy per Si atom -5586.607178 kJ/mol
# Density = 2.343447 g / cm^3
# Si number density = 23.487932 Si / 1000 Ang^3
#
#
#
# Elastic Constant Matrix: (Units=GPa)
#
#
# Indices 1 2 3 4 5 6 
#
# 1 85.0094 27.4152 40.2639 -5.4848 9.4591 -15.6068
# 2 27.4152 136.8857 59.4644 10.6995 3.2346 -4.5996
# 3 40.2639 59.4644 160.0410 2.2578 7.8500 -18.3088
# 4 -5.4848 10.6995 2.2578 55.8181 0.4268 3.6536
# 5 9.4591 3.2346 7.8500 0.4268 43.4948 -11.6476
# 6 -15.6068 -4.5996 -18.3088 3.6536 -11.6476 40.6574
#
#
#
# Elastic Compliance Matrix: (Units=1/GPa)
#
#
# Indices 1 2 3 4 5 6 
#
# 1 0.014475 -0.001776 -0.002512 0.001640 -0.001610 0.003615
# 2 -0.001776 0.009069 -0.002996 -0.001737 0.000046 -0.000836
# 3 -0.002512 -0.002996 0.008276 -0.000165 -0.000076 0.002417
# 4 0.001640 -0.001737 -0.000165 0.018523 -0.000790 -0.001532
# 5 -0.001610 0.000046 -0.000076 -0.000790 0.025133 0.006624
# 6 0.003615 -0.000836 0.002417 -0.001532 0.006624 0.029013
#
#
# Mechanical properties :
#
#
# Convention : Reuss Voigt Hill
#
# Bulk Modulus (GPa) = 57.96796 70.69145 64.32970
# Shear Modulus (GPa) = 40.06122 44.98023 42.52072
#
# Velocity S-wave (km/s) = 4.13438 4.38086 4.25940
# Velocity P-wave (km/s) = 6.89379 7.46669 7.18595
#
# Compressibility (1/GPa) = 0.01725091
#
# Stress axis : x y z
#
# Youngs Moduli (GPa) = 69.08515 110.26141 120.82802
#
# Poissons Ratio (x) = 0.19586 0.30354
# Poissons Ratio (y) = 0.12272 0.36203
# Poissons Ratio (z) = 0.17356 0.33037
#
# Static dielectric constant tensor:
#      x y z
#    x 1.971360 0.045120 -0.035140 
#    y 0.045120 1.880690 -0.052790 
#    z -0.035140 -0.052790 1.888790 
# 
# From -- ./inp_files/503145.got.cif
#   From: 2010.05.17/outbox.cif.g08.bks.cpg/sg2_252_cif.got.tgz:503145.got - 2010.06.03 11:33:40.
