data_PCOD9063399
_publ_section_title
;
Structure prediction by ZEFSAII (Michael W. Deem and Ramdas Pophale) SiO2 
 PCOD9063399
Probable space group: P -1
;
_chemical_formula_sum "Si O2"
_cell_formula_units_Z 10
_cell_length_a 6.171168
_cell_length_b 19.199436
_cell_length_c 5.072524
_cell_angle_alpha 112.568774
_cell_angle_beta 75.606510
_cell_angle_gamma 130.723320
_cell_volume 420.602273
_symmetry_space_group_name_H-M "P -1"
_symmetry_group_IT_number 2
_symmetry_cell_setting 'triclinic'
loop_
_space_group_symop_operation_xyz
x,y,z
-x,-y,-z
loop_
_atom_site_type_symbol
_atom_site_label
_atom_site_fract_x
_atom_site_fract_y
_atom_site_fract_z
Si Si1 0.637014 0.594474 0.422579
Si Si2 0.775625 0.002675 0.861118
Si Si3 0.335123 0.165166 0.684162
Si Si4 0.452074 0.709231 0.710322
Si Si5 0.085566 0.449151 0.075642
O O1 0.500000 0.500000 0.500000
O O2 0.904944 0.621659 0.219499
O O3 0.392295 0.544291 0.205079
O O4 0.644104 0.676064 0.677967
O O5 0.003344 0.101527 0.777134
O O6 0.650234 0.913070 0.572664
O O7 0.500000 0.000000 0.000000
O O8 0.000000 0.000000 0.000000
O O9 0.497524 0.215172 0.980584
O O10 0.448432 0.245195 0.541195
O O11 0.126434 0.613557 0.712367
O O12 0.000000 0.500000 0.000000
#
# Coordination Sequence:
#
# PCOD9063399 Si02
#       5
#     2   2   2   2   2
#     4  11  25  42  68 102 143 205 252 307 372 436
#     4  11  26  56  85 113 160 201 248 314 404 473
#     4  11  27  47  76 119 147 196 249 322 385 466
#     4  12  25  46  71 113 150 192 261 310 372 448
#     4  11  24  44  67  94 147 199 252 304 370 432
#
# _framework density 23.77543
#
# number of rings (size 3 to 8) (size 9 to 14) (size 15 to 20)
#    0.000    0.800    4.000    1.800    5.600    6.400 
#    0.000    0.000    0.000    0.000    0.000    0.000 
#    0.000    0.000    0.000    0.000    0.000    0.000 
#
# Total GULP energy -55697.817483 kJ/mol
# GULP energy per Si atom -5569.781748 kJ/mol
# Density = 2.372132 g / cm^3
# Si number density = 23.775430 Si / 1000 Ang^3
#
#
#
# Elastic Constant Matrix: (Units=GPa)
#
#
# Indices 1 2 3 4 5 6 
#
# 1 99.2722 21.3144 47.5291 -8.5250 -7.6151 4.3537
# 2 21.3144 119.1348 34.4454 -32.5982 -11.6742 7.7070
# 3 47.5291 34.4454 128.0065 -16.5932 -22.0832 9.4126
# 4 -8.5250 -32.5982 -16.5932 67.5305 2.3277 6.2534
# 5 -7.6151 -11.6742 -22.0832 2.3277 52.2259 -10.9787
# 6 4.3537 7.7070 9.4126 6.2534 -10.9787 10.6208
#
#
#
# Elastic Compliance Matrix: (Units=1/GPa)
#
#
# Indices 1 2 3 4 5 6 
#
# 1 0.012365 -0.000874 -0.004323 0.000208 -0.000488 -0.001231
# 2 -0.000874 0.011195 -0.001222 0.006034 -0.000719 -0.010977
# 3 -0.004323 -0.001222 0.010828 0.001960 0.002410 -0.005599
# 4 0.000208 0.006034 0.001960 0.020330 -0.003217 -0.021497
# 5 -0.000488 -0.000719 0.002410 -0.003217 0.025782 0.027130
# 6 -0.001231 -0.010977 -0.005599 -0.021497 0.027130 0.148288
#
#
# Mechanical properties :
#
#
# Convention : Reuss Voigt Hill
#
# Bulk Modulus (GPa) = 46.40541 61.44349 53.92445
# Shear Modulus (GPa) = 20.09576 42.28374 31.18975
#
# Velocity S-wave (km/s) = 2.91044 4.22176 3.62587
# Velocity P-wave (km/s) = 5.55471 7.04725 6.34502
#
# Compressibility (1/GPa) = 0.02154921
#
# Stress axis : x y z
#
# Youngs Moduli (GPa) = 80.87391 89.32939 92.35500
#
# Poissons Ratio (x) = 0.07805 0.39923
# Poissons Ratio (y) = 0.07066 0.11290
# Poissons Ratio (z) = 0.34960 0.10920
#
# Static dielectric constant tensor:
#      x y z
#    x 2.183040 -0.067360 -0.102110 
#    y -0.067360 1.875650 0.010380 
#    z -0.102110 0.010380 1.960480 
# 
# From -- ./inp_files/7186.got.cif
#   From: 2010.05.17/outbox.cif.g08.bks.cpg/sg2_4_cif.got.tgz:7186.got - 2010.06.03 11:33:40.
