data_PCOD9063258
_publ_section_title
;
Structure prediction by ZEFSAII (Michael W. Deem and Ramdas Pophale) SiO2 
 PCOD9063258
Probable space group: P -1
;
_chemical_formula_sum "Si O2"
_cell_formula_units_Z 16
_cell_length_a 12.585904
_cell_length_b 16.468462
_cell_length_c 10.087981
_cell_angle_alpha 56.123914
_cell_angle_beta 134.466365
_cell_angle_gamma 149.140955
_cell_volume 759.873053
_symmetry_space_group_name_H-M "P -1"
_symmetry_group_IT_number 2
_symmetry_cell_setting 'triclinic'
loop_
_space_group_symop_operation_xyz
x,y,z
-x,-y,-z
loop_
_atom_site_type_symbol
_atom_site_label
_atom_site_fract_x
_atom_site_fract_y
_atom_site_fract_z
Si Si1 0.964099 0.817648 0.429442
Si Si2 0.882627 0.486036 0.041235
Si Si3 0.299447 0.975933 0.812525
Si Si4 0.043103 0.449670 0.464139
Si Si5 0.986737 0.757538 0.978356
Si Si6 0.472101 0.564638 0.629576
Si Si7 0.393592 0.243934 0.686129
Si Si8 0.784552 0.122611 0.641906
O O1 0.726929 0.624982 0.386972
O O2 0.859530 0.860092 0.370263
O O3 0.150100 0.867267 0.651696
O O4 0.110748 0.906187 0.339981
O O5 0.991603 0.646479 0.036929
O O6 0.925647 0.432775 0.245179
O O7 0.604018 0.358915 0.875203
O O8 0.000000 0.500000 0.000000
O O9 0.399212 0.136868 0.732467
O O10 0.122303 0.887104 0.864326
O O11 0.500000 0.000000 0.000000
O O12 0.324535 0.572365 0.570285
O O13 0.000000 0.500000 0.500000
O O14 0.915985 0.284579 0.546852
O O15 0.119971 0.840055 0.159458
O O16 0.707909 0.647709 0.835372
O O17 0.549293 0.649082 0.478039
O O18 0.500000 0.000000 0.500000
#
# Coordination Sequence:
#
# PCOD9063258 Si02
#       8
#     2   2   2   2   2   2   2   2
#     4  11  24  46  71  99 137 183 228 284 342 410
#     4  12  24  41  73 105 133 181 230 288 336 404
#     4  12  27  41  69 101 140 181 232 278 346 412
#     4  11  25  45  69 103 137 180 237 277 342 409
#     4  12  25  46  69 100 140 181 230 281 347 404
#     4  11  24  43  74 100 139 176 230 291 342 395
#     4  12  24  43  69 107 141 174 231 290 346 402
#     4  11  27  47  69  98 145 184 222 283 347 411
#
# _framework density 21.056148
#
# number of rings (size 3 to 8) (size 9 to 14) (size 15 to 20)
#    0.000    0.500    5.000    3.000    7.000    4.000 
#    0.000    0.625    0.000    0.000    0.000    0.000 
#    0.000    0.000    0.000    0.000    0.000    0.000 
#
# Total GULP energy -89482.245761 kJ/mol
# GULP energy per Si atom -5592.640360 kJ/mol
# Density = 2.100822 g / cm^3
# Si number density = 21.056148 Si / 1000 Ang^3
#
#
#
# Elastic Constant Matrix: (Units=GPa)
#
#
# Indices 1 2 3 4 5 6 
#
# 1 129.4312 5.9542 27.9390 19.2581 -4.9577 20.5118
# 2 5.9542 49.2702 12.2471 13.6963 -5.9217 9.5121
# 3 27.9390 12.2471 108.2475 35.4808 -22.9182 0.9807
# 4 19.2581 13.6963 35.4808 39.2115 7.5342 8.1942
# 5 -4.9577 -5.9217 -22.9182 7.5342 42.7416 -5.1768
# 6 20.5118 9.5121 0.9807 8.1942 -5.1768 24.5806
#
#
#
# Elastic Compliance Matrix: (Units=1/GPa)
#
#
# Indices 1 2 3 4 5 6 
#
# 1 0.009612 0.001241 -0.002289 -0.001245 -0.000708 -0.008144
# 2 0.001241 0.024441 0.001483 -0.010277 0.005412 -0.005987
# 3 -0.002289 0.001483 0.021139 -0.024345 0.017044 0.012198
# 4 -0.001245 -0.010277 -0.024345 0.061344 -0.027899 -0.020338
# 5 -0.000708 0.005412 0.017044 -0.027899 0.040003 0.015541
# 6 -0.008144 -0.005987 0.012198 -0.020338 0.015541 0.059361
#
#
# Mechanical properties :
#
#
# Convention : Reuss Voigt Hill
#
# Bulk Modulus (GPa) = 17.83771 42.13659 29.98715
# Shear Modulus (GPa) = 21.39336 37.36063 29.37700
#
# Velocity S-wave (km/s) = 3.19096 4.21685 3.73926
# Velocity P-wave (km/s) = 4.69746 6.61545 5.73717
#
# Compressibility (1/GPa) = 0.05606100
#
# Stress axis : x y z
#
# Youngs Moduli (GPa) = 104.03781 40.91522 47.30608
#
# Poissons Ratio (x) = -0.05076 0.10829
# Poissons Ratio (y) = -0.12908 -0.07017
# Poissons Ratio (z) = 0.23817 -0.06069
#
# Static dielectric constant tensor:
#      x y z
#    x 1.914740 -0.051590 -0.021450 
#    y -0.051590 1.785970 0.032730 
#    z -0.021450 0.032730 1.728620 
# 
# From -- ./inp_files/208685.got.cif
#   From: 2010.05.17/outbox.cif.g08.bks.cpg/sg2_105_cif.got.tgz:208685.got - 2010.06.03 11:33:40.
