data_PCOD9063063
_publ_section_title
;
Structure prediction by ZEFSAII (Michael W. Deem and Ramdas Pophale) SiO2 
 PCOD9063063
Probable space group: P -1
;
_chemical_formula_sum "Si O2"
_cell_formula_units_Z 14
_cell_length_a 5.451099
_cell_length_b 20.101042
_cell_length_c 8.538110
_cell_angle_alpha 57.098479
_cell_angle_beta 49.324398
_cell_angle_gamma 59.496627
_cell_volume 578.144732
_symmetry_space_group_name_H-M "P -1"
_symmetry_group_IT_number 2
_symmetry_cell_setting 'triclinic'
loop_
_space_group_symop_operation_xyz
x,y,z
-x,-y,-z
loop_
_atom_site_type_symbol
_atom_site_label
_atom_site_fract_x
_atom_site_fract_y
_atom_site_fract_z
Si Si1 0.794740 0.230896 0.419106
Si Si2 0.681085 0.907527 0.496540
Si Si3 0.534177 0.483140 0.819477
Si Si4 0.793349 0.193758 0.102981
Si Si5 0.730869 0.630979 0.393498
Si Si6 0.693305 0.662268 0.002793
Si Si7 0.248250 0.052384 0.914128
O O1 0.821984 0.203646 0.262545
O O2 0.430825 0.286919 0.544546
O O3 0.941887 0.148409 0.566165
O O4 0.036427 0.294677 0.241656
O O5 0.492519 0.854361 0.744930
O O6 0.596467 0.912957 0.342804
O O7 0.500000 0.000000 0.500000
O O8 0.524377 0.565597 0.621875
O O9 0.277910 0.428972 0.950517
O O10 0.890294 0.423976 0.693296
O O11 0.500000 0.500000 0.000000
O O12 0.662271 0.281552 0.972849
O O13 0.090408 0.132549 0.975851
O O14 0.691560 0.660149 0.193073
O O15 0.500000 0.000000 0.000000
O O16 0.000000 0.000000 0.000000
#
# Coordination Sequence:
#
# PCOD9063063 Si02
#       7
#     2   2   2   2   2   2   2
#     4  11  26  44  71 101 142 189 240 302 364 437
#     4  11  24  45  70 101 139 187 241 297 371 431
#     4  11  25  45  70 101 141 184 235 294 369 436
#     4  11  25  44  70  98 142 187 236 305 363 441
#     4  11  24  43  70 101 139 184 237 291 368 438
#     4  11  24  44  67 101 140 180 241 289 372 429
#     4  12  27  45  73 106 144 191 250 311 375 446
#
# _framework density 24.215388999999998
#
# number of rings (size 3 to 8) (size 9 to 14) (size 15 to 20)
#    0.000    0.857    1.429    4.714    4.000   10.286 
#    0.000    0.000    0.000    0.000    0.000    0.000 
#    0.000    0.000    0.000    0.000    0.000    0.000 
#
# Total GULP energy -78103.698322 kJ/mol
# GULP energy per Si atom -5578.835594 kJ/mol
# Density = 2.416027 g / cm^3
# Si number density = 24.215389 Si / 1000 Ang^3
#
#
#
# Elastic Constant Matrix: (Units=GPa)
#
#
# Indices 1 2 3 4 5 6 
#
# 1 63.8802 48.0279 15.9874 -3.0334 15.9426 -5.5597
# 2 48.0279 235.0965 60.0308 15.2576 11.2981 -11.6982
# 3 15.9874 60.0308 83.2702 -12.1598 10.1891 -13.2646
# 4 -3.0334 15.2576 -12.1598 58.9534 6.5856 8.1577
# 5 15.9426 11.2981 10.1891 6.5856 49.5048 -10.8343
# 6 -5.5597 -11.6982 -13.2646 8.1577 -10.8343 40.1235
#
#
#
# Elastic Compliance Matrix: (Units=1/GPa)
#
#
# Indices 1 2 3 4 5 6 
#
# 1 0.020334 -0.004114 0.000146 0.002910 -0.006155 -0.000587
# 2 -0.004114 0.006354 -0.004258 -0.003000 0.001335 0.000845
# 3 0.000146 -0.004258 0.016416 0.004404 -0.002461 0.002646
# 4 0.002910 -0.003000 0.004404 0.019932 -0.004763 -0.004354
# 5 -0.006155 0.001335 -0.002461 -0.004763 0.024392 0.006278
# 6 -0.000587 0.000845 0.002646 -0.004354 0.006278 0.028543
#
#
# Mechanical properties :
#
#
# Convention : Reuss Voigt Hill
#
# Bulk Modulus (GPa) = 37.51839 70.03770 53.77804
# Shear Modulus (GPa) = 35.38451 46.92972 41.15712
#
# Velocity S-wave (km/s) = 3.82677 4.40706 4.12713
# Velocity P-wave (km/s) = 5.92054 7.40823 6.70577
#
# Compressibility (1/GPa) = 0.02665360
#
# Stress axis : x y z
#
# Youngs Moduli (GPa) = 49.17942 157.38859 60.91575
#
# Poissons Ratio (x) = 0.64743 -0.00890
# Poissons Ratio (y) = 0.20230 0.25935
# Poissons Ratio (z) = -0.00719 0.67009
#
# Static dielectric constant tensor:
#      x y z
#    x 2.092010 -0.072200 -0.180450 
#    y -0.072200 2.014110 -0.013790 
#    z -0.180450 -0.013790 1.952090 
# 
# From -- ./inp_files/10285.got.cif
#   From: 2010.05.17/outbox.cif.g08.bks.cpg/sg2_6_cif.got.tgz:10285.got - 2010.06.03 11:33:40.
