data_PCOD9063991
_publ_section_title
;
Structure prediction by ZEFSAII (Michael W. Deem and Ramdas Pophale) SiO2 
 PCOD9063991
Probable space group: P -1
;
_chemical_formula_sum "Si O2"
_cell_formula_units_Z 15
_cell_length_a 8.943755
_cell_length_b 6.949479
_cell_length_c 16.201371
_cell_angle_alpha 107.904646
_cell_angle_beta 119.049528
_cell_angle_gamma 51.459144
_cell_volume 688.527995
_symmetry_space_group_name_H-M "P -1"
_symmetry_group_IT_number 2
_symmetry_cell_setting 'triclinic'
loop_
_space_group_symop_operation_xyz
x,y,z
-x,-y,-z
loop_
_atom_site_type_symbol
_atom_site_label
_atom_site_fract_x
_atom_site_fract_y
_atom_site_fract_z
Si Si1 0.686337 0.734789 0.982356
Si Si2 0.662869 0.025255 0.743593
Si Si3 0.552338 0.410662 0.216576
Si Si4 0.000000 0.500000 0.500000
Si Si5 0.458050 0.751551 0.623043
Si Si6 0.999704 0.122482 0.322355
Si Si7 0.026271 0.219936 0.056044
Si Si8 0.845087 0.295018 0.570826
O O1 0.585153 0.657447 0.876906
O O2 0.853660 0.767866 0.988679
O O3 0.814382 0.494293 0.044021
O O4 0.500000 0.000000 0.000000
O O5 0.494391 0.965278 0.671458
O O6 0.795259 0.988225 0.692542
O O7 0.826247 0.849249 0.834231
O O8 0.547506 0.302577 0.779625
O O9 0.554957 0.347455 0.305286
O O10 0.790376 0.253312 0.229820
O O11 0.981414 0.321213 0.406053
O O12 0.947301 0.382076 0.547726
O O13 0.660502 0.534446 0.600706
O O14 0.264168 0.812499 0.524171
O O15 0.014052 0.905704 0.349452
O O16 0.000000 0.000000 0.000000
#
# Coordination Sequence:
#
# PCOD9063991 Si02
#       8
#     2   2   2   1   2   2   2   2
#     4  11  27  47  74 109 144 185 234 300 366 426
#     4  12  26  47  73 102 142 190 239 290 356 426
#     4  12  26  46  69 106 141 183 243 288 350 437
#     4  12  24  44  64 106 136 186 236 284 356 412
#     4  11  24  45  69 100 139 192 235 292 345 419
#     4  12  28  43  70 103 145 187 234 295 351 421
#     4  11  25  48  74 104 146 186 233 299 363 433
#     4  11  25  45  69  99 146 185 236 291 357 410
#
# _framework density 21.785605
#
# number of rings (size 3 to 8) (size 9 to 14) (size 15 to 20)
#    0.000    0.533    6.667    0.400    3.733    3.200 
#    0.000    0.000    0.000    0.000    0.000    0.000 
#    0.000    0.000    0.000    0.000    0.000    0.000 
#
# Total GULP energy -83695.362375 kJ/mol
# GULP energy per Si atom -5579.690825 kJ/mol
# Density = 2.173602 g / cm^3
# Si number density = 21.785605 Si / 1000 Ang^3
#
#
#
# Elastic Constant Matrix: (Units=GPa)
#
#
# Indices 1 2 3 4 5 6 
#
# 1 67.4544 58.2837 4.4625 -7.9828 5.9141 14.7026
# 2 58.2837 142.1480 32.6357 -1.3579 18.4354 8.0200
# 3 4.4625 32.6357 52.0825 -4.4288 7.8595 6.4811
# 4 -7.9828 -1.3579 -4.4288 38.8161 6.4686 10.0140
# 5 5.9141 18.4354 7.8595 6.4686 27.8216 2.0757
# 6 14.7026 8.0200 6.4811 10.0140 2.0757 33.6624
#
#
#
# Elastic Compliance Matrix: (Units=1/GPa)
#
#
# Indices 1 2 3 4 5 6 
#
# 1 0.030488 -0.013371 0.008790 0.010924 -0.001526 -0.014978
# 2 -0.013371 0.014623 -0.008426 -0.003932 -0.003955 0.005392
# 3 0.008790 -0.008426 0.026193 0.007578 -0.004788 -0.008834
# 4 0.010924 -0.003932 0.007578 0.034017 -0.008657 -0.014879
# 5 -0.001526 -0.003955 -0.004788 -0.008657 0.042066 0.002512
# 6 -0.014978 0.005392 -0.008834 -0.014879 0.002512 0.040936
#
#
# Mechanical properties :
#
#
# Convention : Reuss Voigt Hill
#
# Bulk Modulus (GPa) = 22.08045 50.27207 36.17626
# Shear Modulus (GPa) = 21.79252 31.14688 26.46970
#
# Velocity S-wave (km/s) = 3.16621 3.78524 3.48948
# Velocity P-wave (km/s) = 4.85014 6.49846 5.73384
#
# Compressibility (1/GPa) = 0.04528893
#
# Stress axis : x y z
#
# Youngs Moduli (GPa) = 32.79959 68.38450 38.17795
#
# Poissons Ratio (x) = 0.91440 -0.33557
# Poissons Ratio (y) = 0.43858 0.32168
# Poissons Ratio (z) = -0.28829 0.57620
#
# Static dielectric constant tensor:
#      x y z
#    x 1.788760 -0.030630 0.007740 
#    y -0.030630 1.802120 -0.029390 
#    z 0.007740 -0.029390 1.765150 
# 
# From -- ./inp_files/55608.got.cif
#   From: 2010.05.17/outbox.cif.g08.bks.cpg/sg2_28_cif.got.tgz:55608.got - 2010.06.03 11:33:40.
