data_PCOD9063488
_publ_section_title
;
Structure prediction by ZEFSAII (Michael W. Deem and Ramdas Pophale) SiO2 
 PCOD9063488
Probable space group: P -1
;
_chemical_formula_sum "Si O2"
_cell_formula_units_Z 14
_cell_length_a 9.221748
_cell_length_b 11.434605
_cell_length_c 15.676960
_cell_angle_alpha 151.536656
_cell_angle_beta 136.110961
_cell_angle_gamma 53.941176
_cell_volume 541.113540
_symmetry_space_group_name_H-M "P -1"
_symmetry_group_IT_number 2
_symmetry_cell_setting 'triclinic'
loop_
_space_group_symop_operation_xyz
x,y,z
-x,-y,-z
loop_
_atom_site_type_symbol
_atom_site_label
_atom_site_fract_x
_atom_site_fract_y
_atom_site_fract_z
Si Si1 0.136231 0.153232 0.032457
Si Si2 0.163982 0.817084 0.662871
Si Si3 0.236982 0.146639 0.555387
Si Si4 0.300973 0.919163 0.119482
Si Si5 0.504305 0.455328 0.613932
Si Si6 0.319344 0.654488 0.201095
Si Si7 0.732838 0.808190 0.207556
O O1 0.208820 0.988521 0.034414
O O2 0.290443 0.411855 0.263550
O O3 0.167703 0.005695 0.864536
O O4 0.893489 0.176858 0.963674
O O5 0.317849 0.618453 0.621841
O O6 0.922409 0.701942 0.465958
O O7 0.234871 0.971911 0.706695
O O8 0.483697 0.225743 0.695413
O O9 0.189095 0.137369 0.629017
O O10 0.197440 0.872453 0.322108
O O11 0.423586 0.175246 0.373554
O O12 0.478047 0.744330 0.068649
O O13 0.574622 0.453821 0.740743
O O14 0.186950 0.431462 0.952253
#
# Coordination Sequence:
#
# PCOD9063488 Si02
#       7
#     2   2   2   2   2   2   2
#     4  11  24  44  69 112 147 192 250 305 376 444
#     4  12  26  45  75 109 148 192 255 306 377 448
#     4  11  27  48  71 111 149 200 254 301 376 460
#     4  11  25  43  75 112 151 194 247 310 376 444
#     4  12  23  48  76 109 152 193 245 320 371 437
#     4  11  25  48  77 102 153 199 244 316 377 434
#     4  12  24  49  74 108 152 195 249 311 371 453
#
# _framework density 25.872575000000001
#
# number of rings (size 3 to 8) (size 9 to 14) (size 15 to 20)
#    0.000    0.571    4.286    3.429    2.000    5.143 
#    2.571    0.000    0.000    0.000    0.000    0.000 
#    0.000    0.000    0.000    0.000    0.000    0.000 
#
# Total GULP energy -78596.047839 kJ/mol
# GULP energy per Si atom -5614.003417 kJ/mol
# Density = 2.581369 g / cm^3
# Si number density = 25.872575 Si / 1000 Ang^3
#
#
#
# Elastic Constant Matrix: (Units=GPa)
#
#
# Indices 1 2 3 4 5 6 
#
# 1 117.0288 29.6149 52.2659 -10.3997 6.5501 9.6771
# 2 29.6149 117.3249 33.6021 -5.8538 -9.8467 13.0059
# 3 52.2659 33.6021 82.9590 6.5960 -20.3107 -8.8405
# 4 -10.3997 -5.8538 6.5960 33.7390 0.0015 -0.7096
# 5 6.5501 -9.8467 -20.3107 0.0015 50.3671 -17.4619
# 6 9.6771 13.0059 -8.8405 -0.7096 -17.4619 35.2568
#
#
#
# Elastic Compliance Matrix: (Units=1/GPa)
#
#
# Indices 1 2 3 4 5 6 
#
# 1 0.021907 0.002310 -0.022603 0.011116 -0.019051 -0.021744
# 2 0.002310 0.011173 -0.008418 0.004105 -0.004663 -0.009093
# 3 -0.022603 -0.008418 0.042040 -0.015922 0.030204 0.034490
# 4 0.011116 0.004105 -0.015922 0.036604 -0.011803 -0.013667
# 5 -0.019051 -0.004663 0.030204 -0.011803 0.046545 0.037338
# 6 -0.021744 -0.009093 0.034490 -0.013667 0.037338 0.064552
#
#
# Mechanical properties :
#
#
# Convention : Reuss Voigt Hill
#
# Bulk Modulus (GPa) = 56.50182 60.91985 58.71083
# Shear Modulus (GPa) = 17.47390 37.32789 27.40090
#
# Velocity S-wave (km/s) = 2.60163 3.80249 3.25787
# Velocity P-wave (km/s) = 5.55973 6.54796 6.07397
#
# Compressibility (1/GPa) = 0.01769855
#
# Stress axis : x y z
#
# Youngs Moduli (GPa) = 45.64752 89.50445 23.78682
#
# Poissons Ratio (x) = -0.20674 0.53765
# Poissons Ratio (y) = -0.10544 0.20023
# Poissons Ratio (z) = 1.03175 0.75343
#
# Static dielectric constant tensor:
#      x y z
#    x 2.029730 0.007330 0.035080 
#    y 0.007330 1.964000 0.004110 
#    z 0.035080 0.004110 2.026130 
# 
# From -- ./inp_files/242569.got.cif
#   From: 2010.05.17/outbox.cif.g08.bks.cpg/sg2_122_cif.got.tgz:242569.got - 2010.06.03 11:33:40.
