data_PCOD9063373
_publ_section_title
;
Structure prediction by ZEFSAII (Michael W. Deem and Ramdas Pophale) SiO2 
 PCOD9063373
Probable space group: P -1
;
_chemical_formula_sum "Si O2"
_cell_formula_units_Z 16
_cell_length_a 5.669692
_cell_length_b 17.644253
_cell_length_c 9.379000
_cell_angle_alpha 91.746762
_cell_angle_beta 130.280706
_cell_angle_gamma 92.827766
_cell_volume 712.507803
_symmetry_space_group_name_H-M "P -1"
_symmetry_group_IT_number 2
_symmetry_cell_setting 'triclinic'
loop_
_space_group_symop_operation_xyz
x,y,z
-x,-y,-z
loop_
_atom_site_type_symbol
_atom_site_label
_atom_site_fract_x
_atom_site_fract_y
_atom_site_fract_z
Si Si1 0.545832 0.852067 0.266575
Si Si2 0.396829 0.314006 0.762547
Si Si3 0.794665 0.540877 0.808421
Si Si4 0.135335 0.145372 0.045547
Si Si5 0.629833 0.919115 0.586881
Si Si6 0.815576 0.562490 0.507113
Si Si7 0.806497 0.975491 0.185424
Si Si8 0.150419 0.319070 0.982399
O O1 0.695623 0.775729 0.287065
O O2 0.496409 0.857874 0.416924
O O3 0.752727 0.926845 0.303476
O O4 0.226527 0.851316 0.052757
O O5 0.202977 0.358804 0.576796
O O6 0.282461 0.338266 0.876102
O O7 0.772193 0.322280 0.867473
O O8 0.938237 0.570436 0.716333
O O9 0.535542 0.476284 0.651523
O O10 0.689124 0.615552 0.848640
O O11 0.000000 0.500000 0.000000
O O12 0.359718 0.113774 0.250936
O O13 0.093080 0.083691 0.898074
O O14 0.228704 0.232709 0.041818
O O15 0.500000 0.000000 0.500000
O O16 0.987951 0.946691 0.705191
O O17 0.000000 0.500000 0.500000
O O18 0.500000 0.000000 0.000000
#
# Coordination Sequence:
#
# PCOD9063373 Si02
#       8
#     2   2   2   2   2   2   2   2
#     4  11  24  44  66  98 138 179 233 294 351 420
#     4  11  25  47  73 105 146 188 237 296 356 419
#     4  11  24  46  72 108 145 189 239 286 353 426
#     4  11  24  45  64  99 140 179 230 294 358 409
#     4  12  24  41  69  98 131 183 235 290 356 424
#     4  11  26  44  74 110 147 188 236 297 349 419
#     4  12  22  43  67  94 135 179 230 293 352 416
#     4  11  25  46  76 101 145 194 235 290 360 427
#
# _framework density 22.455894000000001
#
# number of rings (size 3 to 8) (size 9 to 14) (size 15 to 20)
#    0.000    0.750    5.000    2.250    5.250    1.000 
#    0.000    2.500    0.000    0.000    0.000    0.000 
#    0.000    0.000    0.000    0.000    0.000    0.000 
#
# Total GULP energy -89193.188898 kJ/mol
# GULP energy per Si atom -5574.574306 kJ/mol
# Density = 2.240478 g / cm^3
# Si number density = 22.455894 Si / 1000 Ang^3
#
#
#
# Elastic Constant Matrix: (Units=GPa)
#
#
# Indices 1 2 3 4 5 6 
#
# 1 67.5917 11.2477 32.8698 -18.0971 -22.3906 -10.0915
# 2 11.2477 95.5230 29.1490 -20.7854 -14.3088 -10.2707
# 3 32.8698 29.1490 135.7616 -25.9306 -30.2917 -9.3066
# 4 -18.0971 -20.7854 -25.9306 41.9814 -1.7900 -4.2206
# 5 -22.3906 -14.3088 -30.2917 -1.7900 41.4860 7.0202
# 6 -10.0915 -10.2707 -9.3066 -4.2206 7.0202 34.6411
#
#
#
# Elastic Compliance Matrix: (Units=1/GPa)
#
#
# Indices 1 2 3 4 5 6 
#
# 1 0.022827 0.002589 -0.000676 0.011848 0.012179 0.006211
# 2 0.002589 0.013341 -0.000461 0.008114 0.005249 0.004511
# 3 -0.000676 -0.000461 0.010605 0.006524 0.007187 0.001854
# 4 0.011848 0.008114 0.006524 0.038523 0.014017 0.009463
# 5 0.012179 0.005249 0.007187 0.014017 0.038170 0.001007
# 6 0.006211 0.004511 0.001854 0.009463 0.001007 0.033461
#
#
# Mechanical properties :
#
#
# Convention : Reuss Voigt Hill
#
# Bulk Modulus (GPa) = 20.13041 49.48990 34.81015
# Shear Modulus (GPa) = 29.31106 38.66235 33.98671
#
# Velocity S-wave (km/s) = 3.61678 4.15384 3.89458
# Velocity P-wave (km/s) = 5.14055 6.71509 5.97987
#
# Compressibility (1/GPa) = 0.04967608
#
# Stress axis : x y z
#
# Youngs Moduli (GPa) = 43.80813 74.95491 94.29180
#
# Poissons Ratio (x) = -0.19404 0.06377
# Poissons Ratio (y) = -0.11341 0.04348
# Poissons Ratio (z) = 0.02963 0.03457
#
# Static dielectric constant tensor:
#      x y z
#    x 1.953200 0.018170 0.007700 
#    y 0.018170 1.835110 0.029190 
#    z 0.007700 0.029190 1.927030 
# 
# From -- ./inp_files/47696.got.cif
#   From: 2010.05.17/outbox.cif.g08.bks.cpg/sg2_24_cif.got.tgz:47696.got - 2010.06.03 11:33:40.
