data_PCOD9063766
_publ_section_title
;
Structure prediction by ZEFSAII (Michael W. Deem and Ramdas Pophale) SiO2 
 PCOD9063766
Probable space group: P -1
;
_chemical_formula_sum "Si O2"
_cell_formula_units_Z 16
_cell_length_a 15.650728
_cell_length_b 18.714448
_cell_length_c 18.139421
_cell_angle_alpha 164.050557
_cell_angle_beta 45.107251
_cell_angle_gamma 133.202071
_cell_volume 1033.777628
_symmetry_space_group_name_H-M "P -1"
_symmetry_group_IT_number 2
_symmetry_cell_setting 'triclinic'
loop_
_space_group_symop_operation_xyz
x,y,z
-x,-y,-z
loop_
_atom_site_type_symbol
_atom_site_label
_atom_site_fract_x
_atom_site_fract_y
_atom_site_fract_z
Si Si1 0.933072 0.232123 0.682018
Si Si2 0.909156 0.267409 0.902462
Si Si3 0.461018 0.287060 0.642488
Si Si4 0.693770 0.228680 0.732312
Si Si5 0.332659 0.988522 0.146258
Si Si6 0.486962 0.788160 0.633698
Si Si7 0.422822 0.742560 0.312788
Si Si8 0.424201 0.264429 0.228887
O O1 0.884018 0.278005 0.840426
O O2 0.825501 0.254691 0.712420
O O3 0.989465 0.948568 0.363768
O O4 0.037626 0.453756 0.827990
O O5 0.790164 0.164041 0.913524
O O6 0.498978 0.269822 0.517755
O O7 0.574582 0.270969 0.613771
O O8 0.369491 0.045846 0.478273
O O9 0.389882 0.548257 0.962012
O O10 0.690155 0.255063 0.671461
O O11 0.381445 0.155855 0.352926
O O12 0.333634 0.174648 0.259311
O O13 0.441811 0.786415 0.869151
O O14 0.423668 0.549029 0.478314
O O15 0.418629 0.051580 0.955540
O O16 0.500000 0.000000 0.500000
O O17 0.500000 0.500000 0.000000
#
# Coordination Sequence:
#
# PCOD9063766 Si02
#       8
#     2   2   2   2   2   2   2   2
#     4  10  21  32  41  66  85 119 154 184 202 249
#     4  10  21  31  45  60  90 114 155 185 210 242
#     4  10  18  27  47  67  88 118 145 175 223 268
#     4  10  18  31  45  60  92 120 149 180 215 255
#     4   9  20  31  48  60  90 119 144 182 227 253
#     4  10  18  28  43  67  89 110 143 177 213 278
#     4   8  16  28  42  64  85 113 145 177 214 264
#     4   9  20  30  45  66  86 114 148 178 223 274
#
# _framework density 15.477216
#
# number of rings (size 3 to 8) (size 9 to 14) (size 15 to 20)
#    0.750    1.750    0.000    2.625    3.500    1.000 
#    0.000    0.000    0.000    0.000    0.000    0.000 
#    0.000    6.000    0.000    0.000    0.000    0.000 
#
# Total GULP energy -89082.405843 kJ/mol
# GULP energy per Si atom -5567.650365 kJ/mol
# Density = 1.544199 g / cm^3
# Si number density = 15.477216 Si / 1000 Ang^3
#
#
#
# Elastic Constant Matrix: (Units=GPa)
#
#
# Indices 1 2 3 4 5 6 
#
# 1 88.7281 25.8282 -0.8081 -4.8689 10.7953 -15.1838
# 2 25.8282 71.2122 -8.0878 2.6059 10.9568 -3.0188
# 3 -0.8081 -8.0878 49.0411 13.1343 8.4594 -2.5337
# 4 -4.8689 2.6059 13.1343 22.8673 -4.4160 7.1980
# 5 10.7953 10.9568 8.4594 -4.4160 16.8638 -3.9222
# 6 -15.1838 -3.0188 -2.5337 7.1980 -3.9222 20.5184
#
#
#
# Elastic Compliance Matrix: (Units=1/GPa)
#
#
# Indices 1 2 3 4 5 6 
#
# 1 0.014715 -0.003773 0.001580 -0.001617 -0.005864 0.009976
# 2 -0.003773 0.020007 0.010121 -0.013269 -0.018551 0.002510
# 3 0.001580 0.010121 0.036678 -0.031844 -0.031453 0.012346
# 4 -0.001617 -0.013269 -0.031844 0.079531 0.040103 -0.027315
# 5 -0.005864 -0.018551 -0.031453 0.040103 0.100012 -0.005904
# 6 0.009976 0.002510 0.012346 -0.027315 -0.005904 0.066466
#
#
# Mechanical properties :
#
#
# Convention : Reuss Voigt Hill
#
# Bulk Modulus (GPa) = 11.46069 26.98287 19.22178
# Shear Modulus (GPa) = 15.12225 24.85317 19.98771
#
# Velocity S-wave (km/s) = 3.12920 4.01158 3.59754
# Velocity P-wave (km/s) = 4.52513 6.23929 5.45003
#
# Compressibility (1/GPa) = 0.08725477
#
# Stress axis : x y z
#
# Youngs Moduli (GPa) = 67.95794 49.98331 27.26430
#
# Poissons Ratio (x) = 0.18860 -0.04308
# Poissons Ratio (y) = 0.25642 -0.27593
# Poissons Ratio (z) = -0.10739 -0.50586
#
# Static dielectric constant tensor:
#      x y z
#    x 1.527000 -0.026080 0.009160 
#    y -0.026080 1.504860 0.001660 
#    z 0.009160 0.001660 1.546510 
# 
# From -- ./inp_files/534675.got.cif
#   From: 2010.05.17/outbox.cif.g08.bks.cpg/sg2_268_cif.got.tgz:534675.got - 2010.06.03 11:33:40.
