data_PCOD9063669
_publ_section_title
;
Structure prediction by ZEFSAII (Michael W. Deem and Ramdas Pophale) SiO2 
 PCOD9063669
Probable space group: P -1
;
_chemical_formula_sum "Si O2"
_cell_formula_units_Z 16
_cell_length_a 8.599519
_cell_length_b 27.759962
_cell_length_c 9.650444
_cell_angle_alpha 143.839083
_cell_angle_beta 68.575573
_cell_angle_gamma 139.192891
_cell_volume 684.427234
_symmetry_space_group_name_H-M "P -1"
_symmetry_group_IT_number 2
_symmetry_cell_setting 'triclinic'
loop_
_space_group_symop_operation_xyz
x,y,z
-x,-y,-z
loop_
_atom_site_type_symbol
_atom_site_label
_atom_site_fract_x
_atom_site_fract_y
_atom_site_fract_z
Si Si1 0.524469 0.458601 0.753036
Si Si2 0.890000 0.141034 0.113545
Si Si3 0.444714 0.890238 0.199185
Si Si4 0.627126 0.939201 0.965191
Si Si5 0.603873 0.355413 0.944743
Si Si6 0.312340 0.084050 0.549978
Si Si7 0.695821 0.365277 0.620589
Si Si8 0.761383 0.641174 0.843659
O O1 0.621225 0.406638 0.636068
O O2 0.753517 0.598448 0.899757
O O3 0.213008 0.319791 0.442101
O O4 0.500000 0.500000 0.000000
O O5 0.646821 0.115379 0.130421
O O6 0.889373 0.077849 0.098449
O O7 0.788304 0.040233 0.785747
O O8 0.502435 0.853422 0.222000
O O9 0.500000 0.000000 0.500000
O O10 0.679973 0.978693 0.200965
O O11 0.095525 0.752291 0.936483
O O12 0.521467 0.802740 0.688548
O O13 0.508175 0.223784 0.710216
O O14 0.651516 0.385268 0.834391
O O15 0.341209 0.307045 0.978542
O O16 0.953072 0.516647 0.255349
O O17 0.000000 0.000000 0.500000
O O18 0.500000 0.500000 0.500000
#
# Coordination Sequence:
#
# PCOD9063669 Si02
#       8
#     2   2   2   2   2   2   2   2
#     4  12  27  44  71 105 140 186 241 294 356 430
#     4  11  26  47  71 103 144 190 236 296 358 429
#     4  12  26  45  74 104 143 192 238 294 360 428
#     4  11  25  46  72 101 139 187 241 291 354 426
#     4  11  24  45  72 102 141 187 232 299 356 423
#     4  12  27  47  72 108 150 188 236 298 362 428
#     4  11  24  44  72 104 137 180 244 294 354 421
#     4  12  27  48  73 105 148 190 240 295 367 429
#
# _framework density 23.377213000000001
#
# number of rings (size 3 to 8) (size 9 to 14) (size 15 to 20)
#    0.000    0.500    3.750    3.750    7.000    1.500 
#    0.000    2.500    0.000    0.000    0.000    0.000 
#    0.000    0.000    0.000    0.000    0.000    0.000 
#
# Total GULP energy -89412.600694 kJ/mol
# GULP energy per Si atom -5588.287543 kJ/mol
# Density = 2.332401 g / cm^3
# Si number density = 23.377213 Si / 1000 Ang^3
#
#
#
# Elastic Constant Matrix: (Units=GPa)
#
#
# Indices 1 2 3 4 5 6 
#
# 1 110.6016 8.4519 12.8780 -0.8367 -4.1581 -15.2950
# 2 8.4519 86.2755 -0.9142 0.7138 4.1024 -24.5521
# 3 12.8780 -0.9142 69.5347 -6.3351 -1.3582 3.0199
# 4 -0.8367 0.7138 -6.3351 32.9875 -3.2224 0.4361
# 5 -4.1581 4.1024 -1.3582 -3.2224 38.9931 1.7044
# 6 -15.2950 -24.5521 3.0199 0.4361 1.7044 39.7775
#
#
#
# Elastic Compliance Matrix: (Units=1/GPa)
#
#
# Indices 1 2 3 4 5 6 
#
# 1 0.009842 0.000108 -0.001989 -0.000110 0.000786 0.003970
# 2 0.000108 0.014216 -0.000320 -0.000674 -0.001941 0.008931
# 3 -0.001989 -0.000320 0.015123 0.002957 0.000688 -0.002172
# 4 -0.000110 -0.000674 0.002957 0.031182 0.002789 -0.001144
# 5 0.000786 -0.001941 0.000688 0.002789 0.026280 -0.002105
# 6 0.003970 0.008931 -0.002172 -0.001144 -0.002105 0.032447
#
#
# Mechanical properties :
#
#
# Convention : Reuss Voigt Hill
#
# Bulk Modulus (GPa) = 28.75258 34.13813 31.44535
# Shear Modulus (GPa) = 34.46265 38.75136 36.60701
#
# Velocity S-wave (km/s) = 3.84369 4.07585 3.96147
# Velocity P-wave (km/s) = 5.65904 6.06506 5.86556
#
# Compressibility (1/GPa) = 0.03477949
#
# Stress axis : x y z
#
# Youngs Moduli (GPa) = 101.60087 70.34161 66.12658
#
# Poissons Ratio (x) = -0.00759 0.13149
# Poissons Ratio (y) = -0.01096 0.02118
# Poissons Ratio (z) = 0.20203 0.02253
#
# Static dielectric constant tensor:
#      x y z
#    x 1.783940 -0.095870 0.132530 
#    y -0.095870 1.885550 0.067000 
#    z 0.132530 0.067000 1.827380 
# 
# From -- ./inp_files/227746.got.cif
#   From: 2010.05.17/outbox.cif.g08.bks.cpg/sg2_114_cif.got.tgz:227746.got - 2010.06.03 11:33:40.
