data_PCOD9063446
_publ_section_title
;
Structure prediction by ZEFSAII (Michael W. Deem and Ramdas Pophale) SiO2 
 PCOD9063446
Probable space group: P -1
;
_chemical_formula_sum "Si O2"
_cell_formula_units_Z 16
_cell_length_a 16.151083
_cell_length_b 10.199360
_cell_length_c 14.527619
_cell_angle_alpha 94.360382
_cell_angle_beta 50.948954
_cell_angle_gamma 138.740108
_cell_volume 772.606167
_symmetry_space_group_name_H-M "P -1"
_symmetry_group_IT_number 2
_symmetry_cell_setting 'triclinic'
loop_
_space_group_symop_operation_xyz
x,y,z
-x,-y,-z
loop_
_atom_site_type_symbol
_atom_site_label
_atom_site_fract_x
_atom_site_fract_y
_atom_site_fract_z
Si Si1 0.023185 0.053350 0.877906
Si Si2 0.065244 0.402338 0.657103
Si Si3 0.345212 0.650193 0.292867
Si Si4 0.400075 0.719306 0.609953
Si Si5 0.387716 0.286332 0.984496
Si Si6 0.232736 0.688131 0.895586
Si Si7 0.060955 0.808200 0.777033
Si Si8 0.792233 0.361832 0.787103
O O1 0.114714 0.020683 0.766331
O O2 0.759339 0.797700 0.997372
O O3 0.221655 0.393578 0.740661
O O4 0.000000 0.000000 0.000000
O O5 0.960462 0.423268 0.695383
O O6 0.206633 0.487662 0.478974
O O7 0.255384 0.629138 0.622704
O O8 0.826194 0.048442 0.839250
O O9 0.406304 0.579159 0.200104
O O10 0.195258 0.574416 0.322377
O O11 0.608952 0.024797 0.145637
O O12 0.402489 0.809986 0.704774
O O13 0.324420 0.023508 0.599095
O O14 0.500000 0.500000 0.000000
O O15 0.114162 0.446202 0.032449
O O16 0.000000 0.500000 0.000000
O O17 0.899851 0.599436 0.787270
O O18 0.500000 0.000000 0.000000
#
# Coordination Sequence:
#
# PCOD9063446 Si02
#       8
#     2   2   2   2   2   2   2   2
#     4  11  24  44  68  98 133 177 227 280 334 394
#     4  11  25  44  68 100 136 172 223 281 329 402
#     4  12  25  43  69  97 135 177 223 273 336 403
#     4  11  25  44  67 101 135 175 226 276 337 397
#     4  11  25  47  69  95 137 181 226 277 339 403
#     4  12  23  39  68  98 130 176 217 269 339 397
#     4  12  24  43  68  95 137 176 221 277 334 395
#     4  12  23  44  68  99 137 176 220 277 335 398
#
# _framework density 20.709128
#
# number of rings (size 3 to 8) (size 9 to 14) (size 15 to 20)
#    0.000    0.500    3.750    5.250    1.750    2.000 
#    2.250    0.000    0.000    0.000    0.000    0.000 
#    0.000    0.000    0.000    0.000    0.000    0.000 
#
# Total GULP energy -89577.723192 kJ/mol
# GULP energy per Si atom -5598.607699 kJ/mol
# Density = 2.066199 g / cm^3
# Si number density = 20.709128 Si / 1000 Ang^3
#
#
#
# Elastic Constant Matrix: (Units=GPa)
#
#
# Indices 1 2 3 4 5 6 
#
# 1 123.2719 34.4393 26.5873 17.1093 -1.3669 15.5024
# 2 34.4393 125.6349 18.5064 21.1093 -9.8855 8.5542
# 3 26.5873 18.5064 90.0952 19.3286 -0.2765 1.6790
# 4 17.1093 21.1093 19.3286 28.6963 -0.8134 -4.9359
# 5 -1.3669 -9.8855 -0.2765 -0.8134 36.8152 5.4150
# 6 15.5024 8.5542 1.6790 -4.9359 5.4150 37.8920
#
#
#
# Elastic Compliance Matrix: (Units=1/GPa)
#
#
# Indices 1 2 3 4 5 6 
#
# 1 0.010051 -0.001400 -0.001602 -0.004625 0.000531 -0.004403
# 2 -0.001400 0.009937 -0.000096 -0.006839 0.002902 -0.002972
# 3 -0.001602 -0.000096 0.013356 -0.008137 -0.000022 -0.000971
# 4 -0.004625 -0.006839 -0.008137 0.049878 -0.002535 0.010656
# 5 0.000531 0.002902 -0.000022 -0.002535 0.028685 -0.005301
# 6 -0.004403 -0.002972 -0.000971 0.010656 -0.005301 0.031052
#
#
# Mechanical properties :
#
#
# Convention : Reuss Voigt Hill
#
# Bulk Modulus (GPa) = 36.83865 55.34089 46.08977
# Shear Modulus (GPa) = 31.60447 37.97863 34.79155
#
# Velocity S-wave (km/s) = 3.91079 4.28706 4.10324
# Velocity P-wave (km/s) = 6.18220 7.16143 6.68976
#
# Compressibility (1/GPa) = 0.02714541
#
# Stress axis : x y z
#
# Youngs Moduli (GPa) = 99.49725 100.62985 74.87380
#
# Poissons Ratio (x) = 0.14092 0.11997
# Poissons Ratio (y) = 0.13933 0.00722
# Poissons Ratio (z) = 0.15943 0.00971
#
# Static dielectric constant tensor:
#      x y z
#    x 1.734100 0.010440 0.009620 
#    y 0.010440 1.733980 0.006940 
#    z 0.009620 0.006940 1.736950 
# 
# From -- ./inp_files/529783.got.cif
#   From: 2010.05.17/outbox.cif.g08.bks.cpg/sg2_265_cif.got.tgz:529783.got - 2010.06.03 11:33:40.
