data_PCOD9063445
_publ_section_title
;
Structure prediction by ZEFSAII (Michael W. Deem and Ramdas Pophale) SiO2 
 PCOD9063445
Probable space group: P -1
;
_chemical_formula_sum "Si O2"
_cell_formula_units_Z 14
_cell_length_a 9.045332
_cell_length_b 9.401835
_cell_length_c 17.545059
_cell_angle_alpha 108.399219
_cell_angle_beta 31.450565
_cell_angle_gamma 122.146671
_cell_volume 626.031736
_symmetry_space_group_name_H-M "P -1"
_symmetry_group_IT_number 2
_symmetry_cell_setting 'triclinic'
loop_
_space_group_symop_operation_xyz
x,y,z
-x,-y,-z
loop_
_atom_site_type_symbol
_atom_site_label
_atom_site_fract_x
_atom_site_fract_y
_atom_site_fract_z
Si Si1 0.959873 0.063666 0.373578
Si Si2 0.904133 0.219616 0.661900
Si Si3 0.849272 0.620354 0.077202
Si Si4 0.169644 0.845464 0.703263
Si Si5 0.333218 0.535773 0.151032
Si Si6 0.242367 0.429024 0.404835
Si Si7 0.774033 0.071964 0.136587
O O1 0.017646 0.096080 0.262800
O O2 0.153583 0.252291 0.364981
O O3 0.563691 0.978525 0.544244
O O4 0.014355 0.910375 0.352779
O O5 0.748192 0.311457 0.795129
O O6 0.186019 0.364775 0.506372
O O7 0.603666 0.085782 0.715529
O O8 0.578381 0.573807 0.120972
O O9 0.620763 0.586523 0.245823
O O10 0.000000 0.500000 0.000000
O O11 0.170042 0.801873 0.937376
O O12 0.101275 0.839583 0.821705
O O13 0.023758 0.644336 0.708290
O O14 0.500000 0.500000 0.000000
O O15 0.000000 0.500000 0.500000
O O16 0.000000 0.000000 0.000000
#
# Coordination Sequence:
#
# PCOD9063445 Si02
#       7
#     2   2   2   2   2   2   2
#     4  11  25  43  71 104 137 180 237 294 348 411
#     4  12  25  45  75 102 135 188 245 290 342 426
#     4  12  26  42  69 105 141 181 234 286 352 416
#     4  11  24  44  68  97 143 180 225 293 354 412
#     4  12  24  48  68  98 143 186 228 293 363 415
#     4  12  22  44  74 105 140 184 235 291 345 418
#     4  12  23  45  69 101 135 184 232 285 352 414
#
# _framework density 22.363084000000001
#
# number of rings (size 3 to 8) (size 9 to 14) (size 15 to 20)
#    0.000    0.286    7.143    1.286    2.000    0.571 
#    2.571    1.429    0.000    0.000    0.000    0.000 
#    0.000    0.000    0.000    0.000    0.000    0.000 
#
# Total GULP energy -78138.405048 kJ/mol
# GULP energy per Si atom -5581.314646 kJ/mol
# Density = 2.231218 g / cm^3
# Si number density = 22.363084 Si / 1000 Ang^3
#
#
#
# Elastic Constant Matrix: (Units=GPa)
#
#
# Indices 1 2 3 4 5 6 
#
# 1 55.8464 40.7813 17.8810 16.7038 3.0266 -27.4015
# 2 40.7813 88.4639 6.6628 19.0636 18.3835 -29.1066
# 3 17.8810 6.6628 78.1173 2.3684 25.9883 -9.5617
# 4 16.7038 19.0636 2.3684 37.9120 -14.8340 -15.7480
# 5 3.0266 18.3835 25.9883 -14.8340 19.1026 -7.1837
# 6 -27.4015 -29.1066 -9.5617 -15.7480 -7.1837 49.0533
#
#
#
# Elastic Compliance Matrix: (Units=1/GPa)
#
#
# Indices 1 2 3 4 5 6 
#
# 1 0.023653 0.004410 0.009858 -0.029561 -0.043656 0.001868
# 2 0.004410 -0.004669 -0.021301 0.033753 0.064960 0.015890
# 3 0.009858 -0.021301 -0.008839 0.037640 0.064984 0.012745
# 4 -0.029561 0.033753 0.037640 -0.025754 -0.103748 -0.012609
# 5 -0.043656 0.064960 0.064984 -0.103748 -0.184838 -0.033551
# 6 0.001868 0.015890 0.012745 -0.012609 -0.033551 0.024381
#
#
# Mechanical properties :
#
#
# Convention : Reuss Voigt Hill
#
# Bulk Modulus (GPa) = -255.17482 39.23088 -107.97197
# Shear Modulus (GPa) = -30.61709 31.68708 0.53499
#
# Velocity S-wave (km/s) = -3.70414 3.76831 0.48964
# Velocity P-wave (km/s) = 11.51726 6.04271 6.93300
#
# Compressibility (1/GPa) = -0.00391888
#
# Stress axis : x y z
#
# Youngs Moduli (GPa) = 42.27708 -214.16068 -113.14006
#
# Poissons Ratio (x) = 0.94453 1.11535
# Poissons Ratio (y) = -0.18646 -2.40996
# Poissons Ratio (z) = -0.41677 -4.56178
#
# Static dielectric constant tensor:
#      x y z
#    x 1.808560 0.034350 0.018850 
#    y 0.034350 1.832030 -0.038200 
#    z 0.018850 -0.038200 1.866510 
# 
# From -- ./inp_files/217272.got.cif
#   From: 2010.05.17/outbox.cif.g08.bks.cpg/sg2_109_cif.got.tgz:217272.got - 2010.06.03 11:33:40.
