data_PCOD9063738
_publ_section_title
;
Structure prediction by ZEFSAII (Michael W. Deem and Ramdas Pophale) SiO2 
 PCOD9063738
Probable space group: P -1
;
_chemical_formula_sum "Si O2"
_cell_formula_units_Z 15
_cell_length_a 9.446342
_cell_length_b 8.771088
_cell_length_c 8.914402
_cell_angle_alpha 105.798199
_cell_angle_beta 74.690522
_cell_angle_gamma 112.129566
_cell_volume 647.453209
_symmetry_space_group_name_H-M "P -1"
_symmetry_group_IT_number 2
_symmetry_cell_setting 'triclinic'
loop_
_space_group_symop_operation_xyz
x,y,z
-x,-y,-z
loop_
_atom_site_type_symbol
_atom_site_label
_atom_site_fract_x
_atom_site_fract_y
_atom_site_fract_z
Si Si1 0.620747 0.736370 0.442779
Si Si2 0.543503 0.364055 0.257832
Si Si3 0.500000 0.000000 0.500000
Si Si4 0.965886 0.823731 0.886436
Si Si5 0.340485 0.420802 0.113344
Si Si6 0.848619 0.336627 0.023186
Si Si7 0.230059 0.732582 0.305368
Si Si8 0.945694 0.812518 0.531560
O O1 0.556222 0.555703 0.338232
O O2 0.490523 0.740757 0.606603
O O3 0.623612 0.896647 0.390782
O O4 0.776377 0.735680 0.482458
O O5 0.391307 0.301040 0.182070
O O6 0.696332 0.371150 0.131192
O O7 0.365341 0.875990 0.390157
O O8 0.806160 0.697089 0.966421
O O9 0.104496 0.760920 0.881836
O O10 0.946034 0.820032 0.712902
O O11 0.000000 0.000000 0.000000
O O12 0.278164 0.563464 0.240453
O O13 0.500000 0.500000 0.000000
O O14 0.801423 0.237441 0.853164
O O15 0.000000 0.500000 0.000000
O O16 0.066233 0.717693 0.424910
O O17 0.000000 0.000000 0.500000
#
# Coordination Sequence:
#
# PCOD9063738 Si02
#       8
#     2   2   1   2   2   2   2   2
#     4  11  25  44  70 107 146 189 251 307 377 449
#     4  11  24  44  73 105 143 191 246 315 373 454
#     4  12  26  44  72 106 150 194 244 310 378 446
#     4  12  29  49  76 114 152 202 259 316 391 457
#     4  12  24  49  76 107 149 199 251 317 385 461
#     4  12  25  49  75 111 149 200 255 316 389 463
#     4  12  26  45  73 112 149 196 255 307 387 455
#     4  12  26  47  74 107 156 200 251 318 376 454
#
# _framework density 23.167698000000001
#
# number of rings (size 3 to 8) (size 9 to 14) (size 15 to 20)
#    0.000    0.267    6.667    1.600    1.867    2.667 
#    0.000    1.333    0.000    0.000    0.000    0.000 
#    0.000    0.000    0.000    0.000    0.000    0.000 
#
# Total GULP energy -83590.947032 kJ/mol
# GULP energy per Si atom -5572.729802 kJ/mol
# Density = 2.311497 g / cm^3
# Si number density = 23.167698 Si / 1000 Ang^3
#
#
#
# Elastic Constant Matrix: (Units=GPa)
#
#
# Indices 1 2 3 4 5 6 
#
# 1 192.1331 25.0911 56.1070 9.9805 -2.9184 1.1990
# 2 25.0911 50.9505 6.0222 16.4922 -9.0666 12.3881
# 3 56.1070 6.0222 85.0336 -3.1186 -16.9487 15.5129
# 4 9.9805 16.4922 -3.1186 34.4051 -2.8225 7.7027
# 5 -2.9184 -9.0666 -16.9487 -2.8225 55.6239 4.0088
# 6 1.1990 12.3881 15.5129 7.7027 4.0088 35.9681
#
#
#
# Elastic Compliance Matrix: (Units=1/GPa)
#
#
# Indices 1 2 3 4 5 6 
#
# 1 0.007521 -0.003828 -0.006072 -0.002091 -0.002504 0.004413
# 2 -0.003828 0.027334 0.003000 -0.009220 0.005364 -0.009204
# 3 -0.006072 0.003000 0.019147 0.005093 0.007053 -0.010966
# 4 -0.002091 -0.009220 0.005093 0.036303 0.002284 -0.006980
# 5 -0.002504 0.005364 0.007053 0.002284 0.021541 -0.007696
# 6 0.004413 -0.009204 -0.010966 -0.006980 -0.007696 0.037908
#
#
# Mechanical properties :
#
#
# Convention : Reuss Voigt Hill
#
# Bulk Modulus (GPa) = 24.87417 55.83976 40.35697
# Shear Modulus (GPa) = 28.25585 41.25920 34.75753
#
# Velocity S-wave (km/s) = 3.49610 4.22464 3.87752
# Velocity P-wave (km/s) = 5.20162 6.92470 6.12407
#
# Compressibility (1/GPa) = 0.04020234
#
# Stress axis : x y z
#
# Youngs Moduli (GPa) = 132.96361 36.58422 52.22676
#
# Poissons Ratio (x) = 0.14004 0.31713
# Poissons Ratio (y) = 0.50897 -0.15668
# Poissons Ratio (z) = 0.80738 -0.10976
#
# Static dielectric constant tensor:
#      x y z
#    x 1.962000 -0.074820 0.017700 
#    y -0.074820 1.932890 -0.057660 
#    z 0.017700 -0.057660 1.918130 
# 
# From -- ./inp_files/159619.got.cif
#   From: 2010.05.17/outbox.cif.g08.bks.cpg/sg2_80_cif.got.tgz:159619.got - 2010.06.03 11:33:40.
