data_PCOD9063169
_publ_section_title
;
Structure prediction by ZEFSAII (Michael W. Deem and Ramdas Pophale) SiO2 
 PCOD9063169
Probable space group: P -1
;
_chemical_formula_sum "Si O2"
_cell_formula_units_Z 16
_cell_length_a 19.307943
_cell_length_b 16.785791
_cell_length_c 8.413767
_cell_angle_alpha 135.028319
_cell_angle_beta 46.488738
_cell_angle_gamma 158.655265
_cell_volume 696.829504
_symmetry_space_group_name_H-M "P -1"
_symmetry_group_IT_number 2
_symmetry_cell_setting 'triclinic'
loop_
_space_group_symop_operation_xyz
x,y,z
-x,-y,-z
loop_
_atom_site_type_symbol
_atom_site_label
_atom_site_fract_x
_atom_site_fract_y
_atom_site_fract_z
Si Si1 0.707072 0.846482 0.996273
Si Si2 0.451008 0.417255 0.638022
Si Si3 0.093720 0.187117 0.000772
Si Si4 0.184037 0.478160 0.509275
Si Si5 0.787530 0.323260 0.541342
Si Si6 0.141019 0.751216 0.148363
Si Si7 0.570998 0.919043 0.133092
Si Si8 0.406418 0.145029 0.487558
O O1 0.615699 0.631177 0.800359
O O2 0.612266 0.833360 0.999126
O O3 0.655485 0.847071 0.249285
O O4 0.936492 0.072308 0.962701
O O5 0.500000 0.500000 0.500000
O O6 0.413678 0.246969 0.482518
O O7 0.264976 0.298514 0.805455
O O8 0.166981 0.358168 0.244832
O O9 0.000000 0.000000 0.000000
O O10 0.182580 0.582000 0.538801
O O11 0.382433 0.682852 0.575028
O O12 0.011825 0.304373 0.662378
O O13 0.651306 0.266906 0.784030
O O14 0.000000 0.500000 0.500000
O O15 0.660131 0.082785 0.369066
O O16 0.267749 0.899689 0.316687
O O17 0.000000 0.500000 0.000000
O O18 0.295489 0.917555 0.998545
#
# Coordination Sequence:
#
# PCOD9063169 Si02
#       8
#     2   2   2   2   2   2   2   2
#     4  12  23  43  76 102 142 190 239 291 359 435
#     4  12  26  45  72 113 147 183 236 300 363 430
#     4  12  23  41  72 104 142 187 239 288 356 442
#     4  12  24  45  71 104 140 193 246 293 367 434
#     4  11  24  43  71  98 138 187 241 292 361 431
#     4  12  27  47  68 106 146 187 246 309 362 418
#     4  11  25  44  67 103 139 181 241 300 354 424
#     4  12  25  45  75 102 146 193 239 301 361 432
#
# _framework density 22.961141000000001
#
# number of rings (size 3 to 8) (size 9 to 14) (size 15 to 20)
#    0.000    0.250    6.250    2.625    0.000    3.000 
#    0.000    0.000    0.000    0.000    0.000    0.000 
#    0.000    0.000    0.000    0.000    0.000    0.000 
#
# Total GULP energy -89462.414163 kJ/mol
# GULP energy per Si atom -5591.400885 kJ/mol
# Density = 2.290888 g / cm^3
# Si number density = 22.961141 Si / 1000 Ang^3
#
#
#
# Elastic Constant Matrix: (Units=GPa)
#
#
# Indices 1 2 3 4 5 6 
#
# 1 88.8125 49.5851 44.2354 -10.1694 -14.1295 14.9504
# 2 49.5851 142.1130 60.1343 -12.1347 1.4716 31.6013
# 3 44.2354 60.1343 92.1292 -12.2407 7.0070 5.7665
# 4 -10.1694 -12.1347 -12.2407 54.7472 -4.3081 -5.1716
# 5 -14.1295 1.4716 7.0070 -4.3081 31.3253 -6.5182
# 6 14.9504 31.6013 5.7665 -5.1716 -6.5182 58.9504
#
#
#
# Elastic Compliance Matrix: (Units=1/GPa)
#
#
# Indices 1 2 3 4 5 6 
#
# 1 0.018719 -0.003098 -0.007437 0.001837 0.010284 -0.001061
# 2 -0.003098 0.011679 -0.005668 0.000129 -0.001721 -0.005100
# 3 -0.007437 -0.005668 0.018635 0.001246 -0.006568 0.002485
# 4 0.001837 0.000129 0.001246 0.019324 0.003498 0.001425
# 5 0.010284 -0.001721 -0.006568 0.003498 0.039345 0.003614
# 6 -0.001061 -0.005100 0.002485 0.001425 0.003614 0.020248
#
#
# Mechanical properties :
#
#
# Convention : Reuss Voigt Hill
#
# Bulk Modulus (GPa) = 60.15016 70.10714 65.12865
# Shear Modulus (GPa) = 30.13899 40.27792 35.20845
#
# Velocity S-wave (km/s) = 3.62692 4.19283 3.92010
# Velocity P-wave (km/s) = 6.61761 7.35113 6.99399
#
# Compressibility (1/GPa) = 0.01662506
#
# Stress axis : x y z
#
# Youngs Moduli (GPa) = 53.42262 85.62477 53.66308
#
# Poissons Ratio (x) = 0.26526 0.39911
# Poissons Ratio (y) = 0.16550 0.30418
# Poissons Ratio (z) = 0.39732 0.48535
#
# Static dielectric constant tensor:
#      x y z
#    x 1.912180 0.023150 -0.005290 
#    y 0.023150 1.916100 0.033520 
#    z -0.005290 0.033520 1.885100 
# 
# From -- ./inp_files/348935.got.cif
#   From: 2010.05.17/outbox.cif.g08.bks.cpg/sg2_175_cif.got.tgz:348935.got - 2010.06.03 11:33:40.
