data_PCOD9063983
_publ_section_title
;
Structure prediction by ZEFSAII (Michael W. Deem and Ramdas Pophale) SiO2 
 PCOD9063983
Probable space group: P -1
;
_chemical_formula_sum "Si O2"
_cell_formula_units_Z 16
_cell_length_a 18.833203
_cell_length_b 8.383074
_cell_length_c 6.505178
_cell_angle_alpha 64.507963
_cell_angle_beta 60.937524
_cell_angle_gamma 53.680978
_cell_volume 708.326622
_symmetry_space_group_name_H-M "P -1"
_symmetry_group_IT_number 2
_symmetry_cell_setting 'triclinic'
loop_
_space_group_symop_operation_xyz
x,y,z
-x,-y,-z
loop_
_atom_site_type_symbol
_atom_site_label
_atom_site_fract_x
_atom_site_fract_y
_atom_site_fract_z
Si Si1 0.831177 0.181419 0.598587
Si Si2 0.576982 0.531805 0.261570
Si Si3 0.754119 0.114846 0.148660
Si Si4 0.913344 0.825437 0.368313
Si Si5 0.732426 0.524063 0.216756
Si Si6 0.506809 0.863002 0.869831
Si Si7 0.651673 0.892204 0.353644
Si Si8 0.121301 0.555284 0.300878
O O1 0.769230 0.332722 0.421693
O O2 0.871001 0.309649 0.598063
O O3 0.896679 0.967275 0.514076
O O4 0.772534 0.132597 0.874476
O O5 0.500000 0.500000 0.500000
O O6 0.678381 0.340096 0.195017
O O7 0.618993 0.642912 0.282470
O O8 0.534937 0.646995 0.047608
O O9 0.853490 0.987753 0.187670
O O10 0.697291 0.002268 0.351884
O O11 0.880822 0.653295 0.529601
O O12 0.023356 0.698998 0.247138
O O13 0.738149 0.697579 0.244780
O O14 0.794353 0.491972 0.946213
O O15 0.589527 0.843864 0.620856
O O16 0.414823 0.952849 0.812438
O O17 0.500000 0.000000 0.000000
#
# Coordination Sequence:
#
# PCOD9063983 Si02
#       8
#     2   2   2   2   2   2   2   2
#     4  12  24  45  73 105 140 189 232 286 358 419
#     4  12  26  43  68  98 141 184 226 290 349 407
#     4  12  26  45  69 104 140 178 235 292 349 421
#     4  11  26  47  75 105 141 183 236 291 354 425
#     4  12  25  46  69 102 143 183 233 289 351 416
#     4  11  24  45  68  98 140 183 240 292 349 410
#     4  11  26  42  72 101 132 194 233 288 354 417
#     4  11  26  48  73 106 142 184 232 296 352 420
#
# _framework density 22.588452
#
# number of rings (size 3 to 8) (size 9 to 14) (size 15 to 20)
#    0.000    0.500    3.750    3.375    5.250    5.500 
#    0.000    3.125    0.000    0.000    0.000    0.000 
#    0.000    0.000    0.000    0.000    0.000    0.000 
#
# Total GULP energy -89301.817736 kJ/mol
# GULP energy per Si atom -5581.363609 kJ/mol
# Density = 2.253704 g / cm^3
# Si number density = 22.588452 Si / 1000 Ang^3
#
#
#
# Elastic Constant Matrix: (Units=GPa)
#
#
# Indices 1 2 3 4 5 6 
#
# 1 63.2640 35.9778 40.4449 -0.3087 -20.2082 -10.9743
# 2 35.9778 83.8496 37.2902 -14.0376 3.6563 -8.8891
# 3 40.4449 37.2902 98.6488 -9.8557 -3.2207 -12.0862
# 4 -0.3087 -14.0376 -9.8557 36.5613 -0.2416 11.3112
# 5 -20.2082 3.6563 -3.2207 -0.2416 30.5107 -3.3422
# 6 -10.9743 -8.8891 -12.0862 11.3112 -3.3422 35.9022
#
#
#
# Elastic Compliance Matrix: (Units=1/GPa)
#
#
# Indices 1 2 3 4 5 6 
#
# 1 0.043850 -0.016234 -0.010513 -0.012406 0.031167 0.012655
# 2 -0.016234 0.021159 -0.001436 0.008832 -0.013838 -0.004278
# 3 -0.010513 -0.001436 0.015160 0.003420 -0.005166 -0.000024
# 4 -0.012406 0.008832 0.003420 0.035369 -0.010007 -0.012529
# 5 0.031167 -0.013838 -0.005166 -0.010007 0.055845 0.012713
# 6 0.012655 -0.004278 -0.000024 -0.012529 0.012713 0.035785
#
#
# Mechanical properties :
#
#
# Convention : Reuss Voigt Hill
#
# Bulk Modulus (GPa) = 42.01109 52.57647 47.29378
# Shear Modulus (GPa) = 18.41832 29.39814 23.90823
#
# Velocity S-wave (km/s) = 2.85860 3.61150 3.25688
# Velocity P-wave (km/s) = 5.43454 6.38098 5.92669
#
# Compressibility (1/GPa) = 0.02380324
#
# Stress axis : x y z
#
# Youngs Moduli (GPa) = 22.80491 47.26150 65.96300
#
# Poissons Ratio (x) = 0.76725 0.69346
# Poissons Ratio (y) = 0.37022 0.09472
# Poissons Ratio (z) = 0.23974 0.06787
#
# Static dielectric constant tensor:
#      x y z
#    x 2.017700 0.180810 0.025640 
#    y 0.180810 2.008450 -0.006870 
#    z 0.025640 -0.006870 1.771800 
# 
# From -- ./inp_files/48414.got.cif
#   From: 2010.05.17/outbox.cif.g08.bks.cpg/sg2_25_cif.got.tgz:48414.got - 2010.06.03 11:33:40.
