data_PCOD9063339
_publ_section_title
;
Structure prediction by ZEFSAII (Michael W. Deem and Ramdas Pophale) SiO2 
 PCOD9063339
Probable space group: P -1
;
_chemical_formula_sum "Si O2"
_cell_formula_units_Z 13
_cell_length_a 5.309411
_cell_length_b 14.902096
_cell_length_c 15.457464
_cell_angle_alpha 27.542080
_cell_angle_beta 73.970262
_cell_angle_gamma 67.702129
_cell_volume 518.013773
_symmetry_space_group_name_H-M "P -1"
_symmetry_group_IT_number 2
_symmetry_cell_setting 'triclinic'
loop_
_space_group_symop_operation_xyz
x,y,z
-x,-y,-z
loop_
_atom_site_type_symbol
_atom_site_label
_atom_site_fract_x
_atom_site_fract_y
_atom_site_fract_z
Si Si1 0.202541 0.880493 0.243603
Si Si2 0.500000 0.000000 0.000000
Si Si3 0.930420 0.339462 0.711840
Si Si4 0.669760 0.028525 0.259393
Si Si5 0.307052 0.369320 0.103314
Si Si6 0.558517 0.352069 0.419172
Si Si7 0.055459 0.146855 0.441879
O O1 0.220454 0.797137 0.214147
O O2 0.285867 0.696903 0.460590
O O3 0.900493 0.016981 0.176788
O O4 0.426572 0.996181 0.115633
O O5 0.211738 0.194589 0.846127
O O6 0.708740 0.458440 0.701563
O O7 0.000000 0.500000 0.500000
O O8 0.430336 0.231548 0.126813
O O9 0.550876 0.840892 0.420436
O O10 0.840621 0.985269 0.370096
O O11 0.281798 0.235029 0.303677
O O12 0.500000 0.500000 0.000000
O O13 0.000000 0.500000 0.000000
O O14 0.786783 0.327751 0.344390
O O15 0.000000 0.000000 0.500000
#
# Coordination Sequence:
#
# PCOD9063339 Si02
#       7
#     2   1   2   2   2   2   2
#     4  11  24  46  71 106 149 194 246 324 382 463
#     4  12  26  42  72 102 150 196 248 316 388 446
#     4  12  24  46  73 106 149 197 255 310 387 460
#     4  11  24  46  75 105 143 197 262 307 388 476
#     4  12  28  47  72 109 158 199 250 336 401 460
#     4  11  24  43  79 105 138 201 260 316 379 475
#     4  11  24  46  79 104 145 202 262 315 390 477
#
# _framework density 25.095859000000001
#
# number of rings (size 3 to 8) (size 9 to 14) (size 15 to 20)
#    0.000    0.615    4.615    2.308    4.308    1.231 
#    2.769    0.000    0.000    0.000    0.000    0.000 
#    0.000    0.000    0.000    0.000    0.000    0.000 
#
# Total GULP energy -72614.857276 kJ/mol
# GULP energy per Si atom -5585.758252 kJ/mol
# Density = 2.503874 g / cm^3
# Si number density = 25.095859 Si / 1000 Ang^3
#
#
#
# Elastic Constant Matrix: (Units=GPa)
#
#
# Indices 1 2 3 4 5 6 
#
# 1 113.2698 70.2081 31.1153 -18.1542 14.3934 -27.7089
# 2 70.2081 164.2093 30.2839 -38.2707 -4.9885 -43.9371
# 3 31.1153 30.2839 87.8999 -16.9475 11.8584 -13.4124
# 4 -18.1542 -38.2707 -16.9475 44.7336 -20.4038 8.6952
# 5 14.3934 -4.9885 11.8584 -20.4038 50.9205 0.4516
# 6 -27.7089 -43.9371 -13.4124 8.6952 0.4516 67.1132
#
#
#
# Elastic Compliance Matrix: (Units=1/GPa)
#
#
# Indices 1 2 3 4 5 6 
#
# 1 0.013686 -0.005758 -0.002475 -0.002969 -0.005062 0.001805
# 2 -0.005758 0.012474 -0.000538 0.010575 0.007175 0.004263
# 3 -0.002475 -0.000538 0.013297 0.002779 -0.001345 0.000932
# 4 -0.002969 0.010575 0.002779 0.038649 0.016705 0.001133
# 5 -0.005062 0.007175 -0.001345 0.016705 0.028779 -0.000020
# 6 0.001805 0.004263 0.000932 0.001133 -0.000020 0.018476
#
#
# Mechanical properties :
#
#
# Convention : Reuss Voigt Hill
#
# Bulk Modulus (GPa) = 45.62872 69.84374 57.73623
# Shear Modulus (GPa) = 33.28692 48.13822 40.71257
#
# Velocity S-wave (km/s) = 3.64592 4.38445 4.03213
# Velocity P-wave (km/s) = 5.99540 7.31590 6.68832
#
# Compressibility (1/GPa) = 0.02191602
#
# Stress axis : x y z
#
# Youngs Moduli (GPa) = 73.06574 80.16586 75.20235
#
# Poissons Ratio (x) = 0.46159 0.18613
# Poissons Ratio (y) = 0.42071 0.04045
# Poissons Ratio (z) = 0.18085 0.04312
#
# Static dielectric constant tensor:
#      x y z
#    x 1.752660 0.035830 0.171530 
#    y 0.035830 1.993530 0.017510 
#    z 0.171530 0.017510 1.903650 
# 
# From -- ./inp_files/88250.got.cif
#   From: 2010.05.17/outbox.cif.g08.bks.cpg/sg2_45_cif.got.tgz:88250.got - 2010.06.03 11:33:40.
