data_PCOD9063374
_publ_section_title
;
Structure prediction by ZEFSAII (Michael W. Deem and Ramdas Pophale) SiO2 
 PCOD9063374
Probable space group: P -1
;
_chemical_formula_sum "Si O2"
_cell_formula_units_Z 14
_cell_length_a 5.126563
_cell_length_b 6.671358
_cell_length_c 19.459343
_cell_angle_alpha 113.026884
_cell_angle_beta 103.402599
_cell_angle_gamma 77.660013
_cell_volume 590.167480
_symmetry_space_group_name_H-M "P -1"
_symmetry_group_IT_number 2
_symmetry_cell_setting 'triclinic'
loop_
_space_group_symop_operation_xyz
x,y,z
-x,-y,-z
loop_
_atom_site_type_symbol
_atom_site_label
_atom_site_fract_x
_atom_site_fract_y
_atom_site_fract_z
Si Si1 0.145314 0.477167 0.167968
Si Si2 0.740914 0.101721 0.300224
Si Si3 0.456072 0.687384 0.466157
Si Si4 0.213213 0.091066 0.575360
Si Si5 0.706533 0.997158 0.949756
Si Si6 0.172703 0.411187 0.320734
Si Si7 0.572699 0.720361 0.146973
O O1 0.266247 0.230244 0.121405
O O2 0.111560 0.487276 0.249308
O O3 0.362497 0.628550 0.173950
O O4 0.844312 0.548717 0.128333
O O5 0.822720 0.957424 0.353840
O O6 0.463727 0.261803 0.318042
O O7 0.963173 0.253958 0.312841
O O8 0.685679 0.931354 0.214904
O O9 0.500000 0.500000 0.500000
O O10 0.464418 0.899976 0.543200
O O11 0.198872 0.624343 0.398482
O O12 0.677130 0.698007 0.421675
O O13 0.000000 0.000000 0.500000
O O14 0.596463 0.197359 0.919721
O O15 0.500000 0.000000 0.000000
O O16 0.000000 0.000000 0.000000
#
# Coordination Sequence:
#
# PCOD9063374 Si02
#       7
#     2   2   2   2   2   2   2
#     4  12  27  48  78 110 148 197 246 296 374 439
#     4  12  26  46  73 104 146 193 245 308 362 432
#     4  11  24  44  66  98 141 190 242 303 365 430
#     4  11  26  41  68 101 143 189 247 303 364 428
#     4  12  28  49  79 113 155 188 241 306 365 442
#     4  12  26  45  75 102 143 194 245 303 371 430
#     4  12  27  48  78 109 151 196 247 301 365 443
#
# _framework density 23.722079999999998
#
# number of rings (size 3 to 8) (size 9 to 14) (size 15 to 20)
#    0.000    0.286    2.857    5.143    8.000    4.571 
#    0.000    0.000    0.000    0.000    0.000    0.000 
#    0.000    0.000    0.000    0.000    0.000    0.000 
#
# Total GULP energy -78334.976559 kJ/mol
# GULP energy per Si atom -5595.355468 kJ/mol
# Density = 2.366809 g / cm^3
# Si number density = 23.722080 Si / 1000 Ang^3
#
#
#
# Elastic Constant Matrix: (Units=GPa)
#
#
# Indices 1 2 3 4 5 6 
#
# 1 179.4464 40.7866 26.8821 -28.9532 0.4782 31.6443
# 2 40.7866 90.5373 35.7738 -29.1187 -4.5286 13.7640
# 3 26.8821 35.7738 111.9951 -26.3596 1.9999 10.2378
# 4 -28.9532 -29.1187 -26.3596 51.6601 -6.0755 -4.8625
# 5 0.4782 -4.5286 1.9999 -6.0755 37.4846 -6.0460
# 6 31.6443 13.7640 10.2378 -4.8625 -6.0460 58.8956
#
#
#
# Elastic Compliance Matrix: (Units=1/GPa)
#
#
# Indices 1 2 3 4 5 6 
#
# 1 0.006961 -0.001813 -0.000230 0.002421 -0.000406 -0.003118
# 2 -0.001813 0.015412 -0.002914 0.006400 0.002868 -0.001299
# 3 -0.000230 -0.002914 0.010855 0.003633 -0.000473 -0.000831
# 4 0.002421 0.006400 0.003633 0.026664 0.004751 -0.000739
# 5 -0.000406 0.002868 -0.000473 0.004751 0.028297 0.002927
# 6 -0.003118 -0.001299 -0.000831 -0.000739 0.002927 0.019342
#
#
# Mechanical properties :
#
#
# Convention : Reuss Voigt Hill
#
# Bulk Modulus (GPa) = 42.89185 65.42933 54.16059
# Shear Modulus (GPa) = 39.93118 48.17714 44.05416
#
# Velocity S-wave (km/s) = 4.10724 4.51144 4.31408
# Velocity P-wave (km/s) = 6.37282 7.40128 6.90622
#
# Compressibility (1/GPa) = 0.02331445
#
# Stress axis : x y z
#
# Youngs Moduli (GPa) = 143.66427 64.88294 92.12733
#
# Poissons Ratio (x) = 0.11761 0.02116
# Poissons Ratio (y) = 0.26041 0.26849
# Poissons Ratio (z) = 0.03299 0.18909
#
# Static dielectric constant tensor:
#      x y z
#    x 2.215660 -0.246800 -0.095390 
#    y -0.246800 2.049390 0.087940 
#    z -0.095390 0.087940 1.903270 
# 
# From -- ./inp_files/14373.got.cif
#   From: 2010.05.17/outbox.cif.g08.bks.cpg/sg2_8_cif.got.tgz:14373.got - 2010.06.03 11:33:40.
