data_PCOD9063956
_publ_section_title
;
Structure prediction by ZEFSAII (Michael W. Deem and Ramdas Pophale) SiO2 
 PCOD9063956
Probable space group: P -1
;
_chemical_formula_sum "Si O2"
_cell_formula_units_Z 14
_cell_length_a 30.803813
_cell_length_b 4.990425
_cell_length_c 7.045825
_cell_angle_alpha 48.956854
_cell_angle_beta 135.163721
_cell_angle_gamma 108.277840
_cell_volume 551.951553
_symmetry_space_group_name_H-M "P -1"
_symmetry_group_IT_number 2
_symmetry_cell_setting 'triclinic'
loop_
_space_group_symop_operation_xyz
x,y,z
-x,-y,-z
loop_
_atom_site_type_symbol
_atom_site_label
_atom_site_fract_x
_atom_site_fract_y
_atom_site_fract_z
Si Si1 0.870995 0.926103 0.842136
Si Si2 0.237503 0.149726 0.712761
Si Si3 0.460307 0.919562 0.734862
Si Si4 0.786358 0.974894 0.867583
Si Si5 0.042051 0.646464 0.911236
Si Si6 0.649769 0.056150 0.361488
Si Si7 0.624967 0.895225 0.954512
O O1 0.804163 0.030562 0.470606
O O2 0.850479 0.764155 0.050321
O O3 0.903198 0.237618 0.857079
O O4 0.922337 0.647691 0.998763
O O5 0.220690 0.589426 0.403222
O O6 0.314516 0.988369 0.998243
O O7 0.217406 0.087888 0.892312
O O8 0.389103 0.079481 0.535471
O O9 0.437908 0.055703 0.389984
O O10 0.500000 0.500000 0.000000
O O11 0.500000 0.000000 0.000000
O O12 0.724474 0.861463 0.648061
O O13 0.000000 0.000000 0.500000
O O14 0.000000 0.500000 0.000000
O O15 0.649166 0.454812 0.254414
O O16 0.612480 0.074978 0.039248
#
# Coordination Sequence:
#
# PCOD9063956 Si02
#       7
#     2   2   2   2   2   2   2
#     4  12  26  52  80 116 145 201 256 300 372 449
#     4  11  25  46  76 114 149 190 245 318 381 436
#     4  12  26  44  67 100 137 196 246 292 362 456
#     4  11  25  46  76 114 149 190 245 318 381 436
#     4  12  30  52  77 108 160 203 244 300 360 439
#     4  11  24  45  68 100 142 185 235 311 374 429
#     4  11  24  45  68 100 142 185 235 311 374 429
#
# _framework density 25.364545
#
# number of rings (size 3 to 8) (size 9 to 14) (size 15 to 20)
#    0.000    0.571    4.286    2.571    2.000    6.857 
#    0.000    0.000    0.000    0.000    0.000    0.000 
#    0.000    0.000    0.000    0.000    0.000    0.000 
#
# Total GULP energy -78256.066667 kJ/mol
# GULP energy per Si atom -5589.719048 kJ/mol
# Density = 2.530681 g / cm^3
# Si number density = 25.364545 Si / 1000 Ang^3
#
#
#
# Elastic Constant Matrix: (Units=GPa)
#
#
# Indices 1 2 3 4 5 6 
#
# 1 185.7213 29.2560 37.1415 5.8615 -27.2784 -14.0281
# 2 29.2560 103.9355 32.1772 30.7519 -14.5344 -12.4123
# 3 37.1415 32.1772 110.8524 22.2985 -21.5291 10.9326
# 4 5.8615 30.7519 22.2985 49.9146 -6.4929 13.2793
# 5 -27.2784 -14.5344 -21.5291 -6.4929 44.4817 6.2808
# 6 -14.0281 -12.4123 10.9326 13.2793 6.2808 39.8443
#
#
#
# Elastic Compliance Matrix: (Units=1/GPa)
#
#
# Indices 1 2 3 4 5 6 
#
# 1 0.006357 -0.000765 -0.001649 0.000284 0.002617 0.001945
# 2 -0.000765 0.014646 -0.002756 -0.009855 0.000376 0.008275
# 3 -0.001649 -0.002756 0.012028 -0.001613 0.004365 -0.004890
# 4 0.000284 -0.009855 -0.001613 0.030608 0.002494 -0.013122
# 5 0.002617 0.000376 0.004365 0.002494 0.027436 -0.005315
# 6 0.001945 0.008275 -0.004890 -0.013122 -0.005315 0.034913
#
#
# Mechanical properties :
#
#
# Convention : Reuss Voigt Hill
#
# Bulk Modulus (GPa) = 44.06693 66.40651 55.23672
# Shear Modulus (GPa) = 34.74840 46.97708 40.86274
#
# Velocity S-wave (km/s) = 3.70531 4.30824 4.01810
# Velocity P-wave (km/s) = 5.97636 7.14042 6.58417
#
# Compressibility (1/GPa) = 0.02269275
#
# Stress axis : x y z
#
# Youngs Moduli (GPa) = 157.30801 68.27578 83.14110
#
# Poissons Ratio (x) = 0.05222 0.13706
# Poissons Ratio (y) = 0.12031 0.22913
# Poissons Ratio (z) = 0.25933 0.18816
#
# Static dielectric constant tensor:
#      x y z
#    x 2.032050 0.034920 0.087750 
#    y 0.034920 2.018780 -0.013790 
#    z 0.087750 -0.013790 2.094960 
# 
# From -- ./inp_files/125704.got.cif
#   From: 2010.05.17/outbox.cif.g08.bks.cpg/sg2_63_cif.got.tgz:125704.got - 2010.06.03 11:33:40.
