data_PCOD9063391
_publ_section_title
;
Structure prediction by ZEFSAII (Michael W. Deem and Ramdas Pophale) SiO2 
 PCOD9063391
Probable space group: P -1
;
_chemical_formula_sum "Si O2"
_cell_formula_units_Z 16
_cell_length_a 14.658925
_cell_length_b 11.568163
_cell_length_c 16.318789
_cell_angle_alpha 141.656338
_cell_angle_beta 155.041331
_cell_angle_gamma 50.579934
_cell_volume 693.161730
_symmetry_space_group_name_H-M "P -1"
_symmetry_group_IT_number 2
_symmetry_cell_setting 'triclinic'
loop_
_space_group_symop_operation_xyz
x,y,z
-x,-y,-z
loop_
_atom_site_type_symbol
_atom_site_label
_atom_site_fract_x
_atom_site_fract_y
_atom_site_fract_z
Si Si1 0.256137 0.934874 0.226962
Si Si2 0.470927 0.454755 0.577344
Si Si3 0.945638 0.237185 0.620316
Si Si4 0.402276 0.118354 0.917795
Si Si5 0.904786 0.153377 0.127414
Si Si6 0.268708 0.200752 0.112904
Si Si7 0.082693 0.613706 0.029110
Si Si8 0.167544 0.559913 0.519216
O O1 0.137639 0.721876 0.047365
O O2 0.500000 0.000000 0.500000
O O3 0.110049 0.068256 0.218642
O O4 0.262087 0.918223 0.125252
O O5 0.361583 0.316019 0.336578
O O6 0.557924 0.681902 0.747654
O O7 0.686449 0.395740 0.749640
O O8 0.297178 0.445316 0.502586
O O9 0.936927 0.318201 0.564354
O O10 0.188984 0.199262 0.813310
O O11 0.735203 0.043425 0.349033
O O12 0.928107 0.400771 0.761056
O O13 0.625977 0.296465 0.181455
O O14 0.500000 0.000000 0.000000
O O15 0.990947 0.387583 0.329466
O O16 0.796237 0.027593 0.048817
O O17 0.040636 0.263182 0.948480
#
# Coordination Sequence:
#
# PCOD9063391 Si02
#       8
#     2   2   2   2   2   2   2   2
#     4  10  18  27  45  69  97 132 170 201 242 290
#     4  11  20  32  50  70 103 145 174 202 239 290
#     4  10  18  32  50  77 102 122 162 217 259 299
#     4   9  20  32  50  77 103 121 157 215 270 303
#     4  10  19  31  46  71 103 134 166 207 245 292
#     4  10  22  34  44  72 111 140 175 201 233 292
#     4  11  18  31  50  72 101 135 171 209 247 288
#     4  11  18  32  53  76 101 132 168 204 257 297
#
# _framework density 23.082636999999998
#
# number of rings (size 3 to 8) (size 9 to 14) (size 15 to 20)
#    0.000    1.750    3.750    3.375    0.000    0.000 
#    0.000    0.000    0.000    0.000    0.000    8.750 
#    0.000    0.625    0.000    0.000    0.000    0.000 
#
# Total GULP energy -89349.279728 kJ/mol
# GULP energy per Si atom -5584.329983 kJ/mol
# Density = 2.303010 g / cm^3
# Si number density = 23.082637 Si / 1000 Ang^3
#
#
#
# Elastic Constant Matrix: (Units=GPa)
#
#
# Indices 1 2 3 4 5 6 
#
# 1 27.7215 20.4442 9.3107 6.0536 4.9587 6.4746
# 2 20.4442 112.4821 59.3500 -1.3661 11.2128 13.5985
# 3 9.3107 59.3500 148.9765 -2.5038 3.7730 3.6928
# 4 6.0536 -1.3661 -2.5038 54.5188 2.5111 18.1538
# 5 4.9587 11.2128 3.7730 2.5111 23.0060 9.2293
# 6 6.4746 13.5985 3.6928 18.1538 9.2293 29.5771
#
#
#
# Elastic Compliance Matrix: (Units=1/GPa)
#
#
# Indices 1 2 3 4 5 6 
#
# 1 0.043668 -0.007440 0.000337 -0.004048 -0.004477 -0.002299
# 2 -0.007440 0.013620 -0.004729 0.002698 -0.002592 -0.004890
# 3 0.000337 -0.004729 0.008538 -0.000103 0.000460 0.000954
# 4 -0.004048 0.002698 -0.000103 0.024091 0.003445 -0.016203
# 5 -0.004477 -0.002592 0.000460 0.003445 0.051718 -0.016139
# 6 -0.002299 -0.004890 0.000954 -0.016203 -0.016139 0.051424
#
#
# Mechanical properties :
#
#
# Convention : Reuss Voigt Hill
#
# Bulk Modulus (GPa) = 23.71712 51.93220 37.82466
# Shear Modulus (GPa) = 21.66595 34.75873 28.21234
#
# Velocity S-wave (km/s) = 3.06702 3.88472 3.49984
# Velocity P-wave (km/s) = 4.77905 6.53213 5.72311
#
# Compressibility (1/GPa) = 0.04216363
#
# Stress axis : x y z
#
# Youngs Moduli (GPa) = 22.89992 73.42184 117.11974
#
# Poissons Ratio (x) = 0.54623 -0.03947
# Poissons Ratio (y) = 0.17037 0.55384
# Poissons Ratio (z) = -0.00772 0.34720
#
# Static dielectric constant tensor:
#      x y z
#    x 1.886520 0.045900 0.047150 
#    y 0.045900 1.977120 0.064590 
#    z 0.047150 0.064590 1.919490 
# 
# From -- ./inp_files/472625.got.cif
#   From: 2010.05.17/outbox.cif.g08.bks.cpg/sg2_237_cif.got.tgz:472625.got - 2010.06.03 11:33:40.
