data_PCOD9063594
_publ_section_title
;
Structure prediction by ZEFSAII (Michael W. Deem and Ramdas Pophale) SiO2 
 PCOD9063594
Probable space group: P -1
;
_chemical_formula_sum "Si O2"
_cell_formula_units_Z 14
_cell_length_a 12.808399
_cell_length_b 7.261840
_cell_length_c 8.963709
_cell_angle_alpha 106.853250
_cell_angle_beta 116.887793
_cell_angle_gamma 112.106703
_cell_volume 572.254907
_symmetry_space_group_name_H-M "P -1"
_symmetry_group_IT_number 2
_symmetry_cell_setting 'triclinic'
loop_
_space_group_symop_operation_xyz
x,y,z
-x,-y,-z
loop_
_atom_site_type_symbol
_atom_site_label
_atom_site_fract_x
_atom_site_fract_y
_atom_site_fract_z
Si Si1 0.814416 0.091379 0.568697
Si Si2 0.380016 0.684500 0.978592
Si Si3 0.926980 0.103852 0.129277
Si Si4 0.926741 0.668392 0.998604
Si Si5 0.347019 0.877014 0.290791
Si Si6 0.143393 0.530027 0.537343
Si Si7 0.686362 0.810056 0.133332
O O1 0.716838 0.998869 0.633827
O O2 0.794474 0.270631 0.504701
O O3 0.762007 0.889845 0.364029
O O4 0.981093 0.244131 0.768242
O O5 0.261502 0.604151 0.755869
O O6 0.341194 0.441999 0.977912
O O7 0.380826 0.862959 0.136448
O O8 0.538445 0.787208 0.040603
O O9 0.961033 0.273024 0.050175
O O10 0.075079 0.271104 0.359337
O O11 0.795010 0.012034 0.133497
O O12 0.892650 0.857315 0.993546
O O13 0.783400 0.403556 0.832815
O O14 0.500000 0.000000 0.500000
O O15 0.000000 0.500000 0.500000
#
# Coordination Sequence:
#
# PCOD9063594 Si02
#       7
#     2   2   2   2   2   2   2
#     4  12  25  43  69 104 139 178 240 281 355 404
#     4  11  26  46  69  99 148 182 233 282 356 414
#     4  11  24  44  71 103 139 180 242 281 349 413
#     4  11  25  45  70 102 140 188 228 295 342 421
#     4  12  24  44  69 102 140 181 225 291 355 413
#     4  12  25  41  68 107 137 180 233 295 339 415
#     4  11  24  47  71 101 135 193 228 288 342 426
#
# _framework density 24.464624000000001
#
# number of rings (size 3 to 8) (size 9 to 14) (size 15 to 20)
#    0.000    0.571    5.714    2.143    2.000    1.714 
#    2.571    0.000    0.000    6.857    0.000    0.000 
#    0.000    0.000    0.000    0.000    0.000    0.000 
#
# Total GULP energy -78233.989255 kJ/mol
# GULP energy per Si atom -5588.142090 kJ/mol
# Density = 2.440894 g / cm^3
# Si number density = 24.464624 Si / 1000 Ang^3
#
#
#
# Elastic Constant Matrix: (Units=GPa)
#
#
# Indices 1 2 3 4 5 6 
#
# 1 85.7198 22.3455 41.4409 -8.3545 -10.2070 21.2355
# 2 22.3455 61.2683 25.3006 6.1497 16.2498 7.3388
# 3 41.4409 25.3006 182.7363 -8.8725 14.1962 16.3136
# 4 -8.3545 6.1497 -8.8725 35.2422 -3.7284 -5.7529
# 5 -10.2070 16.2498 14.1962 -3.7284 44.5499 11.3913
# 6 21.2355 7.3388 16.3136 -5.7529 11.3913 35.5827
#
#
#
# Elastic Compliance Matrix: (Units=1/GPa)
#
#
# Indices 1 2 3 4 5 6 
#
# 1 0.020231 -0.008375 -0.003063 0.004804 0.012151 -0.012056
# 2 -0.008375 0.023154 -0.001045 -0.006971 -0.011443 0.003238
# 3 -0.003063 -0.001045 0.006539 0.000845 -0.002314 -0.000077
# 4 0.004804 -0.006971 0.000845 0.031788 0.005647 0.001515
# 5 0.012151 -0.011443 -0.002314 0.005647 0.034156 -0.013852
# 6 -0.012056 0.003238 -0.000077 0.001515 -0.013852 0.039345
#
#
# Mechanical properties :
#
#
# Convention : Reuss Voigt Hill
#
# Bulk Modulus (GPa) = 40.06497 56.43316 48.24907
# Shear Modulus (GPa) = 26.52519 39.11746 32.82132
#
# Velocity S-wave (km/s) = 3.29633 4.00301 3.66674
# Velocity P-wave (km/s) = 5.55878 6.66954 6.13933
#
# Compressibility (1/GPa) = 0.02495946
#
# Stress axis : x y z
#
# Youngs Moduli (GPa) = 49.42814 43.18836 152.91934
#
# Poissons Ratio (x) = 0.36169 0.46839
# Poissons Ratio (y) = 0.41394 0.15983
# Poissons Ratio (z) = 0.15140 0.04514
#
# Static dielectric constant tensor:
#      x y z
#    x 2.074120 0.006790 -0.056910 
#    y 0.006790 1.942890 -0.006100 
#    z -0.056910 -0.006100 1.924360 
# 
# From -- ./inp_files/245242.got.cif
#   From: 2010.05.17/outbox.cif.g08.bks.cpg/sg2_123_cif.got.tgz:245242.got - 2010.06.03 11:33:40.
