data_PCOD9063806
_publ_section_title
;
Structure prediction by ZEFSAII (Michael W. Deem and Ramdas Pophale) SiO2 
 PCOD9063806
Probable space group: P -1
;
_chemical_formula_sum "Si O2"
_cell_formula_units_Z 12
_cell_length_a 9.029717
_cell_length_b 8.993916
_cell_length_c 9.840089
_cell_angle_alpha 97.967910
_cell_angle_beta 44.775893
_cell_angle_gamma 107.850967
_cell_volume 532.032579
_symmetry_space_group_name_H-M "P -1"
_symmetry_group_IT_number 2
_symmetry_cell_setting 'triclinic'
loop_
_space_group_symop_operation_xyz
x,y,z
-x,-y,-z
loop_
_atom_site_type_symbol
_atom_site_label
_atom_site_fract_x
_atom_site_fract_y
_atom_site_fract_z
Si Si1 0.206995 0.654428 0.889295
Si Si2 0.415272 0.641574 0.025784
Si Si3 0.941567 0.889271 0.154708
Si Si4 0.168028 0.791565 0.389111
Si Si5 0.188642 0.094204 0.254373
Si Si6 0.445771 0.812806 0.482422
O O1 0.317989 0.713074 0.680012
O O2 0.374827 0.631457 0.890130
O O3 0.000000 0.500000 0.000000
O O4 0.108352 0.787638 0.028425
O O5 0.204168 0.663302 0.244589
O O6 0.500000 0.500000 0.000000
O O7 0.605385 0.804040 0.951056
O O8 0.686145 0.789998 0.304591
O O9 0.998423 0.994893 0.265633
O O10 0.000000 0.000000 0.000000
O O11 0.299010 0.777130 0.438112
O O12 0.917131 0.786046 0.584214
O O13 0.252601 0.968439 0.292383
O O14 0.500000 0.000000 0.500000
#
# Coordination Sequence:
#
# PCOD9063806 Si02
#       6
#     2   2   2   2   2   2
#     4  12  30  50  67 108 154 188 236 301 363 430
#     4  12  29  46  71 102 147 195 233 291 369 428
#     4  12  24  44  79 107 141 187 242 301 358 426
#     4  11  24  45  73 102 140 179 244 299 347 422
#     4  11  24  44  74 107 137 181 246 301 355 417
#     4  12  24  44  77 108 137 188 242 291 358 428
#
# _framework density 22.555011
#
# number of rings (size 3 to 8) (size 9 to 14) (size 15 to 20)
#    0.000    0.333    5.000    2.500    9.333    1.333 
#    0.000    0.000    0.000    0.000    0.000    0.000 
#    0.000    0.000    0.000    0.000    0.000    0.000 
#
# Total GULP energy -67166.785091 kJ/mol
# GULP energy per Si atom -5597.232091 kJ/mol
# Density = 2.250367 g / cm^3
# Si number density = 22.555011 Si / 1000 Ang^3
#
#
#
# Elastic Constant Matrix: (Units=GPa)
#
#
# Indices 1 2 3 4 5 6 
#
# 1 146.9935 38.2675 52.6636 -14.6355 21.5013 -28.0434
# 2 38.2675 51.2256 33.0502 -12.2750 10.1071 -15.6170
# 3 52.6636 33.0502 132.8123 -10.2190 6.2060 -20.2961
# 4 -14.6355 -12.2750 -10.2190 32.9068 -5.0353 -3.1284
# 5 21.5013 10.1071 6.2060 -5.0353 47.9402 -1.2997
# 6 -28.0434 -15.6170 -20.2961 -3.1284 -1.2997 35.5037
#
#
#
# Elastic Compliance Matrix: (Units=1/GPa)
#
#
# Indices 1 2 3 4 5 6 
#
# 1 0.010183 -0.003354 -0.002000 0.002699 -0.003167 0.005547
# 2 -0.003354 0.030058 -0.003948 0.008867 -0.003147 0.008981
# 3 -0.002000 -0.003948 0.009708 0.000973 0.000638 0.002342
# 4 0.002699 0.008867 0.000973 0.036265 0.000869 0.009816
# 5 -0.003167 -0.003147 0.000638 0.000869 0.022881 -0.002607
# 6 0.005547 0.008981 0.002342 0.009816 -0.002607 0.038606
#
#
# Mechanical properties :
#
#
# Convention : Reuss Voigt Hill
#
# Bulk Modulus (GPa) = 31.90313 64.33268 48.11791
# Shear Modulus (GPa) = 28.28788 37.07348 32.68068
#
# Velocity S-wave (km/s) = 3.54527 4.05864 3.81061
# Velocity P-wave (km/s) = 5.56183 7.10971 6.38286
#
# Compressibility (1/GPa) = 0.03134488
#
# Stress axis : x y z
#
# Youngs Moduli (GPa) = 98.20395 33.26883 103.00885
#
# Poissons Ratio (x) = 0.11159 0.20600
# Poissons Ratio (y) = 0.32938 0.40669
# Poissons Ratio (z) = 0.19639 0.13135
#
# Static dielectric constant tensor:
#      x y z
#    x 1.820890 0.009550 -0.017120 
#    y 0.009550 1.832140 0.008560 
#    z -0.017120 0.008560 1.892690 
# 
# From -- ./inp_files/152496.got.cif
#   From: 2010.05.17/outbox.cif.g08.bks.cpg/sg2_77_cif.got.tgz:152496.got - 2010.06.03 11:33:40.
