data_PCOD9063919
_publ_section_title
;
Structure prediction by ZEFSAII (Michael W. Deem and Ramdas Pophale) SiO2 
 PCOD9063919
Probable space group: P -1
;
_chemical_formula_sum "Si O2"
_cell_formula_units_Z 12
_cell_length_a 13.601860
_cell_length_b 9.553873
_cell_length_c 11.414800
_cell_angle_alpha 86.600361
_cell_angle_beta 30.473782
_cell_angle_gamma 107.480401
_cell_volume 540.453285
_symmetry_space_group_name_H-M "P -1"
_symmetry_group_IT_number 2
_symmetry_cell_setting 'triclinic'
loop_
_space_group_symop_operation_xyz
x,y,z
-x,-y,-z
loop_
_atom_site_type_symbol
_atom_site_label
_atom_site_fract_x
_atom_site_fract_y
_atom_site_fract_z
Si Si1 0.943826 0.252990 0.791063
Si Si2 0.223797 0.945217 0.786715
Si Si3 0.442151 0.393296 0.902814
Si Si4 0.526321 0.892573 0.075319
Si Si5 0.296761 0.293161 0.785606
Si Si6 0.936896 0.535004 0.690785
O O1 0.244981 0.407313 0.423820
O O2 0.746493 0.055052 0.931600
O O3 0.829556 0.353585 0.888854
O O4 0.946578 0.200193 0.922074
O O5 0.500000 0.000000 0.500000
O O6 0.298069 0.143578 0.726820
O O7 0.019600 0.823762 0.894360
O O8 0.397508 0.228838 0.031551
O O9 0.380434 0.325062 0.833570
O O10 0.255744 0.429799 0.124670
O O11 0.222583 0.723969 0.442659
O O12 0.500000 0.000000 0.000000
O O13 0.500000 0.500000 0.500000
O O14 0.000000 0.500000 0.500000
#
# Coordination Sequence:
#
# PCOD9063919 Si02
#       6
#     2   2   2   2   2   2
#     4  11  24  45  65 101 139 178 233 277 346 410
#     4  11  26  42  71 101 140 179 227 283 337 412
#     4  11  26  44  73  97 144 182 225 290 338 407
#     4  11  24  47  67 100 134 176 234 282 342 410
#     4  11  24  45  65 105 136 178 231 273 349 406
#     4  11  26  46  67 102 136 182 233 281 345 404
#
# _framework density 22.203585
#
# number of rings (size 3 to 8) (size 9 to 14) (size 15 to 20)
#    0.000    1.000    5.000    0.000    4.667    5.333 
#    0.000    0.000    0.000    0.000    0.000    0.000 
#    0.000    0.000    0.000    0.000    0.000    0.000 
#
# Total GULP energy -67101.194336 kJ/mol
# GULP energy per Si atom -5591.766195 kJ/mol
# Density = 2.215305 g / cm^3
# Si number density = 22.203585 Si / 1000 Ang^3
#
#
#
# Elastic Constant Matrix: (Units=GPa)
#
#
# Indices 1 2 3 4 5 6 
#
# 1 98.8308 44.7569 25.8148 -7.5261 -19.5455 -2.9894
# 2 44.7569 137.6386 67.1810 -13.5700 -14.0676 -34.4978
# 3 25.8148 67.1810 74.8061 -11.5614 -34.1102 -7.1700
# 4 -7.5261 -13.5700 -11.5614 37.6692 -10.2875 -8.0070
# 5 -19.5455 -14.0676 -34.1102 -10.2875 51.9988 -8.3643
# 6 -2.9894 -34.4978 -7.1700 -8.0070 -8.3643 58.3575
#
#
#
# Elastic Compliance Matrix: (Units=1/GPa)
#
#
# Indices 1 2 3 4 5 6 
#
# 1 0.013017 -0.005039 0.003441 0.003483 0.006396 -0.000495
# 2 -0.005039 0.018617 -0.017503 -0.000007 -0.007122 0.007575
# 3 0.003441 -0.017503 0.043400 0.015744 0.028366 0.001387
# 4 0.003483 -0.000007 0.015744 0.040157 0.021296 0.010671
# 5 0.006396 -0.007122 0.028366 0.021296 0.043949 0.008824
# 6 -0.000495 0.007575 0.001387 0.010671 0.008824 0.024488
#
#
# Mechanical properties :
#
#
# Convention : Reuss Voigt Hill
#
# Bulk Modulus (GPa) = 27.15065 65.19787 46.17426
# Shear Modulus (GPa) = 21.35781 41.17329 31.26555
#
# Velocity S-wave (km/s) = 3.10483 4.31089 3.75658
# Velocity P-wave (km/s) = 5.01078 7.36246 6.29737
#
# Compressibility (1/GPa) = 0.03683153
#
# Stress axis : x y z
#
# Youngs Moduli (GPa) = 76.82362 53.71348 23.04156
#
# Poissons Ratio (x) = 0.27067 -0.07929
# Poissons Ratio (y) = 0.38713 0.40330
# Poissons Ratio (z) = -0.26436 0.94016
#
# Static dielectric constant tensor:
#      x y z
#    x 1.874610 -0.015340 -0.011540 
#    y -0.015340 1.830910 0.008120 
#    z -0.011540 0.008120 1.802380 
# 
# From -- ./inp_files/445956.got.cif
#   From: 2010.05.17/outbox.cif.g08.bks.cpg/sg2_223_cif.got.tgz:445956.got - 2010.06.03 11:33:40.
