data_PCOD9063885
_publ_section_title
;
Structure prediction by ZEFSAII (Michael W. Deem and Ramdas Pophale) SiO2 
 PCOD9063885
Probable space group: P -1
;
_chemical_formula_sum "Si O2"
_cell_formula_units_Z 12
_cell_length_a 15.656738
_cell_length_b 5.250435
_cell_length_c 8.026255
_cell_angle_alpha 119.824047
_cell_angle_beta 117.623613
_cell_angle_gamma 58.979807
_cell_volume 471.081595
_symmetry_space_group_name_H-M "P -1"
_symmetry_group_IT_number 2
_symmetry_cell_setting 'triclinic'
loop_
_space_group_symop_operation_xyz
x,y,z
-x,-y,-z
loop_
_atom_site_type_symbol
_atom_site_label
_atom_site_fract_x
_atom_site_fract_y
_atom_site_fract_z
Si Si1 0.889678 0.475828 0.447779
Si Si2 0.242823 0.848468 0.335907
Si Si3 0.429421 0.304775 0.427229
Si Si4 0.096246 0.569335 0.170845
Si Si5 0.569637 0.146068 0.001887
Si Si6 0.763427 0.123496 0.032260
O O1 0.910726 0.347116 0.613707
O O2 0.846556 0.274642 0.217831
O O3 0.000000 0.500000 0.500000
O O4 0.790664 0.806944 0.499488
O O5 0.318699 0.590624 0.447490
O O6 0.129408 0.832088 0.201389
O O7 0.289050 0.758887 0.160574
O O8 0.500000 0.500000 0.500000
O O9 0.500000 0.000000 0.500000
O O10 0.402214 0.110165 0.198179
O O11 0.000000 0.500000 0.000000
O O12 0.183620 0.241571 0.086806
O O13 0.682700 0.170928 0.127279
O O14 0.500000 0.500000 0.000000
O O15 0.500000 0.000000 0.000000
#
# Coordination Sequence:
#
# PCOD9063885 Si02
#       6
#     2   2   2   2   2   2
#     4  11  26  46  75 118 154 204 271 324 400 485
#     4  11  25  48  75 107 157 207 261 324 409 470
#     4  12  27  49  78 109 154 204 262 325 395 472
#     4  11  24  44  76 108 153 206 256 328 406 475
#     4  12  27  49  75 114 150 203 265 326 393 464
#     4  11  25  48  75 106 162 204 261 331 399 476
#
# _framework density 25.473295
#
# number of rings (size 3 to 8) (size 9 to 14) (size 15 to 20)
#    0.000    0.667    1.667    5.000    4.667    8.000 
#    3.000    0.000    0.000    0.000    0.000    0.000 
#    0.000    0.000    0.000    0.000    0.000    0.000 
#
# Total GULP energy -66811.624792 kJ/mol
# GULP energy per Si atom -5567.635399 kJ/mol
# Density = 2.541532 g / cm^3
# Si number density = 25.473295 Si / 1000 Ang^3
#
#
#
# Elastic Constant Matrix: (Units=GPa)
#
#
# Indices 1 2 3 4 5 6 
#
# 1 186.9937 32.0495 48.5687 -10.9781 17.7612 9.8682
# 2 32.0495 100.0161 16.3205 7.2875 -4.8011 2.3131
# 3 48.5687 16.3205 135.8735 21.1173 -5.6807 -2.5821
# 4 -10.9781 7.2875 21.1173 35.7660 2.5707 8.4023
# 5 17.7612 -4.8011 -5.6807 2.5707 47.9493 5.9624
# 6 9.8682 2.3131 -2.5821 8.4023 5.9624 37.5137
#
#
#
# Elastic Compliance Matrix: (Units=1/GPa)
#
#
# Indices 1 2 3 4 5 6 
#
# 1 0.007449 -0.002334 -0.003463 0.005705 -0.003361 -0.002798
# 2 -0.002334 0.011061 0.000108 -0.003265 0.002118 0.000334
# 3 -0.003463 0.000108 0.009965 -0.007842 0.002528 0.002945
# 4 0.005705 -0.003265 -0.007842 0.037559 -0.004191 -0.009586
# 5 -0.003361 0.002118 0.002528 -0.004191 0.023060 -0.001799
# 6 -0.002798 0.000334 0.002945 -0.009586 -0.001799 0.030008
#
#
# Mechanical properties :
#
#
# Convention : Reuss Voigt Hill
#
# Bulk Modulus (GPa) = 58.48985 68.52897 63.50941
# Shear Modulus (GPa) = 36.71635 45.97546 41.34590
#
# Velocity S-wave (km/s) = 3.80065 4.25296 4.03315
# Velocity P-wave (km/s) = 6.50162 7.14686 6.83186
#
# Compressibility (1/GPa) = 0.01709698
#
# Stress axis : x y z
#
# Youngs Moduli (GPa) = 134.24417 90.41091 100.35077
#
# Poissons Ratio (x) = 0.21105 0.34749
# Poissons Ratio (y) = 0.31337 -0.01086
# Poissons Ratio (z) = 0.46486 -0.00978
#
# Static dielectric constant tensor:
#      x y z
#    x 2.128070 -0.190500 -0.006610 
#    y -0.190500 1.994260 -0.149470 
#    z -0.006610 -0.149470 1.960260 
# 
# From -- ./inp_files/134236.got.cif
#   From: 2010.05.17/outbox.cif.g08.bks.cpg/sg2_68_cif.got.tgz:134236.got - 2010.06.03 11:33:40.
