data_PCOD9063655
_publ_section_title
;
Structure prediction by ZEFSAII (Michael W. Deem and Ramdas Pophale) SiO2 
 PCOD9063655
Probable space group: P -1
;
_chemical_formula_sum "Si O2"
_cell_formula_units_Z 16
_cell_length_a 17.262536
_cell_length_b 19.620243
_cell_length_c 5.620587
_cell_angle_alpha 74.668868
_cell_angle_beta 108.740297
_cell_angle_gamma 158.972794
_cell_volume 643.306412
_symmetry_space_group_name_H-M "P -1"
_symmetry_group_IT_number 2
_symmetry_cell_setting 'triclinic'
loop_
_space_group_symop_operation_xyz
x,y,z
-x,-y,-z
loop_
_atom_site_type_symbol
_atom_site_label
_atom_site_fract_x
_atom_site_fract_y
_atom_site_fract_z
Si Si1 0.415994 0.503742 0.793809
Si Si2 0.280069 0.161451 0.441761
Si Si3 0.482384 0.047430 0.702004
Si Si4 0.448372 0.106606 0.124495
Si Si5 0.834531 0.781427 0.524195
Si Si6 0.105876 0.662468 0.911628
Si Si7 0.308307 0.580206 0.159707
Si Si8 0.947934 0.756004 0.993236
O O1 0.611431 0.716821 0.794273
O O2 0.352758 0.422651 0.551307
O O3 0.193467 0.359407 0.801122
O O4 0.500000 0.500000 0.000000
O O5 0.239472 0.197505 0.538559
O O6 0.463080 0.254613 0.632839
O O7 0.034754 0.936048 0.390494
O O8 0.490462 0.096705 0.418468
O O9 0.271326 0.825088 0.718850
O O10 0.468792 0.085243 0.899115
O O11 0.713448 0.190451 0.830886
O O12 0.616201 0.307550 0.083723
O O13 0.199190 0.934197 0.069712
O O14 0.929886 0.821532 0.817430
O O15 0.889822 0.537255 0.800548
O O16 0.000000 0.500000 0.000000
O O17 0.192202 0.413514 0.137515
#
# Coordination Sequence:
#
# PCOD9063655 Si02
#       8
#     2   2   2   2   2   2   2   2
#     4  12  25  42  70 101 139 198 250 302 373 446
#     4  11  24  44  72 101 147 190 249 308 375 444
#     4  11  28  53  78 111 155 198 248 314 388 451
#     4  12  28  50  77 114 154 195 256 314 376 454
#     4  11  24  47  69  98 151 191 243 312 371 443
#     4  11  25  50  82 112 152 197 251 310 384 458
#     4  12  25  46  75 111 145 195 254 310 377 454
#     4  12  26  44  69 106 145 195 245 309 373 440
#
# _framework density 24.871507000000001
#
# number of rings (size 3 to 8) (size 9 to 14) (size 15 to 20)
#    0.000    0.500    6.250    1.125    3.500    6.000 
#    0.000    0.000    0.000    0.000    0.000    0.000 
#    0.000    0.000    0.000    0.000    0.000    0.000 
#
# Total GULP energy -89264.668137 kJ/mol
# GULP energy per Si atom -5579.041759 kJ/mol
# Density = 2.481490 g / cm^3
# Si number density = 24.871507 Si / 1000 Ang^3
#
#
#
# Elastic Constant Matrix: (Units=GPa)
#
#
# Indices 1 2 3 4 5 6 
#
# 1 109.5000 23.1959 32.6619 6.8459 14.4451 21.0075
# 2 23.1959 156.0015 21.1207 -25.2278 12.0608 10.8388
# 3 32.6619 21.1207 117.7574 -16.6626 30.4531 5.0245
# 4 6.8459 -25.2278 -16.6626 37.4057 -3.8509 12.6515
# 5 14.4451 12.0608 30.4531 -3.8509 33.9033 -12.1224
# 6 21.0075 10.8388 5.0245 12.6515 -12.1224 46.8906
#
#
#
# Elastic Compliance Matrix: (Units=1/GPa)
#
#
# Indices 1 2 3 4 5 6 
#
# 1 0.011820 -0.001101 -0.001815 -0.002373 -0.005276 -0.005570
# 2 -0.001101 0.008285 0.001216 0.007469 -0.004405 -0.004706
# 3 -0.001815 0.001216 0.013654 0.008080 -0.013353 -0.006563
# 4 -0.002373 0.007469 0.008080 0.039804 -0.009662 -0.014766
# 5 -0.005276 -0.004405 -0.013353 -0.009662 0.051632 0.020768
# 6 -0.005570 -0.004706 -0.006563 -0.014766 0.020768 0.034966
#
#
# Mechanical properties :
#
#
# Convention : Reuss Voigt Hill
#
# Bulk Modulus (GPa) = 32.93873 59.69068 46.31470
# Shear Modulus (GPa) = 28.78870 44.05859 36.42365
#
# Velocity S-wave (km/s) = 3.40589 4.21342 3.83099
# Velocity P-wave (km/s) = 5.36089 6.90813 6.18310
#
# Compressibility (1/GPa) = 0.03035940
#
# Stress axis : x y z
#
# Youngs Moduli (GPa) = 84.60340 120.70638 73.24037
#
# Poissons Ratio (x) = 0.13286 0.13292
# Poissons Ratio (y) = 0.09312 -0.08908
# Poissons Ratio (z) = 0.15354 -0.14681
#
# Static dielectric constant tensor:
#      x y z
#    x 2.087200 0.039350 -0.023210 
#    y 0.039350 1.998070 -0.010970 
#    z -0.023210 -0.010970 2.080440 
# 
# From -- ./inp_files/112377.got.cif
#   From: 2010.05.17/outbox.cif.g08.bks.cpg/sg2_57_cif.got.tgz:112377.got - 2010.06.03 11:33:40.
