data_PCOD9063110
_publ_section_title
;
Structure prediction by ZEFSAII (Michael W. Deem and Ramdas Pophale) SiO2 
 PCOD9063110
Probable space group: P -1
;
_chemical_formula_sum "Si O2"
_cell_formula_units_Z 16
_cell_length_a 15.903589
_cell_length_b 5.241726
_cell_length_c 17.447821
_cell_angle_alpha 120.443820
_cell_angle_beta 30.659640
_cell_angle_gamma 121.469135
_cell_volume 627.032682
_symmetry_space_group_name_H-M "P -1"
_symmetry_group_IT_number 2
_symmetry_cell_setting 'triclinic'
loop_
_space_group_symop_operation_xyz
x,y,z
-x,-y,-z
loop_
_atom_site_type_symbol
_atom_site_label
_atom_site_fract_x
_atom_site_fract_y
_atom_site_fract_z
Si Si1 0.361807 0.689982 0.068435
Si Si2 0.747022 0.971935 0.921983
Si Si3 0.961663 0.202782 0.431548
Si Si4 0.344250 0.680420 0.402444
Si Si5 0.171000 0.418209 0.815273
Si Si6 0.304604 0.817255 0.620694
Si Si7 0.299100 0.079918 0.307633
Si Si8 0.609814 0.129167 0.190834
O O1 0.384018 0.353487 0.017249
O O2 0.279198 0.725648 0.055919
O O3 0.268696 0.808987 0.231220
O O4 0.500000 0.000000 0.000000
O O5 0.885070 0.867497 0.746141
O O6 0.764776 0.052137 0.009134
O O7 0.814563 0.197803 0.484797
O O8 0.000000 0.500000 0.500000
O O9 0.876075 0.936825 0.514677
O O10 0.307381 0.615512 0.510790
O O11 0.348384 0.422714 0.294535
O O12 0.523553 0.901432 0.288392
O O13 0.228793 0.605699 0.719746
O O14 0.320806 0.552654 0.777997
O O15 0.187769 0.069744 0.739215
O O16 0.000000 0.500000 0.000000
O O17 0.500000 0.000000 0.500000
O O18 0.456894 0.089689 0.242945
#
# Coordination Sequence:
#
# PCOD9063110 Si02
#       8
#     2   2   2   2   2   2   2   2
#     4  12  24  43  67  99 142 187 243 286 358 425
#     4  12  27  42  70 103 142 192 236 300 361 427
#     4  11  25  45  66 105 148 190 239 300 357 426
#     4  11  26  44  76 104 144 193 253 296 362 445
#     4  12  29  51  78 115 156 192 243 325 391 447
#     4  12  26  51  82 111 150 202 257 307 383 462
#     4  11  24  43  71 100 143 193 244 299 352 436
#     4  11  26  46  71 105 144 187 248 300 370 443
#
# _framework density 25.517012000000001
#
# number of rings (size 3 to 8) (size 9 to 14) (size 15 to 20)
#    0.000    0.500    3.750    3.375    8.750    1.000 
#    0.000    0.000    0.000    0.000    0.000    0.000 
#    0.000    0.000    0.000    0.000    0.000    0.000 
#
# Total GULP energy -89150.560755 kJ/mol
# GULP energy per Si atom -5571.910047 kJ/mol
# Density = 2.545893 g / cm^3
# Si number density = 25.517012 Si / 1000 Ang^3
#
#
#
# Elastic Constant Matrix: (Units=GPa)
#
#
# Indices 1 2 3 4 5 6 
#
# 1 84.9277 23.1283 37.7064 -4.0839 14.7759 -10.2935
# 2 23.1283 80.4288 17.8653 8.6826 7.8150 -4.0734
# 3 37.7064 17.8653 149.0262 -12.9643 19.3776 -9.2243
# 4 -4.0839 8.6826 -12.9643 44.6213 0.3724 9.3033
# 5 14.7759 7.8150 19.3776 0.3724 39.3481 6.6253
# 6 -10.2935 -4.0734 -9.2243 9.3033 6.6253 36.2379
#
#
#
# Elastic Compliance Matrix: (Units=1/GPa)
#
#
# Indices 1 2 3 4 5 6 
#
# 1 0.015052 -0.003178 -0.002567 0.000462 -0.004427 0.003956
# 2 -0.003178 0.014167 -0.000927 -0.003649 -0.001407 0.001648
# 3 -0.002567 -0.000927 0.008131 0.002069 -0.003090 0.001270
# 4 0.000462 -0.003649 0.002069 0.025064 0.000347 -0.006250
# 5 -0.004427 -0.001407 -0.003090 0.000347 0.030190 -0.007811
# 6 0.003956 0.001648 0.001270 -0.006250 -0.007811 0.032260
#
#
# Mechanical properties :
#
#
# Convention : Reuss Voigt Hill
#
# Bulk Modulus (GPa) = 41.65322 52.42029 47.03676
# Shear Modulus (GPa) = 34.19766 39.75365 36.97566
#
# Velocity S-wave (km/s) = 3.66483 3.95134 3.81078
# Velocity P-wave (km/s) = 5.85381 6.43470 6.15112
#
# Compressibility (1/GPa) = 0.02400775
#
# Stress axis : x y z
#
# Youngs Moduli (GPa) = 66.43825 70.58644 122.98435
#
# Poissons Ratio (x) = 0.22429 0.31566
# Poissons Ratio (y) = 0.21111 0.11398
# Poissons Ratio (z) = 0.17052 0.06542
#
# Static dielectric constant tensor:
#      x y z
#    x 2.349710 0.012900 0.088960 
#    y 0.012900 2.046330 -0.029510 
#    z 0.088960 -0.029510 2.198820 
# 
# From -- ./inp_files/459655.got.cif
#   From: 2010.05.17/outbox.cif.g08.bks.cpg/sg2_230_cif.got.tgz:459655.got - 2010.06.03 11:33:40.
