data_PCOD9063541
_publ_section_title
;
Structure prediction by ZEFSAII (Michael W. Deem and Ramdas Pophale) SiO2 
 PCOD9063541
Probable space group: P -1
;
_chemical_formula_sum "Si O2"
_cell_formula_units_Z 16
_cell_length_a 12.024870
_cell_length_b 8.924712
_cell_length_c 8.437482
_cell_angle_alpha 78.180767
_cell_angle_beta 84.365113
_cell_angle_gamma 127.764089
_cell_volume 670.756232
_symmetry_space_group_name_H-M "P -1"
_symmetry_group_IT_number 2
_symmetry_cell_setting 'triclinic'
loop_
_space_group_symop_operation_xyz
x,y,z
-x,-y,-z
loop_
_atom_site_type_symbol
_atom_site_label
_atom_site_fract_x
_atom_site_fract_y
_atom_site_fract_z
Si Si1 0.389729 0.843823 0.803863
Si Si2 0.883162 0.433562 0.895982
Si Si3 0.904869 0.788972 0.754365
Si Si4 0.346396 0.275168 0.047350
Si Si5 0.814515 0.770246 0.414160
Si Si6 0.403639 0.198441 0.708405
Si Si7 0.308456 0.645734 0.530127
Si Si8 0.720929 0.103784 0.737923
O O1 0.392024 0.753835 0.658690
O O2 0.339468 0.971440 0.742553
O O3 0.550806 0.994751 0.823799
O O4 0.272333 0.671013 0.975601
O O5 0.934360 0.635479 0.765729
O O6 0.840614 0.263195 0.815240
O O7 0.000000 0.500000 0.000000
O O8 0.785100 0.721528 0.918968
O O9 0.841745 0.781673 0.594549
O O10 0.051410 0.012923 0.720830
O O11 0.296613 0.095124 0.215454
O O12 0.500000 0.500000 0.000000
O O13 0.366636 0.213452 0.888530
O O14 0.668984 0.737553 0.403917
O O15 0.808015 0.593135 0.382850
O O16 0.574638 0.324933 0.615439
O O17 0.252339 0.758266 0.444801
#
# Coordination Sequence:
#
# PCOD9063541 Si02
#       8
#     2   2   2   2   2   2   2   2
#     4  11  25  44  73 105 142 182 241 297 353 416
#     4  12  25  48  73 100 141 190 240 291 353 421
#     4  11  27  46  70 101 142 192 232 285 361 423
#     4  12  27  43  72 107 138 182 233 290 355 421
#     4  11  25  47  68  99 148 184 232 291 351 427
#     4  11  24  44  70 103 141 180 233 293 351 418
#     4  11  25  45  73 105 139 188 240 293 352 416
#     4  11  24  46  70 103 140 184 236 297 345 420
#
# _framework density 23.853674000000002
#
# number of rings (size 3 to 8) (size 9 to 14) (size 15 to 20)
#    0.000    0.750    2.500    4.500   10.500    1.500 
#    0.000    1.250    0.000    0.000    0.000    0.000 
#    0.000    0.000    0.000    0.000    0.000    0.000 
#
# Total GULP energy -89469.677871 kJ/mol
# GULP energy per Si atom -5591.854867 kJ/mol
# Density = 2.379938 g / cm^3
# Si number density = 23.853674 Si / 1000 Ang^3
#
#
#
# Elastic Constant Matrix: (Units=GPa)
#
#
# Indices 1 2 3 4 5 6 
#
# 1 57.9225 35.6086 5.8071 3.2387 16.3143 -8.8066
# 2 35.6086 179.4613 24.2266 -16.9416 9.1519 -9.8935
# 3 5.8071 24.2266 24.8324 3.1863 4.8565 -3.4752
# 4 3.2387 -16.9416 3.1863 39.7647 -9.6171 10.5880
# 5 16.3143 9.1519 4.8565 -9.6171 43.3008 -5.3811
# 6 -8.8066 -9.8935 -3.4752 10.5880 -5.3811 38.7027
#
#
#
# Elastic Compliance Matrix: (Units=1/GPa)
#
#
# Indices 1 2 3 4 5 6 
#
# 1 0.024071 -0.005180 0.003063 -0.008121 -0.009459 0.005335
# 2 -0.005180 0.007984 -0.007812 0.005235 0.002183 -0.000968
# 3 0.003063 -0.007812 0.050628 -0.010693 -0.006908 0.005211
# 4 -0.008121 0.005235 -0.010693 0.033681 0.009469 -0.009367
# 5 -0.009459 0.002183 -0.006908 0.009469 0.028978 -0.000776
# 6 0.005335 -0.000968 0.005211 -0.009367 -0.000776 0.029727
#
#
# Mechanical properties :
#
#
# Convention : Reuss Voigt Hill
#
# Bulk Modulus (GPa) = 15.91740 43.72232 29.81986
# Shear Modulus (GPa) = 23.16227 37.45855 30.31041
#
# Velocity S-wave (km/s) = 3.11949 3.96706 3.56853
# Velocity P-wave (km/s) = 4.43423 6.27316 5.43208
#
# Compressibility (1/GPa) = 0.06282432
#
# Stress axis : x y z
#
# Youngs Moduli (GPa) = 41.54388 125.24819 19.75208
#
# Poissons Ratio (x) = 0.64876 -0.06050
# Poissons Ratio (y) = 0.21519 0.15431
# Poissons Ratio (z) = -0.12724 0.97845
#
# Static dielectric constant tensor:
#      x y z
#    x 1.914910 -0.034790 0.014740 
#    y -0.034790 1.948490 -0.063300 
#    z 0.014740 -0.063300 1.959210 
# 
# From -- ./inp_files/243551.got.cif
#   From: 2010.05.17/outbox.cif.g08.bks.cpg/sg2_122_cif.got.tgz:243551.got - 2010.06.03 11:33:40.
