data_PCOD9063789
_publ_section_title
;
Structure prediction by ZEFSAII (Michael W. Deem and Ramdas Pophale) SiO2 
 PCOD9063789
Probable space group: P -1
;
_chemical_formula_sum "Si O2"
_cell_formula_units_Z 16
_cell_length_a 8.321043
_cell_length_b 18.756366
_cell_length_c 6.053841
_cell_angle_alpha 119.876003
_cell_angle_beta 61.284575
_cell_angle_gamma 107.430838
_cell_volume 716.260670
_symmetry_space_group_name_H-M "P -1"
_symmetry_group_IT_number 2
_symmetry_cell_setting 'triclinic'
loop_
_space_group_symop_operation_xyz
x,y,z
-x,-y,-z
loop_
_atom_site_type_symbol
_atom_site_label
_atom_site_fract_x
_atom_site_fract_y
_atom_site_fract_z
Si Si1 0.877392 0.738295 0.273044
Si Si2 0.323794 0.672901 0.430040
Si Si3 0.920083 0.406400 0.890405
Si Si4 0.363924 0.142384 0.133256
Si Si5 0.784130 0.173223 0.990071
Si Si6 0.350832 0.270746 0.999639
Si Si7 0.537172 0.407360 0.390313
Si Si8 0.090935 0.989223 0.170453
O O1 0.710961 0.787937 0.549972
O O2 0.813838 0.713713 0.030575
O O3 0.936037 0.658350 0.236085
O O4 0.056794 0.803502 0.256791
O O5 0.164172 0.617451 0.329089
O O6 0.243541 0.741123 0.739704
O O7 0.455730 0.722925 0.246512
O O8 0.452479 0.615355 0.394889
O O9 0.742056 0.395211 0.148847
O O10 0.000000 0.500000 0.000000
O O11 0.583149 0.142647 0.987990
O O12 0.263988 0.056795 0.143130
O O13 0.310804 0.180374 0.991616
O O14 0.851405 0.103713 0.997898
O O15 0.394380 0.342955 0.261013
O O16 0.500000 0.500000 0.500000
O O17 0.000000 0.000000 0.500000
O O18 0.000000 0.000000 0.000000
#
# Coordination Sequence:
#
# PCOD9063789 Si02
#       8
#     2   2   2   2   2   2   2   2
#     4  12  25  45  73 104 149 188 248 306 377 448
#     4  11  24  48  70 103 147 195 250 309 379 452
#     4  11  28  41  67 108 144 195 248 309 376 451
#     4  12  26  49  75 111 147 195 249 309 384 450
#     4  12  24  50  75 110 147 199 248 310 382 458
#     4  11  24  44  74 103 141 192 249 307 380 451
#     4  11  25  44  69 101 144 193 247 312 375 448
#     4  12  29  51  80 118 158 203 255 324 386 467
#
# _framework density 22.338236999999999
#
# number of rings (size 3 to 8) (size 9 to 14) (size 15 to 20)
#    0.000    0.500    5.000    1.875    8.750    2.500 
#    0.000    1.875    0.000    0.000    0.000    0.000 
#    0.000    0.000    0.000    0.000    0.000    0.000 
#
# Total GULP energy -89375.796595 kJ/mol
# GULP energy per Si atom -5585.987287 kJ/mol
# Density = 2.228739 g / cm^3
# Si number density = 22.338237 Si / 1000 Ang^3
#
#
#
# Elastic Constant Matrix: (Units=GPa)
#
#
# Indices 1 2 3 4 5 6 
#
# 1 126.2203 36.7494 18.2247 -4.1187 10.6469 -8.4108
# 2 36.7494 144.3925 11.5514 1.3962 1.5455 -14.1811
# 3 18.2247 11.5514 30.0071 -12.7359 0.0311 -6.1382
# 4 -4.1187 1.3962 -12.7359 30.3996 1.0607 -8.6318
# 5 10.6469 1.5455 0.0311 1.0607 35.3170 -3.6332
# 6 -8.4108 -14.1811 -6.1382 -8.6318 -3.6332 53.0706
#
#
#
# Elastic Compliance Matrix: (Units=1/GPa)
#
#
# Indices 1 2 3 4 5 6 
#
# 1 0.009464 -0.001943 -0.005296 -0.000735 -0.002735 0.000061
# 2 -0.001943 0.007718 -0.001958 -0.001060 0.000424 0.001385
# 3 -0.005296 -0.001958 0.048108 0.021694 0.001796 0.007853
# 4 -0.000735 -0.001060 0.021694 0.044594 -0.000128 0.009354
# 5 -0.002735 0.000424 0.001796 -0.000128 0.029316 0.001874
# 6 0.000061 0.001385 0.007853 0.009354 0.001874 0.021781
#
#
# Mechanical properties :
#
#
# Convention : Reuss Voigt Hill
#
# Bulk Modulus (GPa) = 21.32384 48.18566 34.75475
# Shear Modulus (GPa) = 25.64010 39.36374 32.50192
#
# Velocity S-wave (km/s) = 3.39161 4.20237 3.81857
# Velocity P-wave (km/s) = 4.99039 6.72044 5.91897
#
# Compressibility (1/GPa) = 0.04689586
#
# Stress axis : x y z
#
# Youngs Moduli (GPa) = 105.66612 129.56168 20.78642
#
# Poissons Ratio (x) = 0.25167 0.11009
# Poissons Ratio (y) = 0.20526 0.04071
# Poissons Ratio (z) = 0.55965 0.25374
#
# Static dielectric constant tensor:
#      x y z
#    x 1.842080 0.003400 0.024040 
#    y 0.003400 1.822350 -0.072950 
#    z 0.024040 -0.072950 1.923420 
# 
# From -- ./inp_files/48819.got.cif
#   From: 2010.05.17/outbox.cif.g08.bks.cpg/sg2_25_cif.got.tgz:48819.got - 2010.06.03 11:33:40.
