data_PCOD9063013
_publ_section_title
;
Structure prediction by ZEFSAII (Michael W. Deem and Ramdas Pophale) SiO2 
 PCOD9063013
Probable space group: P -1
;
_chemical_formula_sum "Si O2"
_cell_formula_units_Z 12
_cell_length_a 14.134662
_cell_length_b 10.318652
_cell_length_c 8.473363
_cell_angle_alpha 83.809979
_cell_angle_beta 71.107516
_cell_angle_gamma 34.153346
_cell_volume 625.900113
_symmetry_space_group_name_H-M "P -1"
_symmetry_group_IT_number 2
_symmetry_cell_setting 'triclinic'
loop_
_space_group_symop_operation_xyz
x,y,z
-x,-y,-z
loop_
_atom_site_type_symbol
_atom_site_label
_atom_site_fract_x
_atom_site_fract_y
_atom_site_fract_z
Si Si1 0.376729 0.515244 0.509892
Si Si2 0.981245 0.645064 0.102475
Si Si3 0.989678 0.113854 0.131991
Si Si4 0.365632 0.261277 0.114803
Si Si5 0.337523 0.590896 0.144763
Si Si6 0.559398 0.065930 0.376935
O O1 0.500000 0.500000 0.500000
O O2 0.345903 0.560756 0.332339
O O3 0.489885 0.258411 0.499047
O O4 0.194079 0.701389 0.689262
O O5 0.153496 0.455431 0.158299
O O6 0.776869 0.854068 0.259565
O O7 0.990484 0.765164 0.972928
O O8 0.000000 0.500000 0.000000
O O9 0.157938 0.877514 0.177588
O O10 0.000000 0.000000 0.000000
O O11 0.354726 0.431650 0.065243
O O12 0.447058 0.180412 0.257889
O O13 0.500000 0.000000 0.000000
O O14 0.500000 0.500000 0.000000
O O15 0.500000 0.000000 0.500000
#
# Coordination Sequence:
#
# PCOD9063013 Si02
#       6
#     2   2   2   2   2   2
#     4  11  25  42  65 100 136 174 225 287 340 402
#     4  12  24  43  72 100 135 183 230 280 346 405
#     4  12  23  44  70  95 132 179 229 283 342 405
#     4  11  24  43  70  99 137 179 229 279 341 408
#     4  11  24  43  69 101 137 178 227 281 344 409
#     4  11  25  46  66  99 140 176 229 286 343 408
#
# _framework density 19.172388000000002
#
# number of rings (size 3 to 8) (size 9 to 14) (size 15 to 20)
#    0.000    0.667    3.333    5.500    0.000    0.667 
#    0.000    0.000    0.000    0.000    0.000    0.000 
#    0.000    0.000    0.000    0.000    0.000    0.000 
#
# Total GULP energy -66858.256605 kJ/mol
# GULP energy per Si atom -5571.521384 kJ/mol
# Density = 1.912875 g / cm^3
# Si number density = 19.172388 Si / 1000 Ang^3
#
#
#
# Elastic Constant Matrix: (Units=GPa)
#
#
# Indices 1 2 3 4 5 6 
#
# 1 169.7800 85.2030 74.8079 23.7549 -16.5728 13.8681
# 2 85.2030 149.4416 70.1040 29.0518 -23.8945 7.6730
# 3 74.8079 70.1040 147.2009 39.3530 -30.5958 7.4501
# 4 23.7549 29.0518 39.3530 37.6739 -1.0235 3.6971
# 5 -16.5728 -23.8945 -30.5958 -1.0235 43.8024 4.4262
# 6 13.8681 7.6730 7.4501 3.6971 4.4262 49.5470
#
#
#
# Elastic Compliance Matrix: (Units=1/GPa)
#
#
# Indices 1 2 3 4 5 6 
#
# 1 0.009174 -0.003956 -0.002954 0.000482 -0.000588 -0.001494
# 2 -0.003956 0.011011 -0.001257 -0.004549 0.003565 -0.000388
# 3 -0.002954 -0.001257 0.013366 -0.010848 0.007364 -0.000837
# 4 0.000482 -0.004549 -0.010848 0.040842 -0.008917 -0.000050
# 5 -0.000588 0.003565 0.007364 -0.008917 0.029841 -0.003495
# 6 -0.001494 -0.000388 -0.000837 -0.000050 -0.003495 0.021103
#
#
# Mechanical properties :
#
#
# Convention : Reuss Voigt Hill
#
# Bulk Modulus (GPa) = 58.07764 102.96135 80.51949
# Shear Modulus (GPa) = 33.91941 41.95848 37.93894
#
# Velocity S-wave (km/s) = 4.21073 4.68320 4.45323
# Velocity P-wave (km/s) = 7.34836 9.11387 8.27832
#
# Compressibility (1/GPa) = 0.01721833
#
# Stress axis : x y z
#
# Youngs Moduli (GPa) = 109.00568 90.82068 74.81552
#
# Poissons Ratio (x) = 0.35927 0.22098
# Poissons Ratio (y) = 0.43120 0.09403
# Poissons Ratio (z) = 0.32196 0.11415
#
# Static dielectric constant tensor:
#      x y z
#    x 1.586510 0.138950 0.024150 
#    y 0.138950 1.400000 -0.006950 
#    z 0.024150 -0.006950 1.608570 
# 
# From -- ./inp_files/146796.got.cif
#   From: 2010.05.17/outbox.cif.g08.bks.cpg/sg2_74_cif.got.tgz:146796.got - 2010.06.03 11:33:40.
