data_PCOD9063729
_publ_section_title
;
Structure prediction by ZEFSAII (Michael W. Deem and Ramdas Pophale) SiO2 
 PCOD9063729
Probable space group: P -1
;
_chemical_formula_sum "Si O2"
_cell_formula_units_Z 14
_cell_length_a 15.554455
_cell_length_b 14.996975
_cell_length_c 5.516446
_cell_angle_alpha 95.134470
_cell_angle_beta 108.437059
_cell_angle_gamma 29.330328
_cell_volume 547.868753
_symmetry_space_group_name_H-M "P -1"
_symmetry_group_IT_number 2
_symmetry_cell_setting 'triclinic'
loop_
_space_group_symop_operation_xyz
x,y,z
-x,-y,-z
loop_
_atom_site_type_symbol
_atom_site_label
_atom_site_fract_x
_atom_site_fract_y
_atom_site_fract_z
Si Si1 0.654503 0.618384 0.327745
Si Si2 0.742320 0.736041 0.520607
Si Si3 0.555269 0.538286 0.908722
Si Si4 0.642205 0.165363 0.502178
Si Si5 0.818943 0.738155 0.088802
Si Si6 0.069860 0.178363 0.676432
Si Si7 0.975741 0.124496 0.939335
O O1 0.635370 0.741318 0.319666
O O2 0.570790 0.675512 0.538756
O O3 0.885939 0.389625 0.430609
O O4 0.545726 0.637553 0.081390
O O5 0.732076 0.812609 0.303464
O O6 0.974373 0.500156 0.733319
O O7 0.689608 0.814930 0.765750
O O8 0.393127 0.702933 0.596688
O O9 0.500000 0.500000 0.000000
O O10 0.775098 0.333643 0.943290
O O11 0.737586 0.016242 0.353898
O O12 0.817355 0.014425 0.817597
O O13 0.872927 0.792907 0.080026
O O14 0.974048 0.168742 0.680674
O O15 0.000000 0.000000 0.000000
#
# Coordination Sequence:
#
# PCOD9063729 Si02
#       7
#     2   2   2   2   2   2   2
#     4  11  24  44  73 104 143 195 243 304 371 443
#     4   9  20  38  69 105 145 192 248 308 374 442
#     4  12  27  46  74 106 146 191 245 303 371 444
#     4  12  26  46  72 102 150 186 244 304 368 438
#     4   9  20  38  69 105 145 192 248 308 374 442
#     4  11  24  44  73 104 143 195 243 304 371 443
#     4  12  27  46  74 106 146 191 245 303 371 444
#
# _framework density 25.553563
#
# number of rings (size 3 to 8) (size 9 to 14) (size 15 to 20)
#    0.000    1.143    2.857    2.571    6.000    3.429 
#    0.000    1.429    0.000    0.000    0.000    0.000 
#    0.000    0.000    0.000    0.000    0.000    0.000 
#
# Total GULP energy -78159.796207 kJ/mol
# GULP energy per Si atom -5582.842586 kJ/mol
# Density = 2.549540 g / cm^3
# Si number density = 25.553563 Si / 1000 Ang^3
#
#
#
# Elastic Constant Matrix: (Units=GPa)
#
#
# Indices 1 2 3 4 5 6 
#
# 1 132.1005 21.3916 20.2799 6.3678 -15.5862 21.4320
# 2 21.3916 142.8384 19.4989 5.2807 -8.7112 -10.7008
# 3 20.2799 19.4989 68.3368 4.8285 3.8123 1.0480
# 4 6.3678 5.2807 4.8285 33.3714 -0.1623 -2.3398
# 5 -15.5862 -8.7112 3.8123 -0.1623 34.4622 0.8072
# 6 21.4320 -10.7008 1.0480 -2.3398 0.8072 34.8687
#
#
#
# Elastic Compliance Matrix: (Units=1/GPa)
#
#
# Indices 1 2 3 4 5 6 
#
# 1 0.009870 -0.001275 -0.002596 -0.001747 0.004575 -0.006603
# 2 -0.001275 0.007807 -0.001950 -0.000480 0.001536 0.003170
# 3 -0.002596 -0.001950 0.016255 -0.001531 -0.003484 0.000487
# 4 -0.001747 -0.000480 -0.001531 0.030808 -0.000668 0.003055
# 5 0.004575 0.001536 -0.003484 -0.000668 0.031928 -0.003020
# 6 -0.006603 0.003170 0.000487 0.003055 -0.003020 0.033971
#
#
# Mechanical properties :
#
#
# Convention : Reuss Voigt Hill
#
# Bulk Modulus (GPa) = 44.86024 51.73518 48.29771
# Shear Modulus (GPa) = 33.39792 39.34748 36.37270
#
# Velocity S-wave (km/s) = 3.61914 3.92829 3.77688
# Velocity P-wave (km/s) = 5.92095 6.39258 6.16128
#
# Compressibility (1/GPa) = 0.02229146
#
# Stress axis : x y z
#
# Youngs Moduli (GPa) = 101.31414 128.09158 61.51905
#
# Poissons Ratio (x) = 0.16330 0.15970
# Poissons Ratio (y) = 0.12916 0.11994
# Poissons Ratio (z) = 0.26301 0.24973
#
# Static dielectric constant tensor:
#      x y z
#    x 2.081110 -0.024670 -0.050300 
#    y -0.024670 2.003840 0.074520 
#    z -0.050300 0.074520 2.242160 
# 
# From -- ./inp_files/98063.got.cif
#   From: 2010.05.17/outbox.cif.g08.bks.cpg/sg2_50_cif.got.tgz:98063.got - 2010.06.03 11:33:40.
