data_PCOD9063734
_publ_section_title
;
Structure prediction by ZEFSAII (Michael W. Deem and Ramdas Pophale) SiO2 
 PCOD9063734
Probable space group: P -1
;
_chemical_formula_sum "Si O2"
_cell_formula_units_Z 16
_cell_length_a 9.756744
_cell_length_b 11.850179
_cell_length_c 17.594441
_cell_angle_alpha 42.704778
_cell_angle_beta 84.646020
_cell_angle_gamma 50.543562
_cell_volume 746.262045
_symmetry_space_group_name_H-M "P -1"
_symmetry_group_IT_number 2
_symmetry_cell_setting 'triclinic'
loop_
_space_group_symop_operation_xyz
x,y,z
-x,-y,-z
loop_
_atom_site_type_symbol
_atom_site_label
_atom_site_fract_x
_atom_site_fract_y
_atom_site_fract_z
Si Si1 0.895733 0.281768 0.393203
Si Si2 0.116403 0.728547 0.081225
Si Si3 0.381769 0.967335 0.066585
Si Si4 0.235583 0.676274 0.922148
Si Si5 0.280990 0.259455 0.082665
Si Si6 0.438961 0.874440 0.543914
Si Si7 0.663071 0.780148 0.432507
Si Si8 0.025869 0.210970 0.589311
O O1 0.605742 0.604458 0.223353
O O2 0.879927 0.323684 0.463582
O O3 0.000000 0.000000 0.500000
O O4 0.136454 0.151863 0.420481
O O5 0.381576 0.414745 0.265280
O O6 0.151502 0.725167 0.989985
O O7 0.000000 0.000000 0.000000
O O8 0.894478 0.813400 0.054672
O O9 0.355626 0.071007 0.100699
O O10 0.500000 0.000000 0.000000
O O11 0.077733 0.976152 0.737296
O O12 0.500000 0.500000 0.000000
O O13 0.277751 0.463701 0.977595
O O14 0.458126 0.029675 0.256426
O O15 0.000000 0.500000 0.000000
O O16 0.550285 0.766724 0.506341
O O17 0.500000 0.000000 0.500000
O O18 0.760073 0.868044 0.407301
O O19 0.886467 0.453253 0.542402
#
# Coordination Sequence:
#
# PCOD9063734 Si02
#       8
#     2   2   2   2   2   2   2   2
#     4  12  27  47  69 108 148 188 241 301 370 433
#     4  12  27  49  73 109 146 189 247 300 366 439
#     4  12  29  48  73 108 149 194 241 302 375 434
#     4  12  25  44  73 107 144 187 243 302 365 432
#     4  12  26  48  73 105 150 191 245 302 368 441
#     4  12  24  45  77 102 141 189 243 295 357 441
#     4  11  24  46  74 104 141 188 249 296 361 433
#     4  11  24  44  73 105 140 190 243 300 361 436
#
# _framework density 21.440190000000001
#
# number of rings (size 3 to 8) (size 9 to 14) (size 15 to 20)
#    0.000    0.250    5.000    3.750    5.250    0.000 
#    0.000    1.875    0.000    0.000    0.000    0.000 
#    0.000    0.000    0.000    0.000    0.000    0.000 
#
# Total GULP energy -89218.360897 kJ/mol
# GULP energy per Si atom -5576.147556 kJ/mol
# Density = 2.139139 g / cm^3
# Si number density = 21.440190 Si / 1000 Ang^3
#
#
#
# Elastic Constant Matrix: (Units=GPa)
#
#
# Indices 1 2 3 4 5 6 
#
# 1 96.5590 4.7029 -5.7762 -9.5508 -0.9818 -2.0178
# 2 4.7029 85.8118 -2.8950 -14.1068 -7.7051 -10.2915
# 3 -5.7762 -2.8950 60.9884 -11.5165 -12.0636 -4.1255
# 4 -9.5508 -14.1068 -11.5165 36.2460 2.6555 -6.0296
# 5 -0.9818 -7.7051 -12.0636 2.6555 29.4048 -4.8169
# 6 -2.0178 -10.2915 -4.1255 -6.0296 -4.8169 45.8679
#
#
#
# Elastic Compliance Matrix: (Units=1/GPa)
#
#
# Indices 1 2 3 4 5 6 
#
# 1 0.010883 0.000377 0.002103 0.003824 0.001206 0.001382
# 2 0.000377 0.013969 0.003401 0.007054 0.005240 0.004934
# 3 0.002103 0.003401 0.020553 0.008519 0.009413 0.004813
# 4 0.003824 0.007054 0.008519 0.035037 0.003535 0.007494
# 5 0.001206 0.005240 0.009413 0.003535 0.040069 0.006748
# 6 0.001382 0.004934 0.004813 0.007494 0.006748 0.025096
#
#
# Mechanical properties :
#
#
# Convention : Reuss Voigt Hill
#
# Bulk Modulus (GPa) = 17.49247 26.15806 21.82527
# Shear Modulus (GPa) = 32.70075 38.79224 35.74650
#
# Velocity S-wave (km/s) = 3.90963 4.25823 4.08765
# Velocity P-wave (km/s) = 5.34385 6.03354 5.69914
#
# Compressibility (1/GPa) = 0.05716745
#
# Stress axis : x y z
#
# Youngs Moduli (GPa) = 91.88496 71.58552 48.65427
#
# Poissons Ratio (x) = -0.02700 -0.10231
# Poissons Ratio (y) = -0.03466 -0.16547
# Poissons Ratio (z) = -0.19321 -0.24346
#
# Static dielectric constant tensor:
#      x y z
#    x 1.761300 -0.005690 -0.013740 
#    y -0.005690 2.461740 0.531540 
#    z -0.013740 0.531540 2.289660 
# 
# From -- ./inp_files/559676.got.cif
#   From: 2010.05.17/outbox.cif.g08.bks.cpg/sg2_280_cif.got.tgz:559676.got - 2010.06.03 11:33:40.
