data_PCOD9063277
_publ_section_title
;
Structure prediction by ZEFSAII (Michael W. Deem and Ramdas Pophale) SiO2 
 PCOD9063277
Probable space group: P -1
;
_chemical_formula_sum "Si O2"
_cell_formula_units_Z 14
_cell_length_a 8.653679
_cell_length_b 17.134815
_cell_length_c 22.370574
_cell_angle_alpha 158.203746
_cell_angle_beta 32.018305
_cell_angle_gamma 136.997327
_cell_volume 626.093053
_symmetry_space_group_name_H-M "P -1"
_symmetry_group_IT_number 2
_symmetry_cell_setting 'triclinic'
loop_
_space_group_symop_operation_xyz
x,y,z
-x,-y,-z
loop_
_atom_site_type_symbol
_atom_site_label
_atom_site_fract_x
_atom_site_fract_y
_atom_site_fract_z
Si Si1 0.841551 0.895373 0.617282
Si Si2 0.218337 0.730344 0.869361
Si Si3 0.269875 0.607427 0.978764
Si Si4 0.291116 0.528423 0.147227
Si Si5 0.380004 0.511972 0.342261
Si Si6 0.819070 0.539971 0.470703
Si Si7 0.770475 0.145523 0.260171
O O1 0.878042 0.699386 0.514304
O O2 0.499847 0.941375 0.737453
O O3 0.096950 0.780091 0.402987
O O4 0.861040 0.129673 0.799894
O O5 0.422522 0.709454 0.847056
O O6 0.464668 0.618428 0.658939
O O7 0.961078 0.604025 0.871267
O O8 0.047476 0.969049 0.073061
O O9 0.492196 0.559212 0.929119
O O10 0.453097 0.495015 0.780419
O O11 0.000000 0.500000 0.000000
O O12 0.500000 0.500000 0.000000
O O13 0.382724 0.692558 0.519688
O O14 0.031684 0.557906 0.469732
O O15 0.886938 0.276317 0.261980
#
# Coordination Sequence:
#
# PCOD9063277 Si02
#       7
#     2   2   2   2   2   2   2
#     4  12  26  48  75 107 141 191 242 297 362 429
#     4  11  24  43  74 109 147 195 236 291 362 424
#     4  12  29  49  73 106 143 190 245 302 362 423
#     4  12  26  49  75 106 141 188 247 300 354 431
#     4  11  25  45  68 110 150 187 244 291 356 426
#     4  11  25  43  72 112 153 183 240 297 358 429
#     4  11  24  43  74 107 148 194 232 291 358 434
#
# _framework density 22.360893999999998
#
# number of rings (size 3 to 8) (size 9 to 14) (size 15 to 20)
#    0.000    0.571    5.714    3.000    4.000    4.000 
#    0.000    0.000    0.000    0.000    0.000    0.000 
#    0.000    0.000    0.000    0.000    0.000    0.000 
#
# Total GULP energy -78211.716640 kJ/mol
# GULP energy per Si atom -5586.551189 kJ/mol
# Density = 2.231000 g / cm^3
# Si number density = 22.360894 Si / 1000 Ang^3
#
#
#
# Elastic Constant Matrix: (Units=GPa)
#
#
# Indices 1 2 3 4 5 6 
#
# 1 123.7038 46.2483 28.5541 -0.1656 -29.8619 -9.4256
# 2 46.2483 132.6260 61.3657 -6.1023 0.9702 7.8843
# 3 28.5541 61.3657 116.8905 2.6668 -21.7674 -7.9753
# 4 -0.1656 -6.1023 2.6668 34.5661 -0.4335 3.9298
# 5 -29.8619 0.9702 -21.7674 -0.4335 46.1530 0.0994
# 6 -9.4256 7.8843 -7.9753 3.9298 0.0994 36.3683
#
#
#
# Elastic Compliance Matrix: (Units=1/GPa)
#
#
# Indices 1 2 3 4 5 6 
#
# 1 0.012278 -0.005648 0.002015 -0.001548 0.008988 0.004991
# 2 -0.005648 0.013703 -0.007746 0.003635 -0.007548 -0.006505
# 3 0.002015 -0.007746 0.014081 -0.002979 0.008068 0.005589
# 4 -0.001548 0.003635 -0.002979 0.030348 -0.002187 -0.005116
# 5 0.008988 -0.007548 0.008068 -0.002187 0.031413 0.005885
# 6 0.004991 -0.006505 0.005589 -0.005116 0.005885 0.031963
#
#
# Mechanical properties :
#
#
# Convention : Reuss Voigt Hill
#
# Bulk Modulus (GPa) = 57.78870 71.72848 64.75859
# Shear Modulus (GPa) = 30.80493 39.22097 35.01295
#
# Velocity S-wave (km/s) = 3.71566 4.19262 3.96133
# Velocity P-wave (km/s) = 6.65642 7.45551 7.06727
#
# Compressibility (1/GPa) = 0.01730442
#
# Stress axis : x y z
#
# Youngs Moduli (GPa) = 81.44646 72.97781 71.01669
#
# Poissons Ratio (x) = 0.41215 -0.14312
# Poissons Ratio (y) = 0.45998 0.55012
# Poissons Ratio (z) = -0.16414 0.56532
#
# Static dielectric constant tensor:
#      x y z
#    x 1.861540 -0.013210 0.014350 
#    y -0.013210 1.851420 0.001990 
#    z 0.014350 0.001990 1.870120 
# 
# From -- ./inp_files/608456.got.cif
#   From: 2010.05.17/outbox.cif.g08.bks.cpg/sg2_305_cif.got.tgz:608456.got - 2010.06.03 11:33:40.
