data_PCOD9063295
_publ_section_title
;
Structure prediction by ZEFSAII (Michael W. Deem and Ramdas Pophale) SiO2 
 PCOD9063295
Probable space group: P -1
;
_chemical_formula_sum "Si O2"
_cell_formula_units_Z 16
_cell_length_a 9.163493
_cell_length_b 12.041958
_cell_length_c 15.330966
_cell_angle_alpha 153.443098
_cell_angle_beta 75.860215
_cell_angle_gamma 103.096286
_cell_volume 733.301126
_symmetry_space_group_name_H-M "P -1"
_symmetry_group_IT_number 2
_symmetry_cell_setting 'triclinic'
loop_
_space_group_symop_operation_xyz
x,y,z
-x,-y,-z
loop_
_atom_site_type_symbol
_atom_site_label
_atom_site_fract_x
_atom_site_fract_y
_atom_site_fract_z
Si Si1 0.415760 0.272392 0.807154
Si Si2 0.292719 0.068644 0.162408
Si Si3 0.782572 0.642232 0.792892
Si Si4 0.242597 0.561456 0.745239
Si Si5 0.044997 0.307758 0.479682
Si Si6 0.199124 0.056157 0.819837
Si Si7 0.593966 0.248039 0.307961
Si Si8 0.497146 0.291070 0.613519
O O1 0.267890 0.230312 0.857079
O O2 0.412811 0.328646 0.744575
O O3 0.493867 0.003080 0.610285
O O4 0.500000 0.500000 0.000000
O O5 0.295097 0.193596 0.154543
O O6 0.462254 0.052434 0.162411
O O7 0.193996 0.252289 0.363763
O O8 0.219830 0.792491 0.975157
O O9 0.933055 0.540046 0.652945
O O10 0.662425 0.424528 0.684532
O O11 0.825843 0.794388 0.981201
O O12 0.278648 0.702147 0.747912
O O13 0.393080 0.421915 0.650616
O O14 0.110976 0.360367 0.604194
O O15 0.938160 0.085434 0.305612
O O16 0.321200 0.850338 0.688589
O O17 0.500000 0.500000 0.500000
#
# Coordination Sequence:
#
# PCOD9063295 Si02
#       8
#     2   2   2   2   2   2   2   2
#     4  11  24  43  75 103 122 168 227 288 334 382
#     4  12  25  41  65 102 139 183 218 264 329 397
#     4  12  23  43  67  97 141 176 221 271 324 400
#     4  12  25  43  66 100 137 178 219 271 330 392
#     4  12  28  40  62  95 148 184 214 260 332 408
#     4  12  25  43  67 100 133 174 223 274 335 392
#     4  12  22  40  68  96 133 172 220 275 324 388
#     4  11  24  45  72 102 128 166 231 284 326 385
#
# _framework density 21.819139
#
# number of rings (size 3 to 8) (size 9 to 14) (size 15 to 20)
#    0.000    0.250    6.250    3.750    1.750    1.000 
#    0.000    0.625    0.000    2.250    0.000    0.000 
#    0.000    0.000    0.000    0.000    0.000    0.000 
#
# Total GULP energy -89302.158589 kJ/mol
# GULP energy per Si atom -5581.384912 kJ/mol
# Density = 2.176948 g / cm^3
# Si number density = 21.819139 Si / 1000 Ang^3
#
#
#
# Elastic Constant Matrix: (Units=GPa)
#
#
# Indices 1 2 3 4 5 6 
#
# 1 114.0131 15.1789 43.0678 6.1510 25.0825 12.3073
# 2 15.1789 70.0684 12.3777 -4.6694 10.8458 0.8404
# 3 43.0678 12.3777 151.5587 3.0411 28.6288 8.9284
# 4 6.1510 -4.6694 3.0411 26.9600 4.4997 0.4945
# 5 25.0825 10.8458 28.6288 4.4997 45.2893 -2.8953
# 6 12.3073 0.8404 8.9284 0.4945 -2.8953 11.9439
#
#
#
# Elastic Compliance Matrix: (Units=1/GPa)
#
#
# Indices 1 2 3 4 5 6 
#
# 1 0.012373 -0.001408 -0.001410 -0.001617 -0.006298 -0.013057
# 2 -0.001408 0.015347 -0.000332 0.003531 -0.003054 -0.000268
# 3 -0.001410 -0.000332 0.008267 0.000234 -0.004764 -0.005868
# 4 -0.001617 0.003531 0.000234 0.038744 -0.004033 -0.001339
# 5 -0.006298 -0.003054 -0.004764 -0.004033 0.030857 0.017913
# 6 -0.013057 -0.000268 -0.005868 -0.001339 0.017913 0.105982
#
#
# Mechanical properties :
#
#
# Convention : Reuss Voigt Hill
#
# Bulk Modulus (GPa) = 33.68292 52.98766 43.33529
# Shear Modulus (GPa) = 21.95260 34.50635 28.22948
#
# Velocity S-wave (km/s) = 3.17538 3.98109 3.60084
# Velocity P-wave (km/s) = 5.37725 6.74312 6.09855
#
# Compressibility (1/GPa) = 0.02968864
#
# Stress axis : x y z
#
# Youngs Moduli (GPa) = 80.82030 65.16136 120.96812
#
# Poissons Ratio (x) = 0.09172 0.17053
# Poissons Ratio (y) = 0.11376 0.04010
# Poissons Ratio (z) = 0.11393 0.02160
#
# Static dielectric constant tensor:
#      x y z
#    x 1.824970 0.043310 0.025840 
#    y 0.043310 1.835790 -0.044850 
#    z 0.025840 -0.044850 1.908570 
# 
# From -- ./inp_files/501127.got.cif
#   From: 2010.05.17/outbox.cif.g08.bks.cpg/sg2_251_cif.got.tgz:501127.got - 2010.06.03 11:33:40.
