data_PCOD9063343
_publ_section_title
;
Structure prediction by ZEFSAII (Michael W. Deem and Ramdas Pophale) SiO2 
 PCOD9063343
Probable space group: P -1
;
_chemical_formula_sum "Si O2"
_cell_formula_units_Z 16
_cell_length_a 9.464290
_cell_length_b 20.699531
_cell_length_c 17.960404
_cell_angle_alpha 160.764888
_cell_angle_beta 142.526435
_cell_angle_gamma 36.584941
_cell_volume 679.506292
_symmetry_space_group_name_H-M "P -1"
_symmetry_group_IT_number 2
_symmetry_cell_setting 'triclinic'
loop_
_space_group_symop_operation_xyz
x,y,z
-x,-y,-z
loop_
_atom_site_type_symbol
_atom_site_label
_atom_site_fract_x
_atom_site_fract_y
_atom_site_fract_z
Si Si1 0.762778 0.703881 0.014438
Si Si2 0.050388 0.805147 0.720613
Si Si3 0.618903 0.185543 0.761556
Si Si4 0.453722 0.151412 0.377862
Si Si5 0.698232 0.375212 0.844521
Si Si6 0.248604 0.451135 0.324752
Si Si7 0.675766 0.438424 0.290845
Si Si8 0.964228 0.815085 0.952263
O O1 0.031058 0.656390 0.105656
O O2 0.650488 0.944447 0.218207
O O3 0.776513 0.596058 0.822766
O O4 0.570058 0.624663 0.895522
O O5 0.787440 0.896819 0.744735
O O6 0.043946 0.649316 0.481953
O O7 0.215292 0.674035 0.710560
O O8 0.149120 0.986749 0.928590
O O9 0.708045 0.253189 0.793695
O O10 0.842123 0.129007 0.850298
O O11 0.500000 0.000000 0.500000
O O12 0.431310 0.389543 0.936535
O O13 0.548988 0.275725 0.616982
O O14 0.383151 0.318319 0.464753
O O15 0.500000 0.500000 0.500000
O O16 0.214282 0.269226 0.163829
O O17 0.874564 0.358430 0.223254
#
# Coordination Sequence:
#
# PCOD9063343 Si02
#       8
#     2   2   2   2   2   2   2   2
#     4  12  28  47  73 113 154 190 252 315 373 439
#     4  12  26  46  79 106 149 194 253 304 372 453
#     4  11  24  43  79 113 146 195 248 304 381 445
#     4  12  26  47  78 106 150 203 249 305 377 445
#     4  11  25  48  72 110 155 190 251 311 367 448
#     4  12  27  50  72 113 152 194 249 315 374 438
#     4  12  26  47  73 111 145 201 249 308 370 447
#     4  12  25  47  79 108 147 199 252 299 379 452
#
# _framework density 23.546506999999998
#
# number of rings (size 3 to 8) (size 9 to 14) (size 15 to 20)
#    0.000    0.250    6.250    1.875    3.500    3.000 
#    0.000    0.000    0.000    0.000    0.000    0.000 
#    0.000    0.000    0.000    0.000    0.000    0.000 
#
# Total GULP energy -89746.465443 kJ/mol
# GULP energy per Si atom -5609.154090 kJ/mol
# Density = 2.349291 g / cm^3
# Si number density = 23.546507 Si / 1000 Ang^3
#
#
#
# Elastic Constant Matrix: (Units=GPa)
#
#
# Indices 1 2 3 4 5 6 
#
# 1 79.0864 24.8148 16.1218 -0.3955 19.5559 -3.5395
# 2 24.8148 71.8314 19.0660 0.6516 10.5889 -2.7409
# 3 16.1218 19.0660 115.1827 8.9331 13.2144 1.7994
# 4 -0.3955 0.6516 8.9331 37.6137 -2.7201 7.6226
# 5 19.5559 10.5889 13.2144 -2.7201 53.1389 -2.1532
# 6 -3.5395 -2.7409 1.7994 7.6226 -2.1532 34.3161
#
#
#
# Elastic Compliance Matrix: (Units=1/GPa)
#
#
# Indices 1 2 3 4 5 6 
#
# 1 0.015362 -0.004357 -0.000920 -0.000078 -0.004519 0.001018
# 2 -0.004357 0.016139 -0.001940 -0.000127 -0.001100 0.000901
# 3 -0.000920 -0.001940 0.009519 -0.002294 -0.001773 -0.000351
# 4 -0.000078 -0.000127 -0.002294 0.028504 0.001836 -0.006114
# 5 -0.004519 -0.001100 -0.001773 0.001836 0.021255 0.000465
# 6 0.001018 0.000901 -0.000351 -0.006114 0.000465 0.030724
#
#
# Mechanical properties :
#
#
# Convention : Reuss Voigt Hill
#
# Bulk Modulus (GPa) = 37.61430 42.90063 40.25747
# Shear Modulus (GPa) = 34.53101 38.75358 36.64230
#
# Velocity S-wave (km/s) = 3.83365 4.06129 3.94911
# Velocity P-wave (km/s) = 5.96699 6.34438 6.15858
#
# Compressibility (1/GPa) = 0.02658563
#
# Stress axis : x y z
#
# Youngs Moduli (GPa) = 65.09717 61.96112 105.05744
#
# Poissons Ratio (x) = 0.26995 0.09670
# Poissons Ratio (y) = 0.28362 0.20378
# Poissons Ratio (z) = 0.05992 0.12018
#
# Static dielectric constant tensor:
#      x y z
#    x 1.880590 0.005870 0.001800 
#    y 0.005870 1.904570 -0.019680 
#    z 0.001800 -0.019680 1.887350 
# 
# From -- ./inp_files/563003.got.cif
#   From: 2010.05.17/outbox.cif.g08.bks.cpg/sg2_282_cif.got.tgz:563003.got - 2010.06.03 11:33:40.
