data_PCOD9063863
_publ_section_title
;
Structure prediction by ZEFSAII (Michael W. Deem and Ramdas Pophale) SiO2 
 PCOD9063863
Probable space group: P -1
;
_chemical_formula_sum "Si O2"
_cell_formula_units_Z 15
_cell_length_a 22.388122
_cell_length_b 6.050681
_cell_length_c 10.028618
_cell_angle_alpha 66.155979
_cell_angle_beta 35.043534
_cell_angle_gamma 85.177922
_cell_volume 629.716310
_symmetry_space_group_name_H-M "P -1"
_symmetry_group_IT_number 2
_symmetry_cell_setting 'triclinic'
loop_
_space_group_symop_operation_xyz
x,y,z
-x,-y,-z
loop_
_atom_site_type_symbol
_atom_site_label
_atom_site_fract_x
_atom_site_fract_y
_atom_site_fract_z
Si Si1 0.080664 0.749406 0.387981
Si Si2 0.733840 0.229623 0.778283
Si Si3 0.521068 0.324230 0.221170
Si Si4 0.500000 0.500000 0.500000
Si Si5 0.642715 0.221143 0.450170
Si Si6 0.111076 0.303999 0.066999
Si Si7 0.332073 0.085336 0.291752
Si Si8 0.866071 0.798789 0.256595
O O1 0.209984 0.807408 0.180310
O O2 0.000000 0.500000 0.500000
O O3 0.008444 0.692088 0.673241
O O4 0.095941 0.024019 0.225695
O O5 0.818218 0.532961 0.500744
O O6 0.716953 0.021823 0.740617
O O7 0.608512 0.209100 0.040864
O O8 0.540641 0.389268 0.324425
O O9 0.395214 0.064862 0.488125
O O10 0.563589 0.606297 0.993190
O O11 0.568938 0.377344 0.506270
O O12 0.628554 0.115053 0.655871
O O13 0.778754 0.440367 0.131217
O O14 0.134790 0.293675 0.870817
O O15 0.224479 0.082647 0.574675
O O16 0.000000 0.000000 0.000000
#
# Coordination Sequence:
#
# PCOD9063863 Si02
#       8
#     2   2   2   1   2   2   2   2
#     4  11  27  46  74 105 152 198 240 312 367 442
#     4  11  25  47  74 110 150 190 246 305 373 436
#     4  11  28  49  75 109 145 201 240 310 369 443
#     4  12  30  48  74 104 148 194 246 308 358 454
#     4  12  28  48  76 109 146 194 251 304 373 440
#     4  11  27  45  72 112 144 195 251 300 368 444
#     4  11  26  47  76 110 151 192 245 313 363 443
#     4  11  24  44  75 112 147 193 246 302 368 436
#
# _framework density 23.820250000000001
#
# number of rings (size 3 to 8) (size 9 to 14) (size 15 to 20)
#    0.000    0.800    1.333    3.200   11.200    5.333 
#    0.000    0.000    0.000    0.000    0.000    0.000 
#    0.000    0.000    0.000    0.000    0.000    0.000 
#
# Total GULP energy -83733.396970 kJ/mol
# GULP energy per Si atom -5582.226465 kJ/mol
# Density = 2.376603 g / cm^3
# Si number density = 23.820250 Si / 1000 Ang^3
#
#
#
# Elastic Constant Matrix: (Units=GPa)
#
#
# Indices 1 2 3 4 5 6 
#
# 1 109.3504 26.7354 6.3263 -7.7843 -1.4323 -5.1362
# 2 26.7354 65.1427 30.4623 -6.6103 -10.4366 2.7949
# 3 6.3263 30.4623 81.7251 -9.9996 -6.0019 11.6308
# 4 -7.7843 -6.6103 -9.9996 43.1884 19.7277 7.2046
# 5 -1.4323 -10.4366 -6.0019 19.7277 15.5286 5.4859
# 6 -5.1362 2.7949 11.6308 7.2046 5.4859 37.6261
#
#
#
# Elastic Compliance Matrix: (Units=1/GPa)
#
#
# Indices 1 2 3 4 5 6 
#
# 1 0.011008 -0.006317 0.001119 0.006058 -0.011238 0.002104
# 2 -0.006317 0.025276 -0.007929 -0.012359 0.029845 -0.002274
# 3 0.001119 -0.007929 0.016122 0.005449 -0.004271 -0.004663
# 4 0.006058 -0.012359 0.005449 0.062403 -0.085103 0.000520
# 5 -0.011238 0.029845 -0.004271 -0.085103 0.195033 -0.014571
# 6 0.002104 -0.002274 -0.004663 0.000520 -0.014571 0.030500
#
#
# Mechanical properties :
#
#
# Convention : Reuss Voigt Hill
#
# Bulk Modulus (GPa) = 38.23920 42.58513 40.41217
# Shear Modulus (GPa) = 13.32220 32.11489 22.71855
#
# Velocity S-wave (km/s) = 2.36748 3.67579 3.09163
# Velocity P-wave (km/s) = 4.85400 5.99431 5.45404
#
# Compressibility (1/GPa) = 0.02615117
#
# Stress axis : x y z
#
# Youngs Moduli (GPa) = 90.84694 39.56266 62.02775
#
# Poissons Ratio (x) = 0.24991 -0.06941
# Poissons Ratio (y) = 0.57387 0.49184
# Poissons Ratio (z) = -0.10165 0.31371
#
# Static dielectric constant tensor:
#      x y z
#    x 2.048670 0.025310 -0.007360 
#    y 0.025310 1.913680 -0.007530 
#    z -0.007360 -0.007530 1.899690 
# 
# From -- ./inp_files/187184.got.cif
#   From: 2010.05.17/outbox.cif.g08.bks.cpg/sg2_94_cif.got.tgz:187184.got - 2010.06.03 11:33:40.
