data_PCOD9063904
_publ_section_title
;
Structure prediction by ZEFSAII (Michael W. Deem and Ramdas Pophale) SiO2 
 PCOD9063904
Probable space group: P -1
;
_chemical_formula_sum "Si O2"
_cell_formula_units_Z 10
_cell_length_a 5.026710
_cell_length_b 6.165361
_cell_length_c 14.496317
_cell_angle_alpha 102.965552
_cell_angle_beta 64.014582
_cell_angle_gamma 86.458053
_cell_volume 386.921191
_symmetry_space_group_name_H-M "P -1"
_symmetry_group_IT_number 2
_symmetry_cell_setting 'triclinic'
loop_
_space_group_symop_operation_xyz
x,y,z
-x,-y,-z
loop_
_atom_site_type_symbol
_atom_site_label
_atom_site_fract_x
_atom_site_fract_y
_atom_site_fract_z
Si Si1 0.350864 0.988029 0.620103
Si Si2 0.548749 0.262714 0.918927
Si Si3 0.580467 0.584272 0.252869
Si Si4 0.209788 0.263309 0.315465
Si Si5 0.891616 0.845553 0.880949
O O1 0.867778 0.109834 0.885117
O O2 0.267245 0.248694 0.691239
O O3 0.500000 0.000000 0.500000
O O4 0.103636 0.825834 0.636975
O O5 0.510570 0.301497 0.820617
O O6 0.500000 0.500000 0.000000
O O7 0.285903 0.155368 0.996922
O O8 0.817077 0.349249 0.180662
O O9 0.284264 0.515318 0.338983
O O10 0.417568 0.121614 0.346804
O O11 0.281854 0.217549 0.191000
#
# Coordination Sequence:
#
# PCOD9063904 Si02
#       5
#     2   2   2   2   2
#     4  12  30  53  81 116 155 206 269 333 402 466
#     4  11  24  44  78 114 162 213 254 318 390 466
#     4  12  27  49  83 111 167 207 257 331 393 458
#     4  12  26  51  79 116 155 205 267 323 393 482
#     4  11  25  46  72 120 155 205 266 308 384 485
#
# _framework density 25.845056
#
# number of rings (size 3 to 8) (size 9 to 14) (size 15 to 20)
#    0.000    0.400    6.000    1.200    5.600    2.400 
#    0.000    0.000    0.000    0.000    0.000    0.000 
#    0.000    0.000    0.000    0.000    0.000    0.000 
#
# Total GULP energy -55922.056162 kJ/mol
# GULP energy per Si atom -5592.205616 kJ/mol
# Density = 2.578623 g / cm^3
# Si number density = 25.845056 Si / 1000 Ang^3
#
#
#
# Elastic Constant Matrix: (Units=GPa)
#
#
# Indices 1 2 3 4 5 6 
#
# 1 170.1416 67.6362 61.2987 -29.2554 11.1568 1.5724
# 2 67.6362 152.2850 71.0846 -25.5304 0.0674 -8.3492
# 3 61.2987 71.0846 119.5966 -27.1583 -9.1146 7.7603
# 4 -29.2554 -25.5304 -27.1583 37.2440 2.3116 3.3386
# 5 11.1568 0.0674 -9.1146 2.3116 26.7019 -19.8117
# 6 1.5724 -8.3492 7.7603 3.3386 -19.8117 55.7509
#
#
#
# Elastic Compliance Matrix: (Units=1/GPa)
#
#
# Indices 1 2 3 4 5 6 
#
# 1 0.008952 -0.002166 -0.002677 0.004321 -0.007288 -0.003053
# 2 -0.002166 0.010077 -0.004609 0.001561 0.001009 0.002477
# 3 -0.002677 -0.004609 0.013982 0.004758 0.004590 -0.001215
# 4 0.004321 0.001561 0.004758 0.035697 -0.007157 -0.005231
# 5 -0.007288 0.001009 0.004590 -0.007157 0.058109 0.020796
# 6 -0.003053 0.002477 -0.001215 -0.005231 0.020796 0.026266
#
#
# Mechanical properties :
#
#
# Convention : Reuss Voigt Hill
#
# Bulk Modulus (GPa) = 70.88479 93.56244 82.22361
# Shear Modulus (GPa) = 28.29838 40.07296 34.18567
#
# Velocity S-wave (km/s) = 3.31255 3.94192 3.64086
# Velocity P-wave (km/s) = 6.48977 7.54972 7.03972
#
# Compressibility (1/GPa) = 0.01410740
#
# Stress axis : x y z
#
# Youngs Moduli (GPa) = 111.70524 99.23625 71.52236
#
# Poissons Ratio (x) = 0.21496 0.19146
# Poissons Ratio (y) = 0.24197 0.32961
# Poissons Ratio (z) = 0.29903 0.45733
#
# Static dielectric constant tensor:
#      x y z
#    x 2.158980 0.128420 -0.114750 
#    y 0.128420 2.228800 0.015860 
#    z -0.114750 0.015860 2.022250 
# 
# From -- ./inp_files/360385.got.cif
#   From: 2010.05.17/outbox.cif.g08.bks.cpg/sg2_181_cif.got.tgz:360385.got - 2010.06.03 11:33:40.
