data_PCOD9063425
_publ_section_title
;
Structure prediction by ZEFSAII (Michael W. Deem and Ramdas Pophale) SiO2 
 PCOD9063425
Probable space group: P -1
;
_chemical_formula_sum "Si O2"
_cell_formula_units_Z 16
_cell_length_a 10.785765
_cell_length_b 16.895502
_cell_length_c 9.823151
_cell_angle_alpha 49.284385
_cell_angle_beta 49.885681
_cell_angle_gamma 27.930586
_cell_volume 623.765398
_symmetry_space_group_name_H-M "P -1"
_symmetry_group_IT_number 2
_symmetry_cell_setting 'triclinic'
loop_
_space_group_symop_operation_xyz
x,y,z
-x,-y,-z
loop_
_atom_site_type_symbol
_atom_site_label
_atom_site_fract_x
_atom_site_fract_y
_atom_site_fract_z
Si Si1 0.111166 0.097318 0.916703
Si Si2 0.014223 0.926760 0.226793
Si Si3 0.599637 0.066317 0.843856
Si Si4 0.265545 0.534523 0.123881
Si Si5 0.983799 0.630188 0.714185
Si Si6 0.630024 0.617876 0.503601
Si Si7 0.074976 0.803373 0.601256
Si Si8 0.626226 0.640082 0.029536
O O1 0.143621 0.073092 0.758433
O O2 0.992185 0.266110 0.865780
O O3 0.918677 0.093923 0.076363
O O4 0.347857 0.938249 0.029230
O O5 0.991936 0.924989 0.404321
O O6 0.330389 0.751946 0.157331
O O7 0.432973 0.235472 0.681816
O O8 0.889757 0.913369 0.738511
O O9 0.500000 0.000000 0.000000
O O10 0.330156 0.413314 0.327828
O O11 0.254866 0.496721 0.020635
O O12 0.500000 0.500000 0.000000
O O13 0.104855 0.563955 0.552654
O O14 0.004593 0.731015 0.658584
O O15 0.704773 0.712205 0.829039
O O16 0.201253 0.455642 0.847501
O O17 0.381332 0.671101 0.573405
#
# Coordination Sequence:
#
# PCOD9063425 Si02
#       8
#     2   2   2   2   2   2   2   2
#     4  11  24  45  74 102 142 186 238 286 360 419
#     4  11  24  44  74 101 140 188 243 293 345 428
#     4  12  29  49  74 105 147 191 234 295 363 426
#     4  12  25  43  76 107 142 186 240 297 358 419
#     4  11  25  42  71 106 146 186 236 297 361 415
#     4  12  26  48  75 107 141 188 246 292 349 435
#     4  12  25  44  74 104 138 189 243 293 347 433
#     4  11  24  44  68 104 147 189 232 298 360 420
#
# _framework density 25.650670000000002
#
# number of rings (size 3 to 8) (size 9 to 14) (size 15 to 20)
#    0.000    0.500    3.750    3.750    8.750    0.500 
#    2.250    0.625    0.000    0.000    0.000    0.000 
#    0.000    0.000    0.000    0.000    0.000    0.000 
#
# Total GULP energy -89455.023621 kJ/mol
# GULP energy per Si atom -5590.938976 kJ/mol
# Density = 2.559229 g / cm^3
# Si number density = 25.650670 Si / 1000 Ang^3
#
#
#
# Elastic Constant Matrix: (Units=GPa)
#
#
# Indices 1 2 3 4 5 6 
#
# 1 68.3484 10.0733 30.1991 11.1904 -4.6971 10.4803
# 2 10.0733 80.8907 31.6207 7.9780 -12.4973 2.6460
# 3 30.1991 31.6207 120.0983 8.0877 14.3667 -3.2102
# 4 11.1904 7.9780 8.0877 53.0232 8.6457 6.5000
# 5 -4.6971 -12.4973 14.3667 8.6457 43.2391 -17.0657
# 6 10.4803 2.6460 -3.2102 6.5000 -17.0657 26.8548
#
#
#
# Elastic Compliance Matrix: (Units=1/GPa)
#
#
# Indices 1 2 3 4 5 6 
#
# 1 0.018213 0.000417 -0.004896 -0.002774 0.001993 -0.005796
# 2 0.000417 0.015781 -0.004933 -0.003591 0.008537 0.003987
# 3 -0.004896 -0.004933 0.011510 0.001072 -0.006153 -0.000397
# 4 -0.002774 -0.003591 0.001072 0.022823 -0.010440 -0.010594
# 5 0.001993 0.008537 -0.006153 -0.010440 0.040058 0.025629
# 6 -0.005796 0.003987 -0.000397 -0.010594 0.025629 0.057910
#
#
# Mechanical properties :
#
#
# Convention : Reuss Voigt Hill
#
# Bulk Modulus (GPa) = 37.48124 45.90261 41.69192
# Shear Modulus (GPa) = 25.77171 37.78637 31.77904
#
# Velocity S-wave (km/s) = 3.17317 3.84228 3.52364
# Velocity P-wave (km/s) = 5.29804 6.13338 5.73095
#
# Compressibility (1/GPa) = 0.02668002
#
# Stress axis : x y z
#
# Youngs Moduli (GPa) = 54.90715 63.36586 86.88434
#
# Poissons Ratio (x) = -0.02642 0.42537
# Poissons Ratio (y) = -0.02289 0.42858
# Poissons Ratio (z) = 0.26882 0.31257
#
# Static dielectric constant tensor:
#      x y z
#    x 2.131570 0.017800 -0.033510 
#    y 0.017800 2.109280 -0.058030 
#    z -0.033510 -0.058030 2.058780 
# 
# From -- ./inp_files/278964.got.cif
#   From: 2010.05.17/outbox.cif.g08.bks.cpg/sg2_140_cif.got.tgz:278964.got - 2010.06.03 11:33:40.
