data_PCOD9063502
_publ_section_title
;
Structure prediction by ZEFSAII (Michael W. Deem and Ramdas Pophale) SiO2 
 PCOD9063502
Probable space group: P -1
;
_chemical_formula_sum "Si O2"
_cell_formula_units_Z 16
_cell_length_a 13.513742
_cell_length_b 14.601378
_cell_length_c 11.978604
_cell_angle_alpha 30.451025
_cell_angle_beta 65.555889
_cell_angle_gamma 44.682603
_cell_volume 698.555351
_symmetry_space_group_name_H-M "P -1"
_symmetry_group_IT_number 2
_symmetry_cell_setting 'triclinic'
loop_
_space_group_symop_operation_xyz
x,y,z
-x,-y,-z
loop_
_atom_site_type_symbol
_atom_site_label
_atom_site_fract_x
_atom_site_fract_y
_atom_site_fract_z
Si Si1 0.580637 0.019291 0.793887
Si Si2 0.301409 0.553191 0.038867
Si Si3 0.332468 0.868900 0.572156
Si Si4 0.362977 0.979984 0.842944
Si Si5 0.860772 0.622568 0.268459
Si Si6 0.804353 0.701217 0.642162
Si Si7 0.012610 0.945965 0.182616
Si Si8 0.630697 0.391393 0.647509
O O1 0.673063 0.033281 0.648409
O O2 0.515902 0.915829 0.877816
O O3 0.418922 0.346829 0.561236
O O4 0.700405 0.832757 0.039398
O O5 0.301834 0.696703 0.787600
O O6 0.479918 0.334026 0.251008
O O7 0.268992 0.393020 0.181322
O O8 0.153301 0.790297 0.947635
O O9 0.201264 0.143307 0.422865
O O10 0.206945 0.237976 0.724930
O O11 0.313797 0.080455 0.633778
O O12 0.385545 0.739498 0.111382
O O13 0.947899 0.315849 0.548448
O O14 0.008606 0.562472 0.217204
O O15 0.182496 0.836586 0.251508
O O16 0.000000 0.000000 0.000000
O O17 0.500000 0.500000 0.500000
#
# Coordination Sequence:
#
# PCOD9063502 Si02
#       8
#     2   2   2   2   2   2   2   2
#     4  12  26  46  67 101 143 184 220 277 343 412
#     4  11  24  44  69  99 134 176 233 288 328 394
#     4  11  26  46  70  97 138 185 231 280 337 400
#     4  12  24  43  72 102 134 178 227 285 342 402
#     4  12  24  45  68 102 144 172 223 286 348 403
#     4  12  25  44  72 103 130 179 234 282 336 403
#     4  12  23  43  72 104 135 176 225 287 346 394
#     4  12  25  43  71 101 141 179 221 274 351 413
#
# _framework density 22.904412000000001
#
# number of rings (size 3 to 8) (size 9 to 14) (size 15 to 20)
#    0.000    0.250    5.000    4.875    3.500    0.500 
#    0.000    0.625    0.000    0.000    0.000    0.000 
#    0.000    0.000    0.000    0.000    0.000    0.000 
#
# Total GULP energy -89679.605243 kJ/mol
# GULP energy per Si atom -5604.975328 kJ/mol
# Density = 2.285228 g / cm^3
# Si number density = 22.904412 Si / 1000 Ang^3
#
#
#
# Elastic Constant Matrix: (Units=GPa)
#
#
# Indices 1 2 3 4 5 6 
#
# 1 58.5406 -11.9026 10.9238 8.5369 -11.7133 -22.2933
# 2 -11.9026 87.2242 13.7660 9.8936 5.7355 -11.2383
# 3 10.9238 13.7660 96.0556 4.8305 -28.5764 -3.2478
# 4 8.5369 9.8936 4.8305 31.9457 -12.8200 -4.0025
# 5 -11.7133 5.7355 -28.5764 -12.8200 35.7479 4.5710
# 6 -22.2933 -11.2383 -3.2478 -4.0025 4.5710 33.6932
#
#
#
# Elastic Compliance Matrix: (Units=1/GPa)
#
#
# Indices 1 2 3 4 5 6 
#
# 1 0.027774 0.007531 -0.003078 -0.006599 0.000542 0.019735
# 2 0.007531 0.016027 -0.004847 -0.008294 -0.008230 0.009993
# 3 -0.003078 -0.004847 0.015354 0.005346 0.014407 -0.003492
# 4 -0.006599 -0.008294 0.005346 0.041931 0.019018 -0.004217
# 5 0.000542 -0.008230 0.014407 0.019018 0.048489 -0.005317
# 6 0.019735 0.009993 -0.003492 -0.004217 -0.005317 0.045954
#
#
# Mechanical properties :
#
#
# Convention : Reuss Voigt Hill
#
# Bulk Modulus (GPa) = 17.13243 29.71051 23.42147
# Shear Modulus (GPa) = 23.17266 35.54624 29.35945
#
# Velocity S-wave (km/s) = 3.18419 3.94374 3.58414
# Velocity P-wave (km/s) = 4.58421 5.80837 5.23221
#
# Compressibility (1/GPa) = 0.05836883
#
# Stress axis : x y z
#
# Youngs Moduli (GPa) = 36.00515 62.39514 65.12779
#
# Poissons Ratio (x) = -0.46992 0.20043
# Poissons Ratio (y) = -0.27116 0.31567
# Poissons Ratio (z) = 0.11081 0.30242
#
# Static dielectric constant tensor:
#      x y z
#    x 1.852090 -0.043210 -0.019920 
#    y -0.043210 1.864840 -0.020780 
#    z -0.019920 -0.020780 1.849860 
# 
# From -- ./inp_files/455379.got.cif
#   From: 2010.05.17/outbox.cif.g08.bks.cpg/sg2_228_cif.got.tgz:455379.got - 2010.06.03 11:33:40.
