data_PCOD9063798
_publ_section_title
;
Structure prediction by ZEFSAII (Michael W. Deem and Ramdas Pophale) SiO2 
 PCOD9063798
Probable space group: P -1
;
_chemical_formula_sum "Si O2"
_cell_formula_units_Z 16
_cell_length_a 9.546704
_cell_length_b 8.685853
_cell_length_c 14.113443
_cell_angle_alpha 129.313075
_cell_angle_beta 101.283881
_cell_angle_gamma 112.947198
_cell_volume 653.322894
_symmetry_space_group_name_H-M "P -1"
_symmetry_group_IT_number 2
_symmetry_cell_setting 'triclinic'
loop_
_space_group_symop_operation_xyz
x,y,z
-x,-y,-z
loop_
_atom_site_type_symbol
_atom_site_label
_atom_site_fract_x
_atom_site_fract_y
_atom_site_fract_z
Si Si1 0.842961 0.937901 0.380772
Si Si2 0.498505 0.685410 0.926344
Si Si3 0.041178 0.507684 0.162097
Si Si4 0.856507 0.704420 0.599524
Si Si5 0.328596 0.079049 0.352074
Si Si6 0.595630 0.017036 0.885253
Si Si7 0.295663 0.768850 0.480666
Si Si8 0.091593 0.138361 0.963609
O O1 0.692221 0.627041 0.208388
O O2 0.717690 0.007093 0.426864
O O3 0.000000 0.000000 0.500000
O O4 0.978071 0.148443 0.398244
O O5 0.494288 0.782818 0.859037
O O6 0.510197 0.870053 0.078842
O O7 0.694578 0.744684 0.975587
O O8 0.153152 0.576777 0.301665
O O9 0.122567 0.790042 0.242558
O O10 0.099819 0.383779 0.052241
O O11 0.811780 0.273524 0.052152
O O12 0.687150 0.700329 0.546256
O O13 0.784282 0.421899 0.511658
O O14 0.948387 0.904125 0.779014
O O15 0.490110 0.122501 0.454706
O O16 0.374950 0.055789 0.241224
O O17 0.000000 0.000000 0.000000
#
# Coordination Sequence:
#
# PCOD9063798 Si02
#       8
#     2   2   2   2   2   2   2   2
#     4  12  29  50  73 107 150 198 240 305 362 440
#     4  11  25  44  72 105 144 189 245 293 368 428
#     4  12  24  48  72 104 148 190 244 299 370 427
#     4  12  26  47  75 105 149 195 245 300 369 426
#     4  12  26  44  74 112 145 189 247 304 360 434
#     4  11  24  44  74 105 144 190 238 306 359 433
#     4  12  27  48  72 108 149 196 244 296 367 443
#     4  12  23  45  74 106 140 191 244 307 360 430
#
# _framework density 24.490188
#
# number of rings (size 3 to 8) (size 9 to 14) (size 15 to 20)
#    0.000    0.250    3.750    4.500    5.250    2.500 
#    0.000    0.000    0.000    0.000    0.000    0.000 
#    0.000    0.000    0.000    0.000    0.000    0.000 
#
# Total GULP energy -89697.178325 kJ/mol
# GULP energy per Si atom -5606.073645 kJ/mol
# Density = 2.443445 g / cm^3
# Si number density = 24.490188 Si / 1000 Ang^3
#
#
#
# Elastic Constant Matrix: (Units=GPa)
#
#
# Indices 1 2 3 4 5 6 
#
# 1 131.4721 9.5158 8.2515 3.4145 1.8074 -7.7039
# 2 9.5158 91.8439 7.4290 15.3026 1.4388 5.3937
# 3 8.2515 7.4290 53.3976 3.2868 9.1287 -5.6554
# 4 3.4145 15.3026 3.2868 41.8258 -1.3331 -2.1380
# 5 1.8074 1.4388 9.1287 -1.3331 39.5560 6.0857
# 6 -7.7039 5.3937 -5.6554 -2.1380 6.0857 46.8055
#
#
#
# Elastic Compliance Matrix: (Units=1/GPa)
#
#
# Indices 1 2 3 4 5 6 
#
# 1 0.007804 -0.000769 -0.000891 -0.000230 -0.000330 0.001298
# 2 -0.000769 0.011909 -0.001491 -0.004271 0.000092 -0.001886
# 3 -0.000891 -0.001491 0.020335 -0.000984 -0.005108 0.003101
# 4 -0.000230 -0.004271 -0.000984 0.025671 0.001047 0.001372
# 5 -0.000330 0.000092 -0.005108 0.001047 0.027147 -0.004164
# 6 0.001298 -0.001886 0.003101 0.001372 -0.004164 0.022775
#
#
# Mechanical properties :
#
#
# Convention : Reuss Voigt Hill
#
# Bulk Modulus (GPa) = 29.63248 36.34514 32.98881
# Shear Modulus (GPa) = 37.53987 42.40528 39.97258
#
# Velocity S-wave (km/s) = 3.91941 4.16567 4.04442
# Velocity P-wave (km/s) = 5.71038 6.16522 5.94215
#
# Compressibility (1/GPa) = 0.03374675
#
# Stress axis : x y z
#
# Youngs Moduli (GPa) = 128.13376 83.96863 49.17671
#
# Poissons Ratio (x) = 0.06460 0.04381
# Poissons Ratio (y) = 0.09857 0.07331
# Poissons Ratio (z) = 0.11415 0.12517
#
# Static dielectric constant tensor:
#      x y z
#    x 1.986940 -0.027380 -0.001830 
#    y -0.027380 1.979410 -0.012400 
#    z -0.001830 -0.012400 1.930450 
# 
# From -- ./inp_files/333073.got.cif
#   From: 2010.05.17/outbox.cif.g08.bks.cpg/sg2_167_cif.got.tgz:333073.got - 2010.06.03 11:33:40.
