data_PCOD9063727
_publ_section_title
;
Structure prediction by ZEFSAII (Michael W. Deem and Ramdas Pophale) SiO2 
 PCOD9063727
Probable space group: P -1
;
_chemical_formula_sum "Si O2"
_cell_formula_units_Z 14
_cell_length_a 9.246625
_cell_length_b 12.058708
_cell_length_c 8.903282
_cell_angle_alpha 46.361681
_cell_angle_beta 64.637191
_cell_angle_gamma 57.383753
_cell_volume 602.560029
_symmetry_space_group_name_H-M "P -1"
_symmetry_group_IT_number 2
_symmetry_cell_setting 'triclinic'
loop_
_space_group_symop_operation_xyz
x,y,z
-x,-y,-z
loop_
_atom_site_type_symbol
_atom_site_label
_atom_site_fract_x
_atom_site_fract_y
_atom_site_fract_z
Si Si1 0.959197 0.814268 0.063957
Si Si2 0.986374 0.069711 0.609418
Si Si3 0.873870 0.666191 0.974841
Si Si4 0.307896 0.127326 0.428998
Si Si5 0.704769 0.673505 0.478006
Si Si6 0.777946 0.301376 0.695490
Si Si7 0.521563 0.806662 0.172704
O O1 0.828639 0.761675 0.271417
O O2 0.108992 0.804674 0.118702
O O3 0.004010 0.697960 0.007224
O O4 0.891172 0.983040 0.842297
O O5 0.177162 0.037188 0.615348
O O6 0.878120 0.258728 0.529389
O O7 0.000000 0.000000 0.500000
O O8 0.774450 0.800417 0.764220
O O9 0.707389 0.690866 0.129767
O O10 0.000000 0.500000 0.000000
O O11 0.293258 0.286056 0.386872
O O12 0.500000 0.000000 0.500000
O O13 0.756568 0.484528 0.586600
O O14 0.524070 0.766442 0.386719
O O15 0.607708 0.261178 0.789852
O O16 0.500000 0.000000 0.000000
#
# Coordination Sequence:
#
# PCOD9063727 Si02
#       7
#     2   2   2   2   2   2   2
#     4  11  24  44  73 104 142 193 244 299 367 447
#     4  12  27  44  71 108 146 192 249 306 375 442
#     4  11  25  47  73 106 151 195 239 308 377 433
#     4  12  27  46  72 106 153 194 250 309 368 445
#     4  11  25  46  71 105 143 194 246 304 371 436
#     4  12  25  46  76 107 145 193 252 308 365 446
#     4  11  26  46  74 106 149 197 252 302 368 450
#
# _framework density 23.234200000000001
#
# number of rings (size 3 to 8) (size 9 to 14) (size 15 to 20)
#    0.000    0.571    2.857    4.714   10.000    0.000 
#    2.571    1.429    0.000    0.000    0.000    0.000 
#    0.000    0.000    0.000    0.000    0.000    0.000 
#
# Total GULP energy -77959.798219 kJ/mol
# GULP energy per Si atom -5568.557016 kJ/mol
# Density = 2.318132 g / cm^3
# Si number density = 23.234200 Si / 1000 Ang^3
#
#
#
# Elastic Constant Matrix: (Units=GPa)
#
#
# Indices 1 2 3 4 5 6 
#
# 1 157.5764 58.0349 24.1496 9.3682 4.1025 29.6052
# 2 58.0349 160.6540 17.0343 2.3175 4.5466 28.3350
# 3 24.1496 17.0343 69.5724 2.7741 12.5010 3.7110
# 4 9.3682 2.3175 2.7741 22.6365 10.2040 13.0304
# 5 4.1025 4.5466 12.5010 10.2040 41.3148 9.1236
# 6 29.6052 28.3350 3.7110 13.0304 9.1236 48.5563
#
#
#
# Elastic Compliance Matrix: (Units=1/GPa)
#
#
# Indices 1 2 3 4 5 6 
#
# 1 0.008176 -0.002123 -0.002300 -0.001481 0.001235 -0.003405
# 2 -0.002123 0.007734 -0.001036 0.002428 -0.000093 -0.003774
# 3 -0.002300 -0.001036 0.016226 0.000413 -0.005022 0.001599
# 4 -0.001481 0.002428 0.000413 0.057615 -0.011414 -0.013862
# 5 0.001235 -0.000093 -0.005022 -0.011414 0.029028 -0.002706
# 6 -0.003405 -0.003774 0.001599 -0.013862 -0.002706 0.028979
#
#
# Mechanical properties :
#
#
# Convention : Reuss Voigt Hill
#
# Bulk Modulus (GPa) = 47.12402 65.13783 56.13093
# Shear Modulus (GPa) = 30.16624 41.74045 35.95335
#
# Velocity S-wave (km/s) = 3.60718 4.24312 3.93801
# Velocity P-wave (km/s) = 6.13801 7.21815 6.69988
#
# Compressibility (1/GPa) = 0.02122060
#
# Stress axis : x y z
#
# Youngs Moduli (GPa) = 122.30943 129.29180 61.62956
#
# Poissons Ratio (x) = 0.27445 0.14172
# Poissons Ratio (y) = 0.25963 0.06383
# Poissons Ratio (z) = 0.28126 0.13390
#
# Static dielectric constant tensor:
#      x y z
#    x 1.933430 -0.011460 -0.035340 
#    y -0.011460 2.030950 -0.052650 
#    z -0.035340 -0.052650 2.058700 
# 
# From -- ./inp_files/184002.got.cif
#   From: 2010.05.17/outbox.cif.g08.bks.cpg/sg2_93_cif.got.tgz:184002.got - 2010.06.03 11:33:40.
