data_PCOD9063045
_publ_section_title
;
Structure prediction by ZEFSAII (Michael W. Deem and Ramdas Pophale) SiO2 
 PCOD9063045
Probable space group: P -1
;
_chemical_formula_sum "Si O2"
_cell_formula_units_Z 16
_cell_length_a 6.457205
_cell_length_b 11.724997
_cell_length_c 11.231440
_cell_angle_alpha 89.780617
_cell_angle_beta 78.647926
_cell_angle_gamma 57.721412
_cell_volume 699.582811
_symmetry_space_group_name_H-M "P -1"
_symmetry_group_IT_number 2
_symmetry_cell_setting 'triclinic'
loop_
_space_group_symop_operation_xyz
x,y,z
-x,-y,-z
loop_
_atom_site_type_symbol
_atom_site_label
_atom_site_fract_x
_atom_site_fract_y
_atom_site_fract_z
Si Si1 0.203544 0.151995 0.895838
Si Si2 0.966544 0.436035 0.622468
Si Si3 0.047385 0.917166 0.680991
Si Si4 0.404028 0.304016 0.743207
Si Si5 0.534761 0.697723 0.763439
Si Si6 0.391540 0.656883 0.037121
Si Si7 0.053717 0.824257 0.418616
Si Si8 0.671628 0.871522 0.849775
O O1 0.335546 0.195247 0.786070
O O2 0.906636 0.242472 0.905412
O O3 0.373417 0.988193 0.879492
O O4 0.242851 0.185018 0.026751
O O5 0.689952 0.543153 0.703752
O O6 0.006033 0.290300 0.595200
O O7 0.000000 0.500000 0.500000
O O8 0.164261 0.419741 0.699054
O O9 0.307163 0.791231 0.701166
O O10 0.985281 0.883597 0.558745
O O11 0.831205 0.935858 0.794011
O O12 0.063615 0.048635 0.659893
O O13 0.464629 0.343145 0.862282
O O14 0.647843 0.245044 0.633913
O O15 0.713775 0.756073 0.754059
O O16 0.440095 0.708783 0.908573
O O17 0.500000 0.500000 0.000000
#
# Coordination Sequence:
#
# PCOD9063045 Si02
#       8
#     2   2   2   2   2   2   2   2
#     4  11  24  43  69 107 146 191 234 293 357 428
#     4  12  29  50  74 106 144 197 243 300 361 435
#     4  11  25  47  76 108 145 188 245 307 355 430
#     4  12  25  46  73 103 149 186 243 292 365 426
#     4  12  26  44  72 107 148 189 240 299 360 436
#     4  12  27  43  70 107 149 193 236 294 358 439
#     4  11  26  48  76 107 141 194 245 301 364 425
#     4  11  24  43  73 106 148 188 242 292 362 427
#
# _framework density 22.870774999999998
#
# number of rings (size 3 to 8) (size 9 to 14) (size 15 to 20)
#    0.000    0.500    3.750    3.750    5.250    5.500 
#    0.000    3.125    0.000    0.000    0.000    0.000 
#    0.000    0.000    0.000    0.000    0.000    0.000 
#
# Total GULP energy -89542.291340 kJ/mol
# GULP energy per Si atom -5596.393209 kJ/mol
# Density = 2.281872 g / cm^3
# Si number density = 22.870775 Si / 1000 Ang^3
#
#
#
# Elastic Constant Matrix: (Units=GPa)
#
#
# Indices 1 2 3 4 5 6 
#
# 1 72.2733 44.9474 24.1168 -16.2350 11.1879 -9.6739
# 2 44.9474 120.5755 20.8738 -10.0814 23.1386 -12.8997
# 3 24.1168 20.8738 59.7115 -12.6884 -3.0626 -0.4688
# 4 -16.2350 -10.0814 -12.6884 41.5162 0.0612 5.9543
# 5 11.1879 23.1386 -3.0626 0.0612 37.3301 -7.6294
# 6 -9.6739 -12.8997 -0.4688 5.9543 -7.6294 45.5538
#
#
#
# Elastic Compliance Matrix: (Units=1/GPa)
#
#
# Indices 1 2 3 4 5 6 
#
# 1 0.021033 -0.005735 -0.005585 0.004891 -0.002875 0.001664
# 2 -0.005735 0.012016 -0.002200 -0.000166 -0.005657 0.001236
# 3 -0.005585 -0.002200 0.020804 0.003826 0.004463 -0.001348
# 4 0.004891 -0.000166 0.003826 0.027540 -0.001676 -0.002849
# 5 -0.002875 -0.005657 0.004463 -0.001676 0.032230 0.003451
# 6 0.001664 0.001236 -0.001348 -0.002849 0.003451 0.023592
#
#
# Mechanical properties :
#
#
# Convention : Reuss Voigt Hill
#
# Bulk Modulus (GPa) = 37.29641 48.04848 42.67244
# Shear Modulus (GPa) = 28.86947 35.72151 32.29549
#
# Velocity S-wave (km/s) = 3.55672 3.95636 3.76185
# Velocity P-wave (km/s) = 5.76280 6.47492 6.12921
#
# Compressibility (1/GPa) = 0.02681223
#
# Stress axis : x y z
#
# Youngs Moduli (GPa) = 47.54369 83.22089 48.06870
#
# Poissons Ratio (x) = 0.47727 0.26848
# Poissons Ratio (y) = 0.27266 0.10575
# Poissons Ratio (z) = 0.26555 0.18309
#
# Static dielectric constant tensor:
#      x y z
#    x 1.863830 0.036760 -0.011650 
#    y 0.036760 1.856440 0.007110 
#    z -0.011650 0.007110 1.828730 
# 
# From -- ./inp_files/364486.got.cif
#   From: 2010.05.17/outbox.cif.g08.bks.cpg/sg2_183_cif.got.tgz:364486.got - 2010.06.03 11:33:40.
