data_PCOD9063843
_publ_section_title
;
Structure prediction by ZEFSAII (Michael W. Deem and Ramdas Pophale) SiO2 
 PCOD9063843
Probable space group: P -1
;
_chemical_formula_sum "Si O2"
_cell_formula_units_Z 15
_cell_length_a 11.694057
_cell_length_b 13.652746
_cell_length_c 7.338266
_cell_angle_alpha 45.098009
_cell_angle_beta 116.835324
_cell_angle_gamma 133.453193
_cell_volume 601.103140
_symmetry_space_group_name_H-M "P -1"
_symmetry_group_IT_number 2
_symmetry_cell_setting 'triclinic'
loop_
_space_group_symop_operation_xyz
x,y,z
-x,-y,-z
loop_
_atom_site_type_symbol
_atom_site_label
_atom_site_fract_x
_atom_site_fract_y
_atom_site_fract_z
Si Si1 0.552809 0.076439 0.734770
Si Si2 0.850565 0.390655 0.667477
Si Si3 0.000000 0.000000 0.000000
Si Si4 0.762664 0.613280 0.479264
Si Si5 0.359613 0.091352 0.263994
Si Si6 0.781494 0.824408 0.680947
Si Si7 0.465889 0.520595 0.165610
Si Si8 0.897770 0.106686 0.127580
O O1 0.685484 0.277779 0.586811
O O2 0.415797 0.037539 0.549069
O O3 0.635722 0.001486 0.786701
O O4 0.500000 0.000000 0.000000
O O5 0.839947 0.512157 0.636535
O O6 0.000000 0.500000 0.500000
O O7 0.863366 0.245216 0.951234
O O8 0.115941 0.187423 0.728413
O O9 0.068085 0.916662 0.022324
O O10 0.620446 0.542441 0.324957
O O11 0.670870 0.568169 0.661119
O O12 0.204533 0.080982 0.238331
O O13 0.490539 0.291252 0.065513
O O14 0.626459 0.634254 0.841957
O O15 0.932638 0.826693 0.752333
O O16 0.774044 0.930920 0.374533
#
# Coordination Sequence:
#
# PCOD9063843 Si02
#       8
#     2   2   1   2   2   2   2   2
#     4  11  26  49  73 104 151 194 244 308 381 446
#     4  12  26  42  70 107 146 188 239 304 371 442
#     4  12  22  46  70 100 146 194 248 288 368 454
#     4  11  25  44  74 112 143 202 249 303 378 441
#     4  11  25  43  77 106 143 193 252 310 370 437
#     4  11  24  45  69 107 141 193 245 307 365 441
#     4  11  24  44  75 105 147 190 258 311 359 443
#     4  11  26  43  72  99 151 193 242 299 379 443
#
# _framework density 24.954118999999999
#
# number of rings (size 3 to 8) (size 9 to 14) (size 15 to 20)
#    0.000    0.800    2.667    3.600    5.600    2.133 
#    0.000    0.667    0.000    0.000    0.000    0.000 
#    0.000    0.000    0.000    0.000    0.000    0.000 
#
# Total GULP energy -83768.363309 kJ/mol
# GULP energy per Si atom -5584.557554 kJ/mol
# Density = 2.489732 g / cm^3
# Si number density = 24.954119 Si / 1000 Ang^3
#
#
#
# Elastic Constant Matrix: (Units=GPa)
#
#
# Indices 1 2 3 4 5 6 
#
# 1 121.7263 13.8444 40.0004 -10.8549 18.0040 4.2233
# 2 13.8444 70.2632 4.9834 -22.6572 -2.1906 -8.9228
# 3 40.0004 4.9834 102.3728 -21.5519 9.9144 -12.7803
# 4 -10.8549 -22.6572 -21.5519 52.1133 2.6535 -5.9873
# 5 18.0040 -2.1906 9.9144 2.6535 52.3584 -3.7251
# 6 4.2233 -8.9228 -12.7803 -5.9873 -3.7251 34.7811
#
#
#
# Elastic Compliance Matrix: (Units=1/GPa)
#
#
# Indices 1 2 3 4 5 6 
#
# 1 0.010481 -0.002746 -0.004419 -0.001154 -0.003118 -0.004133
# 2 -0.002746 0.018757 0.003100 0.009733 0.001224 0.008091
# 3 -0.004419 0.003100 0.013851 0.007064 -0.000794 0.007552
# 4 -0.001154 0.009733 0.007064 0.027289 -0.001219 0.009800
# 5 -0.003118 0.001224 -0.000794 -0.001219 0.020605 0.002398
# 6 -0.004133 0.008091 0.007552 0.009800 0.002398 0.036048
#
#
# Mechanical properties :
#
#
# Convention : Reuss Voigt Hill
#
# Bulk Modulus (GPa) = 28.60382 45.77989 37.19185
# Shear Modulus (GPa) = 34.05677 43.55283 38.80480
#
# Velocity S-wave (km/s) = 3.69829 4.18223 3.94769
# Velocity P-wave (km/s) = 5.45197 6.45808 5.97624
#
# Compressibility (1/GPa) = 0.03496037
#
# Stress axis : x y z
#
# Youngs Moduli (GPa) = 95.40965 53.31212 72.19873
#
# Poissons Ratio (x) = 0.14640 0.31903
# Poissons Ratio (y) = 0.26200 -0.22384
# Poissons Ratio (z) = 0.42159 -0.16529
#
# Static dielectric constant tensor:
#      x y z
#    x 1.980860 -0.065370 -0.041940 
#    y -0.065370 1.949190 0.025810 
#    z -0.041940 0.025810 1.963630 
# 
# From -- ./inp_files/271608.got.cif
#   From: 2010.05.17/outbox.cif.g08.bks.cpg/sg2_136_cif.got.tgz:271608.got - 2010.06.03 11:33:40.
