data_PCOD9063693
_publ_section_title
;
Structure prediction by ZEFSAII (Michael W. Deem and Ramdas Pophale) SiO2 
 PCOD9063693
Probable space group: P -1
;
_chemical_formula_sum "Si O2"
_cell_formula_units_Z 10
_cell_length_a 5.489218
_cell_length_b 14.076752
_cell_length_c 13.341273
_cell_angle_alpha 21.247543
_cell_angle_beta 101.430885
_cell_angle_gamma 100.894542
_cell_volume 366.153677
_symmetry_space_group_name_H-M "P -1"
_symmetry_group_IT_number 2
_symmetry_cell_setting 'triclinic'
loop_
_space_group_symop_operation_xyz
x,y,z
-x,-y,-z
loop_
_atom_site_type_symbol
_atom_site_label
_atom_site_fract_x
_atom_site_fract_y
_atom_site_fract_z
Si Si1 0.444824 0.275537 0.474461
Si Si2 0.732948 0.083237 0.504035
Si Si3 0.030721 0.596783 0.050774
Si Si4 0.785792 0.291572 0.659697
Si Si5 0.894925 0.106620 0.047401
O O1 0.622046 0.107962 0.582787
O O2 0.584750 0.395595 0.463490
O O3 0.309888 0.487202 0.183999
O O4 0.239901 0.085584 0.695669
O O5 0.855090 0.368277 0.218143
O O6 0.500000 0.000000 0.500000
O O7 0.944017 0.863644 0.730841
O O8 0.998124 0.656592 0.108957
O O9 0.000000 0.500000 0.500000
O O10 0.705525 0.195370 0.857805
O O11 0.903602 0.051312 0.843880
#
# Coordination Sequence:
#
# PCOD9063693 Si02
#       5
#     2   2   2   2   2
#     4  12  25  46  78 105 155 197 249 308 370 436
#     4  12  29  52  78 109 151 193 248 318 376 441
#     4  12  26  51  74 115 147 193 255 302 377 448
#     4  11  24  45  72 110 155 200 247 302 365 443
#     4  11  24  44  72 111 151 193 257 293 369 447
#
# _framework density 27.310939999999999
#
# number of rings (size 3 to 8) (size 9 to 14) (size 15 to 20)
#    0.000    0.400    4.000    3.600    2.800    8.000 
#    0.000    0.000    0.000    0.000    0.000    0.000 
#    0.000    0.000    0.000    0.000    0.000    0.000 
#
# Total GULP energy -56063.175333 kJ/mol
# GULP energy per Si atom -5606.317533 kJ/mol
# Density = 2.724878 g / cm^3
# Si number density = 27.310940 Si / 1000 Ang^3
#
#
#
# Elastic Constant Matrix: (Units=GPa)
#
#
# Indices 1 2 3 4 5 6 
#
# 1 63.8147 38.1196 43.3126 -7.4337 24.8025 1.6785
# 2 38.1196 217.7308 55.5188 -17.2862 19.4373 35.9518
# 3 43.3126 55.5188 129.8940 -14.8183 -1.2098 10.9376
# 4 -7.4337 -17.2862 -14.8183 56.9970 0.2090 3.5704
# 5 24.8025 19.4373 -1.2098 0.2090 21.5905 -3.3373
# 6 1.6785 35.9518 10.9376 3.5704 -3.3373 77.1256
#
#
#
# Elastic Compliance Matrix: (Units=1/GPa)
#
#
# Indices 1 2 3 4 5 6 
#
# 1 0.051060 0.001682 -0.017804 0.002902 -0.061531 -0.002167
# 2 0.001682 0.006430 -0.002944 0.001626 -0.008373 -0.003054
# 3 -0.017804 -0.002944 0.015132 0.000592 0.024043 0.000627
# 4 0.002902 0.001626 0.000592 0.018715 -0.005255 -0.001999
# 5 -0.061531 -0.008373 0.024043 -0.005255 0.127109 0.007576
# 6 -0.002167 -0.003054 0.000627 -0.001999 0.007576 0.014768
#
#
# Mechanical properties :
#
#
# Convention : Reuss Voigt Hill
#
# Bulk Modulus (GPa) = 28.99506 76.14906 52.57206
# Shear Modulus (GPa) = 17.67763 49.44184 33.55973
#
# Velocity S-wave (km/s) = 2.54692 4.25941 3.50923
# Velocity P-wave (km/s) = 4.39189 7.22031 5.97585
#
# Compressibility (1/GPa) = 0.03448864
#
# Stress axis : x y z
#
# Youngs Moduli (GPa) = 19.58494 155.51912 66.08349
#
# Poissons Ratio (x) = -0.26152 1.17655
# Poissons Ratio (y) = -0.03293 0.19458
# Poissons Ratio (z) = 0.34869 0.45791
#
# Static dielectric constant tensor:
#      x y z
#    x 2.135320 0.036030 0.007430 
#    y 0.036030 2.108140 0.086300 
#    z 0.007430 0.086300 2.212630 
# 
# From -- ./inp_files/2659.got.cif
#   From: 2010.05.17/outbox.cif.g08.bks.cpg/sg2_2_cif.got.tgz:2659.got - 2010.06.03 11:33:40.
