data_PCOD9063019
_publ_section_title
;
Structure prediction by ZEFSAII (Michael W. Deem and Ramdas Pophale) SiO2 
 PCOD9063019
Probable space group: P -1
;
_chemical_formula_sum "Si O2"
_cell_formula_units_Z 14
_cell_length_a 11.647976
_cell_length_b 6.582422
_cell_length_c 23.259707
_cell_angle_alpha 69.345751
_cell_angle_beta 146.162041
_cell_angle_gamma 85.429345
_cell_volume 649.438954
_symmetry_space_group_name_H-M "P -1"
_symmetry_group_IT_number 2
_symmetry_cell_setting 'triclinic'
loop_
_space_group_symop_operation_xyz
x,y,z
-x,-y,-z
loop_
_atom_site_type_symbol
_atom_site_label
_atom_site_fract_x
_atom_site_fract_y
_atom_site_fract_z
Si Si1 0.141369 0.778561 0.525788
Si Si2 0.794051 0.808886 0.281128
Si Si3 0.885945 0.758060 0.021845
Si Si4 0.838536 0.204397 0.185530
Si Si5 0.142342 0.206284 0.412882
Si Si6 0.265608 0.057510 0.287871
Si Si7 0.728544 0.119072 0.814600
O O1 0.444890 0.425187 0.699946
O O2 0.918825 0.789377 0.397212
O O3 0.221367 0.914265 0.502343
O O4 0.000000 0.000000 0.500000
O O5 0.954131 0.479365 0.354431
O O6 0.444642 0.036458 0.115176
O O7 0.862219 0.956217 0.251644
O O8 0.861732 0.823286 0.936892
O O9 0.087598 0.407572 0.160655
O O10 0.029647 0.874163 0.091930
O O11 0.953779 0.300270 0.268486
O O12 0.045042 0.069299 0.229421
O O13 0.500000 0.500000 0.000000
O O14 0.446628 0.102343 0.539700
O O15 0.372620 0.874518 0.290894
#
# Coordination Sequence:
#
# PCOD9063019 Si02
#       7
#     2   2   2   2   2   2   2
#     4  11  24  43  69 102 141 173 229 277 333 414
#     4  11  25  45  71 102 133 181 226 280 343 396
#     4  11  25  42  69 101 140 175 227 278 336 400
#     4  11  26  46  69 104 133 176 234 283 332 404
#     4  11  25  44  69 100 136 179 229 275 343 400
#     4  12  24  46  70  96 143 179 224 282 335 401
#     4  11  25  43  68 105 133 185 227 269 341 409
#
# _framework density 21.557068000000001
#
# number of rings (size 3 to 8) (size 9 to 14) (size 15 to 20)
#    0.000    0.857    4.286    1.714    4.000    5.714 
#    0.000    0.000    0.000    0.000    0.000    0.000 
#    0.000    0.000    0.000    0.000    0.000    0.000 
#
# Total GULP energy -78326.365272 kJ/mol
# GULP energy per Si atom -5594.740377 kJ/mol
# Density = 2.150800 g / cm^3
# Si number density = 21.557068 Si / 1000 Ang^3
#
#
#
# Elastic Constant Matrix: (Units=GPa)
#
#
# Indices 1 2 3 4 5 6 
#
# 1 82.6744 22.9458 24.3325 6.1611 6.4511 5.0738
# 2 22.9458 76.6471 40.9510 -10.1146 3.0292 -4.6015
# 3 24.3325 40.9510 130.0062 16.6667 16.5440 -4.2284
# 4 6.1611 -10.1146 16.6667 22.1076 0.2258 0.1921
# 5 6.4511 3.0292 16.5440 0.2258 42.4563 2.5629
# 6 5.0738 -4.6015 -4.2284 0.1921 2.5629 34.6857
#
#
#
# Elastic Compliance Matrix: (Units=1/GPa)
#
#
# Indices 1 2 3 4 5 6 
#
# 1 0.014303 -0.005100 -0.000170 -0.006152 -0.001551 -0.002641
# 2 -0.005100 0.021263 -0.008162 0.017260 0.002207 0.002313
# 3 -0.000170 -0.008162 0.012546 -0.013108 -0.004263 0.000859
# 4 -0.006152 0.017260 -0.013108 0.064674 0.004413 0.000907
# 5 -0.001551 0.002207 -0.004263 0.004413 0.025384 -0.001900
# 6 -0.002641 0.002313 0.000859 0.000907 -0.001900 0.029764
#
#
# Mechanical properties :
#
#
# Convention : Reuss Voigt Hill
#
# Bulk Modulus (GPa) = 47.06311 51.75402 49.40857
# Shear Modulus (GPa) = 24.76720 33.25647 29.01184
#
# Velocity S-wave (km/s) = 3.39324 3.93201 3.67252
# Velocity P-wave (km/s) = 6.10175 6.68388 6.39944
#
# Compressibility (1/GPa) = 0.02124806
#
# Stress axis : x y z
#
# Youngs Moduli (GPa) = 69.91643 47.02899 79.70958
#
# Poissons Ratio (x) = 0.23984 0.01358
# Poissons Ratio (y) = 0.35656 0.65056
# Poissons Ratio (z) = 0.01191 0.38383
#
# Static dielectric constant tensor:
#      x y z
#    x 1.787570 0.010710 -0.024650 
#    y 0.010710 1.761300 0.017780 
#    z -0.024650 0.017780 1.760750 
# 
# From -- ./inp_files/27486.got.cif
#   From: 2010.05.17/outbox.cif.g08.bks.cpg/sg2_14_cif.got.tgz:27486.got - 2010.06.03 11:33:40.
