data_PCOD9063356
_publ_section_title
;
Structure prediction by ZEFSAII (Michael W. Deem and Ramdas Pophale) SiO2 
 PCOD9063356
Probable space group: P -1
;
_chemical_formula_sum "Si O2"
_cell_formula_units_Z 12
_cell_length_a 5.234099
_cell_length_b 5.780433
_cell_length_c 21.444043
_cell_angle_alpha 50.070009
_cell_angle_beta 74.596549
_cell_angle_gamma 78.585173
_cell_volume 479.315427
_symmetry_space_group_name_H-M "P -1"
_symmetry_group_IT_number 2
_symmetry_cell_setting 'triclinic'
loop_
_space_group_symop_operation_xyz
x,y,z
-x,-y,-z
loop_
_atom_site_type_symbol
_atom_site_label
_atom_site_fract_x
_atom_site_fract_y
_atom_site_fract_z
Si Si1 0.366417 0.428315 0.456147
Si Si2 0.803382 0.232300 0.233187
Si Si3 0.855136 0.168063 0.388108
Si Si4 0.975482 0.797291 0.908824
Si Si5 0.857958 0.308360 0.680957
Si Si6 0.488663 0.180672 0.839168
O O1 0.500000 0.500000 0.500000
O O2 0.588895 0.297347 0.416962
O O3 0.242683 0.718295 0.377867
O O4 0.157936 0.178634 0.531149
O O5 0.856930 0.269543 0.297618
O O6 0.984886 0.304366 0.148687
O O7 0.559437 0.471014 0.196672
O O8 0.864487 0.870265 0.291708
O O9 0.095456 0.341633 0.372149
O O10 0.211428 0.019138 0.874419
O O11 0.694599 0.980813 0.901836
O O12 0.000000 0.500000 0.000000
O O13 0.639386 0.194668 0.761193
#
# Coordination Sequence:
#
# PCOD9063356 Si02
#       6
#     2   2   2   2   2   2
#     4  11  25  43  70 102 146 194 253 316 368 430
#     4  11  24  44  76 102 145 197 240 302 373 435
#     4  11  24  44  65 106 144 197 254 308 366 437
#     4  11  27  49  76 114 150 189 245 306 370 452
#     4  11  25  45  72 103 150 193 256 304 374 436
#     4  11  25  47  76 111 148 193 248 300 372 451
#
# _framework density 25.035709000000001
#
# number of rings (size 3 to 8) (size 9 to 14) (size 15 to 20)
#    0.000    1.000    1.667    4.000    2.333   12.000 
#    0.000    0.000    0.000    0.000    0.000    0.000 
#    0.000    0.000    0.000    0.000    0.000    0.000 
#
# Total GULP energy -66992.526100 kJ/mol
# GULP energy per Si atom -5582.710508 kJ/mol
# Density = 2.497873 g / cm^3
# Si number density = 25.035709 Si / 1000 Ang^3
#
#
#
# Elastic Constant Matrix: (Units=GPa)
#
#
# Indices 1 2 3 4 5 6 
#
# 1 81.1314 17.1157 19.7900 -27.3282 6.8516 0.7847
# 2 17.1157 76.6796 35.6235 -11.4080 3.7888 -18.6708
# 3 19.7900 35.6235 155.3002 -20.8364 24.8154 -0.2514
# 4 -27.3282 -11.4080 -20.8364 46.6269 -11.8088 2.2327
# 5 6.8516 3.7888 24.8154 -11.8088 43.0694 -12.4163
# 6 0.7847 -18.6708 -0.2514 2.2327 -12.4163 43.1058
#
#
#
# Elastic Compliance Matrix: (Units=1/GPa)
#
#
# Indices 1 2 3 4 5 6 
#
# 1 0.015868 -0.002637 -0.000209 0.008556 -0.000400 -0.001991
# 2 -0.002637 0.017760 -0.004192 0.001581 0.004261 0.008861
# 3 -0.000209 -0.004192 0.008420 0.001511 -0.004980 -0.003275
# 4 0.008556 0.001581 0.001511 0.028951 0.005769 0.000700
# 5 -0.000400 0.004261 -0.004980 0.005769 0.030315 0.010257
# 6 -0.001991 0.008861 -0.003275 0.000700 0.010257 0.029972
#
#
# Mechanical properties :
#
#
# Convention : Reuss Voigt Hill
#
# Bulk Modulus (GPa) = 35.74917 50.90771 43.32844
# Shear Modulus (GPa) = 32.32357 42.59924 37.46140
#
# Velocity S-wave (km/s) = 3.59708 4.12945 3.87242
# Velocity P-wave (km/s) = 5.61803 6.56617 6.11052
#
# Compressibility (1/GPa) = 0.02797268
#
# Stress axis : x y z
#
# Youngs Moduli (GPa) = 63.02057 56.30681 118.75890
#
# Poissons Ratio (x) = 0.14848 0.02476
# Poissons Ratio (y) = 0.16619 0.49785
# Poissons Ratio (z) = 0.01314 0.23605
#
# Static dielectric constant tensor:
#      x y z
#    x 2.011160 -0.008370 0.040120 
#    y -0.008370 2.082970 0.005390 
#    z 0.040120 0.005390 1.950550 
# 
# From -- ./inp_files/580569.got.cif
#   From: 2010.05.17/outbox.cif.g08.bks.cpg/sg2_291_cif.got.tgz:580569.got - 2010.06.03 11:33:40.
