data_PCOD9063358
_publ_section_title
;
Structure prediction by ZEFSAII (Michael W. Deem and Ramdas Pophale) SiO2 
 PCOD9063358
Probable space group: P -1
;
_chemical_formula_sum "Si O2"
_cell_formula_units_Z 16
_cell_length_a 19.309463
_cell_length_b 4.845557
_cell_length_c 7.340976
_cell_angle_alpha 72.394221
_cell_angle_beta 96.940345
_cell_angle_gamma 110.924140
_cell_volume 611.449533
_symmetry_space_group_name_H-M "P -1"
_symmetry_group_IT_number 2
_symmetry_cell_setting 'triclinic'
loop_
_space_group_symop_operation_xyz
x,y,z
-x,-y,-z
loop_
_atom_site_type_symbol
_atom_site_label
_atom_site_fract_x
_atom_site_fract_y
_atom_site_fract_z
Si Si1 0.462386 0.383853 0.276568
Si Si2 0.266121 0.753617 0.798773
Si Si3 0.331229 0.274060 0.015653
Si Si4 0.592143 0.289216 0.508685
Si Si5 0.097634 0.105100 0.317561
Si Si6 0.111570 0.195734 0.892634
Si Si7 0.738084 0.759638 0.594912
Si Si8 0.963521 0.331507 0.298883
O O1 0.415473 0.313244 0.090897
O O2 0.547626 0.415330 0.321244
O O3 0.445988 0.657924 0.322369
O O4 0.423169 0.070307 0.444117
O O5 0.188930 0.471918 0.845308
O O6 0.260789 0.947066 0.581961
O O7 0.326086 0.581785 0.860791
O O8 0.094938 0.928201 0.793975
O O9 0.288519 0.988844 0.929650
O O10 0.288283 0.232120 0.206296
O O11 0.676777 0.478252 0.533628
O O12 0.106448 0.058279 0.117794
O O13 0.181063 0.269908 0.380398
O O14 0.042644 0.298036 0.289711
O O15 0.062026 0.792871 0.482426
O O16 0.049327 0.354760 0.813712
#
# Coordination Sequence:
#
# PCOD9063358 Si02
#       8
#     2   2   2   2   2   2   2   2
#     4   9  18  37  66  91 131 169 217 260 323 384
#     4  12  26  42  66 101 133 169 223 276 319 392
#     4  11  24  44  65  96 132 175 218 267 330 382
#     4   9  19  37  62  98 126 171 213 266 319 385
#     4  11  25  44  73  96 131 177 218 268 338 389
#     4  12  25  47  68  95 134 171 219 277 325 389
#     4  11  24  44  68  99 134 173 219 271 330 388
#     4  11  27  48  65 101 131 170 222 276 322 396
#
# _framework density 26.167325999999999
#
# number of rings (size 3 to 8) (size 9 to 14) (size 15 to 20)
#    0.000    1.250    2.500    3.000    0.000    7.000 
#    0.000    1.250    0.000    0.000    0.000    0.000 
#    0.000    0.000    0.000    0.000    0.000    0.000 
#
# Total GULP energy -89762.713640 kJ/mol
# GULP energy per Si atom -5610.169603 kJ/mol
# Density = 2.610777 g / cm^3
# Si number density = 26.167326 Si / 1000 Ang^3
#
#
#
# Elastic Constant Matrix: (Units=GPa)
#
#
# Indices 1 2 3 4 5 6 
#
# 1 103.7567 2.8824 14.7108 20.4893 25.0751 23.4352
# 2 2.8824 101.2054 16.1257 14.5042 -4.0550 8.3817
# 3 14.7108 16.1257 146.1169 20.7891 6.4636 4.9554
# 4 20.4893 14.5042 20.7891 32.1410 0.0066 7.5595
# 5 25.0751 -4.0550 6.4636 0.0066 46.0459 6.2606
# 6 23.4352 8.3817 4.9554 7.5595 6.2606 35.5091
#
#
#
# Elastic Compliance Matrix: (Units=1/GPa)
#
#
# Indices 1 2 3 4 5 6 
#
# 1 0.014385 0.001023 0.000126 -0.008107 -0.006832 -0.006822
# 2 0.001023 0.010831 -0.000599 -0.004610 0.000795 -0.002307
# 3 0.000126 -0.000599 0.007626 -0.004796 -0.001223 0.000231
# 4 -0.008107 -0.004610 -0.004796 0.042109 0.005050 -0.002747
# 5 -0.006832 0.000795 -0.001223 0.005050 0.025834 -0.001138
# 6 -0.006822 -0.002307 0.000231 -0.002747 -0.001138 0.033962
#
#
# Mechanical properties :
#
#
# Convention : Reuss Voigt Hill
#
# Bulk Modulus (GPa) = 29.46262 46.50187 37.98224
# Shear Modulus (GPa) = 34.49230 43.89653 39.19441
#
# Velocity S-wave (km/s) = 3.63456 4.10021 3.87439
# Velocity P-wave (km/s) = 5.37561 6.34233 5.87888
#
# Compressibility (1/GPa) = 0.03394131
#
# Stress axis : x y z
#
# Youngs Moduli (GPa) = 69.51837 92.32902 131.13078
#
# Poissons Ratio (x) = -0.09449 -0.01651
# Poissons Ratio (y) = -0.07114 0.07860
# Poissons Ratio (z) = -0.00875 0.05534
#
# Static dielectric constant tensor:
#      x y z
#    x 2.094940 0.020190 -0.013220 
#    y 0.020190 1.972780 0.039250 
#    z -0.013220 0.039250 2.037300 
# 
# From -- ./inp_files/105761.got.cif
#   From: 2010.05.17/outbox.cif.g08.bks.cpg/sg2_53_cif.got.tgz:105761.got - 2010.06.03 11:33:40.
