data_PCOD9063207
_publ_section_title
;
Structure prediction by ZEFSAII (Michael W. Deem and Ramdas Pophale) SiO2 
 PCOD9063207
Probable space group: P -1
;
_chemical_formula_sum "Si O2"
_cell_formula_units_Z 14
_cell_length_a 11.060189
_cell_length_b 13.964957
_cell_length_c 9.268243
_cell_angle_alpha 125.508762
_cell_angle_beta 66.790681
_cell_angle_gamma 148.113826
_cell_volume 598.984361
_symmetry_space_group_name_H-M "P -1"
_symmetry_group_IT_number 2
_symmetry_cell_setting 'triclinic'
loop_
_space_group_symop_operation_xyz
x,y,z
-x,-y,-z
loop_
_atom_site_type_symbol
_atom_site_label
_atom_site_fract_x
_atom_site_fract_y
_atom_site_fract_z
Si Si1 0.723377 0.108786 0.073442
Si Si2 0.189596 0.071993 0.633695
Si Si3 0.408813 0.031813 0.676638
Si Si4 0.870326 0.503511 0.975810
Si Si5 0.029747 0.130411 0.990037
Si Si6 0.748459 0.604015 0.357249
Si Si7 0.622673 0.487734 0.628606
O O1 0.954470 0.334177 0.091947
O O2 0.691736 0.105444 0.254637
O O3 0.786828 0.015025 0.956418
O O4 0.500000 0.000000 0.000000
O O5 0.236028 0.995125 0.649493
O O6 0.159073 0.168417 0.825318
O O7 0.416380 0.252504 0.582446
O O8 0.940363 0.851008 0.490154
O O9 0.625528 0.272729 0.834739
O O10 0.500000 0.000000 0.500000
O O11 0.828684 0.577780 0.171192
O O12 0.000000 0.500000 0.000000
O O13 0.188478 0.342336 0.188036
O O14 0.000000 0.000000 0.000000
O O15 0.724663 0.526289 0.458437
O O16 0.502106 0.480249 0.322303
#
# Coordination Sequence:
#
# PCOD9063207 Si02
#       7
#     2   2   2   2   2   2   2
#     4  12  27  48  76 108 145 199 243 302 369 429
#     4  12  24  44  72 107 148 191 245 302 364 438
#     4  12  27  48  74 107 147 191 243 302 366 441
#     4  12  26  46  72 103 143 192 244 295 361 438
#     4  12  23  46  75 105 148 192 247 301 363 432
#     4  11  25  43  68 110 147 184 243 302 364 434
#     4  11  24  43  72 107 146 192 234 304 370 427
#
# _framework density 23.372897999999999
#
# number of rings (size 3 to 8) (size 9 to 14) (size 15 to 20)
#    0.000    0.286    4.286    4.286    0.000    2.857 
#    0.000    0.000    0.000    0.000    0.000    0.000 
#    0.000    0.000    0.000    0.000    0.000    0.000 
#
# Total GULP energy -78389.854839 kJ/mol
# GULP energy per Si atom -5599.275346 kJ/mol
# Density = 2.331970 g / cm^3
# Si number density = 23.372898 Si / 1000 Ang^3
#
#
#
# Elastic Constant Matrix: (Units=GPa)
#
#
# Indices 1 2 3 4 5 6 
#
# 1 146.7823 15.3259 24.8307 -5.9679 8.8442 4.9161
# 2 15.3259 154.0897 67.3103 -32.0052 15.9038 -13.7654
# 3 24.8307 67.3103 125.6134 -23.6213 3.7288 2.0354
# 4 -5.9679 -32.0052 -23.6213 44.3007 8.6669 11.8357
# 5 8.8442 15.9038 3.7288 8.6669 25.2104 -3.3826
# 6 4.9161 -13.7654 2.0354 11.8357 -3.3826 41.9437
#
#
#
# Elastic Compliance Matrix: (Units=1/GPa)
#
#
# Indices 1 2 3 4 5 6 
#
# 1 0.007295 0.000362 -0.001206 0.001635 -0.003361 -0.001410
# 2 0.000362 0.010730 -0.004290 0.006891 -0.008488 0.001058
# 3 -0.001206 -0.004290 0.011200 0.003477 -0.000098 -0.002799
# 4 0.001635 0.006891 0.003477 0.035983 -0.019119 -0.009795
# 5 -0.003361 -0.008488 -0.000098 -0.019119 0.053773 0.007345
# 6 -0.001410 0.001058 -0.002799 -0.009795 0.007345 0.027846
#
#
# Mechanical properties :
#
#
# Convention : Reuss Voigt Hill
#
# Bulk Modulus (GPa) = 52.75287 71.26880 62.01084
# Shear Modulus (GPa) = 30.59694 43.55885 37.07790
#
# Velocity S-wave (km/s) = 3.62204 4.32168 3.98724
# Velocity P-wave (km/s) = 6.33335 7.44720 6.91275
#
# Compressibility (1/GPa) = 0.01895631
#
# Stress axis : x y z
#
# Youngs Moduli (GPa) = 137.07575 93.19868 89.28200
#
# Poissons Ratio (x) = -0.03370 0.10765
# Poissons Ratio (y) = -0.04957 0.38306
# Poissons Ratio (z) = 0.16528 0.39987
#
# Static dielectric constant tensor:
#      x y z
#    x 1.866150 -0.035290 0.000760 
#    y -0.035290 1.901070 -0.047920 
#    z 0.000760 -0.047920 1.835140 
# 
# From -- ./inp_files/274317.got.cif
#   From: 2010.05.17/outbox.cif.g08.bks.cpg/sg2_138_cif.got.tgz:274317.got - 2010.06.03 11:33:40.
