data_PCOD9063841
_publ_section_title
;
Structure prediction by ZEFSAII (Michael W. Deem and Ramdas Pophale) SiO2 
 PCOD9063841
Probable space group: P -1
;
_chemical_formula_sum "Si O2"
_cell_formula_units_Z 13
_cell_length_a 12.883140
_cell_length_b 9.185368
_cell_length_c 9.168119
_cell_angle_alpha 132.505764
_cell_angle_beta 80.287922
_cell_angle_gamma 133.815859
_cell_volume 477.255186
_symmetry_space_group_name_H-M "P -1"
_symmetry_group_IT_number 2
_symmetry_cell_setting 'triclinic'
loop_
_space_group_symop_operation_xyz
x,y,z
-x,-y,-z
loop_
_atom_site_type_symbol
_atom_site_label
_atom_site_fract_x
_atom_site_fract_y
_atom_site_fract_z
Si Si1 0.461432 0.214619 0.365277
Si Si2 0.696629 0.649094 0.149114
Si Si3 0.950424 0.799331 0.019785
Si Si4 0.799963 0.647709 0.421691
Si Si5 0.877519 0.354900 0.132217
Si Si6 0.699791 0.038566 0.268702
Si Si7 0.500000 0.000000 0.500000
O O1 0.500000 0.500000 0.500000
O O2 0.611842 0.315304 0.312025
O O3 0.473056 0.156842 0.490945
O O4 0.273212 0.899601 0.124800
O O5 0.749505 0.708411 0.341281
O O6 0.779352 0.969946 0.284365
O O7 0.757015 0.565683 0.965679
O O8 0.490263 0.324131 0.977790
O O9 0.083358 0.083834 0.300496
O O10 0.986559 0.619956 0.891438
O O11 0.000000 0.000000 0.000000
O O12 0.905249 0.628894 0.306082
O O13 0.805847 0.232489 0.230871
O O14 0.658412 0.153262 0.464656
#
# Coordination Sequence:
#
# PCOD9063841 Si02
#       7
#     2   2   2   2   2   2   1
#     4  12  24  45  77 111 150 193 247 316 377 434
#     4  11  25  47  71 103 144 194 244 300 379 446
#     4  12  28  47  72 104 148 198 249 303 378 448
#     4  12  25  47  73 102 149 194 244 310 372 444
#     4  12  25  49  74 109 145 193 242 311 374 446
#     4  11  24  44  75 105 142 184 246 311 364 442
#     4  12  26  40  72 122 138 184 254 312 368 448
#
# _framework density 27.239094999999999
#
# number of rings (size 3 to 8) (size 9 to 14) (size 15 to 20)
#    0.000    0.308    6.154    2.769    4.308    1.231 
#    2.769    0.000    0.000    0.000    0.000    0.000 
#    0.000    0.000    0.000    0.000    0.000    0.000 
#
# Total GULP energy -72659.257161 kJ/mol
# GULP energy per Si atom -5589.173628 kJ/mol
# Density = 2.717710 g / cm^3
# Si number density = 27.239095 Si / 1000 Ang^3
#
#
#
# Elastic Constant Matrix: (Units=GPa)
#
#
# Indices 1 2 3 4 5 6 
#
# 1 152.8245 18.8745 35.2040 -18.2175 -6.3275 -14.2591
# 2 18.8745 127.1376 8.3333 -35.4578 25.4547 -16.3927
# 3 35.2040 8.3333 89.6975 -23.4744 8.3773 -15.2974
# 4 -18.2175 -35.4578 -23.4744 43.2791 -0.1768 13.8258
# 5 -6.3275 25.4547 8.3773 -0.1768 52.9370 -21.0260
# 6 -14.2591 -16.3927 -15.2974 13.8258 -21.0260 49.5185
#
#
#
# Elastic Compliance Matrix: (Units=1/GPa)
#
#
# Indices 1 2 3 4 5 6 
#
# 1 0.007652 -0.001225 -0.002777 0.000049 0.002780 0.002107
# 2 -0.001225 0.012301 0.002741 0.011558 -0.007126 -0.001687
# 3 -0.002777 0.002741 0.014756 0.008869 -0.003711 0.000614
# 4 0.000049 0.011558 0.008869 0.040269 -0.010432 -0.009093
# 5 0.002780 -0.007126 -0.003711 -0.010432 0.028008 0.012100
# 6 0.002107 -0.001687 0.000614 -0.009093 0.012100 0.028109
#
#
# Mechanical properties :
#
#
# Convention : Reuss Voigt Hill
#
# Bulk Modulus (GPa) = 31.06909 54.94258 43.00584
# Shear Modulus (GPa) = 34.63908 49.63009 42.13458
#
# Velocity S-wave (km/s) = 3.56991 4.27314 3.93726
# Velocity P-wave (km/s) = 5.33134 6.67537 6.04085
#
# Compressibility (1/GPa) = 0.03218633
#
# Stress axis : x y z
#
# Youngs Moduli (GPa) = 130.68504 81.29713 67.76808
#
# Poissons Ratio (x) = 0.09960 0.18818
# Poissons Ratio (y) = 0.16011 -0.18574
# Poissons Ratio (z) = 0.36289 -0.22282
#
# Static dielectric constant tensor:
#      x y z
#    x 2.432330 -0.061980 -0.099420 
#    y -0.061980 2.079680 0.126140 
#    z -0.099420 0.126140 2.118500 
# 
# From -- ./inp_files/245921.got.cif
#   From: 2010.05.17/outbox.cif.g08.bks.cpg/sg2_123_cif.got.tgz:245921.got - 2010.06.03 11:33:40.
