data_PCOD9063444
_publ_section_title
;
Structure prediction by ZEFSAII (Michael W. Deem and Ramdas Pophale) SiO2 
 PCOD9063444
Probable space group: P -1
;
_chemical_formula_sum "Si O2"
_cell_formula_units_Z 16
_cell_length_a 8.675745
_cell_length_b 22.518301
_cell_length_c 9.204709
_cell_angle_alpha 30.932288
_cell_angle_beta 121.482209
_cell_angle_gamma 126.134178
_cell_volume 745.956138
_symmetry_space_group_name_H-M "P -1"
_symmetry_group_IT_number 2
_symmetry_cell_setting 'triclinic'
loop_
_space_group_symop_operation_xyz
x,y,z
-x,-y,-z
loop_
_atom_site_type_symbol
_atom_site_label
_atom_site_fract_x
_atom_site_fract_y
_atom_site_fract_z
Si Si1 0.347551 0.022017 0.767099
Si Si2 0.641333 0.673413 0.629350
Si Si3 0.133832 0.388255 0.656764
Si Si4 0.565137 0.698290 0.860842
Si Si5 0.312977 0.906911 0.675812
Si Si6 0.047016 0.062976 0.734688
Si Si7 0.801394 0.516402 0.826895
Si Si8 0.730723 0.342446 0.703017
O O1 0.423038 0.163619 0.455740
O O2 0.152718 0.997875 0.812698
O O3 0.314957 0.943109 0.770614
O O4 0.500000 0.000000 0.000000
O O5 0.589965 0.639186 0.842356
O O6 0.798520 0.805839 0.434904
O O7 0.732500 0.585534 0.775604
O O8 0.454246 0.679266 0.442086
O O9 0.161697 0.402624 0.469188
O O10 0.223233 0.524991 0.479606
O O11 0.915780 0.343849 0.696616
O O12 0.255060 0.305955 0.947899
O O13 0.366839 0.611968 0.009758
O O14 0.133719 0.920682 0.471241
O O15 0.500000 0.000000 0.500000
O O16 0.306596 0.766534 0.970429
O O17 0.000000 0.000000 0.000000
O O18 0.000000 0.500000 0.000000
#
# Coordination Sequence:
#
# PCOD9063444 Si02
#       8
#     2   2   2   2   2   2   2   2
#     4  11  25  46  73 103 140 183 234 291 351 416
#     4  11  24  44  68  97 138 182 222 283 346 417
#     4  11  26  43  70 103 136 183 229 292 344 415
#     4  11  24  46  69  99 140 178 230 284 349 414
#     4  12  26  44  73 104 139 189 234 292 351 412
#     4  11  25  45  69 101 139 184 237 286 346 414
#     4  12  27  40  66 102 138 179 231 281 350 406
#     4  11  24  44  71  98 143 178 236 278 358 411
#
# _framework density 21.448982000000001
#
# number of rings (size 3 to 8) (size 9 to 14) (size 15 to 20)
#    0.000    0.750    1.250    6.375    7.000    3.000 
#    0.000    0.000    0.000    0.000    0.000    0.000 
#    0.000    0.000    0.000    0.000    0.000    0.000 
#
# Total GULP energy -89608.071790 kJ/mol
# GULP energy per Si atom -5600.504487 kJ/mol
# Density = 2.140016 g / cm^3
# Si number density = 21.448982 Si / 1000 Ang^3
#
#
#
# Elastic Constant Matrix: (Units=GPa)
#
#
# Indices 1 2 3 4 5 6 
#
# 1 83.4112 44.9033 50.2328 5.2091 -0.5988 28.0323
# 2 44.9033 96.3767 37.8178 17.1598 9.4175 14.3663
# 3 50.2328 37.8178 147.7883 23.5739 11.8057 13.0487
# 4 5.2091 17.1598 23.5739 46.5923 11.6666 6.5744
# 5 -0.5988 9.4175 11.8057 11.6666 42.3289 9.2866
# 6 28.0323 14.3663 13.0487 6.5744 9.2866 43.5755
#
#
#
# Elastic Compliance Matrix: (Units=1/GPa)
#
#
# Indices 1 2 3 4 5 6 
#
# 1 0.024127 -0.008190 -0.006025 0.003766 0.005610 -0.012780
# 2 -0.008190 0.015070 -0.000362 -0.004021 -0.002604 0.001570
# 3 -0.006025 -0.000362 0.009484 -0.003776 -0.002085 0.002169
# 4 0.003766 -0.004021 -0.003776 0.025977 -0.004517 -0.002923
# 5 0.005610 -0.002604 -0.002085 -0.004517 0.027723 -0.007352
# 6 -0.012780 0.001570 0.002169 -0.002923 -0.007352 0.032011
#
#
# Mechanical properties :
#
#
# Convention : Reuss Voigt Hill
#
# Bulk Modulus (GPa) = 51.21226 65.94267 58.57747
# Shear Modulus (GPa) = 29.40230 39.47416 34.43823
#
# Velocity S-wave (km/s) = 3.70645 4.29461 4.01133
# Velocity P-wave (km/s) = 6.49963 7.44327 6.98740
#
# Compressibility (1/GPa) = 0.01952658
#
# Stress axis : x y z
#
# Youngs Moduli (GPa) = 41.44802 66.35607 105.43795
#
# Poissons Ratio (x) = 0.54348 0.63528
# Poissons Ratio (y) = 0.33947 0.03814
# Poissons Ratio (z) = 0.24973 0.02400
#
# Static dielectric constant tensor:
#      x y z
#    x 1.781910 0.020330 0.002370 
#    y 0.020330 1.866690 -0.004820 
#    z 0.002370 -0.004820 1.803630 
# 
# From -- ./inp_files/225881.got.cif
#   From: 2010.05.17/outbox.cif.g08.bks.cpg/sg2_113_cif.got.tgz:225881.got - 2010.06.03 11:33:40.
