data_PCOD9063081
_publ_section_title
;
Structure prediction by ZEFSAII (Michael W. Deem and Ramdas Pophale) SiO2 
 PCOD9063081
Probable space group: P -1
;
_chemical_formula_sum "Si O2"
_cell_formula_units_Z 14
_cell_length_a 14.051311
_cell_length_b 11.484731
_cell_length_c 7.993622
_cell_angle_alpha 64.947601
_cell_angle_beta 52.384398
_cell_angle_gamma 32.611174
_cell_volume 538.124916
_symmetry_space_group_name_H-M "P -1"
_symmetry_group_IT_number 2
_symmetry_cell_setting 'triclinic'
loop_
_space_group_symop_operation_xyz
x,y,z
-x,-y,-z
loop_
_atom_site_type_symbol
_atom_site_label
_atom_site_fract_x
_atom_site_fract_y
_atom_site_fract_z
Si Si1 0.954211 0.930759 0.733942
Si Si2 0.223365 0.460068 0.386691
Si Si3 0.423083 0.160617 0.836040
Si Si4 0.667055 0.997690 0.164576
Si Si5 0.729846 0.327208 0.929112
Si Si6 0.372775 0.487796 0.701705
Si Si7 0.021439 0.546288 0.210266
O O1 0.167106 0.673429 0.697944
O O2 0.872814 0.079659 0.896411
O O3 0.771589 0.980315 0.902885
O O4 0.000000 0.000000 0.500000
O O5 0.161869 0.659341 0.309581
O O6 0.162483 0.447602 0.281936
O O7 0.094826 0.486788 0.632482
O O8 0.467804 0.248113 0.286134
O O9 0.433923 0.053981 0.735866
O O10 0.496363 0.244920 0.699773
O O11 0.181943 0.396737 0.981393
O O12 0.500000 0.000000 0.000000
O O13 0.852612 0.804245 0.209106
O O14 0.500000 0.500000 0.000000
O O15 0.694849 0.421547 0.090168
O O16 0.500000 0.500000 0.500000
#
# Coordination Sequence:
#
# PCOD9063081 Si02
#       7
#     2   2   2   2   2   2   2
#     4  12  28  46  76 109 147 202 249 309 378 444
#     4  11  24  45  70 103 145 190 248 301 374 440
#     4  12  25  46  75 103 149 192 240 312 371 437
#     4  12  24  47  71 105 147 189 251 304 372 444
#     4  12  24  47  74 100 151 196 243 308 369 446
#     4  12  28  50  73 113 150 196 254 304 376 454
#     4  11  24  43  70 104 141 187 243 305 367 440
#
# _framework density 26.016264
#
# number of rings (size 3 to 8) (size 9 to 14) (size 15 to 20)
#    0.000    0.286    5.714    2.143    4.000    1.143 
#    2.571    0.000    0.000    0.000    0.000    0.000 
#    0.000    0.000    0.000    0.000    0.000    0.000 
#
# Total GULP energy -78261.503204 kJ/mol
# GULP energy per Si atom -5590.107372 kJ/mol
# Density = 2.595705 g / cm^3
# Si number density = 26.016264 Si / 1000 Ang^3
#
#
#
# Elastic Constant Matrix: (Units=GPa)
#
#
# Indices 1 2 3 4 5 6 
#
# 1 67.7723 22.7143 26.6114 -19.1656 -4.9606 12.6804
# 2 22.7143 118.3144 12.1963 -23.5146 -13.7450 11.9461
# 3 26.6114 12.1963 121.3853 -29.6799 -36.3622 7.6325
# 4 -19.1656 -23.5146 -29.6799 42.8491 7.1743 -8.1169
# 5 -4.9606 -13.7450 -36.3622 7.1743 59.7832 -7.1043
# 6 12.6804 11.9461 7.6325 -8.1169 -7.1043 54.5756
#
#
#
# Elastic Compliance Matrix: (Units=1/GPa)
#
#
# Indices 1 2 3 4 5 6 
#
# 1 0.018414 -0.002200 -0.002999 0.004688 -0.001710 -0.002903
# 2 -0.002200 0.010072 0.001435 0.004990 0.002306 -0.000852
# 3 -0.002999 0.001435 0.012514 0.007067 0.006914 0.000584
# 4 0.004688 0.004990 0.007067 0.033099 0.002103 0.002027
# 5 -0.001710 0.002306 0.006914 0.002103 0.021307 0.002012
# 6 -0.002903 -0.000852 0.000584 0.002027 0.002012 0.019666
#
#
# Mechanical properties :
#
#
# Convention : Reuss Voigt Hill
#
# Bulk Modulus (GPa) = 29.87675 47.83510 38.85593
# Shear Modulus (GPa) = 37.38090 47.83823 42.60957
#
# Velocity S-wave (km/s) = 3.79466 4.29275 4.05137
# Velocity P-wave (km/s) = 5.54149 6.55720 6.07062
#
# Compressibility (1/GPa) = 0.03347084
#
# Stress axis : x y z
#
# Youngs Moduli (GPa) = 54.30667 99.28475 79.91166
#
# Poissons Ratio (x) = 0.21841 0.23967
# Poissons Ratio (y) = 0.11946 -0.11464
# Poissons Ratio (z) = 0.16288 -0.14243
#
# Static dielectric constant tensor:
#      x y z
#    x 2.161790 0.024640 0.021710 
#    y 0.024640 1.998300 -0.062150 
#    z 0.021710 -0.062150 2.157630 
# 
# From -- ./inp_files/306698.got.cif
#   From: 2010.05.17/outbox.cif.g08.bks.cpg/sg2_154_cif.got.tgz:306698.got - 2010.06.03 11:33:40.
