data_PCOD9063413
_publ_section_title
;
Structure prediction by ZEFSAII (Michael W. Deem and Ramdas Pophale) SiO2 
 PCOD9063413
Probable space group: P -1
;
_chemical_formula_sum "Si O2"
_cell_formula_units_Z 14
_cell_length_a 9.523036
_cell_length_b 12.431329
_cell_length_c 12.264875
_cell_angle_alpha 127.696123
_cell_angle_beta 143.885796
_cell_angle_gamma 57.631838
_cell_volume 674.480164
_symmetry_space_group_name_H-M "P -1"
_symmetry_group_IT_number 2
_symmetry_cell_setting 'triclinic'
loop_
_space_group_symop_operation_xyz
x,y,z
-x,-y,-z
loop_
_atom_site_type_symbol
_atom_site_label
_atom_site_fract_x
_atom_site_fract_y
_atom_site_fract_z
Si Si1 0.066741 0.821759 0.045731
Si Si2 0.392409 0.119923 0.929007
Si Si3 0.422678 0.422179 0.227128
Si Si4 0.856049 0.142499 0.628874
Si Si5 0.834392 0.413108 0.650666
Si Si6 0.699269 0.474810 0.017943
Si Si7 0.616500 0.001849 0.790406
O O1 0.090633 0.820993 0.190165
O O2 0.245789 0.925948 0.173251
O O3 0.153979 0.671635 0.965036
O O4 0.801540 0.879361 0.876970
O O5 0.118628 0.090151 0.716891
O O6 0.551457 0.108667 0.913170
O O7 0.401865 0.266869 0.081759
O O8 0.500000 0.000000 0.000000
O O9 0.662915 0.437916 0.455486
O O10 0.218612 0.472749 0.217792
O O11 0.405772 0.511271 0.161829
O O12 0.780532 0.274402 0.589976
O O13 0.636005 0.050277 0.433175
O O14 0.107810 0.413420 0.787630
O O15 0.500000 0.500000 0.000000
#
# Coordination Sequence:
#
# PCOD9063413 Si02
#       7
#     2   2   2   2   2   2   2
#     4  11  25  45  67  94 139 181 222 274 335 404
#     4  12  23  42  68 101 136 174 219 282 333 391
#     4  11  24  44  68 102 134 170 231 275 334 400
#     4  12  23  44  72  98 131 176 229 275 331 402
#     4  11  25  42  74 100 128 178 225 281 333 398
#     4  12  25  45  69  99 140 175 222 278 343 398
#     4  11  26  44  66 100 135 181 223 274 337 396
#
# _framework density 20.756726
#
# number of rings (size 3 to 8) (size 9 to 14) (size 15 to 20)
#    0.000    0.571    4.286    3.857    4.000    0.571 
#    0.000    0.000    0.000    0.000    0.000    0.000 
#    0.000    0.000    0.000    0.000    0.000    0.000 
#
# Total GULP energy -78309.185303 kJ/mol
# GULP energy per Si atom -5593.513236 kJ/mol
# Density = 2.070948 g / cm^3
# Si number density = 20.756726 Si / 1000 Ang^3
#
#
#
# Elastic Constant Matrix: (Units=GPa)
#
#
# Indices 1 2 3 4 5 6 
#
# 1 127.0761 18.4125 37.0603 -16.6449 8.7619 -6.0975
# 2 18.4125 83.8661 23.3303 -7.4754 1.0353 -4.3551
# 3 37.0603 23.3303 79.5100 -15.5163 -1.4195 -2.1937
# 4 -16.6449 -7.4754 -15.5163 33.0827 0.5338 -2.7829
# 5 8.7619 1.0353 -1.4195 0.5338 19.4956 -1.9154
# 6 -6.0975 -4.3551 -2.1937 -2.7829 -1.9154 33.9174
#
#
#
# Elastic Compliance Matrix: (Units=1/GPa)
#
#
# Indices 1 2 3 4 5 6 
#
# 1 0.009896 -0.000689 -0.003824 0.003226 -0.004636 0.001446
# 2 -0.000689 0.013176 -0.003276 0.001222 -0.000522 0.001427
# 3 -0.003824 -0.003276 0.016366 0.005008 0.002999 0.000531
# 4 0.003226 0.001222 0.005008 0.034825 -0.001728 0.003821
# 5 -0.004636 -0.000522 0.002999 -0.001728 0.053886 0.002195
# 6 0.001446 0.001427 0.000531 0.003821 0.002195 0.030398
#
#
# Mechanical properties :
#
#
# Convention : Reuss Voigt Hill
#
# Bulk Modulus (GPa) = 41.91143 49.78430 45.84786
# Shear Modulus (GPa) = 27.46065 31.40907 29.43486
#
# Velocity S-wave (km/s) = 3.64122 3.89421 3.76984
# Velocity P-wave (km/s) = 6.15740 6.65256 6.40976
#
# Compressibility (1/GPa) = 0.02385984
#
# Stress axis : x y z
#
# Youngs Moduli (GPa) = 101.05236 75.89565 61.10168
#
# Poissons Ratio (x) = 0.05229 0.23363
# Poissons Ratio (y) = 0.06963 0.20020
# Poissons Ratio (z) = 0.38639 0.24867
#
# Static dielectric constant tensor:
#      x y z
#    x 1.720360 -0.017930 0.001640 
#    y -0.017930 1.761820 0.009150 
#    z 0.001640 0.009150 1.731700 
# 
# From -- ./inp_files/392255.got.cif
#   From: 2010.05.17/outbox.cif.g08.bks.cpg/sg2_197_cif.got.tgz:392255.got - 2010.06.03 11:33:40.
