data_PCOD9063349
_publ_section_title
;
Structure prediction by ZEFSAII (Michael W. Deem and Ramdas Pophale) SiO2 
 PCOD9063349
Probable space group: P -1
;
_chemical_formula_sum "Si O2"
_cell_formula_units_Z 15
_cell_length_a 5.724940
_cell_length_b 8.627905
_cell_length_c 19.109671
_cell_angle_alpha 61.828936
_cell_angle_beta 95.205307
_cell_angle_gamma 124.507944
_cell_volume 665.083173
_symmetry_space_group_name_H-M "P -1"
_symmetry_group_IT_number 2
_symmetry_cell_setting 'triclinic'
loop_
_space_group_symop_operation_xyz
x,y,z
-x,-y,-z
loop_
_atom_site_type_symbol
_atom_site_label
_atom_site_fract_x
_atom_site_fract_y
_atom_site_fract_z
Si Si1 0.340143 0.179293 0.247730
Si Si2 0.735351 0.574330 0.690400
Si Si3 0.853055 0.131194 0.475521
Si Si4 0.864381 0.668526 0.327378
Si Si5 0.230345 0.385100 0.070866
Si Si6 0.044616 0.442170 0.800945
Si Si7 0.000000 0.500000 0.500000
Si Si8 0.190730 0.777584 0.024178
O O1 0.300655 0.263656 0.301663
O O2 0.265819 0.272074 0.160812
O O3 0.688963 0.308040 0.225548
O O4 0.123467 0.920429 0.294380
O O5 0.472220 0.417612 0.663065
O O6 0.032273 0.726846 0.622750
O O7 0.761804 0.431860 0.778120
O O8 0.987532 0.291694 0.511579
O O9 0.500000 0.000000 0.500000
O O10 0.000000 0.000000 0.500000
O O11 0.896522 0.627618 0.255659
O O12 0.894347 0.529103 0.414613
O O13 0.204833 0.573851 0.056025
O O14 0.500000 0.500000 0.000000
O O15 0.954193 0.212957 0.051795
O O16 0.002167 0.291198 0.896142
O O17 0.500000 0.000000 0.000000
#
# Coordination Sequence:
#
# PCOD9063349 Si02
#       8
#     2   2   2   2   2   2   1   2
#     4  11  25  45  74 100 145 194 242 300 385 438
#     4  11  25  48  68 102 146 183 247 302 371 454
#     4  12  28  49  79 110 155 204 254 324 402 464
#     4  11  27  44  73 103 140 196 239 317 377 451
#     4  11  24  44  64 103 138 182 245 294 347 458
#     4  11  24  46  65 103 143 180 240 302 359 456
#     4  12  26  50  74 114 152 188 276 316 382 480
#     4  11  26  42  69 100 142 188 233 298 371 428
#
# _framework density 22.553567999999999
#
# number of rings (size 3 to 8) (size 9 to 14) (size 15 to 20)
#    0.000    0.800    4.000    1.600    7.467    4.800 
#    0.000    0.000    0.000    0.000    0.000    0.000 
#    0.000    0.000    0.000    0.000    0.000    0.000 
#
# Total GULP energy -83543.230307 kJ/mol
# GULP energy per Si atom -5569.548687 kJ/mol
# Density = 2.250224 g / cm^3
# Si number density = 22.553568 Si / 1000 Ang^3
#
#
#
# Elastic Constant Matrix: (Units=GPa)
#
#
# Indices 1 2 3 4 5 6 
#
# 1 69.2840 33.5938 19.2803 5.4277 1.1960 11.5112
# 2 33.5938 140.3108 26.2307 13.3880 0.8731 23.6688
# 3 19.2803 26.2307 113.0769 16.8702 5.7021 19.0457
# 4 5.4277 13.3880 16.8702 32.6794 0.9334 -7.0142
# 5 1.1960 0.8731 5.7021 0.9334 40.7898 3.3026
# 6 11.5112 23.6688 19.0457 -7.0142 3.3026 38.9729
#
#
#
# Elastic Compliance Matrix: (Units=1/GPa)
#
#
# Indices 1 2 3 4 5 6 
#
# 1 0.016939 -0.003226 -0.001531 -0.001244 0.000019 -0.002522
# 2 -0.003226 0.009250 -0.000035 -0.004425 0.000447 -0.005482
# 3 -0.001531 -0.000035 0.011210 -0.006816 -0.000867 -0.006159
# 4 -0.001244 -0.004425 -0.006816 0.039060 -0.000902 0.013492
# 5 0.000019 0.000447 -0.000867 -0.000902 0.024819 -0.002119
# 6 -0.002522 -0.005482 -0.006159 0.013492 -0.002119 0.035351
#
#
# Mechanical properties :
#
#
# Convention : Reuss Voigt Hill
#
# Bulk Modulus (GPa) = 35.94800 53.43126 44.68963
# Shear Modulus (GPa) = 32.15756 38.72623 35.44190
#
# Velocity S-wave (km/s) = 3.78011 4.14826 3.96846
# Velocity P-wave (km/s) = 5.91827 6.83274 6.39188
#
# Compressibility (1/GPa) = 0.02781796
#
# Stress axis : x y z
#
# Youngs Moduli (GPa) = 59.03409 108.10707 89.20252
#
# Poissons Ratio (x) = 0.34871 0.13654
# Poissons Ratio (y) = 0.19042 0.00309
# Poissons Ratio (z) = 0.09036 0.00375
#
# Static dielectric constant tensor:
#      x y z
#    x 1.955890 0.001940 -0.029910 
#    y 0.001940 1.809630 -0.004280 
#    z -0.029910 -0.004280 1.830250 
# 
# From -- ./inp_files/13434.got.cif
#   From: 2010.05.17/outbox.cif.g08.bks.cpg/sg2_7_cif.got.tgz:13434.got - 2010.06.03 11:33:40.
