data_PCOD9063254
_publ_section_title
;
Structure prediction by ZEFSAII (Michael W. Deem and Ramdas Pophale) SiO2 
 PCOD9063254
Probable space group: P -1
;
_chemical_formula_sum "Si O2"
_cell_formula_units_Z 14
_cell_length_a 11.329907
_cell_length_b 11.024554
_cell_length_c 5.733189
_cell_angle_alpha 71.285455
_cell_angle_beta 108.942818
_cell_angle_gamma 122.338645
_cell_volume 562.487378
_symmetry_space_group_name_H-M "P -1"
_symmetry_group_IT_number 2
_symmetry_cell_setting 'triclinic'
loop_
_space_group_symop_operation_xyz
x,y,z
-x,-y,-z
loop_
_atom_site_type_symbol
_atom_site_label
_atom_site_fract_x
_atom_site_fract_y
_atom_site_fract_z
Si Si1 0.181817 0.370074 0.182026
Si Si2 0.505354 0.179775 0.248255
Si Si3 0.593296 0.435665 0.482763
Si Si4 0.740886 0.137398 0.592054
Si Si5 0.017418 0.131970 0.587724
Si Si6 0.969482 0.416871 0.779784
Si Si7 0.303435 0.289724 0.937969
O O1 0.281775 0.522313 0.275151
O O2 0.074054 0.271435 0.369760
O O3 0.275940 0.299446 0.188676
O O4 0.091585 0.370135 0.905741
O O5 0.530984 0.273919 0.445200
O O6 0.657820 0.184010 0.315978
O O7 0.384309 0.012044 0.293006
O O8 0.431318 0.252849 0.996653
O O9 0.500000 0.500000 0.500000
O O10 0.654615 0.550340 0.234970
O O11 0.867779 0.107016 0.607185
O O12 0.820328 0.270988 0.740405
O O13 0.152808 0.168618 0.816388
O O14 0.000000 0.000000 0.500000
O O15 0.000000 0.500000 0.500000
O O16 0.000000 0.500000 0.000000
#
# Coordination Sequence:
#
# PCOD9063254 Si02
#       7
#     2   2   2   2   2   2   2
#     4  11  24  44  73 109 141 194 271 313 387 455
#     4  11  25  46  71 108 160 197 247 324 392 480
#     4  11  24  43  73 110 147 201 260 314 389 470
#     4  11  26  47  74 113 157 199 255 321 409 467
#     4  11  25  45  77 108 152 202 261 326 389 473
#     4  12  27  48  79 110 157 208 261 331 393 470
#     4  11  24  44  76 107 143 197 260 322 378 466
#
# _framework density 24.889448999999999
#
# number of rings (size 3 to 8) (size 9 to 14) (size 15 to 20)
#    0.000    0.857    2.857    3.000    8.000    1.143 
#    0.000    2.143    0.000    0.000    0.000    0.000 
#    0.000    0.000    0.000    0.000    0.000    0.000 
#
# Total GULP energy -78165.212227 kJ/mol
# GULP energy per Si atom -5583.229445 kJ/mol
# Density = 2.483280 g / cm^3
# Si number density = 24.889449 Si / 1000 Ang^3
#
#
#
# Elastic Constant Matrix: (Units=GPa)
#
#
# Indices 1 2 3 4 5 6 
#
# 1 122.2498 42.0587 30.5486 20.5106 24.7475 4.2171
# 2 42.0587 176.1992 40.7191 49.6316 3.1452 2.9147
# 3 30.5486 40.7191 92.1155 24.4454 32.0085 12.3534
# 4 20.5106 49.6316 24.4454 37.9976 3.8544 2.3891
# 5 24.7475 3.1452 32.0085 3.8544 51.5474 4.2838
# 6 4.2171 2.9147 12.3534 2.3891 4.2838 35.3015
#
#
#
# Elastic Compliance Matrix: (Units=1/GPa)
#
#
# Indices 1 2 3 4 5 6 
#
# 1 0.010137 -0.001426 -0.000460 -0.002867 -0.004261 -0.000221
# 2 -0.001426 0.009325 -0.001511 -0.010650 0.001815 0.000430
# 3 -0.000460 -0.001511 0.017752 -0.007937 -0.009758 -0.004311
# 4 -0.002867 -0.010650 -0.007937 0.046505 0.003441 0.000434
# 5 -0.004261 0.001815 -0.009758 0.003441 0.027116 0.000251
# 6 -0.000221 0.000430 -0.004311 0.000434 0.000251 0.029767
#
#
# Mechanical properties :
#
#
# Convention : Reuss Voigt Hill
#
# Bulk Modulus (GPa) = 32.87448 68.57969 50.72709
# Shear Modulus (GPa) = 31.73864 43.45185 37.59524
#
# Velocity S-wave (km/s) = 3.57485 4.18280 3.89072
# Velocity P-wave (km/s) = 5.50239 7.13732 6.37250
#
# Compressibility (1/GPa) = 0.03041873
#
# Stress axis : x y z
#
# Youngs Moduli (GPa) = 98.65056 107.23504 56.33197
#
# Poissons Ratio (x) = 0.15292 0.02593
# Poissons Ratio (y) = 0.14068 0.08514
# Poissons Ratio (z) = 0.04540 0.16207
#
# Static dielectric constant tensor:
#      x y z
#    x 2.171930 -0.001590 0.063390 
#    y -0.001590 2.005000 -0.029020 
#    z 0.063390 -0.029020 2.036870 
# 
# From -- ./inp_files/69409.got.cif
#   From: 2010.05.17/outbox.cif.g08.bks.cpg/sg2_35_cif.got.tgz:69409.got - 2010.06.03 11:33:40.
