data_PCOD9063720
_publ_section_title
;
Structure prediction by ZEFSAII (Michael W. Deem and Ramdas Pophale) SiO2 
 PCOD9063720
Probable space group: P -1
;
_chemical_formula_sum "Si O2"
_cell_formula_units_Z 14
_cell_length_a 7.827885
_cell_length_b 7.458547
_cell_length_c 16.233121
_cell_angle_alpha 130.738932
_cell_angle_beta 54.620580
_cell_angle_gamma 104.070421
_cell_volume 571.407115
_symmetry_space_group_name_H-M "P -1"
_symmetry_group_IT_number 2
_symmetry_cell_setting 'triclinic'
loop_
_space_group_symop_operation_xyz
x,y,z
-x,-y,-z
loop_
_atom_site_type_symbol
_atom_site_label
_atom_site_fract_x
_atom_site_fract_y
_atom_site_fract_z
Si Si1 0.086375 0.388632 0.243765
Si Si2 0.009750 0.273338 0.491693
Si Si3 0.790028 0.560744 0.963847
Si Si4 0.062417 0.870098 0.086528
Si Si5 0.540982 0.290918 0.185164
Si Si6 0.443722 0.943389 0.242384
Si Si7 0.460186 0.826949 0.388093
O O1 0.313800 0.332265 0.213154
O O2 0.506043 0.920353 0.313436
O O3 0.945139 0.619192 0.399480
O O4 0.983856 0.153753 0.210853
O O5 0.000000 0.500000 0.500000
O O6 0.784136 0.199599 0.541306
O O7 0.188660 0.044222 0.345314
O O8 0.868610 0.298244 0.903991
O O9 0.857268 0.566704 0.852418
O O10 0.543324 0.688984 0.094181
O O11 0.910782 0.741379 0.035397
O O12 0.277454 0.854338 0.968095
O O13 0.592575 0.549370 0.269732
O O14 0.525652 0.144393 0.227707
O O15 0.500000 0.000000 0.500000
#
# Coordination Sequence:
#
# PCOD9063720 Si02
#       7
#     2   2   2   2   2   2   2
#     4  11  24  44  73 103 138 192 236 294 358 429
#     4  11  25  51  72 108 148 189 240 299 357 434
#     4  11  26  44  74 105 142 193 239 299 360 425
#     4  11  24  47  68 106 151 181 241 302 360 421
#     4  11  24  45  72 106 144 180 250 299 351 436
#     4  12  24  48  75 102 147 190 238 299 359 428
#     4  11  26  48  72 109 146 190 242 298 363 426
#
# _framework density 24.500919
#
# number of rings (size 3 to 8) (size 9 to 14) (size 15 to 20)
#    0.000    0.857    5.714    1.286    0.000    5.714 
#    2.571    0.000    0.000    0.000    0.000    0.000 
#    0.000    0.000    0.000    0.000    0.000    0.000 
#
# Total GULP energy -78500.643711 kJ/mol
# GULP energy per Si atom -5607.188837 kJ/mol
# Density = 2.444515 g / cm^3
# Si number density = 24.500919 Si / 1000 Ang^3
#
#
#
# Elastic Constant Matrix: (Units=GPa)
#
#
# Indices 1 2 3 4 5 6 
#
# 1 75.0453 71.0143 66.3482 -0.1247 25.6630 -29.2993
# 2 71.0143 164.8346 44.8505 4.2533 24.9126 -46.1595
# 3 66.3482 44.8505 128.8235 1.6940 25.1119 -11.8822
# 4 -0.1247 4.2533 1.6940 33.1617 5.8469 5.5313
# 5 25.6630 24.9126 25.1119 5.8469 44.4307 -5.8986
# 6 -29.2993 -46.1595 -11.8822 5.5313 -5.8986 49.6300
#
#
#
# Elastic Compliance Matrix: (Units=1/GPa)
#
#
# Indices 1 2 3 4 5 6 
#
# 1 0.047040 -0.010615 -0.017479 0.002143 -0.009990 0.012287
# 2 -0.010615 0.011732 0.002015 -0.002439 -0.000557 0.005333
# 3 -0.017479 0.002015 0.015733 -0.000250 -0.000519 -0.004712
# 4 0.002143 -0.002439 -0.000250 0.032177 -0.004654 -0.005202
# 5 -0.009990 -0.000557 -0.000519 -0.004654 0.029156 -0.002556
# 6 0.012287 0.005333 -0.004712 -0.005202 -0.002556 0.031511
#
#
# Mechanical properties :
#
#
# Convention : Reuss Voigt Hill
#
# Bulk Modulus (GPa) = 44.74712 81.45882 63.10297
# Shear Modulus (GPa) = 22.03064 37.87717 29.95390
#
# Velocity S-wave (km/s) = 3.00188 3.93612 3.50031
# Velocity P-wave (km/s) = 5.50619 7.34689 6.49211
#
# Compressibility (1/GPa) = 0.02234780
#
# Stress axis : x y z
#
# Youngs Moduli (GPa) = 21.25844 85.23624 63.55990
#
# Poissons Ratio (x) = 0.90474 1.11097
# Poissons Ratio (y) = 0.22565 -0.12806
# Poissons Ratio (z) = 0.37158 -0.17174
#
# Static dielectric constant tensor:
#      x y z
#    x 1.992330 0.041440 -0.029190 
#    y 0.041440 1.910690 0.018570 
#    z -0.029190 0.018570 1.954380 
# 
# From -- ./inp_files/606919.got.cif
#   From: 2010.05.17/outbox.cif.g08.bks.cpg/sg2_304_cif.got.tgz:606919.got - 2010.06.03 11:33:40.
