data_PCOD9063551
_publ_section_title
;
Structure prediction by ZEFSAII (Michael W. Deem and Ramdas Pophale) SiO2 
 PCOD9063551
Probable space group: P -1
;
_chemical_formula_sum "Si O2"
_cell_formula_units_Z 16
_cell_length_a 21.233373
_cell_length_b 9.165848
_cell_length_c 12.705893
_cell_angle_alpha 49.708844
_cell_angle_beta 27.995530
_cell_angle_gamma 42.369400
_cell_volume 782.118703
_symmetry_space_group_name_H-M "P -1"
_symmetry_group_IT_number 2
_symmetry_cell_setting 'triclinic'
loop_
_space_group_symop_operation_xyz
x,y,z
-x,-y,-z
loop_
_atom_site_type_symbol
_atom_site_label
_atom_site_fract_x
_atom_site_fract_y
_atom_site_fract_z
Si Si1 0.598842 0.414901 0.000241
Si Si2 0.123179 0.012591 0.595742
Si Si3 0.939375 0.745055 0.018502
Si Si4 0.040476 0.782996 0.474281
Si Si5 0.633285 0.978902 0.237229
Si Si6 0.658503 0.599560 0.238254
Si Si7 0.000547 0.626850 0.210983
Si Si8 0.545432 0.345951 0.681790
O O1 0.537330 0.561205 0.128151
O O2 0.586204 0.202939 0.147459
O O3 0.500000 0.500000 0.000000
O O4 0.777354 0.340740 0.755151
O O5 0.302917 0.871209 0.412275
O O6 0.059495 0.126610 0.525293
O O7 0.062580 0.205627 0.679286
O O8 0.055897 0.842647 0.788321
O O9 0.787097 0.904787 0.109663
O O10 0.907739 0.736470 0.191862
O O11 0.000000 0.500000 0.000000
O O12 0.001909 0.600239 0.663559
O O13 0.000000 0.000000 0.500000
O O14 0.667356 0.798857 0.184294
O O15 0.500000 0.000000 0.500000
O O16 0.592917 0.506105 0.471031
O O17 0.560829 0.676497 0.239986
O O18 0.827003 0.422065 0.042029
#
# Coordination Sequence:
#
# PCOD9063551 Si02
#       8
#     2   2   2   2   2   2   2   2
#     4  12  27  47  70 103 145 188 235 291 359 426
#     4  12  25  45  70 106 140 186 236 291 358 424
#     4  12  24  44  71 104 141 181 242 296 345 421
#     4  12  26  48  72  99 144 187 238 291 354 428
#     4  12  25  43  72 104 138 184 239 292 353 420
#     4  11  24  44  70 105 141 179 235 293 357 419
#     4  12  26  43  72 105 138 185 238 291 357 421
#     4  11  25  44  70 103 145 184 227 297 357 422
#
# _framework density 20.457253999999999
#
# number of rings (size 3 to 8) (size 9 to 14) (size 15 to 20)
#    0.000    0.250    5.000    3.750    3.500    0.000 
#    0.000    1.875    0.000    0.000    0.000    0.000 
#    0.000    0.000    0.000    0.000    0.000    0.000 
#
# Total GULP energy -89462.357529 kJ/mol
# GULP energy per Si atom -5591.397346 kJ/mol
# Density = 2.041069 g / cm^3
# Si number density = 20.457254 Si / 1000 Ang^3
#
#
#
# Elastic Constant Matrix: (Units=GPa)
#
#
# Indices 1 2 3 4 5 6 
#
# 1 192.7529 59.0736 45.1818 20.4508 16.3933 -25.5039
# 2 59.0736 78.9824 19.8765 13.0358 6.0525 -18.4318
# 3 45.1818 19.8765 85.6235 21.9885 2.7482 -13.8518
# 4 20.4508 13.0358 21.9885 47.8730 -1.3203 9.1660
# 5 16.3933 6.0525 2.7482 -1.3203 31.3857 2.0348
# 6 -25.5039 -18.4318 -13.8518 9.1660 2.0348 46.5736
#
#
#
# Elastic Compliance Matrix: (Units=1/GPa)
#
#
# Indices 1 2 3 4 5 6 
#
# 1 0.007758 -0.004142 -0.002183 -0.001743 -0.003294 0.002447
# 2 -0.004142 0.017940 0.000136 -0.004341 -0.001867 0.005808
# 3 -0.002183 0.000136 0.015462 -0.007169 -0.000859 0.004905
# 4 -0.001743 -0.004341 -0.007169 0.028245 0.004247 -0.010549
# 5 -0.003294 -0.001867 -0.000859 0.004247 0.034530 -0.005143
# 6 0.002447 0.005808 0.004905 -0.010549 -0.005143 0.028869
#
#
# Mechanical properties :
#
#
# Convention : Reuss Voigt Hill
#
# Bulk Modulus (GPa) = 34.74590 67.29140 51.01865
# Shear Modulus (GPa) = 32.30474 40.71490 36.50982
#
# Velocity S-wave (km/s) = 3.97814 4.46605 4.22914
# Velocity P-wave (km/s) = 6.17433 7.71746 6.98862
#
# Compressibility (1/GPa) = 0.02878038
#
# Stress axis : x y z
#
# Youngs Moduli (GPa) = 128.90056 55.74183 64.67610
#
# Poissons Ratio (x) = 0.23088 0.14119
# Poissons Ratio (y) = 0.53390 -0.00876
# Poissons Ratio (z) = 0.28140 -0.00755
#
# Static dielectric constant tensor:
#      x y z
#    x 1.687980 0.005170 -0.016040 
#    y 0.005170 1.701570 -0.000730 
#    z -0.016040 -0.000730 1.762380 
# 
# From -- ./inp_files/184337.got.cif
#   From: 2010.05.17/outbox.cif.g08.bks.cpg/sg2_93_cif.got.tgz:184337.got - 2010.06.03 11:33:40.
