data_PCOD9063846
_publ_section_title
;
Structure prediction by ZEFSAII (Michael W. Deem and Ramdas Pophale) SiO2 
 PCOD9063846
Probable space group: P -1
;
_chemical_formula_sum "Si O2"
_cell_formula_units_Z 16
_cell_length_a 19.805745
_cell_length_b 8.418377
_cell_length_c 14.634955
_cell_angle_alpha 124.596363
_cell_angle_beta 20.355814
_cell_angle_gamma 126.657425
_cell_volume 680.635264
_symmetry_space_group_name_H-M "P -1"
_symmetry_group_IT_number 2
_symmetry_cell_setting 'triclinic'
loop_
_space_group_symop_operation_xyz
x,y,z
-x,-y,-z
loop_
_atom_site_type_symbol
_atom_site_label
_atom_site_fract_x
_atom_site_fract_y
_atom_site_fract_z
Si Si1 0.686844 0.482364 0.369675
Si Si2 0.909493 0.917159 0.298411
Si Si3 0.188415 0.794671 0.608232
Si Si4 0.223335 0.468659 0.933741
Si Si5 0.285115 0.905347 0.705456
Si Si6 0.567319 0.542039 0.825452
Si Si7 0.814771 0.401973 0.770746
Si Si8 0.143558 0.033695 0.416567
O O1 0.780055 0.705009 0.359418
O O2 0.446736 0.442818 0.659517
O O3 0.756914 0.440165 0.164187
O O4 0.751099 0.329894 0.307261
O O5 0.958377 0.928830 0.346696
O O6 0.800142 0.091085 0.464428
O O7 0.114098 0.965604 0.999698
O O8 0.283130 0.950358 0.616094
O O9 0.296383 0.613734 0.415703
O O10 0.961188 0.716655 0.902551
O O11 0.159154 0.557798 0.139861
O O12 0.500000 0.000000 0.500000
O O13 0.688317 0.767756 0.742161
O O14 0.500000 0.500000 0.000000
O O15 0.376176 0.519784 0.995257
O O16 0.000000 0.500000 0.500000
O O17 0.778359 0.165377 0.732967
O O18 0.000000 0.000000 0.500000
#
# Coordination Sequence:
#
# PCOD9063846 Si02
#       8
#     2   2   2   2   2   2   2   2
#     4  11  26  45  75 108 147 198 242 316 369 448
#     4  12  26  48  74 109 149 195 252 301 373 438
#     4  12  26  47  73 106 149 196 243 307 366 443
#     4  11  24  44  75 105 150 188 251 299 381 432
#     4  12  27  44  70 107 150 193 247 301 374 437
#     4  12  27  49  74 106 151 198 248 305 374 440
#     4  12  26  49  77 111 149 196 251 313 372 448
#     4  12  27  46  77 112 146 197 247 309 370 445
#
# _framework density 23.507449999999999
#
# number of rings (size 3 to 8) (size 9 to 14) (size 15 to 20)
#    0.000    0.250    1.250    7.875    7.000    3.000 
#    0.000    1.250    0.000    0.000    0.000    0.000 
#    0.000    0.000    0.000    0.000    0.000    0.000 
#
# Total GULP energy -89528.863916 kJ/mol
# GULP energy per Si atom -5595.553995 kJ/mol
# Density = 2.345395 g / cm^3
# Si number density = 23.507450 Si / 1000 Ang^3
#
#
#
# Elastic Constant Matrix: (Units=GPa)
#
#
# Indices 1 2 3 4 5 6 
#
# 1 160.3255 32.9756 52.5256 2.5305 22.7613 10.6930
# 2 32.9756 101.0258 53.7683 8.4709 -4.4063 -14.7319
# 3 52.5256 53.7683 108.2754 -3.6885 0.4342 0.1044
# 4 2.5305 8.4709 -3.6885 26.5892 2.0778 -7.8984
# 5 22.7613 -4.4063 0.4342 2.0778 53.5350 -3.2639
# 6 10.6930 -14.7319 0.1044 -7.8984 -3.2639 42.6823
#
#
#
# Elastic Compliance Matrix: (Units=1/GPa)
#
#
# Indices 1 2 3 4 5 6 
#
# 1 0.008423 -0.001445 -0.003400 -0.001454 -0.003809 -0.003161
# 2 -0.001445 0.015356 -0.007090 -0.004428 0.002415 0.005045
# 3 -0.003400 -0.007090 0.014552 0.004325 0.000528 -0.000790
# 4 -0.001454 -0.004428 0.004325 0.041761 -0.001007 0.006476
# 5 -0.003809 0.002415 0.000528 -0.001007 0.020727 0.003185
# 6 -0.003161 0.005045 -0.000790 0.006476 0.003185 0.027406
#
#
# Mechanical properties :
#
#
# Convention : Reuss Voigt Hill
#
# Bulk Modulus (GPa) = 69.15093 72.01840 70.58467
# Shear Modulus (GPa) = 31.86478 39.91845 35.89162
#
# Velocity S-wave (km/s) = 3.68573 4.12529 3.91169
# Velocity P-wave (km/s) = 6.89879 7.30710 7.10588
#
# Compressibility (1/GPa) = 0.01446112
#
# Stress axis : x y z
#
# Youngs Moduli (GPa) = 118.72542 65.12175 68.72073
#
# Poissons Ratio (x) = 0.09410 0.23362
# Poissons Ratio (y) = 0.17156 0.48723
# Poissons Ratio (z) = 0.40362 0.46171
#
# Static dielectric constant tensor:
#      x y z
#    x 1.909120 -0.000210 -0.012870 
#    y -0.000210 1.878070 0.068380 
#    z -0.012870 0.068380 1.877850 
# 
# From -- ./inp_files/540552.got.cif
#   From: 2010.05.17/outbox.cif.g08.bks.cpg/sg2_271_cif.got.tgz:540552.got - 2010.06.03 11:33:40.
