data_PCOD9063807
_publ_section_title
;
Structure prediction by ZEFSAII (Michael W. Deem and Ramdas Pophale) SiO2 
 PCOD9063807
Probable space group: P -1
;
_chemical_formula_sum "Si O2"
_cell_formula_units_Z 13
_cell_length_a 12.094909
_cell_length_b 6.317972
_cell_length_c 12.297890
_cell_angle_alpha 117.431593
_cell_angle_beta 130.797453
_cell_angle_gamma 91.237584
_cell_volume 553.878502
_symmetry_space_group_name_H-M "P -1"
_symmetry_group_IT_number 2
_symmetry_cell_setting 'triclinic'
loop_
_space_group_symop_operation_xyz
x,y,z
-x,-y,-z
loop_
_atom_site_type_symbol
_atom_site_label
_atom_site_fract_x
_atom_site_fract_y
_atom_site_fract_z
Si Si1 0.144385 0.584473 0.955429
Si Si2 0.214126 0.794131 0.819018
Si Si3 0.766712 0.383901 0.729763
Si Si4 0.368340 0.187620 0.561006
Si Si5 0.390885 0.385613 0.011361
Si Si6 0.085570 0.212893 0.507793
Si Si7 0.500000 0.500000 0.500000
O O1 0.211802 0.796321 0.949031
O O2 0.947694 0.484432 0.816470
O O3 0.212300 0.665916 0.141274
O O4 0.211364 0.377927 0.908866
O O5 0.206193 0.516186 0.704725
O O6 0.046356 0.766637 0.651281
O O7 0.357499 0.081266 0.937466
O O8 0.677766 0.564177 0.695322
O O9 0.635665 0.099763 0.522086
O O10 0.503127 0.396046 0.778381
O O11 0.193611 0.119868 0.484582
O O12 0.393372 0.330960 0.496307
O O13 0.500000 0.500000 0.000000
O O14 0.000000 0.000000 0.500000
#
# Coordination Sequence:
#
# PCOD9063807 Si02
#       7
#     2   2   2   2   2   2   1
#     4  11  25  47  73 110 147 195 255 312 375 446
#     4  11  24  44  74 107 146 199 247 311 379 444
#     4  11  26  48  75 104 150 198 249 315 369 454
#     4  12  26  44  71 105 148 197 246 308 379 454
#     4  12  27  45  71 112 155 196 247 315 376 450
#     4  11  24  47  74 107 147 196 254 313 379 450
#     4  12  26  46  70 110 140 200 248 302 380 444
#
# _framework density 23.470853000000002
#
# number of rings (size 3 to 8) (size 9 to 14) (size 15 to 20)
#    0.000    0.615    1.538    6.000    2.154    6.154 
#    0.000    3.846    0.000    0.000    0.000    0.000 
#    0.000    0.000    0.000    0.000    0.000    0.000 
#
# Total GULP energy -72410.517120 kJ/mol
# GULP energy per Si atom -5570.039778 kJ/mol
# Density = 2.341743 g / cm^3
# Si number density = 23.470853 Si / 1000 Ang^3
#
#
#
# Elastic Constant Matrix: (Units=GPa)
#
#
# Indices 1 2 3 4 5 6 
#
# 1 139.7225 42.5052 -1.7102 2.4814 20.9835 24.3228
# 2 42.5052 93.4062 27.4090 0.0118 -4.7587 40.0289
# 3 -1.7102 27.4090 93.5645 -1.6036 -0.3256 -0.5982
# 4 2.4814 0.0118 -1.6036 51.1277 -6.3846 3.3410
# 5 20.9835 -4.7587 -0.3256 -6.3846 40.7643 -10.4845
# 6 24.3228 40.0289 -0.5982 3.3410 -10.4845 50.7373
#
#
#
# Elastic Compliance Matrix: (Units=1/GPa)
#
#
# Indices 1 2 3 4 5 6 
#
# 1 0.009859 -0.003978 0.001287 -0.001054 -0.006422 -0.002830
# 2 -0.003978 0.020431 -0.006127 0.001035 0.000903 -0.014165
# 3 0.001287 -0.006127 0.012534 0.000029 -0.000159 0.004330
# 4 -0.001054 0.001035 0.000029 0.020117 0.003584 -0.000894
# 5 -0.006422 0.000903 -0.000159 0.003584 0.030681 0.008468
# 6 -0.002830 -0.014165 0.004330 -0.000894 0.008468 0.034102
#
#
# Mechanical properties :
#
#
# Convention : Reuss Voigt Hill
#
# Bulk Modulus (GPa) = 39.70416 51.45570 45.57993
# Shear Modulus (GPa) = 32.51930 45.75849 39.13889
#
# Velocity S-wave (km/s) = 3.72629 4.42020 4.08800
# Velocity P-wave (km/s) = 5.95540 6.92977 6.46098
#
# Compressibility (1/GPa) = 0.02518628
#
# Stress axis : x y z
#
# Youngs Moduli (GPa) = 101.43165 48.94613 79.78331
#
# Poissons Ratio (x) = 0.19472 -0.10269
# Poissons Ratio (y) = 0.40352 0.48886
# Poissons Ratio (z) = -0.13055 0.29991
#
# Static dielectric constant tensor:
#      x y z
#    x 1.882310 -0.081520 0.037270 
#    y -0.081520 1.938060 0.014340 
#    z 0.037270 0.014340 1.920820 
# 
# From -- ./inp_files/71442.got.cif
#   From: 2010.05.17/outbox.cif.g08.bks.cpg/sg2_36_cif.got.tgz:71442.got - 2010.06.03 11:33:40.
