data_PCOD9063143
_publ_section_title
;
Structure prediction by ZEFSAII (Michael W. Deem and Ramdas Pophale) SiO2 
 PCOD9063143
Probable space group: P -1
;
_chemical_formula_sum "Si O2"
_cell_formula_units_Z 15
_cell_length_a 10.778874
_cell_length_b 12.557835
_cell_length_c 14.612086
_cell_angle_alpha 146.562328
_cell_angle_beta 41.712270
_cell_angle_gamma 145.266432
_cell_volume 609.247270
_symmetry_space_group_name_H-M "P -1"
_symmetry_group_IT_number 2
_symmetry_cell_setting 'triclinic'
loop_
_space_group_symop_operation_xyz
x,y,z
-x,-y,-z
loop_
_atom_site_type_symbol
_atom_site_label
_atom_site_fract_x
_atom_site_fract_y
_atom_site_fract_z
Si Si1 0.011401 0.876220 0.615329
Si Si2 0.090932 0.516605 0.064507
Si Si3 0.500000 0.500000 0.000000
Si Si4 0.562862 0.618537 0.862583
Si Si5 0.335860 0.618552 0.527675
Si Si6 0.781886 0.993084 0.588078
Si Si7 0.714892 0.042465 0.964246
Si Si8 0.652737 0.009362 0.338519
O O1 0.873632 0.605870 0.473979
O O2 0.851099 0.972091 0.772587
O O3 0.205357 0.005778 0.528070
O O4 0.116595 0.918246 0.687543
O O5 0.184193 0.771120 0.229454
O O6 0.000000 0.500000 0.000000
O O7 0.297929 0.485591 0.934303
O O8 0.885494 0.309430 0.083078
O O9 0.656152 0.592466 0.886664
O O10 0.455309 0.241492 0.824810
O O11 0.600782 0.499913 0.671648
O O12 0.643025 0.872919 0.967841
O O13 0.300334 0.800484 0.626265
O O14 0.548812 0.768839 0.583285
O O15 0.000000 0.000000 0.500000
O O16 0.500000 0.000000 0.000000
O O17 0.500000 0.000000 0.500000
#
# Coordination Sequence:
#
# PCOD9063143 Si02
#       8
#     2   2   1   2   2   2   2   2
#     4  11  26  47  71 106 143 188 244 297 367 435
#     4  12  24  43  69  99 141 187 242 298 365 432
#     4  12  24  42  76 104 146 190 242 294 366 440
#     4  11  24  43  71 105 142 187 239 300 360 440
#     4  11  24  47  73 102 145 190 239 302 365 435
#     4  12  26  41  69 102 142 191 241 298 366 436
#     4  11  24  45  72 100 142 188 237 300 359 433
#     4  12  23  47  77 103 147 190 241 302 364 430
#
# _framework density 24.620545
#
# number of rings (size 3 to 8) (size 9 to 14) (size 15 to 20)
#    0.000    0.533    4.000    4.400    1.867    2.667 
#    0.000    6.000    0.000    0.000    0.000    0.000 
#    0.000    0.000    0.000    0.000    0.000    0.000 
#
# Total GULP energy -83787.714939 kJ/mol
# GULP energy per Si atom -5585.847663 kJ/mol
# Density = 2.456451 g / cm^3
# Si number density = 24.620545 Si / 1000 Ang^3
#
#
#
# Elastic Constant Matrix: (Units=GPa)
#
#
# Indices 1 2 3 4 5 6 
#
# 1 51.3259 2.0569 -0.7851 10.9032 -13.7417 7.3576
# 2 2.0569 113.7128 5.7998 29.2670 -6.3423 -3.1246
# 3 -0.7851 5.7998 115.8126 21.7428 -7.1463 8.7469
# 4 10.9032 29.2670 21.7428 42.3376 -4.3716 -9.2676
# 5 -13.7417 -6.3423 -7.1463 -4.3716 34.3106 -1.1594
# 6 7.3576 -3.1246 8.7469 -9.2676 -1.1594 32.1991
#
#
#
# Elastic Compliance Matrix: (Units=1/GPa)
#
#
# Indices 1 2 3 4 5 6 
#
# 1 0.025800 0.002536 0.003479 -0.011250 0.009773 -0.009481
# 2 0.002536 0.011167 0.001573 -0.009530 0.002106 -0.002590
# 3 0.003479 0.001573 0.010798 -0.008557 0.002642 -0.005943
# 4 -0.011250 -0.009530 -0.008557 0.040670 -0.002341 0.015592
# 5 0.009773 0.002106 0.002642 -0.002341 0.033626 -0.002210
# 6 -0.009481 -0.002590 -0.005943 0.015592 -0.002210 0.038994
#
#
# Mechanical properties :
#
#
# Convention : Reuss Voigt Hill
#
# Bulk Modulus (GPa) = 15.88791 32.77717 24.33254
# Shear Modulus (GPa) = 29.96505 40.02143 34.99324
#
# Velocity S-wave (km/s) = 3.49244 4.03616 3.77411
# Velocity P-wave (km/s) = 4.76760 5.92137 5.37553
#
# Compressibility (1/GPa) = 0.06294096
#
# Stress axis : x y z
#
# Youngs Moduli (GPa) = 38.75900 89.54934 92.61152
#
# Poissons Ratio (x) = -0.22710 -0.32221
# Poissons Ratio (y) = -0.09829 -0.14565
# Poissons Ratio (z) = -0.13485 -0.14083
#
# Static dielectric constant tensor:
#      x y z
#    x 2.137770 0.000950 0.033400 
#    y 0.000950 1.957380 -0.020530 
#    z 0.033400 -0.020530 1.928930 
# 
# From -- ./inp_files/569592.got.cif
#   From: 2010.05.17/outbox.cif.g08.bks.cpg/sg2_285_cif.got.tgz:569592.got - 2010.06.03 11:33:40.
