data_PCOD9063431
_publ_section_title
;
Structure prediction by ZEFSAII (Michael W. Deem and Ramdas Pophale) SiO2 
 PCOD9063431
Probable space group: P -1
;
_chemical_formula_sum "Si O2"
_cell_formula_units_Z 14
_cell_length_a 9.331380
_cell_length_b 5.701124
_cell_length_c 17.523664
_cell_angle_alpha 51.844152
_cell_angle_beta 130.534144
_cell_angle_gamma 122.548738
_cell_volume 542.408950
_symmetry_space_group_name_H-M "P -1"
_symmetry_group_IT_number 2
_symmetry_cell_setting 'triclinic'
loop_
_space_group_symop_operation_xyz
x,y,z
-x,-y,-z
loop_
_atom_site_type_symbol
_atom_site_label
_atom_site_fract_x
_atom_site_fract_y
_atom_site_fract_z
Si Si1 0.228917 0.698262 0.121865
Si Si2 0.814872 0.513830 0.260354
Si Si3 0.651013 0.940270 0.501419
Si Si4 0.879121 0.677485 0.093436
Si Si5 0.580359 0.361801 0.949645
Si Si6 0.105614 0.155240 0.615182
Si Si7 0.493197 0.310664 0.643224
O O1 0.266970 0.555580 0.083630
O O2 0.410834 0.741868 0.232979
O O3 0.044708 0.540396 0.139082
O O4 0.172488 0.017212 0.018719
O O5 0.926871 0.726310 0.188460
O O6 0.592615 0.489392 0.165533
O O7 0.852860 0.691305 0.317730
O O8 0.865902 0.186598 0.326630
O O9 0.637230 0.585993 0.592596
O O10 0.551154 0.955716 0.381690
O O11 0.500000 0.000000 0.500000
O O12 0.874326 0.115645 0.534457
O O13 0.683857 0.441256 0.049759
O O14 0.500000 0.000000 0.000000
O O15 0.275940 0.353721 0.579858
#
# Coordination Sequence:
#
# PCOD9063431 Si02
#       7
#     2   2   2   2   2   2   2
#     4  11  24  44  68 107 143 200 248 304 368 444
#     4  12  26  46  77 113 153 203 249 305 372 452
#     4  11  29  50  81 109 150 194 252 328 387 455
#     4  11  25  41  69 102 158 192 249 300 365 437
#     4  12  23  42  67 104 150 201 248 298 358 438
#     4  12  28  50  81 114 152 201 251 311 387 453
#     4  11  26  50  74 113 148 196 257 312 384 453
#
# _framework density 25.810783000000001
#
# number of rings (size 3 to 8) (size 9 to 14) (size 15 to 20)
#    0.000    0.571    2.857    3.857    8.000    1.714 
#    2.571    0.000    0.000    0.000    0.000    0.000 
#    0.000    0.000    0.000    0.000    0.000    0.000 
#
# Total GULP energy -78218.928620 kJ/mol
# GULP energy per Si atom -5587.066330 kJ/mol
# Density = 2.575204 g / cm^3
# Si number density = 25.810783 Si / 1000 Ang^3
#
#
#
# Elastic Constant Matrix: (Units=GPa)
#
#
# Indices 1 2 3 4 5 6 
#
# 1 174.0850 17.3426 45.4888 27.7470 2.4251 -8.7990
# 2 17.3426 70.4406 37.8402 18.9503 2.2622 -9.1214
# 3 45.4888 37.8402 88.7096 11.2634 -9.3209 -13.0642
# 4 27.7470 18.9503 11.2634 44.4291 -10.7660 -5.9712
# 5 2.4251 2.2622 -9.3209 -10.7660 59.1008 5.9484
# 6 -8.7990 -9.1214 -13.0642 -5.9712 5.9484 52.9236
#
#
#
# Elastic Compliance Matrix: (Units=1/GPa)
#
#
# Indices 1 2 3 4 5 6 
#
# 1 0.007451 0.001766 -0.004137 -0.004796 -0.001919 0.000196
# 2 0.001766 0.021286 -0.009132 -0.008684 -0.004028 0.001181
# 3 -0.004137 -0.009132 0.017568 0.003185 0.003667 0.002022
# 4 -0.004796 -0.008684 0.003185 0.030107 0.006398 0.001170
# 5 -0.001919 -0.004028 0.003667 0.006398 0.019051 -0.001528
# 6 0.000196 0.001181 0.002022 0.001170 -0.001528 0.019934
#
#
# Mechanical properties :
#
#
# Convention : Reuss Voigt Hill
#
# Bulk Modulus (GPa) = 42.92363 59.39760 51.16061
# Shear Modulus (GPa) = 34.20687 46.79496 40.50092
#
# Velocity S-wave (km/s) = 3.64441 4.26255 3.96554
# Velocity P-wave (km/s) = 5.86303 6.87666 6.38998
#
# Compressibility (1/GPa) = 0.02329719
#
# Stress axis : x y z
#
# Youngs Moduli (GPa) = 134.21671 46.98004 56.92084
#
# Poissons Ratio (x) = -0.08295 0.23551
# Poissons Ratio (y) = -0.23697 0.51979
# Poissons Ratio (z) = 0.55532 0.42901
#
# Static dielectric constant tensor:
#      x y z
#    x 2.100450 0.074810 -0.029580 
#    y 0.074810 2.045280 -0.099230 
#    z -0.029580 -0.099230 2.034320 
# 
# From -- ./inp_files/119471.got.cif
#   From: 2010.05.17/outbox.cif.g08.bks.cpg/sg2_60_cif.got.tgz:119471.got - 2010.06.03 11:33:40.
