data_PCOD9063641
_publ_section_title
;
Structure prediction by ZEFSAII (Michael W. Deem and Ramdas Pophale) SiO2 
 PCOD9063641
Probable space group: P -1
;
_chemical_formula_sum "Si O2"
_cell_formula_units_Z 16
_cell_length_a 12.377336
_cell_length_b 12.629440
_cell_length_c 11.295386
_cell_angle_alpha 96.893871
_cell_angle_beta 23.668526
_cell_angle_gamma 102.649825
_cell_volume 676.839859
_symmetry_space_group_name_H-M "P -1"
_symmetry_group_IT_number 2
_symmetry_cell_setting 'triclinic'
loop_
_space_group_symop_operation_xyz
x,y,z
-x,-y,-z
loop_
_atom_site_type_symbol
_atom_site_label
_atom_site_fract_x
_atom_site_fract_y
_atom_site_fract_z
Si Si1 0.898573 0.869733 0.874875
Si Si2 0.376033 0.874611 0.058474
Si Si3 0.128441 0.110839 0.594682
Si Si4 0.901093 0.792643 0.107006
Si Si5 0.691624 0.244953 0.648576
Si Si6 0.693427 0.346465 0.311117
Si Si7 0.063630 0.524479 0.147415
Si Si8 0.436292 0.518323 0.204068
O O1 0.892138 0.877148 0.023036
O O2 0.038805 0.771354 0.691117
O O3 0.085327 0.979965 0.641596
O O4 0.586688 0.841095 0.134608
O O5 0.610907 0.840714 0.743606
O O6 0.277954 0.789939 0.252319
O O7 0.135227 0.876767 0.210186
O O8 0.500000 0.000000 0.000000
O O9 0.145692 0.164663 0.712081
O O10 0.191375 0.760843 0.806231
O O11 0.637111 0.684625 0.337832
O O12 0.635607 0.363427 0.706910
O O13 0.861543 0.432880 0.251299
O O14 0.229123 0.610964 0.894333
O O15 0.845883 0.559448 0.460433
O O16 0.296113 0.488384 0.987516
O O17 0.500000 0.500000 0.000000
#
# Coordination Sequence:
#
# PCOD9063641 Si02
#       8
#     2   2   2   2   2   2   2   2
#     4  12  23  43  67  95 135 172 222 266 325 398
#     4  12  23  44  67  94 133 173 232 267 314 393
#     4  12  25  42  66  98 135 178 213 279 326 384
#     4  12  25  41  66 102 137 166 221 272 341 387
#     4  12  25  41  71  95 127 181 221 267 326 390
#     4  11  24  44  71  98 127 177 219 278 326 400
#     4  11  24  46  72  94 133 173 225 269 335 394
#     4  12  26  44  67 102 137 171 217 278 335 393
#
# _framework density 23.63927
#
# number of rings (size 3 to 8) (size 9 to 14) (size 15 to 20)
#    0.000    0.250    2.500    7.875    0.000    5.000 
#    0.000    3.750    0.000    0.000    0.000    0.000 
#    0.000    0.000    0.000    0.000    0.000    0.000 
#
# Total GULP energy -89661.128857 kJ/mol
# GULP energy per Si atom -5603.820554 kJ/mol
# Density = 2.358547 g / cm^3
# Si number density = 23.639270 Si / 1000 Ang^3
#
#
#
# Elastic Constant Matrix: (Units=GPa)
#
#
# Indices 1 2 3 4 5 6 
#
# 1 205.9205 29.5238 62.6975 11.1326 6.5703 -17.3537
# 2 29.5238 23.2551 -1.0251 0.2640 -9.7438 -13.2574
# 3 62.6975 -1.0251 132.2835 11.3343 -1.4069 5.4741
# 4 11.1326 0.2640 11.3343 29.0692 -5.4432 4.5649
# 5 6.5703 -9.7438 -1.4069 -5.4432 50.1076 -2.7846
# 6 -17.3537 -13.2574 5.4741 4.5649 -2.7846 24.0648
#
#
#
# Elastic Compliance Matrix: (Units=1/GPa)
#
#
# Indices 1 2 3 4 5 6 
#
# 1 0.007883 -0.011586 -0.003684 -0.002176 -0.003619 0.000134
# 2 -0.011586 0.092298 0.004703 -0.001062 0.021938 0.044163
# 3 -0.003684 0.004703 0.009586 -0.001840 0.001370 -0.001738
# 4 -0.002176 -0.001062 -0.001840 0.037988 0.003681 -0.008516
# 5 -0.003619 0.021938 0.001370 0.003681 0.025772 0.011448
# 6 0.000134 0.044163 -0.001738 -0.008516 0.011448 0.069316
#
#
# Mechanical properties :
#
#
# Convention : Reuss Voigt Hill
#
# Bulk Modulus (GPa) = 11.28222 60.42793 35.85508
# Shear Modulus (GPa) = 17.03448 38.66584 27.85016
#
# Velocity S-wave (km/s) = 2.68731 4.04872 3.43612
# Velocity P-wave (km/s) = 3.79630 6.89015 5.56265
#
# Compressibility (1/GPa) = 0.08863502
#
# Stress axis : x y z
#
# Youngs Moduli (GPa) = 126.84764 10.83441 104.31726
#
# Poissons Ratio (x) = 0.12553 0.38429
# Poissons Ratio (y) = 1.46968 -0.49065
# Poissons Ratio (z) = 0.46729 -0.05096
#
# Static dielectric constant tensor:
#      x y z
#    x 1.842830 0.019330 0.024930 
#    y 0.019330 1.940870 -0.022900 
#    z 0.024930 -0.022900 1.825730 
# 
# From -- ./inp_files/434106.got.cif
#   From: 2010.05.17/outbox.cif.g08.bks.cpg/sg2_218_cif.got.tgz:434106.got - 2010.06.03 11:33:40.
