data_PCOD9063997
_publ_section_title
;
Structure prediction by ZEFSAII (Michael W. Deem and Ramdas Pophale) SiO2 
 PCOD9063997
Probable space group: P -1
;
_chemical_formula_sum "Si O2"
_cell_formula_units_Z 16
_cell_length_a 9.424665
_cell_length_b 9.355575
_cell_length_c 16.600405
_cell_angle_alpha 46.081738
_cell_angle_beta 85.341682
_cell_angle_gamma 115.861304
_cell_volume 764.598943
_symmetry_space_group_name_H-M "P -1"
_symmetry_group_IT_number 2
_symmetry_cell_setting 'triclinic'
loop_
_space_group_symop_operation_xyz
x,y,z
-x,-y,-z
loop_
_atom_site_type_symbol
_atom_site_label
_atom_site_fract_x
_atom_site_fract_y
_atom_site_fract_z
Si Si1 0.841314 0.364902 0.990196
Si Si2 0.575770 0.069297 0.739232
Si Si3 0.220565 0.975548 0.375357
Si Si4 0.999427 0.236217 0.898262
Si Si5 0.568748 0.282583 0.356825
Si Si6 0.920687 0.472251 0.679182
Si Si7 0.992977 0.158759 0.319970
Si Si8 0.464846 0.282334 0.528787
O O1 0.625943 0.162270 0.115720
O O2 0.889878 0.609324 0.843633
O O3 0.000000 0.500000 0.000000
O O4 0.880094 0.222280 0.981858
O O5 0.688378 0.986934 0.729953
O O6 0.725345 0.313929 0.698676
O O7 0.525897 0.151853 0.630335
O O8 0.104057 0.671635 0.532775
O O9 0.398080 0.196764 0.340627
O O10 0.066486 0.005283 0.373616
O O11 0.226066 0.524245 0.774257
O O12 0.918624 0.261805 0.809956
O O13 0.000000 0.000000 0.000000
O O14 0.583098 0.415745 0.387700
O O15 0.500000 0.000000 0.500000
O O16 0.956299 0.677686 0.663735
O O17 0.762243 0.950991 0.394784
O O18 0.500000 0.500000 0.500000
#
# Coordination Sequence:
#
# PCOD9063997 Si02
#       8
#     2   2   2   2   2   2   2   2
#     4  11  24  46  68  95 144 185 228 280 345 421
#     4  12  26  42  70 101 140 183 229 290 348 409
#     4  12  24  42  72 103 137 177 240 293 344 402
#     4  11  26  43  70 102 142 185 229 287 351 414
#     4  12  22  45  72  99 139 186 234 283 346 418
#     4  11  24  45  69 101 143 178 232 298 345 406
#     4  11  25  45  70  99 140 187 226 289 353 409
#     4  12  25  42  70 104 133 182 235 280 348 414
#
# _framework density 20.926002
#
# number of rings (size 3 to 8) (size 9 to 14) (size 15 to 20)
#    0.000    0.500    5.000    3.000    3.500    5.500 
#    0.000    0.000    0.000    0.000    0.000    0.000 
#    0.000    0.000    0.000    0.000    0.000    0.000 
#
# Total GULP energy -89501.421221 kJ/mol
# GULP energy per Si atom -5593.838826 kJ/mol
# Density = 2.087837 g / cm^3
# Si number density = 20.926002 Si / 1000 Ang^3
#
#
#
# Elastic Constant Matrix: (Units=GPa)
#
#
# Indices 1 2 3 4 5 6 
#
# 1 111.7964 40.4967 41.7362 3.6351 -5.8960 11.1424
# 2 40.4967 108.7887 34.8199 10.5613 -6.2319 13.0377
# 3 41.7362 34.8199 119.9563 11.4733 -23.0441 -5.6751
# 4 3.6351 10.5613 11.4733 25.2330 -3.2420 0.5027
# 5 -5.8960 -6.2319 -23.0441 -3.2420 40.6632 -8.5938
# 6 11.1424 13.0377 -5.6751 0.5027 -8.5938 47.3955
#
#
#
# Elastic Compliance Matrix: (Units=1/GPa)
#
#
# Indices 1 2 3 4 5 6 
#
# 1 0.011537 -0.003014 -0.003616 0.001129 -0.001290 -0.002562
# 2 -0.003014 0.011689 -0.002313 -0.003457 -0.000845 -0.002901
# 3 -0.003616 -0.002313 0.012031 -0.003221 0.006559 0.004151
# 4 0.001129 -0.003457 -0.003221 0.042534 0.001214 0.000069
# 5 -0.001290 -0.000845 0.006559 0.001214 0.029497 0.006657
# 6 -0.002562 -0.002901 0.004151 0.000069 0.006657 0.024203
#
#
# Mechanical properties :
#
#
# Convention : Reuss Voigt Hill
#
# Bulk Modulus (GPa) = 57.56985 63.84967 60.70976
# Shear Modulus (GPa) = 32.22328 37.55758 34.89043
#
# Velocity S-wave (km/s) = 3.92837 4.24108 4.08772
# Velocity P-wave (km/s) = 6.93881 7.38652 7.16616
#
# Compressibility (1/GPa) = 0.01737020
#
# Stress axis : x y z
#
# Youngs Moduli (GPa) = 86.67619 85.54841 83.12124
#
# Poissons Ratio (x) = 0.25782 0.30059
# Poissons Ratio (y) = 0.26122 0.19230
# Poissons Ratio (z) = 0.31345 0.19791
#
# Static dielectric constant tensor:
#      x y z
#    x 1.797420 -0.014550 0.075990 
#    y -0.014550 1.775040 0.043300 
#    z 0.075990 0.043300 1.883600 
# 
# From -- ./inp_files/398376.got.cif
#   From: 2010.05.17/outbox.cif.g08.bks.cpg/sg2_200_cif.got.tgz:398376.got - 2010.06.03 11:33:40.
