data_PCOD9063713
_publ_section_title
;
Structure prediction by ZEFSAII (Michael W. Deem and Ramdas Pophale) SiO2 
 PCOD9063713
Probable space group: P -1
;
_chemical_formula_sum "Si O2"
_cell_formula_units_Z 12
_cell_length_a 8.842203
_cell_length_b 9.347944
_cell_length_c 13.548253
_cell_angle_alpha 53.351828
_cell_angle_beta 118.457692
_cell_angle_gamma 74.133519
_cell_volume 483.459057
_symmetry_space_group_name_H-M "P -1"
_symmetry_group_IT_number 2
_symmetry_cell_setting 'triclinic'
loop_
_space_group_symop_operation_xyz
x,y,z
-x,-y,-z
loop_
_atom_site_type_symbol
_atom_site_label
_atom_site_fract_x
_atom_site_fract_y
_atom_site_fract_z
Si Si1 0.717188 0.946745 0.651261
Si Si2 0.597022 0.375573 0.324019
Si Si3 0.100368 0.047509 0.924224
Si Si4 0.646071 0.935227 0.863853
Si Si5 0.394612 0.404156 0.052867
Si Si6 0.135810 0.582652 0.494416
O O1 0.500000 0.000000 0.500000
O O2 0.602499 0.240358 0.475524
O O3 0.720603 0.891417 0.790460
O O4 0.051008 0.673242 0.838338
O O5 0.550005 0.281480 0.257387
O O6 0.858142 0.294798 0.457919
O O7 0.348009 0.720280 0.092496
O O8 0.952832 0.229228 0.703679
O O9 0.118913 0.221951 0.916852
O O10 0.000000 0.000000 0.000000
O O11 0.450411 0.260622 0.697909
O O12 0.517082 0.846175 0.874613
O O13 0.500000 0.500000 0.000000
O O14 0.000000 0.500000 0.500000
#
# Coordination Sequence:
#
# PCOD9063713 Si02
#       6
#     2   2   2   2   2   2
#     4  12  26  47  75 110 145 193 250 301 361 445
#     4  11  25  45  72 103 146 190 245 299 365 435
#     4  11  24  44  73 101 143 188 250 303 363 433
#     4  11  26  44  74 107 140 194 247 302 366 438
#     4  12  29  45  73 109 152 194 241 305 374 432
#     4  11  27  45  74 107 149 192 246 306 371 437
#
# _framework density 24.821128000000002
#
# number of rings (size 3 to 8) (size 9 to 14) (size 15 to 20)
#    0.000    0.667    1.667    4.500   11.667    4.667 
#    0.000    0.000    0.000    0.000    0.000    0.000 
#    0.000    0.000    0.000    0.000    0.000    0.000 
#
# Total GULP energy -66924.751389 kJ/mol
# GULP energy per Si atom -5577.062616 kJ/mol
# Density = 2.476463 g / cm^3
# Si number density = 24.821128 Si / 1000 Ang^3
#
#
#
# Elastic Constant Matrix: (Units=GPa)
#
#
# Indices 1 2 3 4 5 6 
#
# 1 82.0717 18.7845 24.1993 8.5064 -3.4626 30.2831
# 2 18.7845 142.7656 31.0905 27.7137 6.1810 45.1816
# 3 24.1993 31.0905 64.5086 10.1880 -8.0266 12.6385
# 4 8.5064 27.7137 10.1880 48.6090 11.4632 1.8775
# 5 -3.4626 6.1810 -8.0266 11.4632 39.2242 -2.1216
# 6 30.2831 45.1816 12.6385 1.8775 -2.1216 49.9100
#
#
#
# Elastic Compliance Matrix: (Units=1/GPa)
#
#
# Indices 1 2 3 4 5 6 
#
# 1 0.017978 0.003443 -0.005345 -0.003581 0.000320 -0.012523
# 2 0.003443 0.012582 -0.004168 -0.006096 -0.001413 -0.012254
# 3 -0.005345 -0.004168 0.020047 -0.002165 0.005041 0.002235
# 4 -0.003581 -0.006096 -0.002165 0.026554 -0.007184 0.006935
# 5 0.000320 -0.001413 0.005041 -0.007184 0.028947 0.001309
# 6 -0.012523 -0.012254 0.002235 0.006935 0.001309 0.037957
#
#
# Mechanical properties :
#
#
# Convention : Reuss Voigt Hill
#
# Bulk Modulus (GPa) = 25.99601 48.61051 37.30326
# Shear Modulus (GPa) = 29.58131 41.90006 35.74069
#
# Velocity S-wave (km/s) = 3.45596 4.11308 3.79876
# Velocity P-wave (km/s) = 5.14013 6.49488 5.85681
#
# Compressibility (1/GPa) = 0.03846743
#
# Stress axis : x y z
#
# Youngs Moduli (GPa) = 55.62411 79.48068 49.88349
#
# Poissons Ratio (x) = -0.27365 0.26661
# Poissons Ratio (y) = -0.19151 0.20790
# Poissons Ratio (z) = 0.29729 0.33125
#
# Static dielectric constant tensor:
#      x y z
#    x 2.137650 -0.088540 0.016400 
#    y -0.088540 2.118950 0.232300 
#    z 0.016400 0.232300 2.363050 
# 
# From -- ./inp_files/28840.got.cif
#   From: 2010.05.17/outbox.cif.g08.bks.cpg/sg2_15_cif.got.tgz:28840.got - 2010.06.03 11:33:40.
