data_PCOD9063492
_publ_section_title
;
Structure prediction by ZEFSAII (Michael W. Deem and Ramdas Pophale) SiO2 
 PCOD9063492
Probable space group: P -1
;
_chemical_formula_sum "Si O2"
_cell_formula_units_Z 16
_cell_length_a 8.878675
_cell_length_b 17.801620
_cell_length_c 6.229834
_cell_angle_alpha 120.069643
_cell_angle_beta 100.699033
_cell_angle_gamma 61.064465
_cell_volume 743.662401
_symmetry_space_group_name_H-M "P -1"
_symmetry_group_IT_number 2
_symmetry_cell_setting 'triclinic'
loop_
_space_group_symop_operation_xyz
x,y,z
-x,-y,-z
loop_
_atom_site_type_symbol
_atom_site_label
_atom_site_fract_x
_atom_site_fract_y
_atom_site_fract_z
Si Si1 0.765641 0.750316 0.617033
Si Si2 0.539742 0.241651 0.711011
Si Si3 0.049370 0.614514 0.179259
Si Si4 0.173410 0.704574 0.998994
Si Si5 0.305372 0.519484 0.466370
Si Si6 0.055816 0.123277 0.146961
Si Si7 0.132129 0.938995 0.632788
Si Si8 0.758909 0.650996 0.869348
O O1 0.587540 0.750823 0.506124
O O2 0.800640 0.841897 0.707568
O O3 0.790702 0.725029 0.835574
O O4 0.917142 0.662916 0.406120
O O5 0.695885 0.134153 0.552078
O O6 0.649013 0.300323 0.870487
O O7 0.400071 0.280571 0.922636
O O8 0.228813 0.544596 0.239569
O O9 0.075229 0.696721 0.172155
O O10 0.938140 0.584409 0.945413
O O11 0.209422 0.609971 0.729991
O O12 0.074002 0.797615 0.948434
O O13 0.500000 0.500000 0.500000
O O14 0.286841 0.423378 0.381226
O O15 0.946419 0.115811 0.310611
O O16 0.146873 0.017836 0.906461
O O17 0.000000 0.000000 0.500000
#
# Coordination Sequence:
#
# PCOD9063492 Si02
#       8
#     2   2   2   2   2   2   2   2
#     4  11  25  45  71  97 141 182 217 286 336 402
#     4  11  26  41  69 101 133 179 224 280 336 397
#     4  11  24  44  69  97 133 188 222 278 336 400
#     4  12  24  44  71  97 137 180 230 277 332 404
#     4  12  26  41  67 104 135 183 228 285 328 396
#     4  11  24  46  72 101 132 178 224 274 345 400
#     4  11  25  43  77 101 133 173 226 277 337 415
#     4  11  25  46  65  99 141 178 231 274 342 397
#
# _framework density 21.515139999999999
#
# number of rings (size 3 to 8) (size 9 to 14) (size 15 to 20)
#    0.000    0.750    5.000    1.125    3.500    5.000 
#    0.000    1.250    0.000    0.000    0.000    0.000 
#    0.000    0.000    0.000    0.000    0.000    0.000 
#
# Total GULP energy -89226.544951 kJ/mol
# GULP energy per Si atom -5576.659059 kJ/mol
# Density = 2.146617 g / cm^3
# Si number density = 21.515140 Si / 1000 Ang^3
#
#
#
# Elastic Constant Matrix: (Units=GPa)
#
#
# Indices 1 2 3 4 5 6 
#
# 1 124.8786 56.6895 35.6257 -18.2675 18.9883 -13.7731
# 2 56.6895 94.3651 28.2228 -2.5658 -6.2207 -1.9244
# 3 35.6257 28.2228 73.2939 19.5254 15.7265 -4.5680
# 4 -18.2675 -2.5658 19.5254 38.6995 -2.2236 5.9119
# 5 18.9883 -6.2207 15.7265 -2.2236 44.2172 2.4833
# 6 -13.7731 -1.9244 -4.5680 5.9119 2.4833 34.5937
#
#
#
# Elastic Compliance Matrix: (Units=1/GPa)
#
#
# Indices 1 2 3 4 5 6 
#
# 1 0.015723 -0.007871 -0.005457 0.008711 -0.005706 0.004022
# 2 -0.007871 0.017284 -0.004980 0.000936 0.007829 -0.003552
# 3 -0.005457 -0.004980 0.024606 -0.016431 -0.008170 0.004194
# 4 0.008711 0.000936 -0.016431 0.039438 0.004539 -0.005715
# 5 -0.005706 0.007829 -0.008170 0.004539 0.029628 -0.005818
# 6 0.004022 -0.003552 0.004194 -0.005715 -0.005818 0.032259
#
#
# Mechanical properties :
#
#
# Convention : Reuss Voigt Hill
#
# Bulk Modulus (GPa) = 47.62808 59.29039 53.45923
# Shear Modulus (GPa) = 24.68474 34.96874 29.82674
#
# Velocity S-wave (km/s) = 3.39088 4.03589 3.72736
# Velocity P-wave (km/s) = 6.12502 7.02390 6.58980
#
# Compressibility (1/GPa) = 0.02099602
#
# Stress axis : x y z
#
# Youngs Moduli (GPa) = 63.60008 57.85643 40.64090
#
# Poissons Ratio (x) = 0.45537 0.22179
# Poissons Ratio (y) = 0.50058 0.20241
# Poissons Ratio (z) = 0.34709 0.28815
#
# Static dielectric constant tensor:
#      x y z
#    x 1.785390 -0.016160 0.042040 
#    y -0.016160 1.814010 -0.016880 
#    z 0.042040 -0.016880 1.814990 
# 
# From -- ./inp_files/46692.got.cif
#   From: 2010.05.17/outbox.cif.g08.bks.cpg/sg2_24_cif.got.tgz:46692.got - 2010.06.03 11:33:40.
