data_PCOD9063712
_publ_section_title
;
Structure prediction by ZEFSAII (Michael W. Deem and Ramdas Pophale) SiO2 
 PCOD9063712
Probable space group: P -1
;
_chemical_formula_sum "Si O2"
_cell_formula_units_Z 16
_cell_length_a 8.914872
_cell_length_b 17.864027
_cell_length_c 12.763373
_cell_angle_alpha 27.111235
_cell_angle_beta 130.633980
_cell_angle_gamma 132.430665
_cell_volume 675.906974
_symmetry_space_group_name_H-M "P -1"
_symmetry_group_IT_number 2
_symmetry_cell_setting 'triclinic'
loop_
_space_group_symop_operation_xyz
x,y,z
-x,-y,-z
loop_
_atom_site_type_symbol
_atom_site_label
_atom_site_fract_x
_atom_site_fract_y
_atom_site_fract_z
Si Si1 0.361855 0.383775 0.393725
Si Si2 0.003238 0.525015 0.775052
Si Si3 0.063575 0.090709 0.028751
Si Si4 0.281741 0.988452 0.868185
Si Si5 0.224332 0.977160 0.619946
Si Si6 0.171003 0.458816 0.553270
Si Si7 0.660491 0.636345 0.834067
Si Si8 0.727679 0.124847 0.454793
O O1 0.203862 0.480638 0.247766
O O2 0.257158 0.180896 0.612941
O O3 0.594904 0.422427 0.494562
O O4 0.380221 0.417240 0.237540
O O5 0.936775 0.555507 0.590121
O O6 0.188266 0.684907 0.699439
O O7 0.109621 0.371177 0.021601
O O8 0.200054 0.278308 0.829345
O O9 0.168942 0.981708 0.286287
O O10 0.000000 0.000000 0.000000
O O11 0.880402 0.112230 0.994721
O O12 0.280730 0.927249 0.823572
O O13 0.500000 0.000000 0.000000
O O14 0.359758 0.170379 0.410841
O O15 0.214782 0.860219 0.660773
O O16 0.000000 0.000000 0.500000
O O17 0.000000 0.500000 0.500000
O O18 0.500000 0.500000 0.000000
O O19 0.500000 0.000000 0.500000
#
# Coordination Sequence:
#
# PCOD9063712 Si02
#       8
#     2   2   2   2   2   2   2   2
#     4  11  24  46  68 105 140 185 231 287 355 418
#     4  12  25  49  68 104 145 185 231 296 350 422
#     4  12  25  48  69 103 144 181 232 297 345 414
#     4  11  24  44  73 101 142 185 232 291 351 415
#     4  11  24  46  68 101 139 180 235 283 342 422
#     4  12  27  44  74 104 139 185 239 286 352 418
#     4  11  25  43  72 100 138 180 231 291 345 412
#     4  12  26  44  73 102 142 184 235 286 356 414
#
# _framework density 23.671896
#
# number of rings (size 3 to 8) (size 9 to 14) (size 15 to 20)
#    0.000    0.500    3.750    3.750    7.000    3.000 
#    0.000    0.000    0.000    0.000    0.000    0.000 
#    0.000    0.000    0.000    0.000    0.000    0.000 
#
# Total GULP energy -89473.225962 kJ/mol
# GULP energy per Si atom -5592.076623 kJ/mol
# Density = 2.361802 g / cm^3
# Si number density = 23.671896 Si / 1000 Ang^3
#
#
#
# Elastic Constant Matrix: (Units=GPa)
#
#
# Indices 1 2 3 4 5 6 
#
# 1 107.8446 52.1069 22.3133 15.4273 -17.7564 -9.3020
# 2 52.1069 127.3873 45.1289 22.8918 -22.2239 -0.6465
# 3 22.3133 45.1289 84.6967 22.7951 -10.0428 -17.6975
# 4 15.4273 22.8918 22.7951 50.8693 0.5215 -6.4038
# 5 -17.7564 -22.2239 -10.0428 0.5215 41.8891 10.5705
# 6 -9.3020 -0.6465 -17.6975 -6.4038 10.5705 41.9202
#
#
#
# Elastic Compliance Matrix: (Units=1/GPa)
#
#
# Indices 1 2 3 4 5 6 
#
# 1 0.012099 -0.004295 0.000215 -0.001626 0.002457 0.001841
# 2 -0.004295 0.012828 -0.005371 -0.002702 0.004911 -0.004674
# 3 0.000215 -0.005371 0.017174 -0.004512 -0.000247 0.006588
# 4 -0.001626 -0.002702 -0.004512 0.023727 -0.004093 0.002349
# 5 0.002457 0.004911 -0.000247 -0.004093 0.029410 -0.007525
# 6 0.001841 -0.004674 0.006588 0.002349 -0.007525 0.029229
#
#
# Mechanical properties :
#
#
# Convention : Reuss Voigt Hill
#
# Bulk Modulus (GPa) = 43.10505 62.11409 52.60957
# Shear Modulus (GPa) = 33.09021 40.29434 36.69227
#
# Velocity S-wave (km/s) = 3.74286 4.13025 3.94132
# Velocity P-wave (km/s) = 6.07681 7.00299 6.55627
#
# Compressibility (1/GPa) = 0.02319914
#
# Stress axis : x y z
#
# Youngs Moduli (GPa) = 82.64880 77.95359 58.22905
#
# Poissons Ratio (x) = 0.33481 -0.01250
# Poissons Ratio (y) = 0.35497 0.31273
# Poissons Ratio (z) = -0.01774 0.41867
#
# Static dielectric constant tensor:
#      x y z
#    x 1.855500 0.033930 0.094580 
#    y 0.033930 1.870530 -0.137200 
#    z 0.094580 -0.137200 1.885600 
# 
# From -- ./inp_files/402729.got.cif
#   From: 2010.05.17/outbox.cif.g08.bks.cpg/sg2_202_cif.got.tgz:402729.got - 2010.06.03 11:33:40.
