data_PCOD9063297
_publ_section_title
;
Structure prediction by ZEFSAII (Michael W. Deem and Ramdas Pophale) SiO2 
 PCOD9063297
Probable space group: P -1
;
_chemical_formula_sum "Si O2"
_cell_formula_units_Z 14
_cell_length_a 12.182983
_cell_length_b 11.972147
_cell_length_c 5.801635
_cell_angle_alpha 79.888553
_cell_angle_beta 104.157336
_cell_angle_gamma 133.376121
_cell_volume 596.358346
_symmetry_space_group_name_H-M "P -1"
_symmetry_group_IT_number 2
_symmetry_cell_setting 'triclinic'
loop_
_space_group_symop_operation_xyz
x,y,z
-x,-y,-z
loop_
_atom_site_type_symbol
_atom_site_label
_atom_site_fract_x
_atom_site_fract_y
_atom_site_fract_z
Si Si1 0.076807 0.429740 0.569445
Si Si2 0.475708 0.351202 0.997150
Si Si3 0.620737 0.119285 0.829021
Si Si4 0.088917 0.898497 0.517250
Si Si5 0.879788 0.930826 0.165691
Si Si6 0.761600 0.440032 0.893037
Si Si7 0.404408 0.115611 0.382545
O O1 0.169857 0.481161 0.352747
O O2 0.000000 0.500000 0.500000
O O3 0.944554 0.247202 0.538349
O O4 0.155991 0.471238 0.850673
O O5 0.494658 0.277922 0.247649
O O6 0.500000 0.500000 0.000000
O O7 0.296662 0.212673 0.908486
O O8 0.593892 0.384434 0.855873
O O9 0.744899 0.290726 0.932384
O O10 0.524938 0.131393 0.596828
O O11 0.660108 0.026598 0.766977
O O12 0.500000 0.000000 0.000000
O O13 0.942430 0.875437 0.386533
O O14 0.103794 0.930021 0.783753
O O15 0.250618 0.054855 0.449443
O O16 0.000000 0.000000 0.000000
#
# Coordination Sequence:
#
# PCOD9063297 Si02
#       7
#     2   2   2   2   2   2   2
#     4  12  29  49  76 114 155 206 250 322 396 474
#     4  12  26  45  79 112 158 201 255 327 390 461
#     4  11  24  43  75 104 148 191 253 319 388 458
#     4  11  26  44  76 100 148 199 263 312 379 464
#     4  11  25  47  71 107 144 201 261 310 381 455
#     4  12  27  49  73 114 156 200 261 320 397 460
#     4  11  24  45  72 113 144 202 255 319 383 470
#
# _framework density 23.475815999999998
#
# number of rings (size 3 to 8) (size 9 to 14) (size 15 to 20)
#    0.000    0.571    2.857    3.857    8.000    0.000 
#    0.000    4.286    0.000    0.000    0.000    0.000 
#    0.000    0.000    0.000    0.000    0.000    0.000 
#
# Total GULP energy -78168.196815 kJ/mol
# GULP energy per Si atom -5583.442630 kJ/mol
# Density = 2.342238 g / cm^3
# Si number density = 23.475816 Si / 1000 Ang^3
#
#
#
# Elastic Constant Matrix: (Units=GPa)
#
#
# Indices 1 2 3 4 5 6 
#
# 1 101.1004 12.9407 51.0074 -0.1786 -14.7026 7.4218
# 2 12.9407 128.3513 56.8723 8.2031 -18.6349 -15.9839
# 3 51.0074 56.8723 124.2722 -1.3191 -16.6070 6.4039
# 4 -0.1786 8.2031 -1.3191 44.2983 -2.8042 -8.4920
# 5 -14.7026 -18.6349 -16.6070 -2.8042 53.6586 -5.5624
# 6 7.4218 -15.9839 6.4039 -8.4920 -5.5624 54.1739
#
#
#
# Elastic Compliance Matrix: (Units=1/GPa)
#
#
# Indices 1 2 3 4 5 6 
#
# 1 0.012919 0.001495 -0.005666 -0.000345 0.002237 -0.000483
# 2 0.001495 0.011048 -0.005495 -0.001294 0.002872 0.003796
# 3 -0.005666 -0.005495 0.013065 0.000989 0.000407 -0.002193
# 4 -0.000345 -0.001294 0.000989 0.023575 0.001345 0.003382
# 5 0.002237 0.002872 0.000407 0.001345 0.020736 0.002833
# 6 -0.000483 0.003796 -0.002193 0.003382 0.002833 0.020726
#
#
# Mechanical properties :
#
#
# Convention : Reuss Voigt Hill
#
# Bulk Modulus (GPa) = 56.50182 66.15164 61.32673
# Shear Modulus (GPa) = 39.27667 45.95309 42.61488
#
# Velocity S-wave (km/s) = 4.09475 4.42912 4.26522
# Velocity P-wave (km/s) = 6.81736 7.37536 7.10184
#
# Compressibility (1/GPa) = 0.01769855
#
# Stress axis : x y z
#
# Youngs Moduli (GPa) = 77.40617 90.51712 76.53849
#
# Poissons Ratio (x) = -0.13532 0.43370
# Poissons Ratio (y) = -0.11572 0.42059
# Poissons Ratio (z) = 0.43862 0.49740
#
# Static dielectric constant tensor:
#      x y z
#    x 1.834110 0.058170 0.031180 
#    y 0.058170 1.825870 0.020510 
#    z 0.031180 0.020510 2.050030 
# 
# From -- ./inp_files/70739.got.cif
#   From: 2010.05.17/outbox.cif.g08.bks.cpg/sg2_36_cif.got.tgz:70739.got - 2010.06.03 11:33:40.
