data_PCOD9063629
_publ_section_title
;
Structure prediction by ZEFSAII (Michael W. Deem and Ramdas Pophale) SiO2 
 PCOD9063629
Probable space group: P -1
;
_chemical_formula_sum "Si O2"
_cell_formula_units_Z 16
_cell_length_a 9.410245
_cell_length_b 9.003976
_cell_length_c 15.018126
_cell_angle_alpha 70.836283
_cell_angle_beta 37.419895
_cell_angle_gamma 70.485873
_cell_volume 724.391315
_symmetry_space_group_name_H-M "P -1"
_symmetry_group_IT_number 2
_symmetry_cell_setting 'triclinic'
loop_
_space_group_symop_operation_xyz
x,y,z
-x,-y,-z
loop_
_atom_site_type_symbol
_atom_site_label
_atom_site_fract_x
_atom_site_fract_y
_atom_site_fract_z
Si Si1 0.285915 0.687108 0.485813
Si Si2 0.608534 0.413345 0.873917
Si Si3 0.570686 0.377045 0.388573
Si Si4 0.802907 0.690379 0.621772
Si Si5 0.168999 0.919381 0.770235
Si Si6 0.880219 0.759918 0.362810
Si Si7 0.628789 0.868465 0.029289
Si Si8 0.493578 0.019082 0.735489
O O1 0.493164 0.558901 0.367140
O O2 0.250525 0.641672 0.614894
O O3 0.359663 0.861648 0.413243
O O4 0.050540 0.675315 0.551855
O O5 0.672331 0.542310 0.744774
O O6 0.433847 0.298821 0.942453
O O7 0.859495 0.303995 0.788917
O O8 0.500000 0.500000 0.000000
O O9 0.662631 0.244994 0.297404
O O10 0.328346 0.324323 0.559186
O O11 0.862009 0.712235 0.484550
O O12 0.643716 0.848328 0.701310
O O13 0.185048 0.054123 0.660754
O O14 0.257495 0.994859 0.802407
O O15 0.904659 0.880501 0.900441
O O16 0.534401 0.907145 0.167563
O O17 0.500000 0.000000 0.000000
#
# Coordination Sequence:
#
# PCOD9063629 Si02
#       8
#     2   2   2   2   2   2   2   2
#     4  11  25  41  71 111 148 182 245 309 366 433
#     4  12  28  49  76 109 149 196 247 302 370 441
#     4  11  24  44  71 108 144 193 238 309 368 431
#     4  12  26  45  77 112 148 192 250 306 368 436
#     4  12  26  48  74 106 152 195 247 299 376 440
#     4  12  23  47  78 106 151 190 244 315 363 433
#     4  12  28  49  73 105 148 201 250 300 366 449
#     4  12  26  47  73 110 148 195 247 304 375 437
#
# _framework density 22.087509000000001
#
# number of rings (size 3 to 8) (size 9 to 14) (size 15 to 20)
#    0.000    0.250    5.000    3.750    5.250    0.000 
#    0.000    1.250    0.000    0.000    0.000    0.000 
#    0.000    0.000    0.000    0.000    0.000    0.000 
#
# Total GULP energy -89501.193789 kJ/mol
# GULP energy per Si atom -5593.824612 kJ/mol
# Density = 2.203724 g / cm^3
# Si number density = 22.087509 Si / 1000 Ang^3
#
#
#
# Elastic Constant Matrix: (Units=GPa)
#
#
# Indices 1 2 3 4 5 6 
#
# 1 151.0272 41.9013 42.7648 -2.9348 9.0005 8.6400
# 2 41.9013 131.8285 23.3539 -13.9957 -1.3371 13.8413
# 3 42.7648 23.3539 59.2057 5.4791 -0.4520 9.8391
# 4 -2.9348 -13.9957 5.4791 30.2221 5.7746 3.5893
# 5 9.0005 -1.3371 -0.4520 5.7746 30.4682 6.3950
# 6 8.6400 13.8413 9.8391 3.5893 6.3950 42.1833
#
#
#
# Elastic Compliance Matrix: (Units=1/GPa)
#
#
# Indices 1 2 3 4 5 6 
#
# 1 0.009023 -0.001677 -0.006124 0.001777 -0.003266 0.000475
# 2 -0.001677 0.009354 -0.002484 0.004835 0.000506 -0.002634
# 3 -0.006124 -0.002484 0.023489 -0.006352 0.003981 -0.003472
# 4 0.001777 0.004835 -0.006352 0.038326 -0.007114 -0.002652
# 5 -0.003266 0.000506 0.003981 -0.007114 0.036334 -0.005328
# 6 0.000475 -0.002634 -0.003472 -0.002652 -0.005328 0.026317
#
#
# Mechanical properties :
#
#
# Convention : Reuss Voigt Hill
#
# Bulk Modulus (GPa) = 46.95944 62.01126 54.48535
# Shear Modulus (GPa) = 29.32367 36.17747 32.75057
#
# Velocity S-wave (km/s) = 3.64760 4.05151 3.85485
# Velocity P-wave (km/s) = 6.24874 7.07266 6.67343
#
# Compressibility (1/GPa) = 0.02129497
#
# Stress axis : x y z
#
# Youngs Moduli (GPa) = 110.83086 106.90787 42.57364
#
# Poissons Ratio (x) = 0.17931 0.26072
# Poissons Ratio (y) = 0.18589 0.10575
# Poissons Ratio (z) = 0.67872 0.26556
#
# Static dielectric constant tensor:
#      x y z
#    x 1.814520 -0.002820 0.014840 
#    y -0.002820 1.827180 0.002750 
#    z 0.014840 0.002750 1.812020 
# 
# From -- ./inp_files/494568.got.cif
#   From: 2010.05.17/outbox.cif.g08.bks.cpg/sg2_248_cif.got.tgz:494568.got - 2010.06.03 11:33:40.
