data_PCOD9063206
_publ_section_title
;
Structure prediction by ZEFSAII (Michael W. Deem and Ramdas Pophale) SiO2 
 PCOD9063206
Probable space group: P -1
;
_chemical_formula_sum "Si O2"
_cell_formula_units_Z 14
_cell_length_a 5.913476
_cell_length_b 15.089782
_cell_length_c 11.610472
_cell_angle_alpha 47.224881
_cell_angle_beta 59.650693
_cell_angle_gamma 85.624836
_cell_volume 595.184467
_symmetry_space_group_name_H-M "P -1"
_symmetry_group_IT_number 2
_symmetry_cell_setting 'triclinic'
loop_
_space_group_symop_operation_xyz
x,y,z
-x,-y,-z
loop_
_atom_site_type_symbol
_atom_site_label
_atom_site_fract_x
_atom_site_fract_y
_atom_site_fract_z
Si Si1 0.183076 0.929019 0.080098
Si Si2 0.706662 0.803560 0.792171
Si Si3 0.597631 0.755494 0.464830
Si Si4 0.200947 0.597111 0.524071
Si Si5 0.322466 0.929863 0.496802
Si Si6 0.339151 0.380467 0.233764
Si Si7 0.820429 0.319177 0.808182
O O1 0.193455 0.826676 0.072039
O O2 0.942537 0.837215 0.314681
O O3 0.500000 0.000000 0.000000
O O4 0.000000 0.000000 0.000000
O O5 0.681499 0.749637 0.715971
O O6 0.026145 0.821864 0.722199
O O7 0.715886 0.950764 0.665413
O O8 0.457338 0.701860 0.025267
O O9 0.500538 0.693802 0.418778
O O10 0.459007 0.855224 0.447046
O O11 0.494994 0.627816 0.686950
O O12 0.200370 0.639002 0.354859
O O13 0.956988 0.616836 0.647447
O O14 0.098845 0.438046 0.686682
O O15 0.500000 0.000000 0.500000
O O16 0.500000 0.500000 0.000000
#
# Coordination Sequence:
#
# PCOD9063206 Si02
#       7
#     2   2   2   2   2   2   2
#     4  12  28  49  79 113 155 206 255 318 393 466
#     4  11  24  44  73 106 150 190 253 314 380 457
#     4  12  26  48  76 108 152 199 257 319 381 467
#     4  11  25  50  75 107 152 201 256 316 391 456
#     4  11  24  43  72 107 145 198 247 313 377 451
#     4  12  24  47  72 106 147 199 248 314 386 457
#     4  11  25  49  76 111 152 200 255 323 382 468
#
# _framework density 23.522117999999999
#
# number of rings (size 3 to 8) (size 9 to 14) (size 15 to 20)
#    0.000    0.571    5.714    1.714    2.000    1.143 
#    7.714    0.000    0.000    0.000    0.000    0.000 
#    0.000    0.000    0.000    0.000    0.000    0.000 
#
# Total GULP energy -78163.486330 kJ/mol
# GULP energy per Si atom -5583.106166 kJ/mol
# Density = 2.346858 g / cm^3
# Si number density = 23.522118 Si / 1000 Ang^3
#
#
#
# Elastic Constant Matrix: (Units=GPa)
#
#
# Indices 1 2 3 4 5 6 
#
# 1 84.4550 46.7854 33.1717 -12.8193 -17.6425 8.5271
# 2 46.7854 146.8319 30.5875 -6.5015 -18.0851 -5.0905
# 3 33.1717 30.5875 112.3984 9.4901 -16.3557 -3.8921
# 4 -12.8193 -6.5015 9.4901 45.4676 -1.4110 -4.9207
# 5 -17.6425 -18.0851 -16.3557 -1.4110 40.7583 -2.3854
# 6 8.5271 -5.0905 -3.8921 -4.9207 -2.3854 37.9376
#
#
#
# Elastic Compliance Matrix: (Units=1/GPa)
#
#
# Indices 1 2 3 4 5 6 
#
# 1 0.017813 -0.004244 -0.004061 0.004949 0.004130 -0.004088
# 2 -0.004244 0.008654 -0.000803 0.000505 0.001828 0.002213
# 3 -0.004061 -0.000803 0.010981 -0.003303 0.002275 0.001646
# 4 0.004949 0.000505 -0.003303 0.024419 0.001998 0.001910
# 5 0.004130 0.001828 0.002275 0.001998 0.028208 0.001583
# 6 -0.004088 0.002213 0.001646 0.001910 0.001583 0.028091
#
#
# Mechanical properties :
#
#
# Convention : Reuss Voigt Hill
#
# Bulk Modulus (GPa) = 51.99207 62.75273 57.37240
# Shear Modulus (GPa) = 35.01597 40.37540 37.69568
#
# Velocity S-wave (km/s) = 3.86248 4.14754 4.00755
# Velocity P-wave (km/s) = 6.48406 7.04786 6.77183
#
# Compressibility (1/GPa) = 0.01923370
#
# Stress axis : x y z
#
# Youngs Moduli (GPa) = 56.13808 115.55139 91.06973
#
# Poissons Ratio (x) = 0.49039 0.36980
# Poissons Ratio (y) = 0.23824 0.07309
# Poissons Ratio (z) = 0.22796 0.09274
#
# Static dielectric constant tensor:
#      x y z
#    x 1.338530 -0.701660 -0.190540 
#    y -0.701660 1.169640 -0.233560 
#    z -0.190540 -0.233560 1.905280 
# 
# From -- ./inp_files/77752.got.cif
#   From: 2010.05.17/outbox.cif.g08.bks.cpg/sg2_39_cif.got.tgz:77752.got - 2010.06.03 11:33:40.
