data_PCOD9063378
_publ_section_title
;
Structure prediction by ZEFSAII (Michael W. Deem and Ramdas Pophale) SiO2 
 PCOD9063378
Probable space group: P -1
;
_chemical_formula_sum "Si O2"
_cell_formula_units_Z 12
_cell_length_a 20.204238
_cell_length_b 7.395569
_cell_length_c 5.627514
_cell_angle_alpha 92.104569
_cell_angle_beta 127.241126
_cell_angle_gamma 114.329854
_cell_volume 560.537066
_symmetry_space_group_name_H-M "P -1"
_symmetry_group_IT_number 2
_symmetry_cell_setting 'triclinic'
loop_
_space_group_symop_operation_xyz
x,y,z
-x,-y,-z
loop_
_atom_site_type_symbol
_atom_site_label
_atom_site_fract_x
_atom_site_fract_y
_atom_site_fract_z
Si Si1 0.813061 0.800390 0.144919
Si Si2 0.583638 0.249320 0.203553
Si Si3 0.799579 0.466213 0.763394
Si Si4 0.587757 0.462999 0.731574
Si Si5 0.101338 0.724703 0.798114
Si Si6 0.964187 0.771732 0.802869
O O1 0.892129 0.759222 0.437274
O O2 0.858764 0.055935 0.252674
O O3 0.799316 0.675208 0.860432
O O4 0.701846 0.670130 0.001444
O O5 0.694595 0.304772 0.409697
O O6 0.584524 0.334788 0.477713
O O7 0.567251 0.354730 0.941846
O O8 0.500000 0.000000 0.000000
O O9 0.894272 0.568759 0.805331
O O10 0.817064 0.332412 0.991298
O O11 0.500000 0.500000 0.500000
O O12 0.000000 0.500000 0.500000
O O13 0.062688 0.781649 0.950444
O O14 0.000000 0.000000 0.000000
#
# Coordination Sequence:
#
# PCOD9063378 Si02
#       6
#     2   2   2   2   2   2
#     4  11  24  45  66  97 143 176 228 291 347 409
#     4  11  25  48  74 105 142 178 231 301 354 414
#     4  11  24  44  67 100 137 180 232 284 352 413
#     4  11  25  48  75 103 139 185 232 288 363 422
#     4  12  24  41  68  99 134 185 233 280 339 418
#     4  12  22  43  66  93 138 179 226 284 340 407
#
# _framework density 21.408038999999999
#
# number of rings (size 3 to 8) (size 9 to 14) (size 15 to 20)
#    0.000    0.667    5.000    3.000    2.333    0.000 
#    6.000    0.000    0.000    0.000    0.000    0.000 
#    0.000    0.000    0.000    0.000    0.000    0.000 
#
# Total GULP energy -66889.050196 kJ/mol
# GULP energy per Si atom -5574.087516 kJ/mol
# Density = 2.135931 g / cm^3
# Si number density = 21.408039 Si / 1000 Ang^3
#
#
#
# Elastic Constant Matrix: (Units=GPa)
#
#
# Indices 1 2 3 4 5 6 
#
# 1 46.4095 14.6567 -0.1855 11.0130 8.6897 5.8081
# 2 14.6567 138.4799 39.1746 3.6817 6.6000 6.5025
# 3 -0.1855 39.1746 93.3422 1.8789 14.0658 1.6145
# 4 11.0130 3.6817 1.8789 43.8775 -3.9614 4.3767
# 5 8.6897 6.6000 14.0658 -3.9614 35.4938 -0.7786
# 6 5.8081 6.5025 1.6145 4.3767 -0.7786 35.5866
#
#
#
# Elastic Compliance Matrix: (Units=1/GPa)
#
#
# Indices 1 2 3 4 5 6 
#
# 1 0.025861 -0.002768 0.002557 -0.006743 -0.007652 -0.003169
# 2 -0.002768 0.008565 -0.003672 0.000280 0.000550 -0.000969
# 3 0.002557 -0.003672 0.013088 -0.001342 -0.005286 -0.000291
# 4 -0.006743 0.000280 -0.001342 0.025146 0.004896 -0.001875
# 5 -0.007652 0.000550 -0.005286 0.004896 0.032619 0.001500
# 6 -0.003169 -0.000969 -0.000291 -0.001875 0.001500 0.029071
#
#
# Mechanical properties :
#
#
# Convention : Reuss Voigt Hill
#
# Bulk Modulus (GPa) = 25.15844 42.83593 33.99718
# Shear Modulus (GPa) = 32.18218 37.96397 35.07308
#
# Velocity S-wave (km/s) = 3.88142 4.21569 4.05200
# Velocity P-wave (km/s) = 5.64487 6.61428 6.14871
#
# Compressibility (1/GPa) = 0.03974809
#
# Stress axis : x y z
#
# Youngs Moduli (GPa) = 38.66818 116.75768 76.40627
#
# Poissons Ratio (x) = 0.32313 -0.19533
# Poissons Ratio (y) = 0.10702 0.28055
# Poissons Ratio (z) = -0.09886 0.42871
#
# Static dielectric constant tensor:
#      x y z
#    x 1.823050 -0.056940 -0.064950 
#    y -0.056940 1.858340 -0.062720 
#    z -0.064950 -0.062720 1.890930 
# 
# From -- ./inp_files/3254.got.cif
#   From: 2010.05.17/outbox.cif.g08.bks.cpg/sg2_2_cif.got.tgz:3254.got - 2010.06.03 11:33:40.
