data_PCOD9063375
_publ_section_title
;
Structure prediction by ZEFSAII (Michael W. Deem and Ramdas Pophale) SiO2 
 PCOD9063375
Probable space group: P -1
;
_chemical_formula_sum "Si O2"
_cell_formula_units_Z 14
_cell_length_a 5.398282
_cell_length_b 19.809657
_cell_length_c 12.913278
_cell_angle_alpha 30.272075
_cell_angle_beta 127.052201
_cell_angle_gamma 116.909351
_cell_volume 547.627792
_symmetry_space_group_name_H-M "P -1"
_symmetry_group_IT_number 2
_symmetry_cell_setting 'triclinic'
loop_
_space_group_symop_operation_xyz
x,y,z
-x,-y,-z
loop_
_atom_site_type_symbol
_atom_site_label
_atom_site_fract_x
_atom_site_fract_y
_atom_site_fract_z
Si Si1 0.741763 0.586415 0.393783
Si Si2 0.896819 0.033356 0.177108
Si Si3 0.588958 0.878018 0.918165
Si Si4 0.130872 0.618406 0.983041
Si Si5 0.763285 0.450732 0.272174
Si Si6 0.769218 0.881754 0.640354
Si Si7 0.205360 0.739306 0.646291
O O1 0.500000 0.500000 0.500000
O O2 0.486342 0.534236 0.162967
O O3 0.000000 0.500000 0.500000
O O4 0.959883 0.629092 0.482757
O O5 0.050017 0.111682 0.024093
O O6 0.085759 0.073040 0.276510
O O7 0.540507 0.078621 0.058870
O O8 0.969433 0.875027 0.381655
O O9 0.566205 0.719499 0.115348
O O10 0.390625 0.991894 0.639849
O O11 0.043094 0.642307 0.807387
O O12 0.029143 0.776917 0.783477
O O13 0.945406 0.544113 0.119767
O O14 0.650577 0.345514 0.303631
O O15 0.487724 0.796426 0.700601
#
# Coordination Sequence:
#
# PCOD9063375 Si02
#       7
#     2   2   2   2   2   2   2
#     4  12  29  50  71  97 136 187 235 286 334 413
#     4  11  25  39  71 104 137 178 223 289 341 404
#     4  11  24  44  66  99 135 174 238 278 341 394
#     4  12  25  42  71 106 144 179 225 283 346 417
#     4  12  29  43  70 102 141 189 228 277 350 409
#     4  11  25  40  72 107 139 179 226 282 353 395
#     4  11  24  45  65 107 147 177 228 279 349 416
#
# _framework density 25.564810999999999
#
# number of rings (size 3 to 8) (size 9 to 14) (size 15 to 20)
#    0.000    0.571    2.857    4.714   10.000    0.000 
#    0.000    3.571    0.000    0.000    0.000    0.000 
#    0.000    0.000    0.000    0.000    0.000    0.000 
#
# Total GULP energy -78191.392808 kJ/mol
# GULP energy per Si atom -5585.099486 kJ/mol
# Density = 2.550662 g / cm^3
# Si number density = 25.564811 Si / 1000 Ang^3
#
#
#
# Elastic Constant Matrix: (Units=GPa)
#
#
# Indices 1 2 3 4 5 6 
#
# 1 225.9222 19.1583 45.7273 -22.6879 -11.8944 -26.1676
# 2 19.1583 57.6922 20.4468 -10.4167 7.8461 -13.4914
# 3 45.7273 20.4468 125.0824 -24.6925 5.7988 -4.0925
# 4 -22.6879 -10.4167 -24.6925 35.4338 1.6365 9.0769
# 5 -11.8944 7.8461 5.7988 1.6365 41.5005 -22.7369
# 6 -26.1676 -13.4914 -4.0925 9.0769 -22.7369 39.3072
#
#
#
# Elastic Compliance Matrix: (Units=1/GPa)
#
#
# Indices 1 2 3 4 5 6 
#
# 1 0.006050 -0.000366 -0.002166 0.000160 0.005993 0.007106
# 2 -0.000366 0.020153 -0.002427 0.002653 -0.000730 0.005386
# 3 -0.002166 -0.002427 0.010610 0.006987 -0.005043 -0.005701
# 4 0.000160 0.002653 0.006987 0.037668 -0.009848 -0.012650
# 5 0.005993 -0.000730 -0.005043 -0.009848 0.043994 0.030936
# 6 0.007106 0.005386 -0.005701 -0.012650 0.030936 0.052242
#
#
# Mechanical properties :
#
#
# Convention : Reuss Voigt Hill
#
# Bulk Modulus (GPa) = 37.18050 64.37351 50.77701
# Shear Modulus (GPa) = 26.37143 44.80592 35.58867
#
# Velocity S-wave (km/s) = 3.21526 4.19100 3.73513
# Velocity P-wave (km/s) = 5.32532 6.97527 6.20538
#
# Compressibility (1/GPa) = 0.02689582
#
# Stress axis : x y z
#
# Youngs Moduli (GPa) = 165.27849 49.62110 94.25351
#
# Poissons Ratio (x) = 0.01816 0.20414
# Poissons Ratio (y) = 0.06048 0.22873
# Poissons Ratio (z) = 0.35796 0.12042
#
# Static dielectric constant tensor:
#      x y z
#    x 2.088400 0.056430 -0.022860 
#    y 0.056430 2.109200 0.004100 
#    z -0.022860 0.004100 2.030890 
# 
# From -- ./inp_files/368884.got.cif
#   From: 2010.05.17/outbox.cif.g08.bks.cpg/sg2_185_cif.got.tgz:368884.got - 2010.06.03 11:33:40.
