data_PCOD9063691
_publ_section_title
;
Structure prediction by ZEFSAII (Michael W. Deem and Ramdas Pophale) SiO2 
 PCOD9063691
Probable space group: P -1
;
_chemical_formula_sum "Si O2"
_cell_formula_units_Z 12
_cell_length_a 25.232772
_cell_length_b 23.303529
_cell_length_c 5.307216
_cell_angle_alpha 125.396719
_cell_angle_beta 56.630261
_cell_angle_gamma 169.143190
_cell_volume 475.537345
_symmetry_space_group_name_H-M "P -1"
_symmetry_group_IT_number 2
_symmetry_cell_setting 'triclinic'
loop_
_space_group_symop_operation_xyz
x,y,z
-x,-y,-z
loop_
_atom_site_type_symbol
_atom_site_label
_atom_site_fract_x
_atom_site_fract_y
_atom_site_fract_z
Si Si1 0.049644 0.850806 0.776955
Si Si2 0.790069 0.097596 0.819137
Si Si3 0.187128 0.632593 0.843806
Si Si4 0.819488 0.733186 0.284084
Si Si5 0.750259 0.431916 0.816495
Si Si6 0.474724 0.388729 0.796056
O O1 0.771749 0.504513 0.697417
O O2 0.250755 0.002279 0.554147
O O3 0.017768 0.879038 0.134407
O O4 0.150674 0.012979 0.704127
O O5 0.018974 0.401892 0.895425
O O6 0.961215 0.241849 0.956374
O O7 0.516387 0.837403 0.997461
O O8 0.224448 0.621236 0.477164
O O9 0.000000 0.500000 0.000000
O O10 0.500000 0.000000 0.000000
O O11 0.623265 0.518099 0.493493
O O12 0.628306 0.530363 0.014401
O O13 0.000000 0.000000 0.500000
O O14 0.500000 0.500000 0.000000
#
# Coordination Sequence:
#
# PCOD9063691 Si02
#       6
#     2   2   2   2   2   2
#     4  11  28  42  72  98 148 192 258 312 382 462
#     4  11  26  46  71 104 148 198 244 307 379 449
#     4  11  24  44  72 110 146 188 248 306 370 450
#     4  12  27  46  73 106 146 194 257 323 395 456
#     4  11  26  46  71 104 148 198 244 307 379 449
#     4  12  27  46  73 106 146 194 257 323 395 456
#
# _framework density 25.234613
#
# number of rings (size 3 to 8) (size 9 to 14) (size 15 to 20)
#    0.000    0.667    1.667    4.000    9.333    6.667 
#    0.000    0.000    0.000    0.000    0.000    0.000 
#    0.000    0.000    0.000    0.000    0.000    0.000 
#
# Total GULP energy -66933.529829 kJ/mol
# GULP energy per Si atom -5577.794152 kJ/mol
# Density = 2.517718 g / cm^3
# Si number density = 25.234613 Si / 1000 Ang^3
#
#
#
# Elastic Constant Matrix: (Units=GPa)
#
#
# Indices 1 2 3 4 5 6 
#
# 1 111.0462 54.0005 78.8646 -4.7643 -13.6194 4.6270
# 2 54.0005 116.2103 100.9454 -50.3132 -21.1080 6.0263
# 3 78.8646 100.9454 216.7541 -42.7858 -29.6242 2.4946
# 4 -4.7643 -50.3132 -42.7858 70.1635 -5.2869 -4.4338
# 5 -13.6194 -21.1080 -29.6242 -5.2869 62.3700 3.7106
# 6 4.6270 6.0263 2.4946 -4.4338 3.7106 54.1434
#
#
#
# Elastic Compliance Matrix: (Units=1/GPa)
#
#
# Indices 1 2 3 4 5 6 
#
# 1 0.014179 -0.006130 -0.003584 -0.005751 -0.001123 -0.000758
# 2 -0.006130 0.022228 -0.004887 0.012857 0.005013 -0.001016
# 3 -0.003584 -0.004887 0.008795 0.001786 0.001865 0.000463
# 4 -0.005751 0.012857 0.001786 0.024659 0.005999 0.000586
# 5 -0.001123 0.005013 0.001865 0.005999 0.018960 -0.001356
# 6 -0.000758 -0.001016 0.000463 0.000586 -0.001356 0.018767
#
#
# Mechanical properties :
#
#
# Convention : Reuss Voigt Hill
#
# Bulk Modulus (GPa) = 62.49769 101.29238 81.89504
# Shear Modulus (GPa) = 35.18086 51.34873 43.26480
#
# Velocity S-wave (km/s) = 3.73788 4.51583 4.14515
# Velocity P-wave (km/s) = 6.59162 8.21083 7.44537
#
# Compressibility (1/GPa) = 0.01600059
#
# Stress axis : x y z
#
# Youngs Moduli (GPa) = 70.52904 44.98830 113.69492
#
# Poissons Ratio (x) = 0.27577 0.40748
# Poissons Ratio (y) = 0.43233 0.55562
# Poissons Ratio (z) = 0.25278 0.21986
#
# Static dielectric constant tensor:
#      x y z
#    x 2.217340 0.070660 0.125240 
#    y 0.070660 2.028250 0.056710 
#    z 0.125240 0.056710 2.038290 
# 
# From -- ./inp_files/6115.got.cif
#   From: 2010.05.17/outbox.cif.g08.bks.cpg/sg2_4_cif.got.tgz:6115.got - 2010.06.03 11:33:40.
