data_PCOD9063241
_publ_section_title
;
Structure prediction by ZEFSAII (Michael W. Deem and Ramdas Pophale) SiO2 
 PCOD9063241
Probable space group: P -1
;
_chemical_formula_sum "Si O2"
_cell_formula_units_Z 16
_cell_length_a 8.497248
_cell_length_b 17.424186
_cell_length_c 11.935260
_cell_angle_alpha 146.713445
_cell_angle_beta 134.500924
_cell_angle_gamma 49.364550
_cell_volume 682.026064
_symmetry_space_group_name_H-M "P -1"
_symmetry_group_IT_number 2
_symmetry_cell_setting 'triclinic'
loop_
_space_group_symop_operation_xyz
x,y,z
-x,-y,-z
loop_
_atom_site_type_symbol
_atom_site_label
_atom_site_fract_x
_atom_site_fract_y
_atom_site_fract_z
Si Si1 0.522105 0.526734 0.176324
Si Si2 0.190663 0.095528 0.711950
Si Si3 0.908550 0.353755 0.760141
Si Si4 0.616289 0.215362 0.833303
Si Si5 0.764397 0.440158 0.554255
Si Si6 0.936796 0.723705 0.937225
Si Si7 0.652829 0.945720 0.657713
Si Si8 0.913640 0.705084 0.636341
O O1 0.317574 0.627130 0.255603
O O2 0.741878 0.596132 0.390648
O O3 0.500000 0.500000 0.000000
O O4 0.537801 0.366779 0.036794
O O5 0.091617 0.226569 0.741747
O O6 0.420925 0.009109 0.678905
O O7 0.218541 0.156280 0.923955
O O8 0.000000 0.000000 0.500000
O O9 0.841562 0.345703 0.586617
O O10 0.000000 0.500000 0.000000
O O11 0.415525 0.161405 0.601355
O O12 0.722157 0.083405 0.802436
O O13 0.812717 0.244581 0.883940
O O14 0.500000 0.500000 0.500000
O O15 0.890732 0.576143 0.783873
O O16 0.854356 0.357247 0.385428
O O17 0.912907 0.718424 0.785555
O O18 0.820460 0.854317 0.713856
#
# Coordination Sequence:
#
# PCOD9063241 Si02
#       8
#     2   2   2   2   2   2   2   2
#     4  12  22  43  76 111 143 190 249 303 365 445
#     4  12  25  46  73 109 150 191 242 303 363 436
#     4  12  25  43  75 111 143 192 247 306 365 425
#     4  11  24  43  73 105 148 191 242 307 361 435
#     4  12  28  48  72 112 148 186 246 319 373 434
#     4  12  26  48  74 105 153 193 245 306 373 440
#     4  11  26  45  73 110 147 195 246 298 361 448
#     4  12  27  47  77 107 145 201 248 297 384 445
#
# _framework density 23.459515
#
# number of rings (size 3 to 8) (size 9 to 14) (size 15 to 20)
#    0.000    0.250    5.000    4.125    5.250    1.000 
#    0.000    0.000    0.000    0.000    0.000    0.000 
#    0.000    0.000    0.000    0.000    0.000    0.000 
#
# Total GULP energy -89637.999268 kJ/mol
# GULP energy per Si atom -5602.374954 kJ/mol
# Density = 2.340612 g / cm^3
# Si number density = 23.459515 Si / 1000 Ang^3
#
#
#
# Elastic Constant Matrix: (Units=GPa)
#
#
# Indices 1 2 3 4 5 6 
#
# 1 142.9190 46.9410 39.9164 -1.4699 -14.0306 -6.1343
# 2 46.9410 128.1897 46.2960 8.9399 -12.3263 17.5086
# 3 39.9164 46.2960 91.7175 -1.6740 -19.6735 17.0117
# 4 -1.4699 8.9399 -1.6740 43.4715 13.0654 -7.7493
# 5 -14.0306 -12.3263 -19.6735 13.0654 49.8490 2.7688
# 6 -6.1343 17.5086 17.0117 -7.7493 2.7688 47.4430
#
#
#
# Elastic Compliance Matrix: (Units=1/GPa)
#
#
# Indices 1 2 3 4 5 6 
#
# 1 0.008929 -0.002703 -0.003131 0.001340 0.000064 0.003490
# 2 -0.002703 0.010955 -0.003298 -0.003724 0.001840 -0.003925
# 3 -0.003131 -0.003298 0.016061 -0.001382 0.005308 -0.005482
# 4 0.001340 -0.003724 -0.001382 0.027644 -0.008727 0.007068
# 5 0.000064 0.001840 0.005308 -0.008727 0.025220 -0.005472
# 6 0.003490 -0.003925 -0.005482 0.007068 -0.005472 0.026417
#
#
# Mechanical properties :
#
#
# Convention : Reuss Voigt Hill
#
# Bulk Modulus (GPa) = 56.55974 69.90367 63.23170
# Shear Modulus (GPa) = 35.87224 43.46422 39.66823
#
# Velocity S-wave (km/s) = 3.91463 4.30901 4.11654
# Velocity P-wave (km/s) = 6.67789 7.39047 7.04320
#
# Compressibility (1/GPa) = 0.01768042
#
# Stress axis : x y z
#
# Youngs Moduli (GPa) = 111.99496 91.28476 62.26381
#
# Poissons Ratio (x) = 0.24673 0.19493
# Poissons Ratio (y) = 0.30271 0.20537
# Poissons Ratio (z) = 0.35062 0.30109
#
# Static dielectric constant tensor:
#      x y z
#    x 1.886230 0.009440 -0.007050 
#    y 0.009440 1.925620 -0.007900 
#    z -0.007050 -0.007900 1.880540 
# 
# From -- ./inp_files/403629.got.cif
#   From: 2010.05.17/outbox.cif.g08.bks.cpg/sg2_202_cif.got.tgz:403629.got - 2010.06.03 11:33:40.
