data_PCOD9063564
_publ_section_title
;
Structure prediction by ZEFSAII (Michael W. Deem and Ramdas Pophale) SiO2 
 PCOD9063564
Probable space group: P -1
;
_chemical_formula_sum "Si O2"
_cell_formula_units_Z 12
_cell_length_a 9.918845
_cell_length_b 9.532388
_cell_length_c 10.993983
_cell_angle_alpha 98.924433
_cell_angle_beta 89.498681
_cell_angle_gamma 31.419993
_cell_volume 514.835890
_symmetry_space_group_name_H-M "P -1"
_symmetry_group_IT_number 2
_symmetry_cell_setting 'triclinic'
loop_
_space_group_symop_operation_xyz
x,y,z
-x,-y,-z
loop_
_atom_site_type_symbol
_atom_site_label
_atom_site_fract_x
_atom_site_fract_y
_atom_site_fract_z
Si Si1 0.894890 0.012746 0.384937
Si Si2 0.273163 0.418037 0.186533
Si Si3 0.039080 0.484006 0.645936
Si Si4 0.949980 0.219105 0.235718
Si Si5 0.449774 0.388957 0.933498
Si Si6 0.498255 0.854127 0.618777
O O1 0.859869 0.160913 0.300341
O O2 0.622166 0.177202 0.444414
O O3 0.000000 0.000000 0.500000
O O4 0.102768 0.702576 0.290538
O O5 0.103210 0.429615 0.210488
O O6 0.528023 0.159312 0.238672
O O7 0.348791 0.386878 0.046446
O O8 0.807304 0.624455 0.580723
O O9 0.074457 0.618471 0.661018
O O10 0.313971 0.149102 0.614930
O O11 0.768585 0.404163 0.143288
O O12 0.263984 0.921257 0.161268
O O13 0.500000 0.500000 0.000000
#
# Coordination Sequence:
#
# PCOD9063564 Si02
#       6
#     2   2   2   2   2   2
#     4  11  24  44  70  94 125 170 221 269 315 379
#     4   9  22  41  66  90 134 170 207 252 333 366
#     4   9  21  41  64  91 135 166 209 260 314 384
#     4  12  26  41  66 102 127 165 223 260 312 384
#     4  12  24  39  66  97 137 166 205 267 317 382
#     4   9  20  43  63  89 132 171 205 255 322 378
#
# _framework density 23.308396999999999
#
# number of rings (size 3 to 8) (size 9 to 14) (size 15 to 20)
#    1.000    0.667    1.667    2.500    4.667    2.000 
#    0.000    4.167    0.000    0.000    0.000    0.000 
#    0.000    0.000    0.000    0.000    0.000    0.000 
#
# Total GULP energy -67057.443310 kJ/mol
# GULP energy per Si atom -5588.120276 kJ/mol
# Density = 2.325535 g / cm^3
# Si number density = 23.308397 Si / 1000 Ang^3
#
#
#
# Elastic Constant Matrix: (Units=GPa)
#
#
# Indices 1 2 3 4 5 6 
#
# 1 198.4130 141.0300 56.0467 72.5795 72.4938 -81.1512
# 2 141.0300 217.2667 106.2108 11.2655 54.2750 -59.2005
# 3 56.0467 106.2108 96.4342 33.9042 62.4653 -63.2986
# 4 72.5795 11.2655 33.9042 43.0080 18.1114 -21.6024
# 5 72.4938 54.2750 62.4653 18.1114 74.3285 -44.8700
# 6 -81.1512 -59.2005 -63.2986 -21.6024 -44.8700 92.4066
#
#
#
# Elastic Compliance Matrix: (Units=1/GPa)
#
#
# Indices 1 2 3 4 5 6 
#
# 1 -0.002762 0.006300 -0.015567 0.010858 0.006504 -0.003356
# 2 0.006300 0.000473 0.007769 -0.011322 -0.007247 0.004992
# 3 -0.015567 0.007769 -0.000443 0.022116 0.003088 -0.002328
# 4 0.010858 -0.011322 0.022116 0.002123 -0.015000 0.010644
# 5 0.006504 -0.007247 0.003088 -0.015000 0.018769 0.008791
# 6 -0.003356 0.004992 -0.002328 0.010644 0.008791 0.016235
#
#
# Mechanical properties :
#
#
# Convention : Reuss Voigt Hill
#
# Bulk Modulus (GPa) = -174.59229 124.29877 -25.14676
# Shear Modulus (GPa) = 140.91900 55.87038 98.39469
#
# Velocity S-wave (km/s) = 7.78394 4.90123 6.50430
# Velocity P-wave (km/s) = 2.39131 9.24517 6.75246
#
# Compressibility (1/GPa) = -0.00572763
#
# Stress axis : x y z
#
# Youngs Moduli (GPa) = -362.10769 2115.76241 -2256.96712
#
# Poissons Ratio (x) = -13.33035 -35.13485
# Poissons Ratio (y) = 2.28146 17.53437
# Poissons Ratio (z) = -5.63703 -16.43735
#
# Static dielectric constant tensor:
#      x y z
#    x 1.794310 0.001000 -0.051200 
#    y 0.001000 1.843380 0.013140 
#    z -0.051200 0.013140 1.988320 
# 
# From -- ./inp_files/229613.got.cif
#   From: 2010.05.17/outbox.cif.g08.bks.cpg/sg2_115_cif.got.tgz:229613.got - 2010.06.03 11:33:40.
