data_PCOD9063573
_publ_section_title
;
Structure prediction by ZEFSAII (Michael W. Deem and Ramdas Pophale) SiO2 
 PCOD9063573
Probable space group: P -1
;
_chemical_formula_sum "Si O2"
_cell_formula_units_Z 16
_cell_length_a 8.851709
_cell_length_b 23.037449
_cell_length_c 13.429898
_cell_angle_alpha 26.423280
_cell_angle_beta 47.074420
_cell_angle_gamma 36.361929
_cell_volume 714.142135
_symmetry_space_group_name_H-M "P -1"
_symmetry_group_IT_number 2
_symmetry_cell_setting 'triclinic'
loop_
_space_group_symop_operation_xyz
x,y,z
-x,-y,-z
loop_
_atom_site_type_symbol
_atom_site_label
_atom_site_fract_x
_atom_site_fract_y
_atom_site_fract_z
Si Si1 0.907582 0.821407 0.822990
Si Si2 0.330119 0.726174 0.497440
Si Si3 0.188120 0.389692 0.673475
Si Si4 0.731793 0.539125 0.095719
Si Si5 0.426439 0.148239 0.236550
Si Si6 0.968268 0.625997 0.591478
Si Si7 0.886186 0.937609 0.219015
Si Si8 0.389659 0.796509 0.586438
O O1 0.844018 0.777284 0.812210
O O2 0.196893 0.767493 0.769843
O O3 0.720207 0.018678 0.617621
O O4 0.861721 0.732904 0.066239
O O5 0.531680 0.698649 0.365487
O O6 0.362826 0.558441 0.760050
O O7 0.361137 0.789086 0.490996
O O8 0.054287 0.849982 0.378048
O O9 0.000000 0.500000 0.500000
O O10 0.105106 0.523231 0.590104
O O11 0.810975 0.470408 0.277436
O O12 0.548482 0.732581 0.891081
O O13 0.000000 0.500000 0.000000
O O14 0.500000 0.000000 0.500000
O O15 0.612752 0.085627 0.154916
O O16 0.881593 0.808025 0.356292
O O17 0.692764 0.660089 0.683727
O O18 0.000000 0.000000 0.000000
#
# Coordination Sequence:
#
# PCOD9063573 Si02
#       8
#     2   2   2   2   2   2   2   2
#     4  11  25  45  72 100 139 184 231 293 348 412
#     4  11  26  45  67 104 138 183 234 280 355 413
#     4  12  26  46  67 102 141 187 230 283 353 418
#     4  11  25  44  72 102 140 179 230 293 342 412
#     4  12  23  45  71 101 136 177 234 286 345 407
#     4  11  24  44  70  99 140 177 230 286 346 411
#     4  11  25  42  69  98 134 183 227 279 344 409
#     4  11  24  47  71 102 137 181 235 288 352 415
#
# _framework density 22.404505
#
# number of rings (size 3 to 8) (size 9 to 14) (size 15 to 20)
#    0.000    0.750    3.750    3.750    1.750    4.000 
#    2.250    0.000    0.000    0.000    0.000    0.000 
#    0.000    0.000    0.000    0.000    0.000    0.000 
#
# Total GULP energy -89448.152759 kJ/mol
# GULP energy per Si atom -5590.509547 kJ/mol
# Density = 2.235351 g / cm^3
# Si number density = 22.404505 Si / 1000 Ang^3
#
#
#
# Elastic Constant Matrix: (Units=GPa)
#
#
# Indices 1 2 3 4 5 6 
#
# 1 52.7556 -2.0304 1.3919 -2.1053 -5.5495 -2.8200
# 2 -2.0304 103.4700 11.1444 10.7045 -21.3419 3.6675
# 3 1.3919 11.1444 100.2419 13.7549 -16.4044 -4.7688
# 4 -2.1053 10.7045 13.7549 36.3029 -2.9914 -5.2037
# 5 -5.5495 -21.3419 -16.4044 -2.9914 33.6193 -0.1033
# 6 -2.8200 3.6675 -4.7688 -5.2037 -0.1033 38.3168
#
#
#
# Elastic Compliance Matrix: (Units=1/GPa)
#
#
# Indices 1 2 3 4 5 6 
#
# 1 0.019555 0.001014 0.000175 0.001328 0.004080 0.001555
# 2 0.001014 0.011534 0.000255 -0.003033 0.007339 -0.001390
# 3 0.000175 0.000255 0.011397 -0.003807 0.005416 0.000904
# 4 0.001328 -0.003033 -0.003807 0.030471 -0.000840 0.004050
# 5 0.004080 0.007339 0.005416 -0.000840 0.037646 0.000259
# 6 0.001555 -0.001390 0.000904 0.004050 0.000259 0.027009
#
#
# Mechanical properties :
#
#
# Convention : Reuss Voigt Hill
#
# Bulk Modulus (GPa) = 22.03919 30.83104 26.43512
# Shear Modulus (GPa) = 33.36696 38.04525 35.70611
#
# Velocity S-wave (km/s) = 3.86333 4.12528 3.99645
# Velocity P-wave (km/s) = 5.45515 6.04000 5.75501
#
# Compressibility (1/GPa) = 0.04537372
#
# Stress axis : x y z
#
# Youngs Moduli (GPa) = 51.13773 86.70026 87.74377
#
# Poissons Ratio (x) = -0.08791 -0.01537
# Poissons Ratio (y) = -0.05185 -0.02236
# Poissons Ratio (z) = -0.00896 -0.02209
#
# Static dielectric constant tensor:
#      x y z
#    x 1.868560 -0.183040 0.003390 
#    y -0.183040 2.432750 -0.086870 
#    z 0.003390 -0.086870 1.847390 
# 
# From -- ./inp_files/190801.got.cif
#   From: 2010.05.17/outbox.cif.g08.bks.cpg/sg2_96_cif.got.tgz:190801.got - 2010.06.03 11:33:40.
