data_PCOD9063531
_publ_section_title
;
Structure prediction by ZEFSAII (Michael W. Deem and Ramdas Pophale) SiO2 
 PCOD9063531
Probable space group: P -1
;
_chemical_formula_sum "Si O2"
_cell_formula_units_Z 15
_cell_length_a 21.516463
_cell_length_b 9.627638
_cell_length_c 6.502210
_cell_angle_alpha 107.123449
_cell_angle_beta 94.253952
_cell_angle_gamma 143.578978
_cell_volume 639.136018
_symmetry_space_group_name_H-M "P -1"
_symmetry_group_IT_number 2
_symmetry_cell_setting 'triclinic'
loop_
_space_group_symop_operation_xyz
x,y,z
-x,-y,-z
loop_
_atom_site_type_symbol
_atom_site_label
_atom_site_fract_x
_atom_site_fract_y
_atom_site_fract_z
Si Si1 0.834009 0.183937 0.701574
Si Si2 0.000000 0.500000 0.500000
Si Si3 0.270259 0.799711 0.032320
Si Si4 0.623896 0.847488 0.179031
Si Si5 0.747512 0.734085 0.749345
Si Si6 0.166861 0.317834 0.545892
Si Si7 0.960194 0.093066 0.288787
Si Si8 0.478815 0.129702 0.549936
O O1 0.826219 0.316657 0.888262
O O2 0.956583 0.403650 0.694071
O O3 0.725259 0.979894 0.411976
O O4 0.795445 0.972757 0.746420
O O5 0.971795 0.616237 0.546801
O O6 0.388821 0.990690 0.279714
O O7 0.218751 0.554786 0.797036
O O8 0.316234 0.009061 0.966422
O O9 0.587098 0.932332 0.294757
O O10 0.500000 0.500000 0.000000
O O11 0.736930 0.580471 0.517863
O O12 0.612826 0.478236 0.707731
O O13 0.849681 0.895686 0.014165
O O14 0.062735 0.177312 0.309663
O O15 0.101076 0.076468 0.584190
O O16 0.500000 0.000000 0.500000
#
# Coordination Sequence:
#
# PCOD9063531 Si02
#       8
#     2   1   2   2   2   2   2   2
#     4  11  27  45  70 108 139 189 243 299 359 427
#     4  12  26  48  70 102 140 184 248 294 356 426
#     4  11  25  46  73 103 146 191 234 296 363 431
#     4  11  24  44  70 101 148 187 236 297 360 426
#     4  12  25  45  74 105 146 186 244 296 355 433
#     4  11  25  48  70 104 145 192 238 294 363 420
#     4  11  27  44  71 103 142 189 240 301 355 424
#     4  11  25  42  70 111 139 186 239 293 356 430
#
# _framework density 23.469182
#
# number of rings (size 3 to 8) (size 9 to 14) (size 15 to 20)
#    0.000    0.800    1.333    4.400    5.600   12.267 
#    0.000    0.000    0.000    0.000    0.000    0.000 
#    0.000    0.000    0.000    0.000    0.000    0.000 
#
# Total GULP energy -83785.458999 kJ/mol
# GULP energy per Si atom -5585.697267 kJ/mol
# Density = 2.341577 g / cm^3
# Si number density = 23.469182 Si / 1000 Ang^3
#
#
#
# Elastic Constant Matrix: (Units=GPa)
#
#
# Indices 1 2 3 4 5 6 
#
# 1 93.3456 20.1535 50.0783 -16.8144 3.2947 -9.4557
# 2 20.1535 90.0893 12.1852 -15.6266 6.3676 -14.5709
# 3 50.0783 12.1852 95.7125 -2.0268 12.1146 0.8274
# 4 -16.8144 -15.6266 -2.0268 34.1755 1.9748 0.2825
# 5 3.2947 6.3676 12.1146 1.9748 34.4791 -8.8321
# 6 -9.4557 -14.5709 0.8274 0.2825 -8.8321 46.8703
#
#
#
# Elastic Compliance Matrix: (Units=1/GPa)
#
#
# Indices 1 2 3 4 5 6 
#
# 1 0.017499 -0.000920 -0.009200 0.007480 0.002273 0.003790
# 2 -0.000920 0.013068 -0.000920 0.005519 -0.001397 0.003597
# 3 -0.009200 -0.000920 0.015992 -0.003669 -0.005228 -0.003387
# 4 0.007480 0.005519 -0.003669 0.035326 -0.001765 0.002744
# 5 0.002273 -0.001397 -0.005228 -0.001765 0.032587 0.006268
# 6 0.003790 0.003597 -0.003387 0.002744 0.006268 0.024442
#
#
# Mechanical properties :
#
#
# Convention : Reuss Voigt Hill
#
# Bulk Modulus (GPa) = 40.85268 49.33126 45.09197
# Shear Modulus (GPa) = 29.55873 36.22033 32.88953
#
# Velocity S-wave (km/s) = 3.55275 3.93277 3.74758
# Velocity P-wave (km/s) = 5.85441 6.45658 6.16285
#
# Compressibility (1/GPa) = 0.02447820
#
# Stress axis : x y z
#
# Youngs Moduli (GPa) = 57.14774 76.52202 62.53099
#
# Poissons Ratio (x) = 0.07042 0.57531
# Poissons Ratio (y) = 0.05259 0.05750
# Poissons Ratio (z) = 0.52578 0.07037
#
# Static dielectric constant tensor:
#      x y z
#    x 1.854710 0.004260 0.008620 
#    y 0.004260 1.852270 0.031250 
#    z 0.008620 0.031250 1.903340 
# 
# From -- ./inp_files/53052.got.cif
#   From: 2010.05.17/outbox.cif.g08.bks.cpg/sg2_27_cif.got.tgz:53052.got - 2010.06.03 11:33:40.
