data_PCOD9063718
_publ_section_title
;
Structure prediction by ZEFSAII (Michael W. Deem and Ramdas Pophale) SiO2 
 PCOD9063718
Probable space group: P -1
;
_chemical_formula_sum "Si O2"
_cell_formula_units_Z 14
_cell_length_a 16.438589
_cell_length_b 8.211606
_cell_length_c 7.759433
_cell_angle_alpha 73.420065
_cell_angle_beta 141.196581
_cell_angle_gamma 116.859763
_cell_volume 581.368517
_symmetry_space_group_name_H-M "P -1"
_symmetry_group_IT_number 2
_symmetry_cell_setting 'triclinic'
loop_
_space_group_symop_operation_xyz
x,y,z
-x,-y,-z
loop_
_atom_site_type_symbol
_atom_site_label
_atom_site_fract_x
_atom_site_fract_y
_atom_site_fract_z
Si Si1 0.300246 0.802946 0.653025
Si Si2 0.699756 0.502692 0.752302
Si Si3 0.999998 0.806062 0.616807
Si Si4 0.307083 0.426565 0.909564
Si Si5 0.000001 0.794712 0.031157
Si Si6 0.307076 0.880521 0.011662
Si Si7 0.497223 0.248610 0.245835
O O1 0.333388 0.628666 0.827801
O O2 0.340908 0.931202 0.850170
O O3 0.399153 0.840784 0.639423
O O4 0.141881 0.776985 0.345702
O O5 0.858121 0.635101 0.920071
O O6 0.600854 0.441620 0.441986
O O7 0.659088 0.590281 0.827453
O O8 0.666615 0.295271 0.827657
O O9 0.140079 0.802408 0.770862
O O10 0.859913 0.662328 0.350623
O O11 0.000000 0.776218 0.830133
O O12 0.000000 0.000000 0.500000
O O13 0.382402 0.321276 0.951899
O O14 0.000000 0.000000 0.000000
O O15 0.382389 0.061126 0.195282
#
# Coordination Sequence:
#
# PCOD9063718 Si02
#       7
#     2   2   2   2   2   2   2
#     4  11  25  46  69 107 139 188 241 291 349 417
#     4  11  25  46  69 107 139 188 241 291 349 417
#     4  12  23  44  73 100 136 179 237 293 354 416
#     4  11  24  44  73 102 146 190 235 290 350 418
#     4  12  27  46  75 104 137 181 241 305 349 416
#     4  11  24  44  73 102 146 190 235 290 350 418
#     4  12  24  44  70 104 152 192 230 286 352 422
#
# _framework density 24.081109999999999
#
# number of rings (size 3 to 8) (size 9 to 14) (size 15 to 20)
#    0.000    0.571    1.429    6.857    0.000    4.000 
#    5.143    0.000    0.000    0.000    0.000    0.000 
#    0.000    0.000    0.000    0.000    0.000    0.000 
#
# Total GULP energy -78024.020226 kJ/mol
# GULP energy per Si atom -5573.144302 kJ/mol
# Density = 2.402630 g / cm^3
# Si number density = 24.081110 Si / 1000 Ang^3
#
#
#
# Elastic Constant Matrix: (Units=GPa)
#
#
# Indices 1 2 3 4 5 6 
#
# 1 94.9793 13.1956 48.1587 -0.2312 -0.3375 -4.0194
# 2 13.1956 95.0533 27.7536 1.9874 2.0390 -5.0279
# 3 48.1587 27.7536 94.3879 17.4823 16.9425 5.3806
# 4 -0.2312 1.9874 17.4823 41.4840 3.3840 -1.2159
# 5 -0.3375 2.0390 16.9425 3.3840 44.5006 -7.2608
# 6 -4.0194 -5.0279 5.3806 -1.2159 -7.2608 29.6987
#
#
#
# Elastic Compliance Matrix: (Units=1/GPa)
#
#
# Indices 1 2 3 4 5 6 
#
# 1 0.015858 0.000895 -0.010251 0.004154 0.004554 0.005438
# 2 0.000895 0.011890 -0.004715 0.001384 0.001717 0.003465
# 3 -0.010251 -0.004715 0.020714 -0.008112 -0.008493 -0.008347
# 4 0.004154 0.001384 -0.008112 0.027463 0.001585 0.003778
# 5 0.004554 0.001717 -0.008493 0.001585 0.027028 0.009119
# 6 0.005438 0.003465 -0.008347 0.003778 0.009119 0.038890
#
#
# Mechanical properties :
#
#
# Convention : Reuss Voigt Hill
#
# Bulk Modulus (GPa) = 49.21084 51.40403 50.30744
# Shear Modulus (GPa) = 28.28695 36.15751 32.22223
#
# Velocity S-wave (km/s) = 3.43104 3.87911 3.66193
# Velocity P-wave (km/s) = 6.01464 6.43862 6.23024
#
# Compressibility (1/GPa) = 0.02032073
#
# Stress axis : x y z
#
# Youngs Moduli (GPa) = 63.05768 84.10220 48.27633
#
# Poissons Ratio (x) = -0.07525 0.49489
# Poissons Ratio (y) = -0.05642 0.22761
# Poissons Ratio (z) = 0.64641 0.39652
#
# Static dielectric constant tensor:
#      x y z
#    x 2.116530 -0.106400 -0.095090 
#    y -0.106400 1.871450 0.064350 
#    z -0.095090 0.064350 1.916550 
# 
# From -- ./inp_files/328789.got.cif
#   From: 2010.05.17/outbox.cif.g08.bks.cpg/sg2_165_cif.got.tgz:328789.got - 2010.06.03 11:33:40.
