data_PCOD9063829
_publ_section_title
;
Structure prediction by ZEFSAII (Michael W. Deem and Ramdas Pophale) SiO2 
 PCOD9063829
Probable space group: P -1
;
_chemical_formula_sum "Si O2"
_cell_formula_units_Z 16
_cell_length_a 8.428909
_cell_length_b 15.213923
_cell_length_c 8.307557
_cell_angle_alpha 96.553705
_cell_angle_beta 68.698075
_cell_angle_gamma 50.604475
_cell_volume 673.407730
_symmetry_space_group_name_H-M "P -1"
_symmetry_group_IT_number 2
_symmetry_cell_setting 'triclinic'
loop_
_space_group_symop_operation_xyz
x,y,z
-x,-y,-z
loop_
_atom_site_type_symbol
_atom_site_label
_atom_site_fract_x
_atom_site_fract_y
_atom_site_fract_z
Si Si1 0.311340 0.585421 0.440891
Si Si2 0.709223 0.532603 0.852712
Si Si3 0.812964 0.202325 0.861356
Si Si4 0.461931 0.017392 0.706082
Si Si5 0.042684 0.300031 0.919663
Si Si6 0.144163 0.330779 0.227867
Si Si7 0.287229 0.936157 0.989921
Si Si8 0.991095 0.869844 0.572053
O O1 0.500000 0.500000 0.500000
O O2 0.402320 0.502109 0.228383
O O3 0.046837 0.635800 0.567669
O O4 0.227686 0.718712 0.491582
O O5 0.926856 0.409508 0.855386
O O6 0.817403 0.579885 0.741872
O O7 0.468028 0.664437 0.059214
O O8 0.932531 0.246410 0.896403
O O9 0.951044 0.116996 0.628632
O O10 0.790676 0.137685 0.998007
O O11 0.332162 0.162560 0.798860
O O12 0.500000 0.000000 0.500000
O O13 0.308644 0.996804 0.846057
O O14 0.738008 0.910181 0.651602
O O15 0.002622 0.359433 0.119736
O O16 0.419335 0.183278 0.095841
O O17 0.097542 0.042409 0.220244
#
# Coordination Sequence:
#
# PCOD9063829 Si02
#       8
#     2   2   2   2   2   2   2   2
#     4  12  25  44  73 105 143 194 244 293 371 430
#     4  11  25  46  69 106 149 188 241 303 357 431
#     4  11  25  44  74 101 153 188 238 306 359 421
#     4  12  23  44  75 103 142 192 242 295 368 435
#     4  12  23  43  72 104 140 194 239 289 372 426
#     4  11  24  44  75 101 145 188 245 299 362 430
#     4  11  25  46  72 106 144 191 242 301 360 426
#     4  12  23  47  72 105 146 194 239 304 357 437
#
# _framework density 23.759748999999999
#
# number of rings (size 3 to 8) (size 9 to 14) (size 15 to 20)
#    0.000    0.500    5.000    3.375    1.750    0.500 
#    0.000    1.250    0.000    0.000    0.000    0.000 
#    0.000    0.000    0.000    0.000    0.000    0.000 
#
# Total GULP energy -89192.984577 kJ/mol
# GULP energy per Si atom -5574.561536 kJ/mol
# Density = 2.370567 g / cm^3
# Si number density = 23.759749 Si / 1000 Ang^3
#
#
#
# Elastic Constant Matrix: (Units=GPa)
#
#
# Indices 1 2 3 4 5 6 
#
# 1 30.7276 10.2143 20.8732 -0.3655 -1.8211 -9.5277
# 2 10.2143 144.1206 37.5120 8.7717 -3.1133 -5.3407
# 3 20.8732 37.5120 112.4279 7.9372 -7.3819 12.8911
# 4 -0.3655 8.7717 7.9372 28.4052 1.1283 -7.5966
# 5 -1.8211 -3.1133 -7.3819 1.1283 37.0436 1.7903
# 6 -9.5277 -5.3407 12.8911 -7.5966 1.7903 31.8221
#
#
#
# Elastic Compliance Matrix: (Units=1/GPa)
#
#
# Indices 1 2 3 4 5 6 
#
# 1 0.047432 -0.000060 -0.012033 0.009792 -0.001408 0.021483
# 2 -0.000060 0.007808 -0.002764 -0.001064 0.000031 0.002156
# 3 -0.012033 -0.002764 0.013986 -0.006367 0.002708 -0.011405
# 4 0.009792 -0.001064 -0.006367 0.041684 -0.002893 0.015446
# 5 -0.001408 0.000031 0.002708 -0.002893 0.027738 -0.003765
# 6 0.021483 0.002156 -0.011405 0.015446 -0.003765 0.046738
#
#
# Mechanical properties :
#
#
# Convention : Reuss Voigt Hill
#
# Bulk Modulus (GPa) = 25.30915 47.16392 36.23654
# Shear Modulus (GPa) = 21.90378 34.03261 27.96820
#
# Velocity S-wave (km/s) = 3.03955 3.78876 3.43465
# Velocity P-wave (km/s) = 4.79518 6.24765 5.56897
#
# Compressibility (1/GPa) = 0.03951140
#
# Stress axis : x y z
#
# Youngs Moduli (GPa) = 21.08266 128.07963 71.50075
#
# Poissons Ratio (x) = 0.00768 0.86038
# Poissons Ratio (y) = 0.00126 0.19763
# Poissons Ratio (z) = 0.25369 0.35402
#
# Static dielectric constant tensor:
#      x y z
#    x 1.916280 0.002500 -0.011990 
#    y 0.002500 1.911310 -0.007170 
#    z -0.011990 -0.007170 1.945710 
# 
# From -- ./inp_files/207659.got.cif
#   From: 2010.05.17/outbox.cif.g08.bks.cpg/sg2_104_cif.got.tgz:207659.got - 2010.06.03 11:33:40.
