data_PCOD9063096
_publ_section_title
;
Structure prediction by ZEFSAII (Michael W. Deem and Ramdas Pophale) SiO2 
 PCOD9063096
Probable space group: P -1
;
_chemical_formula_sum "Si O2"
_cell_formula_units_Z 14
_cell_length_a 5.265385
_cell_length_b 28.479526
_cell_length_c 27.726169
_cell_angle_alpha 10.214104
_cell_angle_beta 60.905219
_cell_angle_gamma 60.381879
_cell_volume 640.938679
_symmetry_space_group_name_H-M "P -1"
_symmetry_group_IT_number 2
_symmetry_cell_setting 'triclinic'
loop_
_space_group_symop_operation_xyz
x,y,z
-x,-y,-z
loop_
_atom_site_type_symbol
_atom_site_label
_atom_site_fract_x
_atom_site_fract_y
_atom_site_fract_z
Si Si1 0.451819 0.947294 0.662682
Si Si2 0.174817 0.229177 0.771056
Si Si3 0.378891 0.531059 0.711907
Si Si4 0.059204 0.494028 0.677900
Si Si5 0.664326 0.444417 0.091539
Si Si6 0.758037 0.004668 0.895207
Si Si7 0.227558 0.028706 0.289784
O O1 0.572103 0.972289 0.680320
O O2 0.104430 0.021076 0.616837
O O3 0.619079 0.147370 0.412461
O O4 0.522221 0.649554 0.937259
O O5 0.000000 0.500000 0.500000
O O6 0.474342 0.186152 0.757667
O O7 0.181679 0.183749 0.873257
O O8 0.000000 0.000000 0.000000
O O9 0.214387 0.562419 0.644272
O O10 0.723064 0.434565 0.773165
O O11 0.351455 0.805092 0.466776
O O12 0.227256 0.313460 0.976494
O O13 0.048993 0.763114 0.374156
O O14 0.241309 0.222082 0.916484
O O15 0.500000 0.500000 0.000000
O O16 0.000000 0.500000 0.000000
#
# Coordination Sequence:
#
# PCOD9063096 Si02
#       7
#     2   2   2   2   2   2   2
#     4  12  24  42  70  97 130 186 222 275 332 395
#     4  11  24  43  70  95 135 174 222 275 332 393
#     4  12  26  45  68  99 132 175 218 295 336 399
#     4  12  26  44  70  98 136 174 222 272 360 401
#     4  12  24  42  64 100 142 175 222 273 332 395
#     4  11  26  43  66 103 130 177 224 275 330 432
#     4  12  24  45  68  96 132 170 238 275 334 397
#
# _framework density 21.842963000000001
#
# number of rings (size 3 to 8) (size 9 to 14) (size 15 to 20)
#    0.000    0.286    0.000    9.429    6.000    2.286 
#    0.000    0.000    0.000    0.000    0.000    0.000 
#    0.000    0.000    0.000    0.000    0.000    0.000 
#
# Total GULP energy -78322.266237 kJ/mol
# GULP energy per Si atom -5594.447588 kJ/mol
# Density = 2.179325 g / cm^3
# Si number density = 21.842963 Si / 1000 Ang^3
#
#
#
# Elastic Constant Matrix: (Units=GPa)
#
#
# Indices 1 2 3 4 5 6 
#
# 1 103.2178 25.6656 4.8386 -0.7880 -4.6958 4.9615
# 2 25.6656 59.5848 1.7274 -7.5889 -5.9132 9.2874
# 3 4.8386 1.7274 104.2636 3.0760 4.7749 15.7746
# 4 -0.7880 -7.5889 3.0760 54.7594 -3.2471 11.5679
# 5 -4.6958 -5.9132 4.7749 -3.2471 38.5167 1.2688
# 6 4.9615 9.2874 15.7746 11.5679 1.2688 66.7552
#
#
#
# Elastic Compliance Matrix: (Units=1/GPa)
#
#
# Indices 1 2 3 4 5 6 
#
# 1 0.010896 -0.004674 -0.000446 -0.000430 0.000630 0.000008
# 2 -0.004674 0.020018 0.000123 0.003533 0.002889 -0.003134
# 3 -0.000446 0.000123 0.010018 -0.000137 -0.001213 -0.002304
# 4 -0.000430 0.003533 -0.000137 0.019710 0.002297 -0.003886
# 5 0.000630 0.002889 -0.001213 0.002297 0.026862 -0.001071
# 6 0.000008 -0.003134 -0.002304 -0.003886 -0.001071 0.016654
#
#
# Mechanical properties :
#
#
# Convention : Reuss Voigt Hill
#
# Bulk Modulus (GPa) = 32.32255 36.83659 34.57957
# Shear Modulus (GPa) = 40.17187 47.66190 43.91688
#
# Velocity S-wave (km/s) = 4.29315 4.67628 4.48881
# Velocity P-wave (km/s) = 6.27731 6.78658 6.53691
#
# Compressibility (1/GPa) = 0.03093815
#
# Stress axis : x y z
#
# Youngs Moduli (GPa) = 91.77377 49.95545 99.82061
#
# Poissons Ratio (x) = 0.23350 0.04448
# Poissons Ratio (y) = 0.42897 -0.01226
# Poissons Ratio (z) = 0.04090 -0.00614
#
# Static dielectric constant tensor:
#      x y z
#    x 1.807370 -0.008420 0.008080 
#    y -0.008420 1.586820 -0.033610 
#    z 0.008080 -0.033610 1.742780 
# 
# From -- ./inp_files/605188.got.cif
#   From: 2010.05.17/outbox.cif.g08.bks.cpg/sg2_303_cif.got.tgz:605188.got - 2010.06.03 11:33:40.
