data_PCOD9063879
_publ_section_title
;
Structure prediction by ZEFSAII (Michael W. Deem and Ramdas Pophale) SiO2 
 PCOD9063879
Probable space group: P -1
;
_chemical_formula_sum "Si O2"
_cell_formula_units_Z 16
_cell_length_a 23.295140
_cell_length_b 10.574165
_cell_length_c 5.672531
_cell_angle_alpha 111.571766
_cell_angle_beta 121.892146
_cell_angle_gamma 35.029543
_cell_volume 674.897128
_symmetry_space_group_name_H-M "P -1"
_symmetry_group_IT_number 2
_symmetry_cell_setting 'triclinic'
loop_
_space_group_symop_operation_xyz
x,y,z
-x,-y,-z
loop_
_atom_site_type_symbol
_atom_site_label
_atom_site_fract_x
_atom_site_fract_y
_atom_site_fract_z
Si Si1 0.970563 0.702495 0.552717
Si Si2 0.387054 0.754359 0.504972
Si Si3 0.054615 0.026773 0.970373
Si Si4 0.280150 0.239402 0.193942
Si Si5 0.479108 0.896803 0.728660
Si Si6 0.272366 0.517329 0.050401
Si Si7 0.269719 0.950433 0.873954
Si Si8 0.866744 0.422416 0.522945
O O1 0.000000 0.500000 0.500000
O O2 0.076215 0.601699 0.592779
O O3 0.949169 0.816952 0.823740
O O4 0.856169 0.900969 0.299605
O O5 0.500000 0.500000 0.500000
O O6 0.415159 0.870301 0.682643
O O7 0.333940 0.792954 0.669242
O O8 0.317133 0.852569 0.174901
O O9 0.180635 0.778929 0.052052
O O10 0.000000 0.000000 0.000000
O O11 0.966797 0.175970 0.673256
O O12 0.259540 0.412492 0.131822
O O13 0.184241 0.386372 0.283122
O O14 0.402189 0.053532 0.445992
O O15 0.270436 0.112944 0.952537
O O16 0.600921 0.645233 0.767200
O O17 0.500000 0.000000 0.000000
O O18 0.238096 0.503336 0.718735
#
# Coordination Sequence:
#
# PCOD9063879 Si02
#       8
#     2   2   2   2   2   2   2   2
#     4  12  29  46  75 105 148 202 255 304 382 461
#     4  11  27  52  74 108 152 195 248 318 377 445
#     4  12  26  46  68 109 147 192 242 316 380 443
#     4  11  24  45  73 106 151 191 247 315 369 450
#     4  11  24  44  76 107 138 196 249 304 374 449
#     4  12  24  43  70 109 147 188 246 307 383 445
#     4  11  27  48  76 106 151 198 253 306 379 454
#     4  12  24  45  74 105 152 190 250 308 381 446
#
# _framework density 23.707318999999998
#
# number of rings (size 3 to 8) (size 9 to 14) (size 15 to 20)
#    0.000    0.500    3.750    3.375    8.750    2.000 
#    2.250    0.000    0.000    0.000    0.000    0.000 
#    0.000    0.000    0.000    0.000    0.000    0.000 
#
# Total GULP energy -89404.887178 kJ/mol
# GULP energy per Si atom -5587.805449 kJ/mol
# Density = 2.365336 g / cm^3
# Si number density = 23.707319 Si / 1000 Ang^3
#
#
#
# Elastic Constant Matrix: (Units=GPa)
#
#
# Indices 1 2 3 4 5 6 
#
# 1 39.8114 13.0503 20.7408 -12.6323 -0.7474 -14.7085
# 2 13.0503 156.1433 46.6687 -12.8324 -7.0097 -23.5125
# 3 20.7408 46.6687 102.3208 -20.1459 10.9586 -14.7005
# 4 -12.6323 -12.8324 -20.1459 58.0126 -7.8150 4.8015
# 5 -0.7474 -7.0097 10.9586 -7.8150 29.8431 -0.3755
# 6 -14.7085 -23.5125 -14.7005 4.8015 -0.3755 45.5263
#
#
#
# Elastic Compliance Matrix: (Units=1/GPa)
#
#
# Indices 1 2 3 4 5 6 
#
# 1 0.032530 0.000755 -0.005101 0.005346 0.004375 0.008725
# 2 0.000755 0.008135 -0.003598 0.000924 0.003534 0.003215
# 3 -0.005101 -0.003598 0.013508 0.002007 -0.005400 0.000599
# 4 0.005346 0.000924 0.002007 0.019888 0.004832 0.000795
# 5 0.004375 0.003534 -0.005400 0.004832 0.037713 0.001296
# 6 0.008725 0.003215 0.000599 0.000795 0.001296 0.026565
#
#
# Mechanical properties :
#
#
# Convention : Reuss Voigt Hill
#
# Bulk Modulus (GPa) = 26.11900 51.02168 38.57034
# Shear Modulus (GPa) = 29.94193 41.19743 35.56968
#
# Velocity S-wave (km/s) = 3.55770 4.17316 3.87766
# Velocity P-wave (km/s) = 5.28370 6.69242 6.02935
#
# Compressibility (1/GPa) = 0.03828630
#
# Stress axis : x y z
#
# Youngs Moduli (GPa) = 30.74045 122.91832 74.03067
#
# Poissons Ratio (x) = -0.09285 0.37763
# Poissons Ratio (y) = -0.02322 0.26638
# Poissons Ratio (z) = 0.15680 0.44228
#
# Static dielectric constant tensor:
#      x y z
#    x 1.827740 -0.099210 0.000370 
#    y -0.099210 1.772640 0.061830 
#    z 0.000370 0.061830 1.943060 
# 
# From -- ./inp_files/126913.got.cif
#   From: 2010.05.17/outbox.cif.g08.bks.cpg/sg2_64_cif.got.tgz:126913.got - 2010.06.03 11:33:40.
