data_PCOD9063916
_publ_section_title
;
Structure prediction by ZEFSAII (Michael W. Deem and Ramdas Pophale) SiO2 
 PCOD9063916
Probable space group: P -1
;
_chemical_formula_sum "Si O2"
_cell_formula_units_Z 16
_cell_length_a 8.911309
_cell_length_b 11.323269
_cell_length_c 9.364715
_cell_angle_alpha 68.307225
_cell_angle_beta 47.343373
_cell_angle_gamma 74.145549
_cell_volume 645.367279
_symmetry_space_group_name_H-M "P -1"
_symmetry_group_IT_number 2
_symmetry_cell_setting 'triclinic'
loop_
_space_group_symop_operation_xyz
x,y,z
-x,-y,-z
loop_
_atom_site_type_symbol
_atom_site_label
_atom_site_fract_x
_atom_site_fract_y
_atom_site_fract_z
Si Si1 0.970054 0.800515 0.426244
Si Si2 0.289808 0.934761 0.016186
Si Si3 0.262287 0.975289 0.687357
Si Si4 0.362772 0.744492 0.543422
Si Si5 0.258445 0.141003 0.178549
Si Si6 0.729007 0.592403 0.542607
Si Si7 0.503489 0.659065 0.215575
Si Si8 0.151727 0.495809 0.774820
O O1 0.920356 0.850840 0.594032
O O2 0.854998 0.668895 0.542895
O O3 0.201052 0.812579 0.213369
O O4 0.858033 0.900390 0.345796
O O5 0.217349 0.055260 0.104923
O O6 0.222183 0.945647 0.891545
O O7 0.534968 0.923674 0.859014
O O8 0.239528 0.853537 0.656789
O O9 0.500000 0.000000 0.500000
O O10 0.537665 0.682652 0.565429
O O11 0.448456 0.771582 0.317973
O O12 0.205801 0.638857 0.646900
O O13 0.341596 0.278918 0.021992
O O14 0.646846 0.451445 0.693888
O O15 0.887370 0.573423 0.316658
O O16 0.642730 0.571086 0.270022
O O17 0.000000 0.500000 0.000000
#
# Coordination Sequence:
#
# PCOD9063916 Si02
#       8
#     2   2   2   2   2   2   2   2
#     4  12  25  42  65  97 130 163 214 264 316 377
#     4  11  26  42  63  95 127 170 213 262 312 377
#     4  12  21  39  67  95 124 164 209 264 317 364
#     4   9  18  35  60  89 122 159 205 250 313 364
#     4  11  24  45  64  86 134 173 210 253 320 385
#     4   9  19  38  60  88 126 156 207 261 303 372
#     4   9  20  39  64  87 124 174 203 252 321 375
#     4   9  19  34  59  94 121 156 206 263 305 363
#
# _framework density 24.792085
#
# number of rings (size 3 to 8) (size 9 to 14) (size 15 to 20)
#    0.000    1.750    2.500    3.000    5.250    1.500 
#    4.500    0.625    0.000    0.000    0.000    0.000 
#    0.000    0.000    0.000    0.000    0.000    0.000 
#
# Total GULP energy -89374.740356 kJ/mol
# GULP energy per Si atom -5585.921272 kJ/mol
# Density = 2.473566 g / cm^3
# Si number density = 24.792085 Si / 1000 Ang^3
#
#
#
# Elastic Constant Matrix: (Units=GPa)
#
#
# Indices 1 2 3 4 5 6 
#
# 1 55.1883 22.8841 7.2841 10.2583 6.0016 3.1072
# 2 22.8841 119.8889 22.0970 1.5527 17.6510 23.6553
# 3 7.2841 22.0970 132.0550 6.0418 15.5483 12.0493
# 4 10.2583 1.5527 6.0418 41.9808 3.2318 5.8756
# 5 6.0016 17.6510 15.5483 3.2318 35.0906 4.3102
# 6 3.1072 23.6553 12.0493 5.8756 4.3102 35.1568
#
#
#
# Elastic Compliance Matrix: (Units=1/GPa)
#
#
# Indices 1 2 3 4 5 6 
#
# 1 0.020806 -0.004076 -0.000278 -0.005082 -0.001161 0.001991
# 2 -0.004076 0.011127 -0.000643 0.001926 -0.003964 -0.006742
# 3 -0.000278 -0.000643 0.008249 -0.000599 -0.002995 -0.001903
# 4 -0.005082 0.001926 -0.000599 0.025870 -0.001631 -0.004765
# 5 -0.001161 -0.003964 -0.002995 -0.001631 0.032152 0.000127
# 6 0.001991 -0.006742 -0.001903 -0.004765 0.000127 0.034237
#
#
# Mechanical properties :
#
#
# Convention : Reuss Voigt Hill
#
# Bulk Modulus (GPa) = 33.12714 45.74030 39.43372
# Shear Modulus (GPa) = 32.78758 39.43678 36.11218
#
# Velocity S-wave (km/s) = 3.64057 3.99269 3.82068
# Velocity P-wave (km/s) = 5.57339 6.30436 5.95011
#
# Compressibility (1/GPa) = 0.03018673
#
# Stress axis : x y z
#
# Youngs Moduli (GPa) = 48.06410 89.87551 121.22353
#
# Poissons Ratio (x) = 0.36634 0.03369
# Poissons Ratio (y) = 0.19591 0.07797
# Poissons Ratio (z) = 0.01336 0.05781
#
# Static dielectric constant tensor:
#      x y z
#    x 2.015830 0.010510 -0.017150 
#    y 0.010510 2.011900 -0.053030 
#    z -0.017150 -0.053030 1.979940 
# 
# From -- ./inp_files/186443.got.cif
#   From: 2010.05.17/outbox.cif.g08.bks.cpg/sg2_94_cif.got.tgz:186443.got - 2010.06.03 11:33:40.
