data_PCOD9063639
_publ_section_title
;
Structure prediction by ZEFSAII (Michael W. Deem and Ramdas Pophale) SiO2 
 PCOD9063639
Probable space group: P -1
;
_chemical_formula_sum "Si O2"
_cell_formula_units_Z 16
_cell_length_a 9.354305
_cell_length_b 12.442246
_cell_length_c 14.652716
_cell_angle_alpha 140.402545
_cell_angle_beta 38.484952
_cell_angle_gamma 113.440614
_cell_volume 578.737702
_symmetry_space_group_name_H-M "P -1"
_symmetry_group_IT_number 2
_symmetry_cell_setting 'triclinic'
loop_
_space_group_symop_operation_xyz
x,y,z
-x,-y,-z
loop_
_atom_site_type_symbol
_atom_site_label
_atom_site_fract_x
_atom_site_fract_y
_atom_site_fract_z
Si Si1 0.577474 0.964714 0.598370
Si Si2 0.633841 0.487738 0.021850
Si Si3 0.034611 0.801632 0.975555
Si Si4 0.848376 0.545996 0.200506
Si Si5 0.179640 0.513276 0.560768
Si Si6 0.150323 0.897545 0.585758
Si Si7 0.679737 0.900862 0.715043
Si Si8 0.624974 0.673203 0.847571
O O1 0.767408 0.969160 0.428502
O O2 0.590694 0.757876 0.456688
O O3 0.666792 0.962720 0.655850
O O4 0.276184 0.135905 0.841779
O O5 0.430108 0.689997 0.308416
O O6 0.627135 0.320656 0.975119
O O7 0.500000 0.500000 0.000000
O O8 0.930959 0.448074 0.839940
O O9 0.185431 0.625937 0.857524
O O10 0.170502 0.689666 0.739470
O O11 0.987733 0.994378 0.179154
O O12 0.000000 0.500000 0.000000
O O13 0.328854 0.298328 0.396204
O O14 0.295472 0.468046 0.371539
O O15 0.869172 0.583513 0.738618
O O16 0.944247 0.865713 0.609788
O O17 0.441168 0.111858 0.010103
#
# Coordination Sequence:
#
# PCOD9063639 Si02
#       8
#     2   2   2   2   2   2   2   2
#     4  12  22  39  65  99 132 179 216 269 331 398
#     4  12  23  43  70 103 133 173 217 276 335 390
#     4  12  24  44  62 101 138 177 215 270 338 397
#     4  12  23  39  66  94 139 177 209 265 339 400
#     4  11  24  46  70  93 131 180 229 270 329 392
#     4  12  24  39  65 102 143 166 217 282 332 395
#     4  12  23  42  69 100 125 174 230 275 327 390
#     4  11  24  44  71  97 130 172 229 282 317 385
#
# _framework density 27.646377000000001
#
# number of rings (size 3 to 8) (size 9 to 14) (size 15 to 20)
#    0.000    0.250    6.250    4.875    0.000    0.000 
#    0.000    1.250    0.000    0.000    0.000    0.000 
#    0.000    0.000    0.000    0.000    0.000    0.000 
#
# Total GULP energy -89618.001227 kJ/mol
# GULP energy per Si atom -5601.125077 kJ/mol
# Density = 2.758345 g / cm^3
# Si number density = 27.646377 Si / 1000 Ang^3
#
#
#
# Elastic Constant Matrix: (Units=GPa)
#
#
# Indices 1 2 3 4 5 6 
#
# 1 145.7883 9.7322 25.1463 -4.5169 25.5516 -4.5619
# 2 9.7322 91.6352 28.1815 9.9555 -1.3903 -3.7849
# 3 25.1463 28.1815 126.6237 27.2167 27.6385 2.1665
# 4 -4.5169 9.9555 27.2167 44.5738 -10.5624 0.7919
# 5 25.5516 -1.3903 27.6385 -10.5624 59.3516 -7.5828
# 6 -4.5619 -3.7849 2.1665 0.7919 -7.5828 31.0915
#
#
#
# Elastic Compliance Matrix: (Units=1/GPa)
#
#
# Indices 1 2 3 4 5 6 
#
# 1 0.007569 -0.000614 -0.001001 0.000893 -0.002590 0.000451
# 2 -0.000614 0.012058 -0.002951 -0.000493 0.002103 0.002109
# 3 -0.001001 -0.002951 0.012220 -0.008564 -0.007224 -0.002901
# 4 0.000893 -0.000493 -0.008564 0.030008 0.009207 0.002149
# 5 -0.002590 0.002103 -0.007224 0.009207 0.023775 0.005943
# 6 0.000451 0.002109 -0.002901 0.002149 0.005943 0.034083
#
#
# Mechanical properties :
#
#
# Convention : Reuss Voigt Hill
#
# Bulk Modulus (GPa) = 44.02229 54.46300 49.24265
# Shear Modulus (GPa) = 36.65283 47.06919 41.86101
#
# Velocity S-wave (km/s) = 3.64507 4.13067 3.89544
# Velocity P-wave (km/s) = 5.80287 6.51863 6.17113
#
# Compressibility (1/GPa) = 0.02271576
#
# Stress axis : x y z
#
# Youngs Moduli (GPa) = 132.12474 82.93199 81.83284
#
# Poissons Ratio (x) = 0.05090 0.08190
# Poissons Ratio (y) = 0.08109 0.24148
# Poissons Ratio (z) = 0.13224 0.24472
#
# Static dielectric constant tensor:
#      x y z
#    x 2.169830 0.018710 0.094610 
#    y 0.018710 2.135640 0.019510 
#    z 0.094610 0.019510 2.154850 
# 
# From -- ./inp_files/382349.got.cif
#   From: 2010.05.17/outbox.cif.g08.bks.cpg/sg2_192_cif.got.tgz:382349.got - 2010.06.03 11:33:40.
