data_PCOD9063859
_publ_section_title
;
Structure prediction by ZEFSAII (Michael W. Deem and Ramdas Pophale) SiO2 
 PCOD9063859
Probable space group: P -1
;
_chemical_formula_sum "Si O2"
_cell_formula_units_Z 12
_cell_length_a 17.343873
_cell_length_b 8.357109
_cell_length_c 5.915970
_cell_angle_alpha 93.589745
_cell_angle_beta 53.267575
_cell_angle_gamma 128.496118
_cell_volume 467.737171
_symmetry_space_group_name_H-M "P -1"
_symmetry_group_IT_number 2
_symmetry_cell_setting 'triclinic'
loop_
_space_group_symop_operation_xyz
x,y,z
-x,-y,-z
loop_
_atom_site_type_symbol
_atom_site_label
_atom_site_fract_x
_atom_site_fract_y
_atom_site_fract_z
Si Si1 0.135441 0.170179 0.621825
Si Si2 0.664389 0.882937 0.248468
Si Si3 0.843263 0.512780 0.683601
Si Si4 0.422034 0.504829 0.334096
Si Si5 0.885916 0.210123 0.532848
Si Si6 0.482681 0.903500 0.772501
O O1 0.097053 0.249885 0.502625
O O2 0.282982 0.421034 0.479170
O O3 0.167975 0.021718 0.502516
O O4 0.000000 0.000000 0.000000
O O5 0.549627 0.759527 0.238053
O O6 0.645238 0.681907 0.360087
O O7 0.604959 0.919220 0.554380
O O8 0.812495 0.109401 0.901862
O O9 0.853498 0.352001 0.521242
O O10 0.945799 0.604436 0.723827
O O11 0.679565 0.347626 0.989052
O O12 0.500000 0.500000 0.000000
O O13 0.500000 0.000000 0.500000
O O14 0.500000 0.000000 0.000000
#
# Coordination Sequence:
#
# PCOD9063859 Si02
#       6
#     2   2   2   2   2   2
#     4  12  27  45  76 111 156 205 266 325 396 475
#     4  11  25  46  73 108 155 202 260 328 394 477
#     4  11  27  48  75 110 155 205 262 326 397 475
#     4  11  24  44  75 109 147 202 261 321 395 472
#     4  11  25  50  72 108 157 202 260 323 403 469
#     4  12  29  49  79 118 161 207 267 334 399 478
#
# _framework density 25.655435000000001
#
# number of rings (size 3 to 8) (size 9 to 14) (size 15 to 20)
#    0.000    0.667    3.333    2.500   11.667    0.667 
#    0.000    0.000    0.000    0.000    0.000    0.000 
#    0.000    0.000    0.000    0.000    0.000    0.000 
#
# Total GULP energy -66976.783693 kJ/mol
# GULP energy per Si atom -5581.398641 kJ/mol
# Density = 2.559704 g / cm^3
# Si number density = 25.655435 Si / 1000 Ang^3
#
#
#
# Elastic Constant Matrix: (Units=GPa)
#
#
# Indices 1 2 3 4 5 6 
#
# 1 73.8325 18.7971 10.4731 -4.6547 0.8555 -9.0010
# 2 18.7971 93.3419 34.1533 3.8709 13.8444 -8.4568
# 3 10.4731 34.1533 133.6029 -10.8777 -4.6147 -1.2882
# 4 -4.6547 3.8709 -10.8777 52.5612 -3.6914 -6.9384
# 5 0.8555 13.8444 -4.6147 -3.6914 37.7934 -8.3767
# 6 -9.0010 -8.4568 -1.2882 -6.9384 -8.3767 49.9323
#
#
#
# Elastic Compliance Matrix: (Units=1/GPa)
#
#
# Indices 1 2 3 4 5 6 
#
# 1 0.014757 -0.002978 -0.000158 0.001954 0.001522 0.002679
# 2 -0.002978 0.013585 -0.003615 -0.002341 -0.005485 0.000425
# 3 -0.000158 -0.003615 0.008704 0.002289 0.002693 0.000354
# 4 0.001954 -0.002341 0.002289 0.020583 0.003885 0.003527
# 5 0.001522 -0.005485 0.002693 0.003885 0.030258 0.005031
# 6 0.002679 0.000425 0.000354 0.003527 0.005031 0.021925
#
#
# Mechanical properties :
#
#
# Convention : Reuss Voigt Hill
#
# Bulk Modulus (GPa) = 42.47475 47.51382 44.99428
# Shear Modulus (GPa) = 38.12064 43.88096 41.00080
#
# Velocity S-wave (km/s) = 3.85888 4.14018 4.00200
# Velocity P-wave (km/s) = 6.03709 6.43545 6.23945
#
# Compressibility (1/GPa) = 0.02354340
#
# Stress axis : x y z
#
# Youngs Moduli (GPa) = 67.76520 73.61076 114.88619
#
# Poissons Ratio (x) = 0.21921 0.01816
# Poissons Ratio (y) = 0.20180 0.41535
# Poissons Ratio (z) = 0.01071 0.26613
#
# Static dielectric constant tensor:
#      x y z
#    x 2.055720 -0.069340 0.072110 
#    y -0.069340 2.104270 0.098380 
#    z 0.072110 0.098380 1.917760 
# 
# From -- ./inp_files/107089.got.cif
#   From: 2010.05.17/outbox.cif.g08.bks.cpg/sg2_54_cif.got.tgz:107089.got - 2010.06.03 11:33:40.
