data_PCOD9063101
_publ_section_title
;
Structure prediction by ZEFSAII (Michael W. Deem and Ramdas Pophale) SiO2 
 PCOD9063101
Probable space group: P -1
;
_chemical_formula_sum "Si O2"
_cell_formula_units_Z 14
_cell_length_a 12.386231
_cell_length_b 9.084326
_cell_length_c 7.316759
_cell_angle_alpha 60.792682
_cell_angle_beta 118.590291
_cell_angle_gamma 83.158338
_cell_volume 560.230270
_symmetry_space_group_name_H-M "P -1"
_symmetry_group_IT_number 2
_symmetry_cell_setting 'triclinic'
loop_
_space_group_symop_operation_xyz
x,y,z
-x,-y,-z
loop_
_atom_site_type_symbol
_atom_site_label
_atom_site_fract_x
_atom_site_fract_y
_atom_site_fract_z
Si Si1 0.322079 0.972518 0.126336
Si Si2 0.920611 0.165485 0.480682
Si Si3 0.671008 0.664800 0.206636
Si Si4 0.849893 0.234956 0.752879
Si Si5 0.363414 0.202097 0.481715
Si Si6 0.354159 0.847980 0.800419
Si Si7 0.893525 0.430447 0.022532
O O1 0.516997 0.710739 0.984736
O O2 0.477257 0.879413 0.389462
O O3 0.277050 0.199384 0.941996
O O4 0.333178 0.905184 0.963713
O O5 0.959976 0.126368 0.746745
O O6 0.759092 0.219634 0.295154
O O7 0.944805 0.333022 0.316920
O O8 0.000000 0.000000 0.500000
O O9 0.766233 0.443330 0.458453
O O10 0.644229 0.751031 0.337480
O O11 0.889854 0.290457 0.946324
O O12 0.758917 0.125842 0.779569
O O13 0.317126 0.037549 0.537422
O O14 0.258622 0.395602 0.186497
O O15 0.000000 0.500000 0.000000
#
# Coordination Sequence:
#
# PCOD9063101 Si02
#       7
#     2   2   2   2   2   2   2
#     4   9  17  38  68 101 132 170 211 272 340 389
#     4  12  27  44  63  95 131 175 230 275 321 397
#     4   8  18  35  66 103 132 167 213 270 330 394
#     4  11  24  43  70  99 130 174 221 275 336 389
#     4   8  17  35  67  97 133 170 211 270 329 387
#     4   9  17  38  64  95 136 169 211 270 326 390
#     4  11  24  45  67  94 130 178 225 269 329 393
#
# _framework density 24.989723000000001
#
# number of rings (size 3 to 8) (size 9 to 14) (size 15 to 20)
#    0.000    2.286    1.429    2.571    2.000    3.429 
#    5.143    1.429    0.000    0.000    0.000    0.000 
#    0.000    0.000    0.000    0.000    0.000    0.000 
#
# Total GULP energy -78289.166338 kJ/mol
# GULP energy per Si atom -5592.083310 kJ/mol
# Density = 2.493285 g / cm^3
# Si number density = 24.989723 Si / 1000 Ang^3
#
#
#
# Elastic Constant Matrix: (Units=GPa)
#
#
# Indices 1 2 3 4 5 6 
#
# 1 118.3583 58.5181 38.9125 -8.7590 -37.2984 29.6199
# 2 58.5181 90.9148 31.7422 9.7040 -12.3367 4.9174
# 3 38.9125 31.7422 95.8387 -11.6545 -25.2807 -1.7332
# 4 -8.7590 9.7040 -11.6545 40.8101 3.2002 -9.1997
# 5 -37.2984 -12.3367 -25.2807 3.2002 43.3532 3.4499
# 6 29.6199 4.9174 -1.7332 -9.1997 3.4499 43.3570
#
#
#
# Elastic Compliance Matrix: (Units=1/GPa)
#
#
# Indices 1 2 3 4 5 6 
#
# 1 0.025596 -0.012942 -0.001083 0.002968 0.018835 -0.016930
# 2 -0.012942 0.020190 -0.004228 -0.006929 -0.007783 0.005532
# 3 -0.001083 -0.004228 0.014434 0.004987 0.005723 0.002399
# 4 0.002968 -0.006929 0.004987 0.029290 0.000922 0.005099
# 5 0.018835 -0.007783 0.005723 0.000922 0.041508 -0.014863
# 6 -0.016930 0.005532 0.002399 0.005099 -0.014863 0.036363
#
#
# Mechanical properties :
#
#
# Convention : Reuss Voigt Hill
#
# Bulk Modulus (GPa) = 42.16998 62.60640 52.38819
# Shear Modulus (GPa) = 23.60829 37.23332 30.42081
#
# Velocity S-wave (km/s) = 3.07696 3.86417 3.49281
# Velocity P-wave (km/s) = 5.43463 6.70942 6.10539
#
# Compressibility (1/GPa) = 0.02371355
#
# Stress axis : x y z
#
# Youngs Moduli (GPa) = 39.06908 49.52965 69.28288
#
# Poissons Ratio (x) = 0.64102 0.07502
# Poissons Ratio (y) = 0.50564 0.29292
# Poissons Ratio (z) = 0.04230 0.20941
#
# Static dielectric constant tensor:
#      x y z
#    x 1.944540 -0.071000 -0.009310 
#    y -0.071000 2.026170 -0.025470 
#    z -0.009310 -0.025470 2.006900 
# 
# From -- ./inp_files/325977.got.cif
#   From: 2010.05.17/outbox.cif.g08.bks.cpg/sg2_163_cif.got.tgz:325977.got - 2010.06.03 11:33:40.
