data_PCOD9063409
_publ_section_title
;
Structure prediction by ZEFSAII (Michael W. Deem and Ramdas Pophale) SiO2 
 PCOD9063409
Probable space group: P -1
;
_chemical_formula_sum "Si O2"
_cell_formula_units_Z 14
_cell_length_a 12.558102
_cell_length_b 11.755825
_cell_length_c 12.542225
_cell_angle_alpha 144.943189
_cell_angle_beta 143.274849
_cell_angle_gamma 39.616893
_cell_volume 599.782085
_symmetry_space_group_name_H-M "P -1"
_symmetry_group_IT_number 2
_symmetry_cell_setting 'triclinic'
loop_
_space_group_symop_operation_xyz
x,y,z
-x,-y,-z
loop_
_atom_site_type_symbol
_atom_site_label
_atom_site_fract_x
_atom_site_fract_y
_atom_site_fract_z
Si Si1 0.498302 0.695273 0.574407
Si Si2 0.083528 0.957029 0.154705
Si Si3 0.209374 0.110858 0.956500
Si Si4 0.397248 0.631556 0.769962
Si Si5 0.669864 0.472534 0.035939
Si Si6 0.151851 0.106644 0.672362
Si Si7 0.976640 0.655821 0.467127
O O1 0.500000 0.500000 0.500000
O O2 0.510645 0.579206 0.383877
O O3 0.328297 0.911515 0.622547
O O4 0.680564 0.760497 0.794053
O O5 0.953019 0.902381 0.101065
O O6 0.121622 0.158362 0.387072
O O7 0.267489 0.758191 0.138344
O O8 0.000000 0.000000 0.000000
O O9 0.176874 0.204516 0.882118
O O10 0.328433 0.863603 0.840721
O O11 0.199252 0.604824 0.629420
O O12 0.561971 0.640552 0.989128
O O13 0.859971 0.496397 0.254798
O O14 0.500000 0.500000 0.000000
O O15 0.062181 0.262844 0.623692
O O16 0.000000 0.000000 0.500000
#
# Coordination Sequence:
#
# PCOD9063409 Si02
#       7
#     2   2   2   2   2   2   2
#     4  12  24  39  65 102 135 179 225 278 335 404
#     4  11  25  47  75  99 134 180 228 281 346 401
#     4  11  24  44  68  98 138 183 223 282 340 402
#     4  11  24  44  68 101 139 176 233 277 339 402
#     4  12  27  45  72 104 133 181 233 280 339 406
#     4  12  22  43  69  97 142 180 222 277 346 405
#     4  11  25  47  70 102 141 180 223 286 340 403
#
# _framework density 23.341811
#
# number of rings (size 3 to 8) (size 9 to 14) (size 15 to 20)
#    0.000    0.571    4.286    4.714    2.000    4.000 
#    0.000    2.143    0.000    0.000    0.000    0.000 
#    0.000    0.000    0.000    0.000    0.000    0.000 
#
# Total GULP energy -78134.820415 kJ/mol
# GULP energy per Si atom -5581.058601 kJ/mol
# Density = 2.328868 g / cm^3
# Si number density = 23.341811 Si / 1000 Ang^3
#
#
#
# Elastic Constant Matrix: (Units=GPa)
#
#
# Indices 1 2 3 4 5 6 
#
# 1 82.6370 35.0283 14.5455 6.3767 -21.2871 -3.1962
# 2 35.0283 69.8686 -0.1104 -9.4305 -14.4607 -3.5833
# 3 14.5455 -0.1104 99.1815 6.6994 -2.1422 3.5017
# 4 6.3767 -9.4305 6.6994 27.1252 -4.0234 -10.0021
# 5 -21.2871 -14.4607 -2.1422 -4.0234 39.6661 -5.1035
# 6 -3.1962 -3.5833 3.5017 -10.0021 -5.1035 35.9075
#
#
#
# Elastic Compliance Matrix: (Units=1/GPa)
#
#
# Indices 1 2 3 4 5 6 
#
# 1 0.018112 -0.008636 -0.002154 -0.005785 0.005893 0.000187
# 2 -0.008636 0.021669 0.000379 0.012284 0.005242 0.005524
# 3 -0.002154 0.000379 0.010652 -0.002938 -0.001018 -0.002156
# 4 -0.005785 0.012284 -0.002938 0.050465 0.008425 0.016252
# 5 0.005893 0.005242 -0.001018 0.008425 0.032120 0.008059
# 6 0.000187 0.005524 -0.002156 0.016252 0.008059 0.034300
#
#
# Mechanical properties :
#
#
# Convention : Reuss Voigt Hill
#
# Bulk Modulus (GPa) = 33.77137 38.95708 36.36422
# Shear Modulus (GPa) = 25.25115 34.02134 29.63625
#
# Velocity S-wave (km/s) = 3.29264 3.82190 3.56710
# Velocity P-wave (km/s) = 5.38098 6.01681 5.70775
#
# Compressibility (1/GPa) = 0.02961088
#
# Stress axis : x y z
#
# Youngs Moduli (GPa) = 55.21074 46.14881 93.88333
#
# Poissons Ratio (x) = 0.39852 0.20226
# Poissons Ratio (y) = 0.47678 -0.03558
# Poissons Ratio (z) = 0.11895 -0.01749
#
# Static dielectric constant tensor:
#      x y z
#    x 1.786720 0.006080 0.045930 
#    y 0.006080 2.197650 0.087740 
#    z 0.045930 0.087740 1.891600 
# 
# From -- ./inp_files/429156.got.cif
#   From: 2010.05.17/outbox.cif.g08.bks.cpg/sg2_215_cif.got.tgz:429156.got - 2010.06.03 11:33:40.
