data_PCOD9063782
_publ_section_title
;
Structure prediction by ZEFSAII (Michael W. Deem and Ramdas Pophale) SiO2 
 PCOD9063782
Probable space group: P -1
;
_chemical_formula_sum "Si O2"
_cell_formula_units_Z 16
_cell_length_a 17.532063
_cell_length_b 21.321040
_cell_length_c 8.470203
_cell_angle_alpha 41.961735
_cell_angle_beta 39.136429
_cell_angle_gamma 19.750477
_cell_volume 673.936965
_symmetry_space_group_name_H-M "P -1"
_symmetry_group_IT_number 2
_symmetry_cell_setting 'triclinic'
loop_
_space_group_symop_operation_xyz
x,y,z
-x,-y,-z
loop_
_atom_site_type_symbol
_atom_site_label
_atom_site_fract_x
_atom_site_fract_y
_atom_site_fract_z
Si Si1 0.316739 0.632877 0.901817
Si Si2 0.773973 0.488599 0.218719
Si Si3 0.137306 0.381381 0.665520
Si Si4 0.922535 0.027435 0.895924
Si Si5 0.527024 0.971291 0.696476
Si Si6 0.822375 0.262367 0.397691
Si Si7 0.679995 0.089984 0.917956
Si Si8 0.906925 0.392300 0.538123
O O1 0.148287 0.654038 0.163523
O O2 0.500000 0.500000 0.000000
O O3 0.374318 0.597797 0.688919
O O4 0.174971 0.823229 0.805316
O O5 0.848359 0.348073 0.264482
O O6 0.512948 0.701897 0.198701
O O7 0.788577 0.454882 0.442156
O O8 0.955746 0.448850 0.946923
O O9 0.193638 0.443561 0.536554
O O10 0.000000 0.500000 0.500000
O O11 0.360479 0.161932 0.687427
O O12 0.813288 0.192051 0.681363
O O13 0.741742 0.065022 0.053905
O O14 0.000000 0.000000 0.000000
O O15 0.809596 0.789279 0.614213
O O16 0.500000 0.000000 0.500000
O O17 0.428155 0.932026 0.943442
O O18 0.066087 0.070428 0.274291
#
# Coordination Sequence:
#
# PCOD9063782 Si02
#       8
#     2   2   2   2   2   2   2   2
#     4  11  26  48  75 107 147 193 248 309 369 442
#     4  12  26  44  73 110 147 193 246 301 373 447
#     4  12  24  45  72 104 146 197 243 300 370 438
#     4  11  26  48  72 110 145 192 256 308 376 444
#     4  12  23  44  74 102 145 193 242 306 369 432
#     4  11  25  48  74 104 149 196 245 308 378 439
#     4  11  24  44  74 100 150 192 241 308 374 437
#     4  12  27  45  72 111 148 189 252 300 366 456
#
# _framework density 23.741092999999999
#
# number of rings (size 3 to 8) (size 9 to 14) (size 15 to 20)
#    0.000    0.500    3.750    4.875    5.250    2.000 
#    2.250    0.000    0.000    0.000    0.000    0.000 
#    0.000    0.000    0.000    0.000    0.000    0.000 
#
# Total GULP energy -89440.735501 kJ/mol
# GULP energy per Si atom -5590.045969 kJ/mol
# Density = 2.368706 g / cm^3
# Si number density = 23.741093 Si / 1000 Ang^3
#
#
#
# Elastic Constant Matrix: (Units=GPa)
#
#
# Indices 1 2 3 4 5 6 
#
# 1 155.2527 50.9034 28.4471 -25.0564 16.8689 7.1227
# 2 50.9034 149.2621 24.0621 -29.5309 -5.6404 5.8643
# 3 28.4471 24.0621 110.5824 -21.3931 -0.6939 6.3666
# 4 -25.0564 -29.5309 -21.3931 38.1407 -1.3292 -4.3516
# 5 16.8689 -5.6404 -0.6939 -1.3292 45.0702 -7.7917
# 6 7.1227 5.8643 6.3666 -4.3516 -7.7917 51.0871
#
#
#
# Elastic Compliance Matrix: (Units=1/GPa)
#
#
# Indices 1 2 3 4 5 6 
#
# 1 0.008233 -0.002152 -0.001047 0.002915 -0.003463 -0.001050
# 2 -0.002152 0.008572 -0.000312 0.005131 0.002043 0.000104
# 3 -0.001047 -0.000312 0.010353 0.004826 0.000549 -0.000614
# 4 0.002915 0.005131 0.004826 0.035020 0.000922 0.001527
# 5 -0.003463 0.002043 0.000549 0.000922 0.024465 0.003990
# 6 -0.001050 0.000104 -0.000614 0.001527 0.003990 0.020524
#
#
# Mechanical properties :
#
#
# Convention : Reuss Voigt Hill
#
# Bulk Modulus (GPa) = 49.66240 69.10251 59.38246
# Shear Modulus (GPa) = 41.35601 47.63857 44.49729
#
# Velocity S-wave (km/s) = 4.17821 4.48435 4.33398
# Velocity P-wave (km/s) = 6.65134 7.48214 7.07894
#
# Compressibility (1/GPa) = 0.02013596
#
# Stress axis : x y z
#
# Youngs Moduli (GPa) = 121.45656 116.65680 96.59231
#
# Poissons Ratio (x) = 0.25104 0.10114
# Poissons Ratio (y) = 0.26137 0.03015
# Poissons Ratio (z) = 0.12718 0.03641
#
# Static dielectric constant tensor:
#      x y z
#    x 1.490640 0.137980 0.283010 
#    y 0.137980 1.684690 -0.096960 
#    z 0.283010 -0.096960 1.723560 
# 
# From -- ./inp_files/338077.got.cif
#   From: 2010.05.17/outbox.cif.g08.bks.cpg/sg2_170_cif.got.tgz:338077.got - 2010.06.03 11:33:40.
