data_PCOD9063844
_publ_section_title
;
Structure prediction by ZEFSAII (Michael W. Deem and Ramdas Pophale) SiO2 
 PCOD9063844
Probable space group: P -1
;
_chemical_formula_sum "Si O2"
_cell_formula_units_Z 13
_cell_length_a 13.001130
_cell_length_b 10.143585
_cell_length_c 9.915212
_cell_angle_alpha 41.187795
_cell_angle_beta 135.398781
_cell_angle_gamma 137.286204
_cell_volume 545.821216
_symmetry_space_group_name_H-M "P -1"
_symmetry_group_IT_number 2
_symmetry_cell_setting 'triclinic'
loop_
_space_group_symop_operation_xyz
x,y,z
-x,-y,-z
loop_
_atom_site_type_symbol
_atom_site_label
_atom_site_fract_x
_atom_site_fract_y
_atom_site_fract_z
Si Si1 0.320071 0.420227 0.700539
Si Si2 0.910346 0.733816 0.633405
Si Si3 0.500000 0.000000 0.000000
Si Si4 0.466810 0.123512 0.152378
Si Si5 0.824151 0.447054 0.042078
Si Si6 0.709463 0.166896 0.556416
Si Si7 0.064694 0.256211 0.823675
O O1 0.253397 0.342500 0.548975
O O2 0.360113 0.674047 0.561156
O O3 0.169839 0.300960 0.753290
O O4 0.459467 0.351593 0.928645
O O5 0.862062 0.628056 0.818077
O O6 0.000000 0.000000 0.500000
O O7 0.031910 0.634967 0.765093
O O8 0.589200 0.029425 0.913700
O O9 0.653903 0.231560 0.023940
O O10 0.625871 0.118369 0.370562
O O11 0.341488 0.030034 0.232680
O O12 0.838089 0.579454 0.091609
O O13 0.899437 0.281697 0.629028
O O14 0.000000 0.000000 0.000000
#
# Coordination Sequence:
#
# PCOD9063844 Si02
#       7
#     2   2   1   2   2   2   2
#     4  12  23  43  72 102 138 190 244 302 368 439
#     4  11  24  44  75 105 148 196 251 304 376 443
#     4  12  26  48  72 104 158 194 244 312 374 446
#     4  11  26  46  68 103 148 189 239 306 375 443
#     4  11  26  47  71 110 152 196 247 311 369 451
#     4  11  24  46  70 102 144 192 242 309 368 433
#     4  12  24  45  77 109 145 192 259 310 368 443
#
# _framework density 23.817322999999998
#
# number of rings (size 3 to 8) (size 9 to 14) (size 15 to 20)
#    0.000    0.615    3.077    4.615    4.308    0.000 
#    2.769    3.846    0.000    0.000    0.000    0.000 
#    0.000    0.000    0.000    0.000    0.000    0.000 
#
# Total GULP energy -72498.417036 kJ/mol
# GULP energy per Si atom -5576.801310 kJ/mol
# Density = 2.376311 g / cm^3
# Si number density = 23.817323 Si / 1000 Ang^3
#
#
#
# Elastic Constant Matrix: (Units=GPa)
#
#
# Indices 1 2 3 4 5 6 
#
# 1 63.7261 8.1116 32.7097 20.7120 2.1269 12.0406
# 2 8.1116 97.8004 34.9501 11.2757 5.6410 5.6343
# 3 32.7097 34.9501 139.9263 -1.2235 2.5399 -3.5425
# 4 20.7120 11.2757 -1.2235 36.4117 1.8934 -7.2368
# 5 2.1269 5.6410 2.5399 1.8934 27.0310 2.9328
# 6 12.0406 5.6343 -3.5425 -7.2368 2.9328 44.5725
#
#
#
# Elastic Compliance Matrix: (Units=1/GPa)
#
#
# Indices 1 2 3 4 5 6 
#
# 1 0.027824 0.003388 -0.007828 -0.019503 0.000482 -0.011765
# 2 0.003388 0.012452 -0.004026 -0.006584 -0.001616 -0.003772
# 3 -0.007828 -0.004026 0.010168 0.006980 -0.000487 0.004597
# 4 -0.019503 -0.006584 0.006980 0.043715 -0.002318 0.013906
# 5 0.000482 -0.001616 -0.000487 -0.002318 0.037809 -0.002829
# 6 -0.011765 -0.003772 0.004597 0.013906 -0.002829 0.028899
#
#
# Mechanical properties :
#
#
# Convention : Reuss Voigt Hill
#
# Bulk Modulus (GPa) = 29.83856 50.33284 40.08570
# Shear Modulus (GPa) = 26.45907 36.64847 31.55377
#
# Velocity S-wave (km/s) = 3.33666 3.92692 3.64376
# Velocity P-wave (km/s) = 5.23447 6.46063 5.87960
#
# Compressibility (1/GPa) = 0.03351368
#
# Stress axis : x y z
#
# Youngs Moduli (GPa) = 35.93983 80.30645 98.34492
#
# Poissons Ratio (x) = -0.27209 0.76981
# Poissons Ratio (y) = -0.12177 0.39594
# Poissons Ratio (z) = 0.28133 0.32331
#
# Static dielectric constant tensor:
#      x y z
#    x 1.905780 0.038640 -0.015500 
#    y 0.038640 1.905350 -0.010740 
#    z -0.015500 -0.010740 1.917600 
# 
# From -- ./inp_files/242333.got.cif
#   From: 2010.05.17/outbox.cif.g08.bks.cpg/sg2_122_cif.got.tgz:242333.got - 2010.06.03 11:33:40.
