data_PCOD9063931
_publ_section_title
;
Structure prediction by ZEFSAII (Michael W. Deem and Ramdas Pophale) SiO2 
 PCOD9063931
Probable space group: P -1
;
_chemical_formula_sum "Si O2"
_cell_formula_units_Z 16
_cell_length_a 14.846256
_cell_length_b 9.453414
_cell_length_c 9.766215
_cell_angle_alpha 100.853484
_cell_angle_beta 143.260316
_cell_angle_gamma 69.217030
_cell_volume 755.166059
_symmetry_space_group_name_H-M "P -1"
_symmetry_group_IT_number 2
_symmetry_cell_setting 'triclinic'
loop_
_space_group_symop_operation_xyz
x,y,z
-x,-y,-z
loop_
_atom_site_type_symbol
_atom_site_label
_atom_site_fract_x
_atom_site_fract_y
_atom_site_fract_z
Si Si1 0.598575 0.076269 0.728374
Si Si2 0.134808 0.016819 0.569616
Si Si3 0.480362 0.873485 0.055240
Si Si4 0.423776 0.411130 0.499422
Si Si5 0.101648 0.361798 0.004458
Si Si6 0.648546 0.524597 0.260417
Si Si7 0.027831 0.061820 0.899175
Si Si8 0.005907 0.359958 0.577513
O O1 0.559987 0.252580 0.675938
O O2 0.500000 0.000000 0.500000
O O3 0.539693 0.060481 0.805044
O O4 0.788902 0.008935 0.940612
O O5 0.105902 0.197338 0.597016
O O6 0.301603 0.887949 0.793774
O O7 0.000000 0.000000 0.500000
O O8 0.089578 0.979848 0.356379
O O9 0.614309 0.703842 0.204866
O O10 0.500000 0.000000 0.000000
O O11 0.500000 0.500000 0.500000
O O12 0.282788 0.355074 0.256587
O O13 0.365017 0.486745 0.592133
O O14 0.021841 0.235899 0.927191
O O15 0.000000 0.500000 0.000000
O O16 0.084220 0.370886 0.821334
O O17 0.816676 0.402635 0.391814
O O18 0.500000 0.500000 0.000000
O O19 0.000000 0.000000 0.000000
O O20 0.000000 0.500000 0.500000
#
# Coordination Sequence:
#
# PCOD9063931 Si02
#       8
#     2   2   2   2   2   2   2   2
#     4  11  24  45  67 100 144 178 236 294 345 425
#     4  12  24  48  72 101 144 187 245 293 356 424
#     4  11  25  44  71  99 137 186 231 290 352 421
#     4  11  27  46  72 101 143 192 234 293 362 427
#     4  12  26  48  70 105 148 183 244 295 352 431
#     4  11  26  45  66 103 145 179 234 294 353 426
#     4  12  29  46  76 105 142 195 239 298 361 429
#     4  12  27  44  74 106 146 191 235 301 362 424
#
# _framework density 21.187393
#
# number of rings (size 3 to 8) (size 9 to 14) (size 15 to 20)
#    0.000    0.500    5.000    1.500    8.750    1.000 
#    0.000    0.000    0.000    0.000    0.000    0.000 
#    0.000    0.000    0.000    0.000    0.000    0.000 
#
# Total GULP energy -89215.658537 kJ/mol
# GULP energy per Si atom -5575.978659 kJ/mol
# Density = 2.113917 g / cm^3
# Si number density = 21.187393 Si / 1000 Ang^3
#
#
#
# Elastic Constant Matrix: (Units=GPa)
#
#
# Indices 1 2 3 4 5 6 
#
# 1 74.1302 49.8516 20.9105 7.2373 -32.7340 24.2225
# 2 49.8516 112.8146 24.2037 0.3215 -26.8962 1.2336
# 3 20.9105 24.2037 131.6584 23.1517 -25.8744 -7.3767
# 4 7.2373 0.3215 23.1517 34.2831 -6.6689 -1.4575
# 5 -32.7340 -26.8962 -25.8744 -6.6689 48.9942 -18.4197
# 6 24.2225 1.2336 -7.3767 -1.4575 -18.4197 38.3286
#
#
#
# Elastic Compliance Matrix: (Units=1/GPa)
#
#
# Indices 1 2 3 4 5 6 
#
# 1 0.029937 -0.011180 -0.001513 -0.004616 0.006450 -0.015927
# 2 -0.011180 0.014772 -0.000238 0.003588 0.004289 0.008741
# 3 -0.001513 -0.000238 0.010198 -0.005255 0.005558 0.005398
# 4 -0.004616 0.003588 -0.005255 0.034300 0.002371 0.004234
# 5 0.006450 0.004289 0.005558 0.002371 0.035620 0.014064
# 6 -0.015927 0.008741 0.005398 0.004234 0.014064 0.043833
#
#
# Mechanical properties :
#
#
# Convention : Reuss Voigt Hill
#
# Bulk Modulus (GPa) = 34.42745 56.50388 45.46566
# Shear Modulus (GPa) = 24.48536 39.23035 31.85786
#
# Velocity S-wave (km/s) = 3.40318 4.30768 3.88186
# Velocity P-wave (km/s) = 5.63263 7.17412 6.44959
#
# Compressibility (1/GPa) = 0.02904659
#
# Stress axis : x y z
#
# Youngs Moduli (GPa) = 33.40304 67.69512 98.05514
#
# Poissons Ratio (x) = 0.75680 0.14833
# Poissons Ratio (y) = 0.37343 0.02338
# Poissons Ratio (z) = 0.05053 0.01614
#
# Static dielectric constant tensor:
#      x y z
#    x 1.789230 -0.024990 0.031860 
#    y -0.024990 2.359140 0.349090 
#    z 0.031860 0.349090 2.012840 
# 
# From -- ./inp_files/299002.got.cif
#   From: 2010.05.17/outbox.cif.g08.bks.cpg/sg2_150_cif.got.tgz:299002.got - 2010.06.03 11:33:40.
