data_PCOD9063438
_publ_section_title
;
Structure prediction by ZEFSAII (Michael W. Deem and Ramdas Pophale) SiO2 
 PCOD9063438
Probable space group: P -1
;
_chemical_formula_sum "Si O2"
_cell_formula_units_Z 10
_cell_length_a 12.439601
_cell_length_b 9.927438
_cell_length_c 9.382160
_cell_angle_alpha 150.324478
_cell_angle_beta 111.538886
_cell_angle_gamma 54.725237
_cell_volume 441.563934
_symmetry_space_group_name_H-M "P -1"
_symmetry_group_IT_number 2
_symmetry_cell_setting 'triclinic'
loop_
_space_group_symop_operation_xyz
x,y,z
-x,-y,-z
loop_
_atom_site_type_symbol
_atom_site_label
_atom_site_fract_x
_atom_site_fract_y
_atom_site_fract_z
Si Si1 0.882400 0.006261 0.345911
Si Si2 0.985499 0.297782 0.179984
Si Si3 0.426663 0.368702 0.253204
Si Si4 0.593313 0.572700 0.019961
Si Si5 0.240972 0.137340 0.598786
O O1 0.742454 0.377071 0.595678
O O2 0.832169 0.810518 0.235413
O O3 0.000000 0.000000 0.500000
O O4 0.926963 0.856715 0.069452
O O5 0.000000 0.500000 0.500000
O O6 0.842649 0.587366 0.305724
O O7 0.000000 0.000000 0.000000
O O8 0.500000 0.500000 0.500000
O O9 0.469123 0.362967 0.107156
O O10 0.500000 0.000000 0.000000
O O11 0.735830 0.205939 0.751031
O O12 0.500000 0.500000 0.000000
O O13 0.623020 0.851409 0.311376
#
# Coordination Sequence:
#
# PCOD9063438 Si02
#       5
#     2   2   2   2   2
#     4  11  25  49  78 104 146 204 245 287 361 457
#     4  12  26  42  67 108 144 180 238 311 364 412
#     4  11  25  44  69 107 142 182 240 303 360 422
#     4  11  24  44  68  96 135 187 236 291 354 429
#     4  11  24  45  68  97 136 189 244 284 350 442
#
# _framework density 22.646777
#
# number of rings (size 3 to 8) (size 9 to 14) (size 15 to 20)
#    0.000    0.800    0.000    8.400    0.000   11.200 
#    0.000    0.000    0.000    0.000    0.000    0.000 
#    0.000    0.000    0.000    0.000    0.000    0.000 
#
# Total GULP energy -55692.478430 kJ/mol
# GULP energy per Si atom -5569.247843 kJ/mol
# Density = 2.259523 g / cm^3
# Si number density = 22.646777 Si / 1000 Ang^3
#
#
#
# Elastic Constant Matrix: (Units=GPa)
#
#
# Indices 1 2 3 4 5 6 
#
# 1 113.9693 58.8518 50.8432 -23.8101 10.1809 16.3011
# 2 58.8518 189.1100 77.7529 0.5521 7.3387 11.0308
# 3 50.8432 77.7529 164.4450 -5.6390 31.7805 4.3499
# 4 -23.8101 0.5521 -5.6390 50.5559 9.4938 -2.4897
# 5 10.1809 7.3387 31.7805 9.4938 37.0665 -0.2935
# 6 16.3011 11.0308 4.3499 -2.4897 -0.2935 47.7635
#
#
#
# Elastic Compliance Matrix: (Units=1/GPa)
#
#
# Indices 1 2 3 4 5 6 
#
# 1 0.013285 -0.003145 -0.001669 0.006561 -0.003302 -0.003334
# 2 -0.003145 0.007500 -0.003171 -0.002451 0.002722 -0.000481
# 3 -0.001669 -0.003171 0.009615 0.001773 -0.007608 0.000472
# 4 0.006561 -0.002451 0.001773 0.024791 -0.009191 -0.000599
# 5 -0.003302 0.002722 -0.007608 -0.009191 0.036231 0.000935
# 6 -0.003334 -0.000481 0.000472 -0.000599 0.000935 0.022117
#
#
# Mechanical properties :
#
#
# Convention : Reuss Voigt Hill
#
# Bulk Modulus (GPa) = 69.29983 93.60223 81.45103
# Shear Modulus (GPa) = 37.22434 45.74896 41.48665
#
# Velocity S-wave (km/s) = 4.05865 4.49944 4.28471
# Velocity P-wave (km/s) = 7.25467 8.27130 7.77961
#
# Compressibility (1/GPa) = 0.01443005
#
# Stress axis : x y z
#
# Youngs Moduli (GPa) = 75.27039 133.33310 104.00119
#
# Poissons Ratio (x) = 0.41928 0.17362
# Poissons Ratio (y) = 0.23670 0.32982
# Poissons Ratio (z) = 0.12566 0.42284
#
# Static dielectric constant tensor:
#      x y z
#    x 1.937470 -0.026270 -0.117870 
#    y -0.026270 1.809550 0.066800 
#    z -0.117870 0.066800 2.098620 
# 
# From -- ./inp_files/241753.got.cif
#   From: 2010.05.17/outbox.cif.g08.bks.cpg/sg2_121_cif.got.tgz:241753.got - 2010.06.03 11:33:40.
