data_PCOD9063388
_publ_section_title
;
Structure prediction by ZEFSAII (Michael W. Deem and Ramdas Pophale) SiO2 
 PCOD9063388
Probable space group: P -1
;
_chemical_formula_sum "Si O2"
_cell_formula_units_Z 14
_cell_length_a 9.613762
_cell_length_b 8.865705
_cell_length_c 22.106898
_cell_angle_alpha 133.871577
_cell_angle_beta 28.568195
_cell_angle_gamma 132.406489
_cell_volume 637.648015
_symmetry_space_group_name_H-M "P -1"
_symmetry_group_IT_number 2
_symmetry_cell_setting 'triclinic'
loop_
_space_group_symop_operation_xyz
x,y,z
-x,-y,-z
loop_
_atom_site_type_symbol
_atom_site_label
_atom_site_fract_x
_atom_site_fract_y
_atom_site_fract_z
Si Si1 0.758499 0.637320 0.646162
Si Si2 0.181816 0.073720 0.636473
Si Si3 0.187332 0.431834 0.633278
Si Si4 0.821702 0.784737 0.079466
Si Si5 0.290804 0.461643 0.229019
Si Si6 0.263575 0.768835 0.795771
Si Si7 0.858568 0.029255 0.869107
O O1 0.624957 0.539124 0.732948
O O2 0.526751 0.658906 0.688954
O O3 0.000000 0.500000 0.500000
O O4 0.934468 0.872985 0.656819
O O5 0.196571 0.242060 0.623744
O O6 0.048914 0.139787 0.769621
O O7 0.500000 0.000000 0.500000
O O8 0.500000 0.500000 0.500000
O O9 0.122701 0.622882 0.753902
O O10 0.940412 0.394203 0.664657
O O11 0.594465 0.561876 0.108085
O O12 0.005538 0.852538 0.089441
O O13 0.655554 0.983930 0.186096
O O14 0.041809 0.770440 0.936563
O O15 0.124748 0.220872 0.211913
O O16 0.500000 0.000000 0.000000
#
# Coordination Sequence:
#
# PCOD9063388 Si02
#       7
#     2   2   2   2   2   2   2
#     4  11  24  44  67 103 137 183 239 291 350 428
#     4  11  25  43  69 102 142 187 234 293 363 420
#     4  12  25  46  71 103 145 186 235 295 354 427
#     4  11  25  45  72 103 142 185 239 295 353 425
#     4  11  25  43  70 101 139 182 234 285 359 414
#     4  11  25  45  69 103 144 182 239 292 354 425
#     4  11  25  46  69 105 146 182 235 297 355 430
#
# _framework density 21.955687999999999
#
# number of rings (size 3 to 8) (size 9 to 14) (size 15 to 20)
#    0.000    0.857    1.429    6.000    6.000    2.857 
#    0.000    2.857    0.000    0.000    0.000    0.000 
#    0.000    0.000    0.000    0.000    0.000    0.000 
#
# Total GULP energy -78208.364774 kJ/mol
# GULP energy per Si atom -5586.311770 kJ/mol
# Density = 2.190572 g / cm^3
# Si number density = 21.955688 Si / 1000 Ang^3
#
#
#
# Elastic Constant Matrix: (Units=GPa)
#
#
# Indices 1 2 3 4 5 6 
#
# 1 110.8786 18.7925 22.7673 -12.3501 -8.0091 -26.5999
# 2 18.7925 78.2426 8.8845 -19.1360 14.0409 -24.1952
# 3 22.7673 8.8845 74.4395 -14.4043 5.0199 -23.8448
# 4 -12.3501 -19.1360 -14.4043 40.5063 -2.4761 -0.1700
# 5 -8.0091 14.0409 5.0199 -2.4761 43.0993 2.7018
# 6 -26.5999 -24.1952 -23.8448 -0.1700 2.7018 41.2750
#
#
#
# Elastic Compliance Matrix: (Units=1/GPa)
#
#
# Indices 1 2 3 4 5 6 
#
# 1 0.011304 -0.000156 -0.000840 0.003225 0.002022 0.006589
# 2 -0.000156 0.021505 0.005477 0.011637 -0.008022 0.016242
# 3 -0.000840 0.005477 0.019729 0.009125 -0.004617 0.014406
# 4 0.003225 0.011637 0.009125 0.034279 -0.003196 0.014522
# 5 0.002022 -0.008022 -0.004617 -0.003196 0.027038 -0.007850
# 6 0.006589 0.016242 0.014406 0.014522 -0.007850 0.046891
#
#
# Mechanical properties :
#
#
# Convention : Reuss Voigt Hill
#
# Bulk Modulus (GPa) = 16.26068 40.49436 28.37752
# Shear Modulus (GPa) = 29.02185 39.18388 34.10287
#
# Velocity S-wave (km/s) = 3.63965 4.22913 3.94542
# Velocity P-wave (km/s) = 5.00849 6.50624 5.80586
#
# Compressibility (1/GPa) = 0.06149804
#
# Stress axis : x y z
#
# Youngs Moduli (GPa) = 88.46593 46.50126 50.68734
#
# Poissons Ratio (x) = 0.00726 0.04259
# Poissons Ratio (y) = 0.01381 -0.27760
# Poissons Ratio (z) = 0.07434 -0.25468
#
# Static dielectric constant tensor:
#      x y z
#    x 1.721670 0.219590 -0.171600 
#    y 0.219590 1.087330 0.572590 
#    z -0.171600 0.572590 1.408460 
# 
# From -- ./inp_files/222928.got.cif
#   From: 2010.05.17/outbox.cif.g08.bks.cpg/sg2_112_cif.got.tgz:222928.got - 2010.06.03 11:33:40.
