data_PCOD9063152
_publ_section_title
;
Structure prediction by ZEFSAII (Michael W. Deem and Ramdas Pophale) SiO2 
 PCOD9063152
Probable space group: P -1
;
_chemical_formula_sum "Si O2"
_cell_formula_units_Z 12
_cell_length_a 5.279672
_cell_length_b 27.603661
_cell_length_c 5.944564
_cell_angle_alpha 44.218878
_cell_angle_beta 129.185082
_cell_angle_gamma 127.420590
_cell_volume 448.691843
_symmetry_space_group_name_H-M "P -1"
_symmetry_group_IT_number 2
_symmetry_cell_setting 'triclinic'
loop_
_space_group_symop_operation_xyz
x,y,z
-x,-y,-z
loop_
_atom_site_type_symbol
_atom_site_label
_atom_site_fract_x
_atom_site_fract_y
_atom_site_fract_z
Si Si1 0.312325 0.572821 0.435206
Si Si2 0.202768 0.951448 0.650819
Si Si3 0.685411 0.426656 0.057954
Si Si4 0.381201 0.730465 0.332959
Si Si5 0.428646 0.149856 0.604280
Si Si6 0.923857 0.282558 0.209171
O O1 0.468259 0.573274 0.773635
O O2 0.000000 0.500000 0.500000
O O3 0.489941 0.572845 0.288808
O O4 0.166594 0.642013 0.109386
O O5 0.941967 0.893040 0.542525
O O6 0.500000 0.000000 0.500000
O O7 0.360644 0.908384 0.063619
O O8 0.000000 0.000000 0.500000
O O9 0.749494 0.346834 0.353056
O O10 0.000000 0.500000 0.000000
O O11 0.522726 0.807026 0.278140
O O12 0.738128 0.721362 0.462751
O O13 0.059090 0.732967 0.995429
O O14 0.610899 0.216392 0.325662
#
# Coordination Sequence:
#
# PCOD9063152 Si02
#       6
#     2   2   2   2   2   2
#     4   9  18  38  62  96 144 193 250 311 374 440
#     4  12  30  52  80 114 151 198 247 316 402 482
#     4   9  18  38  62  96 144 193 250 311 374 440
#     4  11  24  43  71 106 145 195 255 310 378 451
#     4  12  26  48  80 106 153 192 251 316 376 478
#     4  11  24  43  71 106 145 195 255 310 378 451
#
# _framework density 26.744409999999998
#
# number of rings (size 3 to 8) (size 9 to 14) (size 15 to 20)
#    0.000    1.333    1.667    3.000    7.000    0.000 
#    0.000   15.000    0.000    0.000    0.000    0.000 
#    0.000    0.000    0.000    0.000    0.000    0.000 
#
# Total GULP energy -66994.730070 kJ/mol
# GULP energy per Si atom -5582.894173 kJ/mol
# Density = 2.668354 g / cm^3
# Si number density = 26.744410 Si / 1000 Ang^3
#
#
#
# Elastic Constant Matrix: (Units=GPa)
#
#
# Indices 1 2 3 4 5 6 
#
# 1 93.2327 49.1960 64.9459 -6.7809 -7.2559 -5.1826
# 2 49.1960 175.7299 41.9796 -17.5181 -5.7369 31.9631
# 3 64.9459 41.9796 142.8102 1.4375 4.2821 5.9843
# 4 -6.7809 -17.5181 1.4375 71.1197 -15.4918 -7.9863
# 5 -7.2559 -5.7369 4.2821 -15.4918 45.4810 1.0788
# 6 -5.1826 31.9631 5.9843 -7.9863 1.0788 54.7478
#
#
#
# Elastic Compliance Matrix: (Units=1/GPa)
#
#
# Indices 1 2 3 4 5 6 
#
# 1 0.019149 -0.004074 -0.007878 0.002449 0.003991 0.005331
# 2 -0.004074 0.007937 -0.000318 0.001231 0.000915 -0.004823
# 3 -0.007878 -0.000318 0.010868 -0.001907 -0.002923 -0.001969
# 4 0.002449 0.001231 -0.001907 0.016207 0.006199 0.001964
# 5 0.003991 0.000915 -0.002923 0.006199 0.025113 0.000573
# 6 0.005331 -0.004823 -0.001969 0.001964 0.000573 0.022076
#
#
# Mechanical properties :
#
#
# Convention : Reuss Voigt Hill
#
# Bulk Modulus (GPa) = 74.55584 80.44620 77.50102
# Shear Modulus (GPa) = 38.35501 51.31311 44.83406
#
# Velocity S-wave (km/s) = 3.79110 4.38499 4.09882
# Velocity P-wave (km/s) = 6.86301 7.46876 7.17229
#
# Compressibility (1/GPa) = 0.01341276
#
# Stress axis : x y z
#
# Youngs Moduli (GPa) = 52.22300 125.99485 92.01305
#
# Poissons Ratio (x) = 0.51328 0.72492
# Poissons Ratio (y) = 0.21275 0.02927
# Poissons Ratio (z) = 0.41143 0.04008
#
# Static dielectric constant tensor:
#      x y z
#    x 2.166270 -0.107210 -0.116880 
#    y -0.107210 2.061990 0.025780 
#    z -0.116880 0.025780 2.542330 
# 
# From -- ./inp_files/11875.got.cif
#   From: 2010.05.17/outbox.cif.g08.bks.cpg/sg2_6_cif.got.tgz:11875.got - 2010.06.03 11:33:40.
