data_PCOD9063779
_publ_section_title
;
Structure prediction by ZEFSAII (Michael W. Deem and Ramdas Pophale) SiO2 
 PCOD9063779
Probable space group: P -1
;
_chemical_formula_sum "Si O2"
_cell_formula_units_Z 16
_cell_length_a 15.805258
_cell_length_b 9.353986
_cell_length_c 11.991998
_cell_angle_alpha 108.644877
_cell_angle_beta 151.505609
_cell_angle_gamma 59.973801
_cell_volume 700.674363
_symmetry_space_group_name_H-M "P -1"
_symmetry_group_IT_number 2
_symmetry_cell_setting 'triclinic'
loop_
_space_group_symop_operation_xyz
x,y,z
-x,-y,-z
loop_
_atom_site_type_symbol
_atom_site_label
_atom_site_fract_x
_atom_site_fract_y
_atom_site_fract_z
Si Si1 0.439049 0.165985 0.292979
Si Si2 0.805186 0.442979 0.812096
Si Si3 0.507601 0.846410 0.894835
Si Si4 0.325450 0.696253 0.819248
Si Si5 0.352351 0.875262 0.115473
Si Si6 0.983008 0.596075 0.388013
Si Si7 0.191590 0.390320 0.358187
Si Si8 0.219637 0.856722 0.182653
O O1 0.302832 0.369855 0.207106
O O2 0.607295 0.098356 0.567662
O O3 0.303575 0.071979 0.113346
O O4 0.558117 0.111760 0.299340
O O5 0.781025 0.477855 0.660485
O O6 0.723023 0.321014 0.732842
O O7 0.041240 0.350436 0.099841
O O8 0.745704 0.714359 0.125354
O O9 0.390715 0.760939 0.801261
O O10 0.500000 0.000000 0.000000
O O11 0.113023 0.696334 0.568081
O O12 0.500000 0.500000 0.000000
O O13 0.321220 0.817488 0.944696
O O14 0.588866 0.761145 0.393674
O O15 0.229173 0.835984 0.056181
O O16 0.080165 0.469256 0.364526
O O17 0.000000 0.500000 0.500000
O O18 0.000000 0.000000 0.000000
#
# Coordination Sequence:
#
# PCOD9063779 Si02
#       8
#     2   2   2   2   2   2   2   2
#     4  12  26  48  73 101 149 188 236 300 370 428
#     4  11  26  45  73 106 136 189 238 298 363 430
#     4  12  27  50  71 109 150 191 245 307 365 433
#     4  12  26  46  76 106 143 195 247 298 364 437
#     4  12  26  47  71 103 146 189 236 302 366 435
#     4  12  26  45  78 107 143 196 247 301 367 436
#     4  11  24  44  74 100 143 183 245 292 370 426
#     4  12  29  45  73 108 144 185 244 295 362 437
#
# _framework density 22.835145000000001
#
# number of rings (size 3 to 8) (size 9 to 14) (size 15 to 20)
#    0.000    0.250    6.250    1.500    8.750    1.500 
#    0.000    0.000    0.000    0.000    0.000    0.000 
#    0.000    0.000    0.000    0.000    0.000    0.000 
#
# Total GULP energy -89587.073229 kJ/mol
# GULP energy per Si atom -5599.192077 kJ/mol
# Density = 2.278317 g / cm^3
# Si number density = 22.835145 Si / 1000 Ang^3
#
#
#
# Elastic Constant Matrix: (Units=GPa)
#
#
# Indices 1 2 3 4 5 6 
#
# 1 174.8383 38.6661 4.8416 2.3616 -6.3653 4.9258
# 2 38.6661 86.8340 -0.6137 3.8840 8.4688 3.4081
# 3 4.8416 -0.6137 66.6670 8.3989 10.3238 -3.8342
# 4 2.3616 3.8840 8.3989 28.2635 1.6052 10.9384
# 5 -6.3653 8.4688 10.3238 1.6052 39.4032 1.8225
# 6 4.9258 3.4081 -3.8342 10.9384 1.8225 49.0715
#
#
#
# Elastic Compliance Matrix: (Units=1/GPa)
#
#
# Indices 1 2 3 4 5 6 
#
# 1 0.006512 -0.003084 -0.000877 0.000278 0.001963 -0.000643
# 2 -0.003084 0.013324 0.001114 -0.001694 -0.003584 -0.000018
# 3 -0.000877 0.001114 0.016692 -0.005857 -0.004645 0.002793
# 4 0.000278 -0.001694 -0.005857 0.040979 0.000715 -0.009529
# 5 0.001963 -0.003584 -0.004645 0.000715 0.027723 -0.001500
# 6 -0.000643 -0.000018 0.002793 -0.009529 -0.001500 0.022842
#
#
# Mechanical properties :
#
#
# Convention : Reuss Voigt Hill
#
# Bulk Modulus (GPa) = 32.43426 46.01415 39.22420
# Shear Modulus (GPa) = 34.71160 42.37733 38.54447
#
# Velocity S-wave (km/s) = 3.90307 4.31257 4.11292
# Velocity P-wave (km/s) = 5.87762 6.70761 6.30628
#
# Compressibility (1/GPa) = 0.03083160
#
# Stress axis : x y z
#
# Youngs Moduli (GPa) = 153.56634 75.05488 59.90989
#
# Poissons Ratio (x) = 0.23151 0.05256
# Poissons Ratio (y) = 0.47368 -0.06674
# Poissons Ratio (z) = 0.13472 -0.08361
#
# Static dielectric constant tensor:
#      x y z
#    x 1.867450 0.021240 -0.002140 
#    y 0.021240 1.881310 -0.024090 
#    z -0.002140 -0.024090 1.924080 
# 
# From -- ./inp_files/447690.got.cif
#   From: 2010.05.17/outbox.cif.g08.bks.cpg/sg2_224_cif.got.tgz:447690.got - 2010.06.03 11:33:40.
