data_PCOD9063292
_publ_section_title
;
Structure prediction by ZEFSAII (Michael W. Deem and Ramdas Pophale) SiO2 
 PCOD9063292
Probable space group: P -1
;
_chemical_formula_sum "Si O2"
_cell_formula_units_Z 16
_cell_length_a 19.424429
_cell_length_b 17.003900
_cell_length_c 11.306081
_cell_angle_alpha 46.153642
_cell_angle_beta 145.735816
_cell_angle_gamma 158.601667
_cell_volume 711.516288
_symmetry_space_group_name_H-M "P -1"
_symmetry_group_IT_number 2
_symmetry_cell_setting 'triclinic'
loop_
_space_group_symop_operation_xyz
x,y,z
-x,-y,-z
loop_
_atom_site_type_symbol
_atom_site_label
_atom_site_fract_x
_atom_site_fract_y
_atom_site_fract_z
Si Si1 0.442624 0.123104 0.045696
Si Si2 0.247975 0.270712 0.231435
Si Si3 0.033101 0.410858 0.074923
Si Si4 0.252094 0.179771 0.588387
Si Si5 0.026190 0.473563 0.742895
Si Si6 0.285026 0.554199 0.694847
Si Si7 0.876152 0.151333 0.722686
Si Si8 0.530487 0.331859 0.408488
O O1 0.344738 0.130909 0.799846
O O2 0.727473 0.307111 0.219036
O O3 0.486982 0.226453 0.121576
O O4 0.238732 0.866343 0.034637
O O5 0.199055 0.164563 0.392132
O O6 0.505439 0.549711 0.318251
O O7 0.316984 0.243778 0.251443
O O8 0.009239 0.162144 0.978987
O O9 0.231731 0.492646 0.345738
O O10 0.128071 0.508791 0.975280
O O11 0.000000 0.500000 0.000000
O O12 0.000000 0.000000 0.500000
O O13 0.856541 0.446959 0.548888
O O14 0.866736 0.253080 0.680533
O O15 0.377201 0.563416 0.700490
O O16 0.075299 0.327380 0.714066
O O17 0.602522 0.891395 0.561083
#
# Coordination Sequence:
#
# PCOD9063292 Si02
#       8
#     2   2   2   2   2   2   2   2
#     4  11  24  45  71 100 134 180 232 283 337 411
#     4  11  25  46  68 105 138 180 228 284 342 401
#     4  12  27  43  66 105 137 181 225 280 350 406
#     4  11  24  43  75 102 133 181 233 280 337 408
#     4  11  24  46  73  96 137 180 237 281 335 411
#     4  11  25  44  71 104 130 187 231 279 342 409
#     4  11  25  45  73  98 136 183 231 283 340 405
#     4  12  27  43  66 102 147 176 223 287 344 404
#
# _framework density 22.487189000000001
#
# number of rings (size 3 to 8) (size 9 to 14) (size 15 to 20)
#    0.000    0.750    3.750    4.125    8.750    5.000 
#    0.000    0.000    0.000    0.000    0.000    0.000 
#    0.000    0.000    0.000    0.000    0.000    0.000 
#
# Total GULP energy -89622.556332 kJ/mol
# GULP energy per Si atom -5601.409771 kJ/mol
# Density = 2.243601 g / cm^3
# Si number density = 22.487189 Si / 1000 Ang^3
#
#
#
# Elastic Constant Matrix: (Units=GPa)
#
#
# Indices 1 2 3 4 5 6 
#
# 1 94.1460 3.9598 15.1913 -12.8798 -14.2619 28.0498
# 2 3.9598 24.6049 31.1910 18.9136 -12.4359 21.9254
# 3 15.1913 31.1910 55.5493 -26.1308 -4.6812 -0.9504
# 4 -12.8798 18.9136 -26.1308 25.0209 3.5168 -10.0234
# 5 -14.2619 -12.4359 -4.6812 3.5168 40.9640 -1.7090
# 6 28.0498 21.9254 -0.9504 -10.0234 -1.7090 18.8098
#
#
#
# Elastic Compliance Matrix: (Units=1/GPa)
#
#
# Indices 1 2 3 4 5 6 
#
# 1 0.015323 -0.005016 0.003903 0.011092 0.002862 -0.010636
# 2 -0.005016 -0.001386 0.010151 0.016643 -0.001671 0.018324
# 3 0.003903 0.010151 0.009373 -0.004179 0.005080 -0.018944
# 4 0.011092 0.016643 -0.004179 0.017342 0.005847 -0.026379
# 5 0.002862 -0.001671 0.005080 0.005847 0.025118 0.003335
# 6 -0.010636 0.018324 -0.018944 -0.026379 0.003335 0.032954
#
#
# Mechanical properties :
#
#
# Convention : Reuss Voigt Hill
#
# Bulk Modulus (GPa) = 24.16210 30.55380 27.35795
# Shear Modulus (GPa) = 52.94176 25.22281 39.08228
#
# Velocity S-wave (km/s) = 4.85738 3.35274 4.17343
# Velocity P-wave (km/s) = 6.49824 5.34832 5.95112
#
# Compressibility (1/GPa) = 0.04138712
#
# Stress axis : x y z
#
# Youngs Moduli (GPa) = 65.26211 -721.67330 106.68969
#
# Poissons Ratio (x) = -3.61960 -0.41639
# Poissons Ratio (y) = 0.32733 -1.08304
# Poissons Ratio (z) = -0.25470 7.32591
#
# Static dielectric constant tensor:
#      x y z
#    x 1.820450 -0.004220 -0.008780 
#    y -0.004220 1.814680 0.013480 
#    z -0.008780 0.013480 1.841670 
# 
# From -- ./inp_files/472404.got.cif
#   From: 2010.05.17/outbox.cif.g08.bks.cpg/sg2_237_cif.got.tgz:472404.got - 2010.06.03 11:33:40.
