data_PCOD9063939
_publ_section_title
;
Structure prediction by ZEFSAII (Michael W. Deem and Ramdas Pophale) SiO2 
 PCOD9063939
Probable space group: P -1
;
_chemical_formula_sum "Si O2"
_cell_formula_units_Z 10
_cell_length_a 6.968242
_cell_length_b 12.110148
_cell_length_c 5.268391
_cell_angle_alpha 92.308920
_cell_angle_beta 85.628139
_cell_angle_gamma 86.187890
_cell_volume 441.846511
_symmetry_space_group_name_H-M "P -1"
_symmetry_group_IT_number 2
_symmetry_cell_setting 'triclinic'
loop_
_space_group_symop_operation_xyz
x,y,z
-x,-y,-z
loop_
_atom_site_type_symbol
_atom_site_label
_atom_site_fract_x
_atom_site_fract_y
_atom_site_fract_z
Si Si1 0.786619 0.554820 0.036158
Si Si2 0.904159 0.766064 0.239057
Si Si3 0.368133 0.012813 0.763874
Si Si4 0.840397 0.208131 0.283979
Si Si5 0.478625 0.602623 0.703411
O O1 0.795240 0.652540 0.249215
O O2 0.662146 0.450141 0.082712
O O3 0.683740 0.616380 0.812959
O O4 0.000000 0.500000 0.000000
O O5 0.751377 0.869331 0.221006
O O6 0.025959 0.782135 0.482265
O O7 0.045157 0.759196 0.977896
O O8 0.500000 0.000000 0.500000
O O9 0.221719 0.915690 0.762049
O O10 0.500000 0.000000 0.000000
O O11 0.644500 0.287051 0.357756
O O12 0.500000 0.500000 0.500000
#
# Coordination Sequence:
#
# PCOD9063939 Si02
#       5
#     2   2   2   2   2
#     4  11  24  45  67 103 139 185 233 281 352 405
#     4  12  26  45  73  99 141 184 231 287 346 417
#     4  12  26  46  72 102 139 180 234 289 347 413
#     4  12  26  46  70 103 138 183 236 282 349 415
#     4  11  26  41  71 100 142 184 234 288 337 421
#
# _framework density 22.632290999999999
#
# number of rings (size 3 to 8) (size 9 to 14) (size 15 to 20)
#    0.000    0.400    2.000    6.000    8.400    1.600 
#    0.000    0.000    0.000    0.000    0.000    0.000 
#    0.000    0.000    0.000    0.000    0.000    0.000 
#
# Total GULP energy -55931.238145 kJ/mol
# GULP energy per Si atom -5593.123815 kJ/mol
# Density = 2.258078 g / cm^3
# Si number density = 22.632291 Si / 1000 Ang^3
#
#
#
# Elastic Constant Matrix: (Units=GPa)
#
#
# Indices 1 2 3 4 5 6 
#
# 1 114.8862 41.8372 51.9406 0.4283 35.5375 -32.0311
# 2 41.8372 149.0872 15.2387 20.6248 20.9252 -30.0073
# 3 51.9406 15.2387 151.1053 -2.0182 31.0353 -15.8332
# 4 0.4283 20.6248 -2.0182 34.9008 2.5773 -3.4004
# 5 35.5375 20.9252 31.0353 2.5773 59.3857 2.5911
# 6 -32.0311 -30.0073 -15.8332 -3.4004 2.5911 68.2733
#
#
#
# Elastic Compliance Matrix: (Units=1/GPa)
#
#
# Indices 1 2 3 4 5 6 
#
# 1 0.014267 -0.001909 -0.002712 0.001839 -0.006771 0.005574
# 2 -0.001909 0.008717 0.000445 -0.004667 -0.002085 0.002886
# 3 -0.002712 0.000445 0.008207 0.000552 -0.002889 0.000964
# 4 0.001839 -0.004667 0.000552 0.031558 -0.001138 0.000555
# 5 -0.006771 -0.002085 -0.002889 -0.001138 0.023434 -0.005709
# 6 0.005574 0.002886 0.000964 0.000555 -0.005709 0.018998
#
#
# Mechanical properties :
#
#
# Convention : Reuss Voigt Hill
#
# Bulk Modulus (GPa) = 43.78358 70.34575 57.06466
# Shear Modulus (GPa) = 41.27256 52.91609 47.09433
#
# Velocity S-wave (km/s) = 4.27501 4.84061 4.56658
# Velocity P-wave (km/s) = 6.61478 7.89883 7.28515
#
# Compressibility (1/GPa) = 0.02283961
#
# Stress axis : x y z
#
# Youngs Moduli (GPa) = 70.09022 114.72256 121.84694
#
# Poissons Ratio (x) = 0.21896 0.33050
# Poissons Ratio (y) = 0.13378 -0.05427
# Poissons Ratio (z) = 0.19012 -0.05109
#
# Static dielectric constant tensor:
#      x y z
#    x 2.492590 -0.205130 -0.353770 
#    y -0.205130 1.962170 0.039990 
#    z -0.353770 0.039990 2.036960 
# 
# From -- ./inp_files/1453.got.cif
#   From: 2010.05.17/outbox.cif.g08.bks.cpg/sg2_1_cif.got.tgz:1453.got - 2010.06.03 11:33:40.
