data_PCOD9063263
_publ_section_title
;
Structure prediction by ZEFSAII (Michael W. Deem and Ramdas Pophale) SiO2 
 PCOD9063263
Probable space group: P -1
;
_chemical_formula_sum "Si O2"
_cell_formula_units_Z 14
_cell_length_a 5.179581
_cell_length_b 12.443564
_cell_length_c 12.356395
_cell_angle_alpha 49.330582
_cell_angle_beta 79.045004
_cell_angle_gamma 67.017745
_cell_volume 553.737732
_symmetry_space_group_name_H-M "P -1"
_symmetry_group_IT_number 2
_symmetry_cell_setting 'triclinic'
loop_
_space_group_symop_operation_xyz
x,y,z
-x,-y,-z
loop_
_atom_site_type_symbol
_atom_site_label
_atom_site_fract_x
_atom_site_fract_y
_atom_site_fract_z
Si Si1 0.654077 0.845637 0.442546
Si Si2 0.523068 0.428505 0.375618
Si Si3 0.103037 0.224082 0.089515
Si Si4 0.517996 0.409857 0.945337
Si Si5 0.856553 0.882282 0.623868
Si Si6 0.847804 0.324346 0.628612
Si Si7 0.750122 0.044848 0.901369
O O1 0.471171 0.740712 0.522000
O O2 0.823776 0.800922 0.570948
O O3 0.854114 0.799546 0.352067
O O4 0.452690 0.018897 0.365959
O O5 0.725336 0.416732 0.468342
O O6 0.214593 0.544348 0.363369
O O7 0.586966 0.486845 0.218974
O O8 0.347370 0.294372 0.033536
O O9 0.989515 0.221763 0.221321
O O10 0.852559 0.321423 0.967755
O O11 0.178844 0.055739 0.146821
O O12 0.500000 0.500000 0.000000
O O13 0.000000 0.000000 0.500000
O O14 0.682979 0.218696 0.758344
O O15 0.500000 0.000000 0.000000
O O16 0.000000 0.000000 0.000000
#
# Coordination Sequence:
#
# PCOD9063263 Si02
#       7
#     2   2   2   2   2   2   2
#     4  11  24  43  74 104 143 190 249 306 372 443
#     4  11  25  47  70 107 148 196 249 301 374 445
#     4  12  27  48  74 108 147 193 253 307 382 440
#     4  12  29  49  76 109 152 202 248 310 375 452
#     4  11  26  44  73 106 143 189 249 313 375 443
#     4  11  26  45  75 106 149 194 250 307 372 447
#     4  12  27  48  76 109 151 195 248 313 377 445
#
# _framework density 25.282727000000001
#
# number of rings (size 3 to 8) (size 9 to 14) (size 15 to 20)
#    0.000    0.571    0.000    6.857   16.000    0.000 
#    0.000    0.000    0.000    0.000    0.000    0.000 
#    0.000    0.000    0.000    0.000    0.000    0.000 
#
# Total GULP energy -78351.091027 kJ/mol
# GULP energy per Si atom -5596.506502 kJ/mol
# Density = 2.522518 g / cm^3
# Si number density = 25.282727 Si / 1000 Ang^3
#
#
#
# Elastic Constant Matrix: (Units=GPa)
#
#
# Indices 1 2 3 4 5 6 
#
# 1 107.8209 16.2849 27.2874 1.1524 -2.7680 17.2256
# 2 16.2849 121.1812 5.4916 6.8837 1.3510 -1.6696
# 3 27.2874 5.4916 145.7974 17.6362 11.0349 10.9232
# 4 1.1524 6.8837 17.6362 36.2274 4.7579 3.6739
# 5 -2.7680 1.3510 11.0349 4.7579 32.8070 1.1881
# 6 17.2256 -1.6696 10.9232 3.6739 1.1881 49.5033
#
#
#
# Elastic Compliance Matrix: (Units=1/GPa)
#
#
# Indices 1 2 3 4 5 6 
#
# 1 0.010551 -0.001453 -0.001905 0.001008 0.001568 -0.003413
# 2 -0.001453 0.008554 0.000109 -0.001684 -0.000300 0.000902
# 3 -0.001905 0.000109 0.007853 -0.003406 -0.002285 -0.000759
# 4 0.001008 -0.001684 -0.003406 0.030129 -0.003004 -0.001820
# 5 0.001568 -0.000300 -0.002285 -0.003004 0.031852 -0.000593
# 6 -0.003413 0.000902 -0.000759 -0.001820 -0.000593 0.021735
#
#
# Mechanical properties :
#
#
# Convention : Reuss Voigt Hill
#
# Bulk Modulus (GPa) = 48.87901 52.54748 50.71325
# Shear Modulus (GPa) = 40.32512 45.42324 42.87418
#
# Velocity S-wave (km/s) = 3.99804 4.24324 4.12246
# Velocity P-wave (km/s) = 6.37866 6.69596 6.53924
#
# Compressibility (1/GPa) = 0.02045868
#
# Stress axis : x y z
#
# Youngs Moduli (GPa) = 94.77846 116.90538 127.33881
#
# Poissons Ratio (x) = 0.16990 0.24257
# Poissons Ratio (y) = 0.13774 -0.01383
# Poissons Ratio (z) = 0.18054 -0.01270
#
# Static dielectric constant tensor:
#      x y z
#    x 2.110870 -0.007040 0.111060 
#    y -0.007040 1.917560 0.056490 
#    z 0.111060 0.056490 2.041050 
# 
# From -- ./inp_files/363648.got.cif
#   From: 2010.05.17/outbox.cif.g08.bks.cpg/sg2_182_cif.got.tgz:363648.got - 2010.06.03 11:33:40.
