data_PCOD9063593
_publ_section_title
;
Structure prediction by ZEFSAII (Michael W. Deem and Ramdas Pophale) SiO2 
 PCOD9063593
Probable space group: P -1
;
_chemical_formula_sum "Si O2"
_cell_formula_units_Z 16
_cell_length_a 8.921917
_cell_length_b 9.100397
_cell_length_c 13.818176
_cell_angle_alpha 134.348953
_cell_angle_beta 69.873163
_cell_angle_gamma 119.298048
_cell_volume 699.665443
_symmetry_space_group_name_H-M "P -1"
_symmetry_group_IT_number 2
_symmetry_cell_setting 'triclinic'
loop_
_space_group_symop_operation_xyz
x,y,z
-x,-y,-z
loop_
_atom_site_type_symbol
_atom_site_label
_atom_site_fract_x
_atom_site_fract_y
_atom_site_fract_z
Si Si1 0.228520 0.209802 0.589757
Si Si2 0.300381 0.981815 0.762263
Si Si3 0.999175 0.996275 0.717349
Si Si4 0.537056 0.830967 0.985066
Si Si5 0.680929 0.198587 0.686505
Si Si6 0.213568 0.465604 0.519725
Si Si7 0.402930 0.518850 0.312610
Si Si8 0.174845 0.678839 0.085172
O O1 0.073447 0.118171 0.656178
O O2 0.215151 0.367442 0.580124
O O3 0.396349 0.340859 0.674114
O O4 0.260831 0.003206 0.441130
O O5 0.230103 0.716651 0.643527
O O6 0.152844 0.059823 0.789557
O O7 0.350962 0.050178 0.892911
O O8 0.480552 0.092512 0.715021
O O9 0.848691 0.085423 0.817176
O O10 0.939064 0.734003 0.590472
O O11 0.347009 0.679486 0.996169
O O12 0.628924 0.695858 0.842924
O O13 0.500000 0.000000 0.000000
O O14 0.695892 0.340533 0.651568
O O15 0.789767 0.338016 0.816362
O O16 0.364665 0.481018 0.417301
O O17 0.000000 0.500000 0.000000
#
# Coordination Sequence:
#
# PCOD9063593 Si02
#       8
#     2   2   2   2   2   2   2   2
#     4  12  23  44  73 104 140 182 233 288 349 418
#     4  11  25  45  73 102 143 182 236 286 342 420
#     4  12  25  46  69 105 143 181 229 294 352 409
#     4  11  26  48  71 103 139 186 235 281 348 421
#     4  11  24  44  71 103 136 183 238 283 340 421
#     4  12  25  43  71 108 140 182 231 296 347 406
#     4  12  24  43  76 101 138 185 239 283 345 415
#     4  11  26  45  70  99 142 180 232 287 350 413
#
# _framework density 22.868072000000002
#
# number of rings (size 3 to 8) (size 9 to 14) (size 15 to 20)
#    0.000    0.500    3.750    4.500    3.500    1.000 
#    2.250    1.250    0.000    0.000    0.000    0.000 
#    0.000    0.000    0.000    0.000    0.000    0.000 
#
# Total GULP energy -89520.911324 kJ/mol
# GULP energy per Si atom -5595.056958 kJ/mol
# Density = 2.281602 g / cm^3
# Si number density = 22.868072 Si / 1000 Ang^3
#
#
#
# Elastic Constant Matrix: (Units=GPa)
#
#
# Indices 1 2 3 4 5 6 
#
# 1 83.9478 6.1264 13.3254 3.8769 23.2615 -14.9461
# 2 6.1264 61.3527 30.7808 4.1816 5.8032 1.4560
# 3 13.3254 30.7808 88.8793 1.6821 14.0003 -13.2847
# 4 3.8769 4.1816 1.6821 25.0358 4.7962 3.6929
# 5 23.2615 5.8032 14.0003 4.7962 41.3167 -0.4987
# 6 -14.9461 1.4560 -13.2847 3.6929 -0.4987 24.3416
#
#
#
# Elastic Compliance Matrix: (Units=1/GPa)
#
#
# Indices 1 2 3 4 5 6 
#
# 1 0.016385 -0.001465 0.001147 -0.002255 -0.009014 0.010932
# 2 -0.001465 0.020628 -0.007927 -0.001925 0.000763 -0.006152
# 3 0.001147 -0.007927 0.016074 -0.000477 -0.004804 0.009925
# 4 -0.002255 -0.001925 -0.000477 0.042469 -0.003325 -0.008041
# 5 -0.009014 0.000763 -0.004804 -0.003325 0.031100 -0.007061
# 6 0.010932 -0.006152 0.009925 -0.008041 -0.007061 0.054654
#
#
# Mechanical properties :
#
#
# Convention : Reuss Voigt Hill
#
# Bulk Modulus (GPa) = 27.32474 37.18278 32.25376
# Shear Modulus (GPa) = 23.80967 30.40198 27.10582
#
# Velocity S-wave (km/s) = 3.23023 3.65012 3.44657
# Velocity P-wave (km/s) = 5.08795 5.83605 5.47479
#
# Compressibility (1/GPa) = 0.03659687
#
# Stress axis : x y z
#
# Youngs Moduli (GPa) = 61.03057 48.47845 62.21262
#
# Poissons Ratio (x) = 0.07101 -0.07138
# Poissons Ratio (y) = 0.08940 0.49319
# Poissons Ratio (z) = -0.07002 0.38431
#
# Static dielectric constant tensor:
#      x y z
#    x 1.846630 0.024940 0.003850 
#    y 0.024940 1.844300 0.015130 
#    z 0.003850 0.015130 1.856250 
# 
# From -- ./inp_files/343419.got.cif
#   From: 2010.05.17/outbox.cif.g08.bks.cpg/sg2_172_cif.got.tgz:343419.got - 2010.06.03 11:33:40.
