data_PCOD9063114
_publ_section_title
;
Structure prediction by ZEFSAII (Michael W. Deem and Ramdas Pophale) SiO2 
 PCOD9063114
Probable space group: P -1
;
_chemical_formula_sum "Si O2"
_cell_formula_units_Z 16
_cell_length_a 11.135333
_cell_length_b 25.340199
_cell_length_c 5.577410
_cell_angle_alpha 57.643637
_cell_angle_beta 121.283424
_cell_angle_gamma 147.894506
_cell_volume 698.906266
_symmetry_space_group_name_H-M "P -1"
_symmetry_group_IT_number 2
_symmetry_cell_setting 'triclinic'
loop_
_space_group_symop_operation_xyz
x,y,z
-x,-y,-z
loop_
_atom_site_type_symbol
_atom_site_label
_atom_site_fract_x
_atom_site_fract_y
_atom_site_fract_z
Si Si1 0.924373 0.633910 0.538938
Si Si2 0.131521 0.315092 0.146786
Si Si3 0.343471 0.242206 0.104672
Si Si4 0.117163 0.881640 0.865578
Si Si5 0.748914 0.383898 0.566576
Si Si6 0.455644 0.929694 0.435877
Si Si7 0.526763 0.406530 0.596404
Si Si8 0.622511 0.239993 0.129421
O O1 0.941817 0.678730 0.695165
O O2 0.699043 0.513739 0.636756
O O3 0.159499 0.677566 0.667514
O O4 0.897215 0.656945 0.197036
O O5 0.397175 0.392708 0.275716
O O6 0.994240 0.202718 0.242722
O O7 0.554107 0.323064 0.311717
O O8 0.413973 0.208976 0.088503
O O9 0.091581 0.149485 0.180318
O O10 0.340696 0.308590 0.808921
O O11 0.328508 0.994293 0.705409
O O12 0.232896 0.874813 0.193319
O O13 0.670931 0.399061 0.671551
O O14 0.000000 0.500000 0.500000
O O15 0.717965 0.302753 0.829399
O O16 0.436940 0.854022 0.709826
O O17 0.500000 0.000000 0.500000
#
# Coordination Sequence:
#
# PCOD9063114 Si02
#       8
#     2   2   2   2   2   2   2   2
#     4  12  26  42  72 109 156 197 259 309 376 455
#     4  12  25  44  72 109 149 199 249 321 380 453
#     4  11  25  46  70 103 151 195 251 303 378 449
#     4  11  25  47  76 105 141 197 243 323 383 455
#     4  11  24  43  71 100 150 205 253 295 368 447
#     4  11  26  49  78 107 142 186 255 317 397 452
#     4  11  25  42  67 106 147 199 247 309 372 443
#     4  11  26  45  71 108 147 201 245 318 370 454
#
# _framework density 22.892911999999999
#
# number of rings (size 3 to 8) (size 9 to 14) (size 15 to 20)
#    0.000    0.750    2.500    3.750    7.000    4.500 
#    0.000    1.250    0.000    0.000    0.000    0.000 
#    0.000    0.000    0.000    0.000    0.000    0.000 
#
# Total GULP energy -89424.703252 kJ/mol
# GULP energy per Si atom -5589.043953 kJ/mol
# Density = 2.284081 g / cm^3
# Si number density = 22.892912 Si / 1000 Ang^3
#
#
#
# Elastic Constant Matrix: (Units=GPa)
#
#
# Indices 1 2 3 4 5 6 
#
# 1 116.3966 53.0146 42.7199 -5.4569 6.2827 11.3911
# 2 53.0146 110.7189 32.6676 1.6264 5.3818 7.4952
# 3 42.7199 32.6676 127.3787 -5.1082 3.1224 3.9117
# 4 -5.4569 1.6264 -5.1082 38.0804 3.9336 -2.7719
# 5 6.2827 5.3818 3.1224 3.9336 23.8232 8.7798
# 6 11.3911 7.4952 3.9117 -2.7719 8.7798 35.3495
#
#
#
# Elastic Compliance Matrix: (Units=1/GPa)
#
#
# Indices 1 2 3 4 5 6 
#
# 1 0.012122 -0.004835 -0.002667 0.001554 -0.001215 -0.002162
# 2 -0.004835 0.011876 -0.001439 -0.001371 -0.000724 -0.000729
# 3 -0.002667 -0.001439 0.009154 0.000980 -0.000459 0.000343
# 4 0.001554 -0.001371 0.000980 0.027535 -0.006003 0.003332
# 5 -0.001215 -0.000724 -0.000459 -0.006003 0.047845 -0.011758
# 6 -0.002162 -0.000729 0.000343 0.003332 -0.011758 0.032284
#
#
# Mechanical properties :
#
#
# Convention : Reuss Voigt Hill
#
# Bulk Modulus (GPa) = 65.48573 67.92206 66.70389
# Shear Modulus (GPa) = 30.52701 34.52343 32.52522
#
# Velocity S-wave (km/s) = 3.65563 3.88756 3.77338
# Velocity P-wave (km/s) = 6.81803 7.06291 6.94155
#
# Compressibility (1/GPa) = 0.01527050
#
# Stress axis : x y z
#
# Youngs Moduli (GPa) = 82.49204 84.20178 109.23955
#
# Poissons Ratio (x) = 0.40711 0.29135
# Poissons Ratio (y) = 0.39884 0.15721
# Poissons Ratio (z) = 0.22001 0.12118
#
# Static dielectric constant tensor:
#      x y z
#    x 1.928530 0.033880 -0.001090 
#    y 0.033880 1.880680 -0.038760 
#    z -0.001090 -0.038760 1.922610 
# 
# From -- ./inp_files/84999.got.cif
#   From: 2010.05.17/outbox.cif.g08.bks.cpg/sg2_43_cif.got.tgz:84999.got - 2010.06.03 11:33:40.
