data_PCOD9063073
_publ_section_title
;
Structure prediction by ZEFSAII (Michael W. Deem and Ramdas Pophale) SiO2 
 PCOD9063073
Probable space group: P -1
;
_chemical_formula_sum "Si O2"
_cell_formula_units_Z 16
_cell_length_a 13.794261
_cell_length_b 12.761446
_cell_length_c 12.167654
_cell_angle_alpha 96.530869
_cell_angle_beta 149.166325
_cell_angle_gamma 60.303127
_cell_volume 681.061407
_symmetry_space_group_name_H-M "P -1"
_symmetry_group_IT_number 2
_symmetry_cell_setting 'triclinic'
loop_
_space_group_symop_operation_xyz
x,y,z
-x,-y,-z
loop_
_atom_site_type_symbol
_atom_site_label
_atom_site_fract_x
_atom_site_fract_y
_atom_site_fract_z
Si Si1 0.424210 0.042988 0.304450
Si Si2 0.764632 0.305175 0.768427
Si Si3 0.052726 0.151968 0.509902
Si Si4 0.634309 0.781474 0.109882
Si Si5 0.282787 0.861446 0.440184
Si Si6 0.477064 0.663320 0.823927
Si Si7 0.570046 0.170473 0.837321
Si Si8 0.696488 0.333601 0.958959
O O1 0.560416 0.093786 0.404204
O O2 0.500000 0.000000 0.500000
O O3 0.541075 0.886969 0.338110
O O4 0.057899 0.203423 0.967262
O O5 0.500000 0.500000 0.500000
O O6 0.676859 0.223051 0.642480
O O7 0.829864 0.284509 0.959564
O O8 0.106447 0.246558 0.618991
O O9 0.821883 0.197915 0.374871
O O10 0.911553 0.217160 0.259382
O O11 0.375411 0.952423 0.805225
O O12 0.486281 0.824440 0.089193
O O13 0.714378 0.636561 0.113140
O O14 0.419675 0.733045 0.656119
O O15 0.924443 0.023956 0.132436
O O16 0.559907 0.506005 0.876001
O O17 0.464643 0.335214 0.727198
#
# Coordination Sequence:
#
# PCOD9063073 Si02
#       8
#     2   2   2   2   2   2   2   2
#     4  11  26  44  74 107 135 183 248 291 345 418
#     4  11  25  49  68 106 143 184 230 292 361 414
#     4  11  25  44  69 101 138 185 234 283 344 414
#     4  11  25  41  69 102 138 183 233 281 345 421
#     4  11  24  46  75 100 142 182 235 288 351 420
#     4  12  24  45  66 103 140 185 224 285 352 412
#     4  11  24  43  70 103 138 183 232 293 346 412
#     4  12  25  46  72  96 145 184 228 290 350 414
#
# _framework density 23.492743999999998
#
# number of rings (size 3 to 8) (size 9 to 14) (size 15 to 20)
#    0.000    0.750    3.750    3.000    7.000    3.000 
#    0.000    0.000    0.000    0.000    0.000    0.000 
#    0.000    0.000    0.000    0.000    0.000    0.000 
#
# Total GULP energy -89564.481923 kJ/mol
# GULP energy per Si atom -5597.780120 kJ/mol
# Density = 2.343927 g / cm^3
# Si number density = 23.492744 Si / 1000 Ang^3
#
#
#
# Elastic Constant Matrix: (Units=GPa)
#
#
# Indices 1 2 3 4 5 6 
#
# 1 94.7232 34.2987 39.8636 11.3774 -14.0554 11.6951
# 2 34.2987 197.8953 45.7387 40.9334 -6.3303 13.4560
# 3 39.8636 45.7387 55.7718 23.9381 -14.3672 3.6984
# 4 11.3774 40.9334 23.9381 38.0182 6.1562 -3.5360
# 5 -14.0554 -6.3303 -14.3672 6.1562 42.3786 12.3952
# 6 11.6951 13.4560 3.6984 -3.5360 12.3952 45.8633
#
#
#
# Elastic Compliance Matrix: (Units=1/GPa)
#
#
# Indices 1 2 3 4 5 6 
#
# 1 0.015874 -0.000247 -0.011118 0.001826 0.002229 -0.003540
# 2 -0.000247 0.007331 -0.001888 -0.007303 0.002351 -0.003134
# 3 -0.011118 -0.001888 0.042394 -0.024460 0.015762 -0.006175
# 4 0.001826 -0.007303 -0.024460 0.053570 -0.020452 0.013307
# 5 0.002229 0.002351 0.015762 -0.020452 0.037139 -0.014143
# 6 -0.003540 -0.003134 -0.006175 0.013307 -0.014143 0.028973
#
#
# Mechanical properties :
#
#
# Convention : Reuss Voigt Hill
#
# Bulk Modulus (GPa) = 25.58020 65.35470 45.46745
# Shear Modulus (GPa) = 22.24015 40.48465 31.36240
#
# Velocity S-wave (km/s) = 3.08016 4.15575 3.65770
# Velocity P-wave (km/s) = 4.85407 7.13488 6.10199
#
# Compressibility (1/GPa) = 0.03909273
#
# Stress axis : x y z
#
# Youngs Moduli (GPa) = 62.99534 136.40396 23.58815
#
# Poissons Ratio (x) = 0.03372 0.26226
# Poissons Ratio (y) = 0.01557 0.04453
# Poissons Ratio (z) = 0.70041 0.25750
#
# Static dielectric constant tensor:
#      x y z
#    x 1.863950 0.009100 0.045540 
#    y 0.009100 1.954920 0.005940 
#    z 0.045540 0.005940 1.912940 
# 
# From -- ./inp_files/452517.got.cif
#   From: 2010.05.17/outbox.cif.g08.bks.cpg/sg2_227_cif.got.tgz:452517.got - 2010.06.03 11:33:40.
