data_PCOD9063058
_publ_section_title
;
Structure prediction by ZEFSAII (Michael W. Deem and Ramdas Pophale) SiO2 
 PCOD9063058
Probable space group: P -1
;
_chemical_formula_sum "Si O2"
_cell_formula_units_Z 13
_cell_length_a 12.886784
_cell_length_b 12.294731
_cell_length_c 12.407585
_cell_angle_alpha 148.077262
_cell_angle_beta 37.022895
_cell_angle_gamma 137.661682
_cell_volume 614.114362
_symmetry_space_group_name_H-M "P -1"
_symmetry_group_IT_number 2
_symmetry_cell_setting 'triclinic'
loop_
_space_group_symop_operation_xyz
x,y,z
-x,-y,-z
loop_
_atom_site_type_symbol
_atom_site_label
_atom_site_fract_x
_atom_site_fract_y
_atom_site_fract_z
Si Si1 0.644508 0.388740 0.025547
Si Si2 0.500000 0.000000 0.500000
Si Si3 0.188193 0.937385 0.290978
Si Si4 0.943498 0.826141 0.807391
Si Si5 0.696679 0.980077 0.978637
Si Si6 0.561803 0.824463 0.531998
Si Si7 0.735812 0.400961 0.711173
O O1 0.464671 0.215504 0.036346
O O2 0.602442 0.600160 0.285062
O O3 0.707622 0.418237 0.875488
O O4 0.793431 0.298367 0.891828
O O5 0.570984 0.962790 0.532327
O O6 0.430275 0.743617 0.329068
O O7 0.269870 0.983761 0.144117
O O8 0.301328 0.070996 0.403201
O O9 0.000000 0.000000 0.500000
O O10 0.864872 0.932435 0.861865
O O11 0.793931 0.635627 0.813804
O O12 0.106718 0.722159 0.551232
O O13 0.000000 0.000000 0.000000
O O14 0.629422 0.170963 0.254546
#
# Coordination Sequence:
#
# PCOD9063058 Si02
#       7
#     2   1   2   2   2   2   2
#     4  11  24  44  70 104 133 184 241 294 355 421
#     4  12  22  44  74 102 144 182 240 292 354 422
#     4  11  25  47  68  98 143 186 233 293 354 431
#     4  11  26  44  67 105 146 190 234 302 360 423
#     4  11  24  43  69  99 143 181 236 296 350 429
#     4  11  25  41  70 103 133 185 232 294 352 422
#     4  11  25  43  69 104 144 184 244 296 360 423
#
# _framework density 21.168693999999999
#
# number of rings (size 3 to 8) (size 9 to 14) (size 15 to 20)
#    0.000    0.923    3.077    4.615    4.308    5.538 
#    0.000    0.000    0.000    0.000    0.000    0.000 
#    0.000    0.000    0.000    0.000    0.000    0.000 
#
# Total GULP energy -72468.985428 kJ/mol
# GULP energy per Si atom -5574.537341 kJ/mol
# Density = 2.112051 g / cm^3
# Si number density = 21.168694 Si / 1000 Ang^3
#
#
#
# Elastic Constant Matrix: (Units=GPa)
#
#
# Indices 1 2 3 4 5 6 
#
# 1 157.7314 29.2609 56.6388 2.8245 7.5826 -25.8017
# 2 29.2609 69.3585 49.6659 2.8991 22.0383 -25.0068
# 3 56.6388 49.6659 162.0749 19.2513 -1.7978 -13.2585
# 4 2.8245 2.8991 19.2513 34.2423 4.7798 5.9792
# 5 7.5826 22.0383 -1.7978 4.7798 37.1084 -4.3977
# 6 -25.8017 -25.0068 -13.2585 5.9792 -4.3977 26.9853
#
#
#
# Elastic Compliance Matrix: (Units=1/GPa)
#
#
# Indices 1 2 3 4 5 6 
#
# 1 0.008480 0.002340 -0.002954 -0.000425 -0.002196 0.008562
# 2 0.002340 0.037216 -0.010123 0.000119 -0.019707 0.028514
# 3 -0.002954 -0.010123 0.010599 -0.005045 0.007221 -0.004703
# 4 -0.000425 0.000119 -0.005045 0.034924 -0.006090 -0.011506
# 5 -0.002196 -0.019707 0.007221 -0.006090 0.039159 -0.009083
# 6 0.008562 0.028514 -0.004703 -0.011506 -0.009083 0.070425
#
#
# Mechanical properties :
#
#
# Convention : Reuss Voigt Hill
#
# Bulk Modulus (GPa) = 28.71672 73.36624 51.04148
# Shear Modulus (GPa) = 21.37813 36.57381 28.97597
#
# Velocity S-wave (km/s) = 3.18133 4.16111 3.70376
# Velocity P-wave (km/s) = 5.20477 7.60392 6.51572
#
# Compressibility (1/GPa) = 0.03482291
#
# Stress axis : x y z
#
# Youngs Moduli (GPa) = 117.92077 26.86987 94.34942
#
# Poissons Ratio (x) = -0.06288 0.27872
# Poissons Ratio (y) = -0.27598 0.95505
# Poissons Ratio (z) = 0.34835 0.27199
#
# Static dielectric constant tensor:
#      x y z
#    x 1.747290 0.026340 -0.038610 
#    y 0.026340 1.769020 -0.010230 
#    z -0.038610 -0.010230 1.798370 
# 
# From -- ./inp_files/429178.got.cif
#   From: 2010.05.17/outbox.cif.g08.bks.cpg/sg2_215_cif.got.tgz:429178.got - 2010.06.03 11:33:40.
