data_PCOD9063047
_publ_section_title
;
Structure prediction by ZEFSAII (Michael W. Deem and Ramdas Pophale) SiO2 
 PCOD9063047
Probable space group: P -1
;
_chemical_formula_sum "Si O2"
_cell_formula_units_Z 16
_cell_length_a 12.164372
_cell_length_b 9.109048
_cell_length_c 14.190459
_cell_angle_alpha 76.182224
_cell_angle_beta 31.960418
_cell_angle_gamma 96.543339
_cell_volume 636.737730
_symmetry_space_group_name_H-M "P -1"
_symmetry_group_IT_number 2
_symmetry_cell_setting 'triclinic'
loop_
_space_group_symop_operation_xyz
x,y,z
-x,-y,-z
loop_
_atom_site_type_symbol
_atom_site_label
_atom_site_fract_x
_atom_site_fract_y
_atom_site_fract_z
Si Si1 0.333378 0.278024 0.633468
Si Si2 0.963817 0.016947 0.633054
Si Si3 0.365589 0.310549 0.961471
Si Si4 0.359025 0.933728 0.432273
Si Si5 0.054710 0.405056 0.558098
Si Si6 0.884321 0.505037 0.849070
Si Si7 0.281582 0.690293 0.802800
Si Si8 0.227775 0.057014 0.939949
O O1 0.500000 0.500000 0.500000
O O2 0.496655 0.280187 0.429335
O O3 0.292688 0.167052 0.776828
O O4 0.031425 0.162283 0.839072
O O5 0.987605 0.202795 0.613006
O O6 0.180316 0.999001 0.525761
O O7 0.000000 0.000000 0.500000
O O8 0.676868 0.837068 0.907554
O O9 0.295926 0.430484 0.049966
O O10 0.629912 0.452259 0.690485
O O11 0.178852 0.167328 0.034193
O O12 0.514896 0.930441 0.230640
O O13 0.160079 0.712634 0.644921
O O14 0.597000 0.086619 0.306597
O O15 0.000000 0.500000 0.500000
O O16 0.934482 0.418354 0.738996
O O17 0.743864 0.368616 0.060878
O O18 0.000000 0.500000 0.000000
#
# Coordination Sequence:
#
# PCOD9063047 Si02
#       8
#     2   2   2   2   2   2   2   2
#     4  11  24  43  69 108 151 194 259 313 368 442
#     4  11  27  49  79 111 150 193 253 318 386 463
#     4  11  25  46  74 104 149 192 246 309 378 446
#     4  11  24  47  72 105 153 197 253 309 383 445
#     4  12  27  48  79 112 146 197 251 313 390 459
#     4  11  25  46  74 108 151 197 249 314 377 448
#     4  12  26  42  70 110 148 201 254 311 373 446
#     4  11  24  43  72 106 149 203 249 310 375 447
#
# _framework density 25.128086
#
# number of rings (size 3 to 8) (size 9 to 14) (size 15 to 20)
#    0.000    0.750    1.250    6.000    1.750    8.500 
#    0.000    0.000    0.000    0.000    0.000    0.000 
#    0.000    0.000    0.000    0.000    0.000    0.000 
#
# Total GULP energy -89416.474092 kJ/mol
# GULP energy per Si atom -5588.529631 kJ/mol
# Density = 2.507089 g / cm^3
# Si number density = 25.128086 Si / 1000 Ang^3
#
#
#
# Elastic Constant Matrix: (Units=GPa)
#
#
# Indices 1 2 3 4 5 6 
#
# 1 45.1835 41.4161 43.2589 4.6657 21.4157 -0.3488
# 2 41.4161 217.9198 84.1909 14.3445 27.0170 9.2465
# 3 43.2589 84.1909 179.0919 20.0320 31.8052 9.6573
# 4 4.6657 14.3445 20.0320 53.1377 4.3215 1.7141
# 5 21.4157 27.0170 31.8052 4.3215 45.6079 5.8974
# 6 -0.3488 9.2465 9.6573 1.7141 5.8974 31.3636
#
#
#
# Elastic Compliance Matrix: (Units=1/GPa)
#
#
# Indices 1 2 3 4 5 6 
#
# 1 0.036093 -0.003618 -0.005259 0.000585 -0.011876 0.005289
# 2 -0.003618 0.006114 -0.001788 -0.000583 -0.000469 -0.001172
# 3 -0.005259 -0.001788 0.008341 -0.001994 -0.001888 -0.001636
# 4 0.000585 -0.000583 -0.001994 0.019714 -0.000380 -0.000214
# 5 -0.011876 -0.000469 -0.001888 -0.000380 0.029778 -0.004991
# 6 0.005289 -0.001172 -0.001636 -0.000214 -0.004991 0.033742
#
#
# Mechanical properties :
#
#
# Convention : Reuss Voigt Hill
#
# Bulk Modulus (GPa) = 34.22703 86.65856 60.44279
# Shear Modulus (GPa) = 30.33027 44.24379 37.28703
#
# Velocity S-wave (km/s) = 3.47800 4.20066 3.85629
# Velocity P-wave (km/s) = 5.45703 7.62161 6.62828
#
# Compressibility (1/GPa) = 0.02921667
#
# Stress axis : x y z
#
# Youngs Moduli (GPa) = 27.70641 163.56861 119.88865
#
# Poissons Ratio (x) = 0.59187 0.63044
# Poissons Ratio (y) = 0.10025 0.21441
# Poissons Ratio (z) = 0.14569 0.29253
#
# Static dielectric constant tensor:
#      x y z
#    x 2.348410 -0.036970 -0.335940 
#    y -0.036970 2.074870 0.044870 
#    z -0.335940 0.044870 2.258060 
# 
# From -- ./inp_files/529615.got.cif
#   From: 2010.05.17/outbox.cif.g08.bks.cpg/sg2_265_cif.got.tgz:529615.got - 2010.06.03 11:33:40.
