data_PCOD9063657
_publ_section_title
;
Structure prediction by ZEFSAII (Michael W. Deem and Ramdas Pophale) SiO2 
 PCOD9063657
Probable space group: P -1
;
_chemical_formula_sum "Si O2"
_cell_formula_units_Z 14
_cell_length_a 9.691467
_cell_length_b 8.828180
_cell_length_c 11.120782
_cell_angle_alpha 74.740191
_cell_angle_beta 41.588946
_cell_angle_gamma 74.149563
_cell_volume 604.964616
_symmetry_space_group_name_H-M "P -1"
_symmetry_group_IT_number 2
_symmetry_cell_setting 'triclinic'
loop_
_space_group_symop_operation_xyz
x,y,z
-x,-y,-z
loop_
_atom_site_type_symbol
_atom_site_label
_atom_site_fract_x
_atom_site_fract_y
_atom_site_fract_z
Si Si1 0.984004 0.098124 0.615589
Si Si2 0.558115 0.168835 0.966397
Si Si3 0.857492 0.183573 0.268814
Si Si4 0.584441 0.384581 0.574357
Si Si5 0.198538 0.403246 0.450939
Si Si6 0.668764 0.280382 0.119497
Si Si7 0.227799 0.392017 0.006776
O O1 0.143851 0.223224 0.515841
O O2 0.753586 0.196799 0.748822
O O3 0.011042 0.974191 0.734005
O O4 0.000000 0.000000 0.500000
O O5 0.357782 0.297060 0.049273
O O6 0.646720 0.172325 0.041992
O O7 0.500000 0.000000 0.000000
O O8 0.685447 0.226484 0.476247
O O9 0.742610 0.190262 0.212970
O O10 0.018643 0.314839 0.132705
O O11 0.500000 0.500000 0.500000
O O12 0.767480 0.480243 0.485558
O O13 0.391402 0.366591 0.793299
O O14 0.438389 0.379175 0.255273
O O15 0.000000 0.500000 0.500000
O O16 0.812303 0.421593 0.977362
#
# Coordination Sequence:
#
# PCOD9063657 Si02
#       7
#     2   2   2   2   2   2   2
#     4  12  26  46  73 104 142 192 237 292 361 425
#     4  12  25  46  67 102 141 182 242 294 348 427
#     4  12  25  47  74 106 147 186 233 300 362 418
#     4  11  24  46  72 108 140 181 238 292 354 424
#     4  11  24  44  72 102 139 186 240 287 346 426
#     4  11  26  45  69 110 137 184 242 291 360 418
#     4  11  24  46  74 102 143 185 238 294 348 429
#
# _framework density 23.141852
#
# number of rings (size 3 to 8) (size 9 to 14) (size 15 to 20)
#    0.000    0.571    4.286    5.143    4.000    1.143 
#    2.571    0.000    0.000    0.000    0.000    0.000 
#    0.000    0.000    0.000    0.000    0.000    0.000 
#
# Total GULP energy -78161.772138 kJ/mol
# GULP energy per Si atom -5582.983724 kJ/mol
# Density = 2.308918 g / cm^3
# Si number density = 23.141852 Si / 1000 Ang^3
#
#
#
# Elastic Constant Matrix: (Units=GPa)
#
#
# Indices 1 2 3 4 5 6 
#
# 1 186.4163 36.8863 23.5257 5.6792 18.6159 8.0431
# 2 36.8863 82.4392 -0.0421 -8.6421 15.6739 5.9351
# 3 23.5257 -0.0421 64.2706 -1.4440 -3.5334 15.9470
# 4 5.6792 -8.6421 -1.4440 43.1093 2.3512 -9.3760
# 5 18.6159 15.6739 -3.5334 2.3512 32.0376 6.2594
# 6 8.0431 5.9351 15.9470 -9.3760 6.2594 37.8612
#
#
#
# Elastic Compliance Matrix: (Units=1/GPa)
#
#
# Indices 1 2 3 4 5 6 
#
# 1 0.006502 -0.002529 -0.002632 -0.001239 -0.002795 0.000279
# 2 -0.002529 0.014776 0.000749 0.003592 -0.005895 -0.000230
# 3 -0.002632 0.000749 0.018910 -0.001013 0.005003 -0.008601
# 4 -0.001239 0.003592 -0.001013 0.025872 -0.004469 0.007272
# 5 -0.002795 -0.005895 0.005003 -0.004469 0.038165 -0.008006
# 6 0.000279 -0.000230 -0.008601 0.007272 -0.008006 0.033136
#
#
# Mechanical properties :
#
#
# Convention : Reuss Voigt Hill
#
# Bulk Modulus (GPa) = 31.88462 50.42956 41.15709
# Shear Modulus (GPa) = 31.92041 40.78537 36.35289
#
# Velocity S-wave (km/s) = 3.71797 4.20266 3.96772
# Velocity P-wave (km/s) = 5.67793 6.73710 6.23007
#
# Compressibility (1/GPa) = 0.03136309
#
# Stress axis : x y z
#
# Youngs Moduli (GPa) = 153.80552 67.67672 52.88300
#
# Poissons Ratio (x) = 0.17116 0.13920
# Poissons Ratio (y) = 0.38898 -0.03962
# Poissons Ratio (z) = 0.40486 -0.05070
#
# Static dielectric constant tensor:
#      x y z
#    x 1.878210 0.012750 0.023090 
#    y 0.012750 1.970320 0.039610 
#    z 0.023090 0.039610 1.963720 
# 
# From -- ./inp_files/185832.got.cif
#   From: 2010.05.17/outbox.cif.g08.bks.cpg/sg2_93_cif.got.tgz:185832.got - 2010.06.03 11:33:40.
