data_PCOD9063950
_publ_section_title
;
Structure prediction by ZEFSAII (Michael W. Deem and Ramdas Pophale) SiO2 
 PCOD9063950
Probable space group: P -1
;
_chemical_formula_sum "Si O2"
_cell_formula_units_Z 16
_cell_length_a 9.172450
_cell_length_b 21.650213
_cell_length_c 5.928123
_cell_angle_alpha 99.722330
_cell_angle_beta 126.062612
_cell_angle_gamma 54.919124
_cell_volume 752.791313
_symmetry_space_group_name_H-M "P -1"
_symmetry_group_IT_number 2
_symmetry_cell_setting 'triclinic'
loop_
_space_group_symop_operation_xyz
x,y,z
-x,-y,-z
loop_
_atom_site_type_symbol
_atom_site_label
_atom_site_fract_x
_atom_site_fract_y
_atom_site_fract_z
Si Si1 0.133790 0.311765 0.190914
Si Si2 0.466332 0.539460 0.747896
Si Si3 0.419677 0.762379 0.729451
Si Si4 0.111249 0.704870 0.401455
Si Si5 0.097655 0.936245 0.352429
Si Si6 0.069592 0.510952 0.819303
Si Si7 0.342632 0.977420 0.253621
Si Si8 0.357647 0.194549 0.723433
O O1 0.338374 0.292442 0.204853
O O2 0.256185 0.239266 0.425945
O O3 0.016387 0.399627 0.217097
O O4 0.936584 0.311516 0.899932
O O5 0.500000 0.500000 0.500000
O O6 0.224331 0.622269 0.577451
O O7 0.500000 0.500000 0.000000
O O8 0.663127 0.549348 0.950181
O O9 0.278440 0.728226 0.585528
O O10 0.260626 0.847093 0.520483
O O11 0.485905 0.780666 0.037026
O O12 0.862805 0.770668 0.304988
O O13 0.240213 0.953792 0.338012
O O14 0.000000 0.000000 0.500000
O O15 0.878258 0.954231 0.037865
O O16 0.000000 0.500000 0.500000
O O17 0.000000 0.500000 0.000000
O O18 0.496495 0.898286 0.201417
O O19 0.500000 0.000000 0.500000
#
# Coordination Sequence:
#
# PCOD9063950 Si02
#       8
#     2   2   2   2   2   2   2   2
#     4  11  25  47  68  98 145 176 234 289 350 429
#     4  12  25  48  72 104 147 187 245 306 360 432
#     4  11  25  45  69 100 140 181 231 286 361 420
#     4  11  27  43  71 102 135 189 231 290 361 428
#     4  11  24  45  67  98 138 177 229 290 340 424
#     4  12  27  46  75 104 142 192 242 301 367 431
#     4  11  26  43  69 100 136 183 233 284 355 421
#     4  11  25  45  65 102 139 178 228 293 347 426
#
# _framework density 21.25423
#
# number of rings (size 3 to 8) (size 9 to 14) (size 15 to 20)
#    0.000    0.750    3.750    2.250    8.750    1.500 
#    0.000    0.000    0.000    0.000    0.000    0.000 
#    0.000    0.000    0.000    0.000    0.000    0.000 
#
# Total GULP energy -89216.704958 kJ/mol
# GULP energy per Si atom -5576.044060 kJ/mol
# Density = 2.120585 g / cm^3
# Si number density = 21.254230 Si / 1000 Ang^3
#
#
#
# Elastic Constant Matrix: (Units=GPa)
#
#
# Indices 1 2 3 4 5 6 
#
# 1 62.2303 8.3544 28.1887 15.2321 14.9240 0.1659
# 2 8.3544 91.3729 34.9018 2.1465 12.5883 -13.8241
# 3 28.1887 34.9018 165.8955 8.2318 19.6593 16.3695
# 4 15.2321 2.1465 8.2318 48.5533 7.2020 4.6534
# 5 14.9240 12.5883 19.6593 7.2020 41.6354 -0.2016
# 6 0.1659 -13.8241 16.3695 4.6534 -0.2016 30.6234
#
#
#
# Elastic Compliance Matrix: (Units=1/GPa)
#
#
# Indices 1 2 3 4 5 6 
#
# 1 0.019758 0.000442 -0.002837 -0.005229 -0.004960 0.002371
# 2 0.000442 0.013825 -0.003456 -0.000564 -0.002569 0.008154
# 3 -0.002837 -0.003456 0.008013 0.000525 -0.001841 -0.005920
# 4 -0.005229 -0.000564 0.000525 0.022879 -0.002180 -0.003998
# 5 -0.004960 -0.002569 -0.001841 -0.002180 0.027821 0.000366
# 6 0.002371 0.008154 -0.005920 -0.003998 0.000366 0.040097
#
#
# Mechanical properties :
#
#
# Convention : Reuss Voigt Hill
#
# Bulk Modulus (GPa) = 33.45065 51.37651 42.41358
# Shear Modulus (GPa) = 32.45493 40.69933 36.57713
#
# Velocity S-wave (km/s) = 3.91191 4.38068 4.15291
# Velocity P-wave (km/s) = 6.01469 7.05776 6.55700
#
# Compressibility (1/GPa) = 0.02989478
#
# Stress axis : x y z
#
# Youngs Moduli (GPa) = 50.61205 72.33422 124.79269
#
# Poissons Ratio (x) = -0.03197 0.35403
# Poissons Ratio (y) = -0.02237 0.43125
# Poissons Ratio (z) = 0.14358 0.24997
#
# Static dielectric constant tensor:
#      x y z
#    x 1.802340 -0.031960 -0.015490 
#    y -0.031960 1.771850 0.012580 
#    z -0.015490 0.012580 1.681850 
# 
# From -- ./inp_files/47657.got.cif
#   From: 2010.05.17/outbox.cif.g08.bks.cpg/sg2_24_cif.got.tgz:47657.got - 2010.06.03 11:33:40.
