data_PCOD9063166
_publ_section_title
;
Structure prediction by ZEFSAII (Michael W. Deem and Ramdas Pophale) SiO2 
 PCOD9063166
Probable space group: P -1
;
_chemical_formula_sum "Si O2"
_cell_formula_units_Z 8
_cell_length_a 9.289221
_cell_length_b 4.940910
_cell_length_c 15.536265
_cell_angle_alpha 81.813352
_cell_angle_beta 150.348515
_cell_angle_gamma 102.155681
_cell_volume 343.646060
_symmetry_space_group_name_H-M "P -1"
_symmetry_group_IT_number 2
_symmetry_cell_setting 'triclinic'
loop_
_space_group_symop_operation_xyz
x,y,z
-x,-y,-z
loop_
_atom_site_type_symbol
_atom_site_label
_atom_site_fract_x
_atom_site_fract_y
_atom_site_fract_z
Si Si1 0.028497 0.933094 0.867638
Si Si2 0.261149 0.761875 0.150018
Si Si3 0.096748 0.295356 0.491722
Si Si4 0.852731 0.508024 0.182338
O O1 0.813874 0.027445 0.824842
O O2 0.046638 0.637511 0.675181
O O3 0.021066 0.648414 0.825000
O O4 0.031249 0.166021 0.786019
O O5 0.311240 0.933958 0.078093
O O6 0.549400 0.652607 0.334243
O O7 0.000000 0.000000 0.500000
O O8 0.000000 0.500000 0.500000
O O9 0.500000 0.500000 0.000000
O O10 0.000000 0.500000 0.000000
#
# Coordination Sequence:
#
# PCOD9063166 Si02
#       4
#     2   2   2   2
#     4  11  24  43  71  97 139 184 229 276 350 405
#     4  11  25  47  73 102 143 185 227 284 348 417
#     4  12  28  46  72 102 140 183 235 285 346 410
#     4  12  24  44  69 102 139 181 231 288 341 409
#
# _framework density 23.279768000000001
#
# number of rings (size 3 to 8) (size 9 to 14) (size 15 to 20)
#    0.000    0.500    2.500    5.250    7.000    2.000 
#    0.000    0.000    0.000    0.000    0.000    0.000 
#    0.000    0.000    0.000    0.000    0.000    0.000 
#
# Total GULP energy -44635.809908 kJ/mol
# GULP energy per Si atom -5579.476238 kJ/mol
# Density = 2.322678 g / cm^3
# Si number density = 23.279768 Si / 1000 Ang^3
#
#
#
# Elastic Constant Matrix: (Units=GPa)
#
#
# Indices 1 2 3 4 5 6 
#
# 1 97.9174 39.3836 67.4185 -8.5459 -23.3987 -20.8845
# 2 39.3836 163.9431 45.5018 -15.9561 -0.9364 -17.2121
# 3 67.4185 45.5018 163.0152 -46.2140 -6.3416 -3.6280
# 4 -8.5459 -15.9561 -46.2140 41.3396 7.7202 -10.2034
# 5 -23.3987 -0.9364 -6.3416 7.7202 48.0139 -13.9175
# 6 -20.8845 -17.2121 -3.6280 -10.2034 -13.9175 62.4672
#
#
#
# Elastic Compliance Matrix: (Units=1/GPa)
#
#
# Indices 1 2 3 4 5 6 
#
# 1 0.022233 -0.002434 -0.010173 -0.008239 0.013007 0.007724
# 2 -0.002434 0.007136 -0.000312 0.002426 -0.001106 0.001284
# 3 -0.010173 -0.000312 0.014247 0.014401 -0.005865 -0.001614
# 4 -0.008239 0.002426 0.014401 0.041915 -0.007679 0.003886
# 5 0.013007 -0.001106 -0.005865 -0.007679 0.030269 0.009193
# 6 0.007724 0.001284 -0.001614 0.003886 0.009193 0.021534
#
#
# Mechanical properties :
#
#
# Convention : Reuss Voigt Hill
#
# Bulk Modulus (GPa) = 56.25131 81.05371 68.65251
# Shear Modulus (GPa) = 29.56884 48.53560 39.05222
#
# Velocity S-wave (km/s) = 3.56779 4.57101 4.10019
# Velocity P-wave (km/s) = 6.41777 7.92159 7.20900
#
# Compressibility (1/GPa) = 0.01777736
#
# Stress axis : x y z
#
# Youngs Moduli (GPa) = 44.97869 140.14374 70.18926
#
# Poissons Ratio (x) = 0.34112 0.71405
# Poissons Ratio (y) = 0.10948 0.02188
# Poissons Ratio (z) = 0.45758 0.04369
#
# Static dielectric constant tensor:
#      x y z
#    x 1.988840 0.133280 -0.019860 
#    y 0.133280 1.945730 -0.027050 
#    z -0.019860 -0.027050 1.937070 
# 
# From -- ./inp_files/1715.got.cif
#   From: 2010.05.17/outbox.cif.g08.bks.cpg/sg2_1_cif.got.tgz:1715.got - 2010.06.03 11:33:40.
