data_PCOD9063819
_publ_section_title
;
Structure prediction by ZEFSAII (Michael W. Deem and Ramdas Pophale) SiO2 
 PCOD9063819
Probable space group: P -1
;
_chemical_formula_sum "Si O2"
_cell_formula_units_Z 15
_cell_length_a 9.067286
_cell_length_b 14.309074
_cell_length_c 14.802599
_cell_angle_alpha 149.488969
_cell_angle_beta 137.994563
_cell_angle_gamma 39.601736
_cell_volume 602.621938
_symmetry_space_group_name_H-M "P -1"
_symmetry_group_IT_number 2
_symmetry_cell_setting 'triclinic'
loop_
_space_group_symop_operation_xyz
x,y,z
-x,-y,-z
loop_
_atom_site_type_symbol
_atom_site_label
_atom_site_fract_x
_atom_site_fract_y
_atom_site_fract_z
Si Si1 0.268640 0.011871 0.207362
Si Si2 0.259118 0.804310 0.841416
Si Si3 0.500000 0.000000 0.000000
Si Si4 0.127273 0.911672 0.578145
Si Si5 0.525344 0.202609 0.712541
Si Si6 0.018719 0.409822 0.674349
Si Si7 0.023027 0.246324 0.946829
Si Si8 0.354309 0.385077 0.483819
O O1 0.309130 0.212062 0.372860
O O2 0.023991 0.091257 0.219945
O O3 0.454762 0.837536 0.205001
O O4 0.271509 0.911937 0.029440
O O5 0.449408 0.809831 0.857824
O O6 0.323516 0.569815 0.687829
O O7 0.223895 0.136357 0.022477
O O8 0.987229 0.804290 0.482524
O O9 0.380324 0.734262 0.531177
O O10 0.000000 0.000000 0.500000
O O11 0.159904 0.091546 0.799389
O O12 0.760894 0.239247 0.821190
O O13 0.276868 0.380577 0.727240
O O14 0.500000 0.000000 0.500000
O O15 0.821799 0.517766 0.599291
O O16 0.000294 0.530103 0.860194
#
# Coordination Sequence:
#
# PCOD9063819 Si02
#       8
#     2   2   1   2   2   2   2   2
#     4  11  25  47  73 112 149 200 249 313 373 441
#     4  11  24  44  74 110 154 191 253 310 373 444
#     4  12  22  46  76 106 148 200 238 312 376 438
#     4  12  27  48  73 106 152 199 247 313 376 446
#     4  12  25  49  75 104 154 200 248 313 376 439
#     4  12  26  45  75 110 143 199 251 306 378 446
#     4  12  25  46  74 105 151 194 252 307 376 445
#     4  12  26  46  77 113 147 195 254 309 373 454
#
# _framework density 24.891231000000001
#
# number of rings (size 3 to 8) (size 9 to 14) (size 15 to 20)
#    0.000    0.267    2.667    6.800    1.867    1.600 
#    0.000    0.000    0.000    0.000    0.000    0.000 
#    0.000    0.000    0.000    0.000    0.000    0.000 
#
# Total GULP energy -83602.505765 kJ/mol
# GULP energy per Si atom -5573.500384 kJ/mol
# Density = 2.483458 g / cm^3
# Si number density = 24.891231 Si / 1000 Ang^3
#
#
#
# Elastic Constant Matrix: (Units=GPa)
#
#
# Indices 1 2 3 4 5 6 
#
# 1 100.0187 28.3563 16.8801 -1.6286 22.1581 -26.0492
# 2 28.3563 106.4329 -17.3901 -9.8610 6.1505 -30.0142
# 3 16.8801 -17.3901 69.9192 30.4160 12.1646 -12.4969
# 4 -1.6286 -9.8610 30.4160 32.9758 -5.2531 -1.2927
# 5 22.1581 6.1505 12.1646 -5.2531 38.0134 -4.2242
# 6 -26.0492 -30.0142 -12.4969 -1.2927 -4.2242 48.5424
#
#
#
# Elastic Compliance Matrix: (Units=1/GPa)
#
#
# Indices 1 2 3 4 5 6 
#
# 1 0.013692 -0.002236 -0.002738 0.001770 -0.005966 0.004788
# 2 -0.002236 0.013481 0.007014 -0.002611 -0.002522 0.008652
# 3 -0.002738 0.007014 0.034808 -0.031993 -0.014015 0.009757
# 4 0.001770 -0.002611 -0.031993 0.061708 0.017519 -0.005733
# 5 -0.005966 -0.002522 -0.014015 0.017519 0.036574 -0.004720
# 6 0.004788 0.008652 0.009757 -0.005733 -0.004720 0.030468
#
#
# Mechanical properties :
#
#
# Convention : Reuss Voigt Hill
#
# Bulk Modulus (GPa) = 15.13785 36.89594 26.01689
# Shear Modulus (GPa) = 23.96123 40.47463 32.21793
#
# Velocity S-wave (km/s) = 3.10601 4.03682 3.60161
# Velocity P-wave (km/s) = 4.35406 6.04838 5.26976
#
# Compressibility (1/GPa) = 0.06605959
#
# Stress axis : x y z
#
# Youngs Moduli (GPa) = 73.03679 74.17788 28.72941
#
# Poissons Ratio (x) = 0.16588 0.07866
# Poissons Ratio (y) = 0.16333 -0.20150
# Poissons Ratio (z) = 0.19997 -0.52027
#
# Static dielectric constant tensor:
#      x y z
#    x 2.168670 -0.105290 0.085060 
#    y -0.105290 1.960190 0.109040 
#    z 0.085060 0.109040 1.921750 
# 
# From -- ./inp_files/506006.got.cif
#   From: 2010.05.17/outbox.cif.g08.bks.cpg/sg2_254_cif.got.tgz:506006.got - 2010.06.03 11:33:40.
