data_PCOD9063326
_publ_section_title
;
Structure prediction by ZEFSAII (Michael W. Deem and Ramdas Pophale) SiO2 
 PCOD9063326
Probable space group: P -1
;
_chemical_formula_sum "Si O2"
_cell_formula_units_Z 16
_cell_length_a 8.427537
_cell_length_b 8.493742
_cell_length_c 11.600391
_cell_angle_alpha 72.966523
_cell_angle_beta 112.464697
_cell_angle_gamma 117.051233
_cell_volume 676.210172
_symmetry_space_group_name_H-M "P -1"
_symmetry_group_IT_number 2
_symmetry_cell_setting 'triclinic'
loop_
_space_group_symop_operation_xyz
x,y,z
-x,-y,-z
loop_
_atom_site_type_symbol
_atom_site_label
_atom_site_fract_x
_atom_site_fract_y
_atom_site_fract_z
Si Si1 0.677980 0.968900 0.004608
Si Si2 0.347433 0.136448 0.224515
Si Si3 0.313665 0.620471 0.594854
Si Si4 0.947430 0.028237 0.244560
Si Si5 0.888959 0.366483 0.893278
Si Si6 0.412675 0.770858 0.337895
Si Si7 0.046387 0.652812 0.699663
Si Si8 0.810472 0.758553 0.444883
O O1 0.781923 0.903176 0.144568
O O2 0.834604 0.160916 0.960850
O O3 0.500000 0.000000 0.000000
O O4 0.625615 0.835332 0.910798
O O5 0.487696 0.289862 0.309073
O O6 0.139328 0.097560 0.214907
O O7 0.391204 0.959134 0.291138
O O8 0.321853 0.679899 0.452081
O O9 0.174972 0.676762 0.620401
O O10 0.239358 0.409359 0.616980
O O11 0.877292 0.185284 0.224330
O O12 0.961778 0.925088 0.385681
O O13 0.688249 0.338553 0.782150
O O14 0.012490 0.468328 0.795053
O O15 0.000000 0.500000 0.000000
O O16 0.626246 0.797944 0.398727
O O17 0.870766 0.690864 0.593497
#
# Coordination Sequence:
#
# PCOD9063326 Si02
#       8
#     2   2   2   2   2   2   2   2
#     4  11  24  47  71 100 142 192 238 287 355 421
#     4  11  26  44  70 101 143 191 237 291 351 424
#     4  12  25  43  70 105 144 179 239 291 353 422
#     4  12  25  46  70 103 145 190 238 286 356 427
#     4  11  24  43  77 100 139 183 238 287 352 415
#     4  11  24  46  71 103 144 187 233 296 359 415
#     4  12  25  45  73 106 141 186 236 294 358 420
#     4  12  26  43  73 106 144 181 236 294 358 420
#
# _framework density 23.661282
#
# number of rings (size 3 to 8) (size 9 to 14) (size 15 to 20)
#    0.000    0.500    2.500    6.375    5.250    0.000 
#    0.000    0.625    0.000    0.000    0.000    0.000 
#    0.000    0.000    0.000    0.000    0.000    0.000 
#
# Total GULP energy -89369.066118 kJ/mol
# GULP energy per Si atom -5585.566632 kJ/mol
# Density = 2.360743 g / cm^3
# Si number density = 23.661282 Si / 1000 Ang^3
#
#
#
# Elastic Constant Matrix: (Units=GPa)
#
#
# Indices 1 2 3 4 5 6 
#
# 1 101.0474 0.6101 13.5638 -0.1939 -5.5966 -5.4553
# 2 0.6101 51.3721 17.6173 13.9914 -5.0818 -3.4781
# 3 13.5638 17.6173 133.9446 12.8187 -10.9583 9.9150
# 4 -0.1939 13.9914 12.8187 37.9492 3.0422 2.0421
# 5 -5.5966 -5.0818 -10.9583 3.0422 31.0288 3.6939
# 6 -5.4553 -3.4781 9.9150 2.0421 3.6939 23.8777
#
#
#
# Elastic Compliance Matrix: (Units=1/GPa)
#
#
# Indices 1 2 3 4 5 6 
#
# 1 0.010272 0.000603 -0.001227 0.000001 0.001190 0.002760
# 2 0.000603 0.023173 -0.002397 -0.008249 0.003306 0.004702
# 3 -0.001227 -0.002397 0.008704 -0.002074 0.003207 -0.004562
# 4 0.000001 -0.008249 -0.002074 0.030598 -0.004820 -0.002211
# 5 0.001190 0.003306 0.003207 -0.004820 0.035258 -0.005620
# 6 0.002760 0.004702 -0.004562 -0.002211 -0.005620 0.046149
#
#
# Mechanical properties :
#
#
# Convention : Reuss Voigt Hill
#
# Bulk Modulus (GPa) = 27.69501 38.88294 33.28898
# Shear Modulus (GPa) = 29.03078 35.54267 32.28672
#
# Velocity S-wave (km/s) = 3.50656 3.87996 3.69797
# Velocity P-wave (km/s) = 5.30328 6.04491 5.68620
#
# Compressibility (1/GPa) = 0.03610759
#
# Stress axis : x y z
#
# Youngs Moduli (GPa) = 97.34974 43.15416 114.89244
#
# Poissons Ratio (x) = -0.02602 0.14092
# Poissons Ratio (y) = -0.05870 0.27540
# Poissons Ratio (z) = 0.11940 0.10344
#
# Static dielectric constant tensor:
#      x y z
#    x 1.880130 0.025370 0.010950 
#    y 0.025370 1.960100 0.028670 
#    z 0.010950 0.028670 1.950820 
# 
# From -- ./inp_files/381799.got.cif
#   From: 2010.05.17/outbox.cif.g08.bks.cpg/sg2_191_cif.got.tgz:381799.got - 2010.06.03 11:33:40.
