data_PCOD9063590
_publ_section_title
;
Structure prediction by ZEFSAII (Michael W. Deem and Ramdas Pophale) SiO2 
 PCOD9063590
Probable space group: P -1
;
_chemical_formula_sum "Si O2"
_cell_formula_units_Z 16
_cell_length_a 17.299068
_cell_length_b 5.422636
_cell_length_c 9.553768
_cell_angle_alpha 101.707354
_cell_angle_beta 45.429829
_cell_angle_gamma 108.899423
_cell_volume 603.633892
_symmetry_space_group_name_H-M "P -1"
_symmetry_group_IT_number 2
_symmetry_cell_setting 'triclinic'
loop_
_space_group_symop_operation_xyz
x,y,z
-x,-y,-z
loop_
_atom_site_type_symbol
_atom_site_label
_atom_site_fract_x
_atom_site_fract_y
_atom_site_fract_z
Si Si1 0.437339 0.825427 0.870903
Si Si2 0.601079 0.709805 0.466069
Si Si3 0.172154 0.384552 0.506378
Si Si4 0.153711 0.390688 0.836771
Si Si5 0.711465 0.109063 0.165592
Si Si6 0.865062 0.988215 0.745158
Si Si7 0.024240 0.389744 0.277228
Si Si8 0.580012 0.336073 0.820631
O O1 0.546907 0.722645 0.688633
O O2 0.342150 0.737674 0.865378
O O3 0.495468 0.129014 0.808730
O O4 0.392012 0.790030 0.081356
O O5 0.500000 0.500000 0.500000
O O6 0.726570 0.676495 0.305379
O O7 0.619770 0.964369 0.374783
O O8 0.115463 0.299266 0.719224
O O9 0.172846 0.153914 0.370059
O O10 0.300872 0.537440 0.382963
O O11 0.101894 0.580614 0.561017
O O12 0.191050 0.704554 0.844934
O O13 0.065324 0.311655 0.065041
O O14 0.763206 0.924042 0.979704
O O15 0.951098 0.827072 0.675040
O O16 0.907453 0.305856 0.737589
O O17 0.500000 0.500000 0.000000
#
# Coordination Sequence:
#
# PCOD9063590 Si02
#       8
#     2   2   2   2   2   2   2   2
#     4  11  25  42  69 103 146 194 241 301 366 448
#     4  12  24  39  70 101 139 191 248 292 363 440
#     4  12  26  46  77 108 146 192 248 316 375 443
#     4  11  25  47  71 107 148 188 250 308 375 435
#     4  11  24  44  71 102 146 199 241 302 368 453
#     4  11  26  50  80 107 152 191 254 305 383 446
#     4  11  26  55  76 111 144 202 248 312 374 457
#     4  11  26  46  68 106 150 186 241 304 379 433
#
# _framework density 26.506135
#
# number of rings (size 3 to 8) (size 9 to 14) (size 15 to 20)
#    0.000    0.750    2.500    3.750    8.750    1.000 
#   11.250    1.875    0.000    0.000    0.000    0.000 
#    0.000    0.000    0.000    0.000    0.000    0.000 
#
# Total GULP energy -89470.693996 kJ/mol
# GULP energy per Si atom -5591.918375 kJ/mol
# Density = 2.644581 g / cm^3
# Si number density = 26.506135 Si / 1000 Ang^3
#
#
#
# Elastic Constant Matrix: (Units=GPa)
#
#
# Indices 1 2 3 4 5 6 
#
# 1 78.7089 14.3570 16.7686 11.2802 -2.8821 -11.9240
# 2 14.3570 65.4534 7.7165 2.9910 3.2554 0.2725
# 3 16.7686 7.7165 157.3250 23.5697 11.5210 2.9233
# 4 11.2802 2.9910 23.5697 51.0233 -1.9819 -4.3561
# 5 -2.8821 3.2554 11.5210 -1.9819 63.2337 10.0570
# 6 -11.9240 0.2725 2.9233 -4.3561 10.0570 28.3460
#
#
#
# Elastic Compliance Matrix: (Units=1/GPa)
#
#
# Indices 1 2 3 4 5 6 
#
# 1 0.014719 -0.003018 -0.001237 -0.001990 0.000030 0.006032
# 2 -0.003018 0.016033 -0.000355 -0.000236 -0.000720 -0.001168
# 3 -0.001237 -0.000355 0.007089 -0.003139 -0.001222 -0.001297
# 4 -0.001990 -0.000236 -0.003139 0.021751 0.000768 0.002559
# 5 0.000030 -0.000720 -0.001222 0.000768 0.017018 -0.005774
# 6 0.006032 -0.001168 -0.001297 0.002559 -0.005774 0.040403
#
#
# Mechanical properties :
#
#
# Convention : Reuss Voigt Hill
#
# Bulk Modulus (GPa) = 34.93895 42.13015 38.53455
# Shear Modulus (GPa) = 36.82577 46.03027 41.42802
#
# Velocity S-wave (km/s) = 3.73142 4.17176 3.95772
# Velocity P-wave (km/s) = 5.63690 6.25570 5.95435
#
# Compressibility (1/GPa) = 0.02862135
#
# Stress axis : x y z
#
# Youngs Moduli (GPa) = 67.93836 62.36965 141.05699
#
# Poissons Ratio (x) = 0.18826 0.17449
# Poissons Ratio (y) = 0.20507 0.05005
# Poissons Ratio (z) = 0.08404 0.02213
#
# Static dielectric constant tensor:
#      x y z
#    x 1.828920 0.753810 0.894880 
#    y 0.753810 -0.617230 -2.995370 
#    z 0.894880 -2.995370 -1.174080 
# 
# From -- ./inp_files/323826.got.cif
#   From: 2010.05.17/outbox.cif.g08.bks.cpg/sg2_162_cif.got.tgz:323826.got - 2010.06.03 11:33:40.
