data_PCOD9063436
_publ_section_title
;
Structure prediction by ZEFSAII (Michael W. Deem and Ramdas Pophale) SiO2 
 PCOD9063436
Probable space group: P -1
;
_chemical_formula_sum "Si O2"
_cell_formula_units_Z 16
_cell_length_a 9.012656
_cell_length_b 5.118203
_cell_length_c 18.205474
_cell_angle_alpha 78.740621
_cell_angle_beta 130.453217
_cell_angle_gamma 102.489389
_cell_volume 622.198774
_symmetry_space_group_name_H-M "P -1"
_symmetry_group_IT_number 2
_symmetry_cell_setting 'triclinic'
loop_
_space_group_symop_operation_xyz
x,y,z
-x,-y,-z
loop_
_atom_site_type_symbol
_atom_site_label
_atom_site_fract_x
_atom_site_fract_y
_atom_site_fract_z
Si Si1 0.128877 0.837250 0.665793
Si Si2 0.296342 0.515667 0.235958
Si Si3 0.971664 0.788013 0.938362
Si Si4 0.339733 0.754870 0.978870
Si Si5 0.403376 0.411108 0.549107
Si Si6 0.590060 0.763486 0.193145
Si Si7 0.819716 0.178699 0.479430
Si Si8 0.916301 0.549162 0.207286
O O1 0.327493 0.937334 0.769075
O O2 0.015308 0.073183 0.581688
O O3 0.181563 0.714348 0.611060
O O4 0.008779 0.671889 0.700775
O O5 0.213609 0.268870 0.170810
O O6 0.434615 0.461203 0.349065
O O7 0.455096 0.683848 0.225364
O O8 0.104358 0.625808 0.207976
O O9 0.000000 0.500000 0.000000
O O10 0.146655 0.879321 0.934009
O O11 0.000000 0.000000 0.000000
O O12 0.432019 0.648046 0.087271
O O13 0.259051 0.554608 0.900500
O O14 0.500000 0.000000 0.000000
O O15 0.500000 0.500000 0.500000
O O16 0.222562 0.574950 0.497860
O O17 0.336016 0.093035 0.551827
O O18 0.795941 0.700641 0.222493
#
# Coordination Sequence:
#
# PCOD9063436 Si02
#       8
#     2   2   2   2   2   2   2   2
#     4  11  25  45  73 108 145 194 254 313 378 454
#     4  11  26  48  74 113 147 202 257 308 384 456
#     4  11  26  47  74 109 152 195 245 313 368 448
#     4  11  24  44  68 110 145 194 251 306 375 451
#     4  12  26  48  74 110 152 202 254 320 380 457
#     4  12  24  47  76 101 150 199 249 308 380 454
#     4  11  27  46  75 108 150 199 254 315 390 443
#     4  11  26  45  71 108 146 192 250 313 372 452
#
# _framework density 25.715256
#
# number of rings (size 3 to 8) (size 9 to 14) (size 15 to 20)
#    0.000    0.750    3.750    2.250    5.250    5.000 
#    0.000    0.000    0.000    0.000    0.000    0.000 
#    0.000    0.000    0.000    0.000    0.000    0.000 
#
# Total GULP energy -89141.549044 kJ/mol
# GULP energy per Si atom -5571.346815 kJ/mol
# Density = 2.565673 g / cm^3
# Si number density = 25.715256 Si / 1000 Ang^3
#
#
#
# Elastic Constant Matrix: (Units=GPa)
#
#
# Indices 1 2 3 4 5 6 
#
# 1 159.2102 40.6580 11.7795 2.7265 -27.2722 10.6445
# 2 40.6580 87.4969 20.8580 18.3495 -11.4301 5.8700
# 3 11.7795 20.8580 128.4293 13.3448 -23.5705 4.2090
# 4 2.7265 18.3495 13.3448 29.5437 3.4398 0.2636
# 5 -27.2722 -11.4301 -23.5705 3.4398 56.8891 4.9200
# 6 10.6445 5.8700 4.2090 0.2636 4.9200 29.8625
#
#
#
# Elastic Compliance Matrix: (Units=1/GPa)
#
#
# Indices 1 2 3 4 5 6 
#
# 1 0.007856 -0.003265 0.000472 0.000706 0.003506 -0.002809
# 2 -0.003265 0.015441 -0.000846 -0.009112 0.001910 -0.001987
# 3 0.000472 -0.000846 0.009158 -0.004134 0.004270 -0.001960
# 4 0.000706 -0.009112 -0.004134 0.041982 -0.005980 0.002737
# 5 0.003506 0.001910 0.004270 -0.005980 0.022279 -0.005845
# 6 -0.002809 -0.001987 -0.001960 0.002737 -0.005845 0.036094
#
#
# Mechanical properties :
#
#
# Convention : Reuss Voigt Hill
#
# Bulk Modulus (GPa) = 39.71823 57.96971 48.84397
# Shear Modulus (GPa) = 33.67466 43.38178 38.52822
#
# Velocity S-wave (km/s) = 3.62266 4.11177 3.87494
# Velocity P-wave (km/s) = 5.74257 6.71819 6.24945
#
# Compressibility (1/GPa) = 0.02517735
#
# Stress axis : x y z
#
# Youngs Moduli (GPa) = 127.29007 64.76133 109.19412
#
# Poissons Ratio (x) = 0.21143 -0.05151
# Poissons Ratio (y) = 0.41557 0.09238
# Poissons Ratio (z) = -0.06005 0.05479
#
# Static dielectric constant tensor:
#      x y z
#    x 2.005820 -0.025340 0.031970 
#    y -0.025340 2.032630 0.132490 
#    z 0.031970 0.132490 1.684860 
# 
# From -- ./inp_files/37324.got.cif
#   From: 2010.05.17/outbox.cif.g08.bks.cpg/sg2_19_cif.got.tgz:37324.got - 2010.06.03 11:33:40.
