data_PCOD9063683
_publ_section_title
;
Structure prediction by ZEFSAII (Michael W. Deem and Ramdas Pophale) SiO2 
 PCOD9063683
Probable space group: P -1
;
_chemical_formula_sum "Si O2"
_cell_formula_units_Z 16
_cell_length_a 11.439185
_cell_length_b 11.711749
_cell_length_c 5.981925
_cell_angle_alpha 119.312322
_cell_angle_beta 91.210723
_cell_angle_gamma 83.584634
_cell_volume 693.908218
_symmetry_space_group_name_H-M "P -1"
_symmetry_group_IT_number 2
_symmetry_cell_setting 'triclinic'
loop_
_space_group_symop_operation_xyz
x,y,z
-x,-y,-z
loop_
_atom_site_type_symbol
_atom_site_label
_atom_site_fract_x
_atom_site_fract_y
_atom_site_fract_z
Si Si1 0.101856 0.011085 0.820443
Si Si2 0.289229 0.458898 0.414666
Si Si3 0.757978 0.322797 0.017293
Si Si4 0.961004 0.461575 0.710120
Si Si5 0.985640 0.209994 0.696264
Si Si6 0.582071 0.809242 0.672826
Si Si7 0.438233 0.610892 0.262450
Si Si8 0.338175 0.928086 0.006235
O O1 0.078370 0.902839 0.532122
O O2 0.234393 0.984176 0.887122
O O3 0.085042 0.145625 0.804819
O O4 0.000000 0.000000 0.000000
O O5 0.257887 0.539284 0.719603
O O6 0.178943 0.491319 0.274200
O O7 0.330977 0.304200 0.305383
O O8 0.395827 0.534214 0.399584
O O9 0.892780 0.287996 0.932960
O O10 0.681329 0.327788 0.796883
O O11 0.715016 0.199157 0.023709
O O12 0.005977 0.305886 0.585442
O O13 0.000000 0.500000 0.500000
O O14 0.000000 0.500000 0.000000
O O15 0.524166 0.721845 0.403609
O O16 0.640947 0.939085 0.727967
O O17 0.466682 0.867678 0.865572
O O18 0.500000 0.500000 0.000000
#
# Coordination Sequence:
#
# PCOD9063683 Si02
#       8
#     2   2   2   2   2   2   2   2
#     4  11  24  45  77 104 147 202 258 322 385 478
#     4  12  25  47  74 106 151 202 259 313 398 474
#     4  12  22  44  78 106 147 201 261 325 375 483
#     4  12  29  48  77 115 157 200 256 336 399 467
#     4  11  25  45  74 112 140 201 265 314 396 473
#     4  11  25  45  69 108 149 201 249 330 389 466
#     4  12  23  41  73 104 142 200 266 308 380 470
#     4  11  24  44  72 106 152 195 251 328 391 457
#
# _framework density 23.057804999999998
#
# number of rings (size 3 to 8) (size 9 to 14) (size 15 to 20)
#    0.000    0.500    5.000    3.375    3.500    0.500 
#    0.000    1.250    0.000    0.000    0.000    0.000 
#    0.000    0.000    0.000    0.000    0.000    0.000 
#
# Total GULP energy -89225.807922 kJ/mol
# GULP energy per Si atom -5576.612995 kJ/mol
# Density = 2.300532 g / cm^3
# Si number density = 23.057805 Si / 1000 Ang^3
#
#
#
# Elastic Constant Matrix: (Units=GPa)
#
#
# Indices 1 2 3 4 5 6 
#
# 1 77.0587 54.0628 29.7501 -6.3763 12.4288 -19.1678
# 2 54.0628 154.2792 23.8685 10.2700 -5.6812 -17.3018
# 3 29.7501 23.8685 92.8970 18.1873 2.0812 -1.5091
# 4 -6.3763 10.2700 18.1873 37.8773 3.7166 4.8964
# 5 12.4288 -5.6812 2.0812 3.7166 38.4055 -0.9178
# 6 -19.1678 -17.3018 -1.5091 4.8964 -0.9178 40.3576
#
#
#
# Elastic Compliance Matrix: (Units=1/GPa)
#
#
# Indices 1 2 3 4 5 6 
#
# 1 0.026014 -0.008162 -0.007946 0.010480 -0.010041 0.007059
# 2 -0.008162 0.009817 0.001007 -0.005108 0.004559 0.001093
# 3 -0.007946 0.001007 0.014666 -0.008704 0.002728 -0.001676
# 4 0.010480 -0.005108 -0.008704 0.034670 -0.007076 -0.001905
# 5 -0.010041 0.004559 0.002728 -0.007076 0.030471 -0.001161
# 6 0.007059 0.001093 -0.001676 -0.001905 -0.001161 0.028742
#
#
# Mechanical properties :
#
#
# Convention : Reuss Voigt Hill
#
# Bulk Modulus (GPa) = 49.27317 59.95531 54.61424
# Shear Modulus (GPa) = 27.57148 37.76497 32.66823
#
# Velocity S-wave (km/s) = 3.46172 4.05141 3.76812
# Velocity P-wave (km/s) = 6.11505 6.92415 6.53214
#
# Compressibility (1/GPa) = 0.02029502
#
# Stress axis : x y z
#
# Youngs Moduli (GPa) = 38.44093 101.86769 68.18405
#
# Poissons Ratio (x) = 0.83147 0.54179
# Poissons Ratio (y) = 0.31377 -0.06869
# Poissons Ratio (z) = 0.30545 -0.10262
#
# Static dielectric constant tensor:
#      x y z
#    x 1.896420 0.041870 0.019610 
#    y 0.041870 2.033220 0.064100 
#    z 0.019610 0.064100 1.966760 
# 
# From -- ./inp_files/72280.got.cif
#   From: 2010.05.17/outbox.cif.g08.bks.cpg/sg2_37_cif.got.tgz:72280.got - 2010.06.03 11:33:40.
