data_PCOD9063801
_publ_section_title
;
Structure prediction by ZEFSAII (Michael W. Deem and Ramdas Pophale) SiO2 
 PCOD9063801
Probable space group: P -1
;
_chemical_formula_sum "Si O2"
_cell_formula_units_Z 12
_cell_length_a 9.370104
_cell_length_b 10.241485
_cell_length_c 12.065171
_cell_angle_alpha 144.028161
_cell_angle_beta 121.235195
_cell_angle_gamma 42.180607
_cell_volume 446.884093
_symmetry_space_group_name_H-M "P -1"
_symmetry_group_IT_number 2
_symmetry_cell_setting 'triclinic'
loop_
_space_group_symop_operation_xyz
x,y,z
-x,-y,-z
loop_
_atom_site_type_symbol
_atom_site_label
_atom_site_fract_x
_atom_site_fract_y
_atom_site_fract_z
Si Si1 0.598283 0.121227 0.192641
Si Si2 0.096242 0.794706 0.744677
Si Si3 0.361427 0.870750 0.134776
Si Si4 0.510055 0.672397 0.291740
Si Si5 0.839839 0.921824 0.381951
Si Si6 0.832200 0.542687 0.665435
O O1 0.749798 0.138250 0.186897
O O2 0.373019 0.425066 0.350954
O O3 0.736734 0.954088 0.243864
O O4 0.500000 0.000000 0.000000
O O5 0.245200 0.519015 0.695653
O O6 0.052406 0.688462 0.544976
O O7 0.866824 0.058041 0.881936
O O8 0.465086 0.839239 0.273769
O O9 0.280961 0.149207 0.224302
O O10 0.510057 0.569847 0.922418
O O11 0.347196 0.864644 0.457356
O O12 0.000000 0.000000 0.500000
O O13 0.992228 0.589935 0.258460
#
# Coordination Sequence:
#
# PCOD9063801 Si02
#       6
#     2   2   2   2   2   2
#     4  12  27  48  77 114 153 198 258 321 380 455
#     4  12  23  46  77 106 152 204 251 315 382 447
#     4  11  26  46  72 117 151 198 256 314 378 453
#     4  11  24  44  74 105 154 199 248 310 384 449
#     4  12  24  47  80 111 151 207 253 310 391 452
#     4  12  25  45  78 115 149 198 260 317 374 459
#
# _framework density 26.852601
#
# number of rings (size 3 to 8) (size 9 to 14) (size 15 to 20)
#    0.000    0.333    5.000    3.500    0.000    2.667 
#    0.000    3.333    0.000    0.000    0.000    0.000 
#    0.000    0.000    0.000    0.000    0.000    0.000 
#
# Total GULP energy -67312.938124 kJ/mol
# GULP energy per Si atom -5609.411510 kJ/mol
# Density = 2.679148 g / cm^3
# Si number density = 26.852601 Si / 1000 Ang^3
#
#
#
# Elastic Constant Matrix: (Units=GPa)
#
#
# Indices 1 2 3 4 5 6 
#
# 1 134.3036 53.2784 53.6805 2.4720 4.0606 -3.8173
# 2 53.2784 260.7407 45.9112 -23.7832 3.8155 11.6922
# 3 53.6805 45.9112 104.6680 -10.2650 5.5186 12.6135
# 4 2.4720 -23.7832 -10.2650 54.1072 3.9683 -1.7414
# 5 4.0606 3.8155 5.5186 3.9683 29.6259 0.6960
# 6 -3.8173 11.6922 12.6135 -1.7414 0.6960 40.7627
#
#
#
# Elastic Compliance Matrix: (Units=1/GPa)
#
#
# Indices 1 2 3 4 5 6 
#
# 1 0.010205 -0.001495 -0.005119 -0.001998 -0.000053 0.002884
# 2 -0.001495 0.004522 -0.000879 0.001887 -0.000441 -0.001077
# 3 -0.005119 -0.000879 0.013411 0.002395 -0.001905 -0.004242
# 4 -0.001998 0.001887 0.002395 0.020066 -0.003090 -0.000560
# 5 -0.000053 -0.000441 -0.001905 -0.003090 0.034587 -0.000012
# 6 0.002884 -0.001077 -0.004242 -0.000560 -0.000012 0.026400
#
#
# Mechanical properties :
#
#
# Convention : Reuss Voigt Hill
#
# Bulk Modulus (GPa) = 76.02389 89.49473 82.75931
# Shear Modulus (GPa) = 38.89189 48.02196 43.45693
#
# Velocity S-wave (km/s) = 3.80984 4.23348 4.02724
# Velocity P-wave (km/s) = 6.90842 7.56948 7.24649
#
# Compressibility (1/GPa) = 0.01315376
#
# Stress axis : x y z
#
# Youngs Moduli (GPa) = 97.99039 221.12710 74.56344
#
# Poissons Ratio (x) = 0.33052 0.38168
# Poissons Ratio (y) = 0.14646 0.06554
# Poissons Ratio (z) = 0.50160 0.19436
#
# Static dielectric constant tensor:
#      x y z
#    x 2.128420 0.073410 0.037680 
#    y 0.073410 2.083180 0.009320 
#    z 0.037680 0.009320 2.202230 
# 
# From -- ./inp_files/519406.got.cif
#   From: 2010.05.17/outbox.cif.g08.bks.cpg/sg2_260_cif.got.tgz:519406.got - 2010.06.03 11:33:40.
