data_PCOD9063862
_publ_section_title
;
Structure prediction by ZEFSAII (Michael W. Deem and Ramdas Pophale) SiO2 
 PCOD9063862
Probable space group: P -1
;
_chemical_formula_sum "Si O2"
_cell_formula_units_Z 16
_cell_length_a 5.485608
_cell_length_b 13.691675
_cell_length_c 11.389741
_cell_angle_alpha 111.790274
_cell_angle_beta 73.843845
_cell_angle_gamma 125.534534
_cell_volume 644.180986
_symmetry_space_group_name_H-M "P -1"
_symmetry_group_IT_number 2
_symmetry_cell_setting 'triclinic'
loop_
_space_group_symop_operation_xyz
x,y,z
-x,-y,-z
loop_
_atom_site_type_symbol
_atom_site_label
_atom_site_fract_x
_atom_site_fract_y
_atom_site_fract_z
Si Si1 0.698884 0.545876 0.111193
Si Si2 0.700554 0.358109 0.191631
Si Si3 0.448362 0.362883 0.455625
Si Si4 0.487070 0.906857 0.863939
Si Si5 0.726925 0.225847 0.778503
Si Si6 0.828903 0.018892 0.244339
Si Si7 0.270822 0.592463 0.333437
Si Si8 0.073032 0.896341 0.478200
O O1 0.701246 0.428904 0.108390
O O2 0.543106 0.579216 0.249617
O O3 0.028422 0.670803 0.120426
O O4 0.500000 0.500000 0.000000
O O5 0.439682 0.325943 0.305595
O O6 0.683039 0.231306 0.122160
O O7 0.983811 0.462936 0.274352
O O8 0.500000 0.500000 0.500000
O O9 0.705784 0.380003 0.519845
O O10 0.169868 0.242286 0.500717
O O11 0.280147 0.909571 0.790644
O O12 0.500000 0.000000 0.000000
O O13 0.173838 0.055146 0.201356
O O14 0.712900 0.301605 0.702965
O O15 0.835725 0.139720 0.671188
O O16 0.392328 0.127865 0.823911
O O17 0.750774 0.040618 0.396447
O O18 0.000000 0.000000 0.500000
#
# Coordination Sequence:
#
# PCOD9063862 Si02
#       8
#     2   2   2   2   2   2   2   2
#     4  11  26  50  78 109 154 206 266 337 398 480
#     4  11  26  46  75 116 149 207 265 332 404 481
#     4  12  22  43  78 111 160 199 265 330 413 484
#     4  12  30  53  78 115 158 214 276 330 396 477
#     4  11  26  47  76 117 152 206 264 323 412 486
#     4  12  28  50  81 114 160 215 262 331 402 481
#     4  11  24  44  75 110 155 198 258 334 406 480
#     4  12  25  47  76 118 167 210 263 336 412 499
#
# _framework density 24.837741999999999
#
# number of rings (size 3 to 8) (size 9 to 14) (size 15 to 20)
#    0.000    0.500    3.750    3.375    7.000    4.000 
#    0.000    0.000    0.000    0.000    0.000    0.000 
#    0.000    0.000    0.000    0.000    0.000    0.000 
#
# Total GULP energy -89425.824897 kJ/mol
# GULP energy per Si atom -5589.114056 kJ/mol
# Density = 2.478121 g / cm^3
# Si number density = 24.837742 Si / 1000 Ang^3
#
#
#
# Elastic Constant Matrix: (Units=GPa)
#
#
# Indices 1 2 3 4 5 6 
#
# 1 96.2968 44.2700 40.4116 -1.1748 13.8368 -11.0047
# 2 44.2700 182.4689 34.0185 9.5457 23.1123 -23.7730
# 3 40.4116 34.0185 123.0830 0.5300 23.5394 -24.0345
# 4 -1.1748 9.5457 0.5300 26.1475 -2.6092 -14.4930
# 5 13.8368 23.1123 23.5394 -2.6092 61.9280 4.3683
# 6 -11.0047 -23.7730 -24.0345 -14.4930 4.3683 40.9288
#
#
#
# Elastic Compliance Matrix: (Units=1/GPa)
#
#
# Indices 1 2 3 4 5 6 
#
# 1 0.013147 -0.002459 -0.003319 0.002007 -0.000741 0.000947
# 2 -0.002459 0.006836 -0.000031 -0.001086 -0.002258 0.003148
# 3 -0.003319 -0.000031 0.011411 0.003334 -0.003965 0.007394
# 4 0.002007 -0.001086 0.003334 0.049362 -0.000600 0.019410
# 5 -0.000741 -0.002258 -0.003965 -0.000600 0.019067 -0.006086
# 6 0.000947 0.003148 0.007394 0.019410 -0.006086 0.038380
#
#
# Mechanical properties :
#
#
# Convention : Reuss Voigt Hill
#
# Bulk Modulus (GPa) = 50.56613 71.02764 60.79689
# Shear Modulus (GPa) = 31.96698 44.67744 38.32221
#
# Velocity S-wave (km/s) = 3.59142 4.24579 3.93224
# Velocity P-wave (km/s) = 6.13192 7.25909 6.71919
#
# Compressibility (1/GPa) = 0.01977608
#
# Stress axis : x y z
#
# Youngs Moduli (GPa) = 76.06390 146.29461 87.63731
#
# Poissons Ratio (x) = 0.35968 0.29086
# Poissons Ratio (y) = 0.18701 0.00271
# Poissons Ratio (z) = 0.25245 0.00452
#
# Static dielectric constant tensor:
#      x y z
#    x 2.154930 0.126770 -0.076790 
#    y 0.126770 2.004010 -0.074260 
#    z -0.076790 -0.074260 2.039030 
# 
# From -- ./inp_files/364793.got.cif
#   From: 2010.05.17/outbox.cif.g08.bks.cpg/sg2_183_cif.got.tgz:364793.got - 2010.06.03 11:33:40.
