data_PCOD9063558
_publ_section_title
;
Structure prediction by ZEFSAII (Michael W. Deem and Ramdas Pophale) SiO2 
 PCOD9063558
Probable space group: P -1
;
_chemical_formula_sum "Si O2"
_cell_formula_units_Z 14
_cell_length_a 5.222303
_cell_length_b 9.796555
_cell_length_c 17.362200
_cell_angle_alpha 38.042852
_cell_angle_beta 95.404066
_cell_angle_gamma 95.542676
_cell_volume 544.594050
_symmetry_space_group_name_H-M "P -1"
_symmetry_group_IT_number 2
_symmetry_cell_setting 'triclinic'
loop_
_space_group_symop_operation_xyz
x,y,z
-x,-y,-z
loop_
_atom_site_type_symbol
_atom_site_label
_atom_site_fract_x
_atom_site_fract_y
_atom_site_fract_z
Si Si1 0.065555 0.332512 0.006503
Si Si2 0.650809 0.939799 0.608790
Si Si3 0.848252 0.325650 0.272271
Si Si4 0.374809 0.976777 0.091037
Si Si5 0.801485 0.879105 0.261224
Si Si6 0.940915 0.426359 0.698790
Si Si7 0.566958 0.692934 0.477233
O O1 0.023161 0.493078 0.862261
O O2 0.000000 0.500000 0.000000
O O3 0.312651 0.205067 0.032396
O O4 0.919148 0.111361 0.131618
O O5 0.441573 0.758439 0.719344
O O6 0.933776 0.856984 0.638715
O O7 0.500000 0.000000 0.500000
O O8 0.659393 0.157353 0.565773
O O9 0.847466 0.443064 0.303117
O O10 0.552365 0.852358 0.211897
O O11 0.136742 0.799235 0.156240
O O12 0.500000 0.000000 0.000000
O O13 0.737672 0.865909 0.354017
O O14 0.970645 0.674050 0.334451
O O15 0.719230 0.592698 0.597438
O O16 0.500000 0.500000 0.500000
#
# Coordination Sequence:
#
# PCOD9063558 Si02
#       7
#     2   2   2   2   2   2   2
#     4  11  27  46  72 104 148 200 247 314 381 451
#     4  12  29  50  76 115 152 197 255 312 374 466
#     4  12  28  49  80 109 153 199 253 309 385 447
#     4  11  24  44  70 106 141 187 254 306 368 455
#     4  11  25  44  70 105 144 185 254 307 371 455
#     4  11  25  45  74 107 143 199 244 312 383 449
#     4  12  26  46  76 108 148 196 249 316 381 450
#
# _framework density 25.707222999999999
#
# number of rings (size 3 to 8) (size 9 to 14) (size 15 to 20)
#    0.000    0.571    2.857    3.429   10.000    4.000 
#    0.000    0.000    0.000    0.000    0.000    0.000 
#    0.000    0.000    0.000    0.000    0.000    0.000 
#
# Total GULP energy -78198.332707 kJ/mol
# GULP energy per Si atom -5585.595193 kJ/mol
# Density = 2.564871 g / cm^3
# Si number density = 25.707223 Si / 1000 Ang^3
#
#
#
# Elastic Constant Matrix: (Units=GPa)
#
#
# Indices 1 2 3 4 5 6 
#
# 1 73.2532 32.4050 19.1866 -12.5423 3.2385 -20.7060
# 2 32.4050 136.2207 29.1251 -16.8240 -13.9687 -14.8009
# 3 19.1866 29.1251 118.3791 1.3225 -10.6584 -16.3712
# 4 -12.5423 -16.8240 1.3225 39.0921 -4.8036 -5.8892
# 5 3.2385 -13.9687 -10.6584 -4.8036 36.2094 -0.4414
# 6 -20.7060 -14.8009 -16.3712 -5.8892 -0.4414 44.0259
#
#
#
# Elastic Compliance Matrix: (Units=1/GPa)
#
#
# Indices 1 2 3 4 5 6 
#
# 1 0.018622 -0.002763 -0.001502 0.005760 -0.002312 0.008018
# 2 -0.002763 0.009391 -0.001272 0.003991 0.004049 0.001959
# 3 -0.001502 -0.001272 0.009552 -0.000705 0.002390 0.002347
# 4 0.005760 0.003991 -0.000705 0.030990 0.005025 0.007984
# 5 -0.002312 0.004049 0.002390 0.005025 0.030782 0.002144
# 6 0.008018 0.001959 0.002347 0.007984 0.002144 0.029106
#
#
# Mechanical properties :
#
#
# Convention : Reuss Voigt Hill
#
# Bulk Modulus (GPa) = 37.74914 54.36517 46.05715
# Shear Modulus (GPa) = 33.70462 40.34122 37.02292
#
# Velocity S-wave (km/s) = 3.62483 3.96568 3.79908
# Velocity P-wave (km/s) = 5.67762 6.49327 6.09910
#
# Compressibility (1/GPa) = 0.02649067
#
# Stress axis : x y z
#
# Youngs Moduli (GPa) = 53.70024 106.48226 104.69547
#
# Poissons Ratio (x) = 0.29423 0.15725
# Poissons Ratio (y) = 0.14839 0.13315
# Poissons Ratio (z) = 0.08066 0.13542
#
# Static dielectric constant tensor:
#      x y z
#    x 2.199960 0.033630 -0.101580 
#    y 0.033630 2.030490 -0.051240 
#    z -0.101580 -0.051240 2.060390 
# 
# From -- ./inp_files/47382.got.cif
#   From: 2010.05.17/outbox.cif.g08.bks.cpg/sg2_24_cif.got.tgz:47382.got - 2010.06.03 11:33:40.
