data_PCOD9063183
_publ_section_title
;
Structure prediction by ZEFSAII (Michael W. Deem and Ramdas Pophale) SiO2 
 PCOD9063183
Probable space group: P -1
;
_chemical_formula_sum "Si O2"
_cell_formula_units_Z 14
_cell_length_a 11.896795
_cell_length_b 10.804775
_cell_length_c 7.014140
_cell_angle_alpha 82.462178
_cell_angle_beta 56.360683
_cell_angle_gamma 109.705067
_cell_volume 645.911325
_symmetry_space_group_name_H-M "P -1"
_symmetry_group_IT_number 2
_symmetry_cell_setting 'triclinic'
loop_
_space_group_symop_operation_xyz
x,y,z
-x,-y,-z
loop_
_atom_site_type_symbol
_atom_site_label
_atom_site_fract_x
_atom_site_fract_y
_atom_site_fract_z
Si Si1 0.590403 0.728228 0.313089
Si Si2 0.192677 0.509696 0.202166
Si Si3 0.012253 0.662441 0.232003
Si Si4 0.535010 0.219471 0.916345
Si Si5 0.721789 0.526819 0.258086
Si Si6 0.399162 0.975536 0.403694
Si Si7 0.857308 0.034719 0.126232
O O1 0.587575 0.749366 0.084464
O O2 0.652974 0.628593 0.362474
O O3 0.407803 0.638791 0.556115
O O4 0.705286 0.886442 0.245120
O O5 0.065303 0.386072 0.478023
O O6 0.323051 0.627062 0.191398
O O7 0.127420 0.598764 0.129746
O O8 0.252751 0.447857 0.995304
O O9 0.879260 0.582388 0.215006
O O10 0.093770 0.832106 0.088772
O O11 0.582010 0.133068 0.736967
O O12 0.470534 0.123072 0.185285
O O13 0.217587 0.923002 0.632511
O O14 0.500000 0.000000 0.500000
O O15 0.000000 0.000000 0.000000
#
# Coordination Sequence:
#
# PCOD9063183 Si02
#       7
#     2   2   2   2   2   2   2
#     4  11  24  45  69 102 136 181 239 282 346 425
#     4  11  25  43  71 101 137 182 236 288 345 413
#     4  11  25  44  67 102 141 177 234 285 350 421
#     4  11  24  43  72 109 131 182 247 285 341 422
#     4  11  24  47  70  95 141 188 229 286 344 413
#     4  11  24  43  72 101 143 183 232 293 350 416
#     4  12  25  45  71 105 144 184 228 292 363 417
#
# _framework density 21.674800999999999
#
# number of rings (size 3 to 8) (size 9 to 14) (size 15 to 20)
#    0.000    0.857    4.286    2.143    4.000    4.000 
#    0.000    1.429    0.000    0.000    0.000    0.000 
#    0.000    0.000    0.000    0.000    0.000    0.000 
#
# Total GULP energy -78117.316704 kJ/mol
# GULP energy per Si atom -5579.808336 kJ/mol
# Density = 2.162547 g / cm^3
# Si number density = 21.674801 Si / 1000 Ang^3
#
#
#
# Elastic Constant Matrix: (Units=GPa)
#
#
# Indices 1 2 3 4 5 6 
#
# 1 66.2565 17.2087 14.0285 7.0914 5.3842 -2.7974
# 2 17.2087 70.9631 19.6626 -23.7045 -0.7660 5.6468
# 3 14.0285 19.6626 84.3500 -11.2828 6.1361 -20.3387
# 4 7.0914 -23.7045 -11.2828 39.5411 -0.6430 12.3573
# 5 5.3842 -0.7660 6.1361 -0.6430 26.3576 -1.9918
# 6 -2.7974 5.6468 -20.3387 12.3573 -1.9918 30.4839
#
#
#
# Elastic Compliance Matrix: (Units=1/GPa)
#
#
# Indices 1 2 3 4 5 6 
#
# 1 0.019397 -0.008987 -0.000590 -0.011419 -0.003803 0.007432
# 2 -0.008987 0.026945 -0.006661 0.021822 0.003274 -0.018892
# 3 -0.000590 -0.006661 0.016491 -0.003408 -0.002985 0.013369
# 4 -0.011419 0.021822 -0.003408 0.047791 0.002920 -0.026547
# 5 -0.003803 0.003274 -0.002985 0.002920 0.039461 -0.001552
# 6 0.007432 -0.018892 0.013369 -0.026547 -0.001552 0.056565
#
#
# Mechanical properties :
#
#
# Convention : Reuss Voigt Hill
#
# Bulk Modulus (GPa) = 32.94149 35.92991 34.43570
# Shear Modulus (GPa) = 20.06057 30.65451 25.35754
#
# Velocity S-wave (km/s) = 3.04554 3.76479 3.42410
# Velocity P-wave (km/s) = 5.25340 5.95911 5.61735
#
# Compressibility (1/GPa) = 0.03035685
#
# Stress axis : x y z
#
# Youngs Moduli (GPa) = 51.55431 37.11274 60.63915
#
# Poissons Ratio (x) = 0.33354 0.03576
# Poissons Ratio (y) = 0.46334 0.40391
# Poissons Ratio (z) = 0.03041 0.24721
#
# Static dielectric constant tensor:
#      x y z
#    x 1.807770 -0.047050 -0.024710 
#    y -0.047050 1.848870 0.064690 
#    z -0.024710 0.064690 1.841940 
# 
# From -- ./inp_files/69735.got.cif
#   From: 2010.05.17/outbox.cif.g08.bks.cpg/sg2_35_cif.got.tgz:69735.got - 2010.06.03 11:33:40.
