data_PCOD9063493
_publ_section_title
;
Structure prediction by ZEFSAII (Michael W. Deem and Ramdas Pophale) SiO2 
 PCOD9063493
Probable space group: P -1
;
_chemical_formula_sum "Si O2"
_cell_formula_units_Z 16
_cell_length_a 14.483174
_cell_length_b 9.403215
_cell_length_c 13.006876
_cell_angle_alpha 65.395732
_cell_angle_beta 52.190633
_cell_angle_gamma 107.569705
_cell_volume 803.246724
_symmetry_space_group_name_H-M "P -1"
_symmetry_group_IT_number 2
_symmetry_cell_setting 'triclinic'
loop_
_space_group_symop_operation_xyz
x,y,z
-x,-y,-z
loop_
_atom_site_type_symbol
_atom_site_label
_atom_site_fract_x
_atom_site_fract_y
_atom_site_fract_z
Si Si1 0.539837 0.590227 0.294980
Si Si2 0.357726 0.070575 0.597476
Si Si3 0.339876 0.565419 0.067604
Si Si4 0.949880 0.629054 0.508692
Si Si5 0.773096 0.486485 0.453844
Si Si6 0.100710 0.940711 0.962855
Si Si7 0.531137 0.991418 0.654051
Si Si8 0.670180 0.785296 0.915351
O O1 0.496448 0.362980 0.411457
O O2 0.359942 0.502790 0.476335
O O3 0.713217 0.833249 0.167893
O O4 0.584379 0.666829 0.122165
O O5 0.428713 0.014115 0.646508
O O6 0.163956 0.932140 0.814858
O O7 0.353642 0.992497 0.510703
O O8 0.175101 0.464165 0.278852
O O9 0.293626 0.345777 0.121451
O O10 0.521224 0.725099 0.966869
O O11 0.393479 0.737426 0.887186
O O12 0.832338 0.551728 0.511741
O O13 0.000000 0.500000 0.500000
O O14 0.139035 0.923176 0.294321
O O15 0.657774 0.215183 0.581066
O O16 0.957488 0.686279 0.199625
O O17 0.000000 0.000000 0.000000
#
# Coordination Sequence:
#
# PCOD9063493 Si02
#       8
#     2   2   2   2   2   2   2   2
#     4  12  22  46  72 100 136 180 234 276 339 410
#     4  11  24  44  69  97 139 181 227 280 338 403
#     4  11  25  46  72  97 139 183 223 280 346 404
#     4  12  27  43  68 109 138 173 226 283 347 406
#     4  12  25  42  68 100 138 179 226 282 338 406
#     4  12  24  41  71 102 132 178 230 281 333 399
#     4  11  25  44  67  99 138 184 223 276 347 401
#     4  11  24  46  73 100 134 182 228 279 341 410
#
# _framework density 19.919160000000002
#
# number of rings (size 3 to 8) (size 9 to 14) (size 15 to 20)
#    0.000    0.500    6.250    2.250    3.500    1.500 
#    0.000    1.250    0.000    0.000    0.000    0.000 
#    0.000    0.000    0.000    0.000    0.000    0.000 
#
# Total GULP energy -89514.418767 kJ/mol
# GULP energy per Si atom -5594.651173 kJ/mol
# Density = 1.987382 g / cm^3
# Si number density = 19.919160 Si / 1000 Ang^3
#
#
#
# Elastic Constant Matrix: (Units=GPa)
#
#
# Indices 1 2 3 4 5 6 
#
# 1 75.6955 34.7263 49.6507 -9.8310 2.5479 -7.0449
# 2 34.7263 115.1461 61.1612 7.2673 -4.0409 -9.2185
# 3 49.6507 61.1612 139.0340 23.2118 11.0054 -12.5296
# 4 -9.8310 7.2673 23.2118 43.9808 -2.2048 -1.9486
# 5 2.5479 -4.0409 11.0054 -2.2048 34.0382 1.1751
# 6 -7.0449 -9.2185 -12.5296 -1.9486 1.1751 33.2528
#
#
#
# Elastic Compliance Matrix: (Units=1/GPa)
#
#
# Indices 1 2 3 4 5 6 
#
# 1 0.020824 -0.002552 -0.007860 0.009342 0.001242 0.001246
# 2 -0.002552 0.012056 -0.004552 0.000037 0.003063 0.000980
# 3 -0.007860 -0.004552 0.014021 -0.008570 -0.005111 0.002034
# 4 0.009342 0.000037 -0.008570 0.029558 0.003979 0.000352
# 5 0.001242 0.003063 -0.005111 0.003979 0.031618 -0.001698
# 6 0.001246 0.000980 0.002034 0.000352 -0.001698 0.031456
#
#
# Mechanical properties :
#
#
# Convention : Reuss Voigt Hill
#
# Bulk Modulus (GPa) = 58.91710 68.99466 63.95588
# Shear Modulus (GPa) = 28.55224 34.54354 31.54789
#
# Velocity S-wave (km/s) = 3.79014 4.16887 3.98401
# Velocity P-wave (km/s) = 6.98541 7.60823 7.30346
#
# Compressibility (1/GPa) = 0.01697300
#
# Stress axis : x y z
#
# Youngs Moduli (GPa) = 48.02054 82.94711 71.32373
#
# Poissons Ratio (x) = 0.21166 0.56059
# Poissons Ratio (y) = 0.12254 0.32469
# Poissons Ratio (z) = 0.37743 0.37761
#
# Static dielectric constant tensor:
#      x y z
#    x 1.724000 0.002670 0.007600 
#    y 0.002670 1.689350 0.011190 
#    z 0.007600 0.011190 1.682030 
# 
# From -- ./inp_files/273511.got.cif
#   From: 2010.05.17/outbox.cif.g08.bks.cpg/sg2_137_cif.got.tgz:273511.got - 2010.06.03 11:33:40.
