data_PCOD9063360
_publ_section_title
;
Structure prediction by ZEFSAII (Michael W. Deem and Ramdas Pophale) SiO2 
 PCOD9063360
Probable space group: P -1
;
_chemical_formula_sum "Si O2"
_cell_formula_units_Z 16
_cell_length_a 18.305264
_cell_length_b 15.023068
_cell_length_c 5.901467
_cell_angle_alpha 49.961815
_cell_angle_beta 68.195198
_cell_angle_gamma 39.661923
_cell_volume 767.185767
_symmetry_space_group_name_H-M "P -1"
_symmetry_group_IT_number 2
_symmetry_cell_setting 'triclinic'
loop_
_space_group_symop_operation_xyz
x,y,z
-x,-y,-z
loop_
_atom_site_type_symbol
_atom_site_label
_atom_site_fract_x
_atom_site_fract_y
_atom_site_fract_z
Si Si1 0.754369 0.589614 0.603317
Si Si2 0.412812 0.444736 0.046546
Si Si3 0.667723 0.220116 0.343016
Si Si4 0.017557 0.340306 0.749480
Si Si5 0.860107 0.830541 0.612139
Si Si6 0.316099 0.129370 0.469083
Si Si7 0.583304 0.819876 0.067560
Si Si8 0.437342 0.780063 0.142345
O O1 0.662276 0.592181 0.794189
O O2 0.738400 0.736907 0.483623
O O3 0.711656 0.651680 0.294422
O O4 0.891099 0.414052 0.770805
O O5 0.539127 0.322215 0.228851
O O6 0.331728 0.641627 0.892494
O O7 0.463632 0.402079 0.803733
O O8 0.659636 0.185280 0.669238
O O9 0.774595 0.037007 0.397501
O O10 0.077563 0.240173 0.597021
O O11 0.000000 0.500000 0.500000
O O12 0.074448 0.252072 0.080801
O O13 0.775605 0.811057 0.713491
O O14 0.399794 0.133886 0.260552
O O15 0.377073 0.944145 0.784298
O O16 0.512853 0.779408 0.217486
O O17 0.500000 0.000000 0.000000
#
# Coordination Sequence:
#
# PCOD9063360 Si02
#       8
#     2   2   2   2   2   2   2   2
#     4  12  25  42  65 101 140 180 230 285 353 418
#     4  11  24  44  66 101 135 183 232 291 350 417
#     4  11  25  44  69  96 138 181 238 287 348 415
#     4  12  27  46  72 102 143 186 237 290 350 421
#     4  12  26  47  70 103 137 191 236 290 350 415
#     4  12  23  36  67  97 139 172 224 286 353 419
#     4  12  22  34  58 100 141 176 213 275 361 429
#     4  12  21  38  64 103 138 181 221 280 357 429
#
# _framework density 20.855443000000001
#
# number of rings (size 3 to 8) (size 9 to 14) (size 15 to 20)
#    0.000    0.250    6.250    4.125    1.750    0.000 
#    0.000    1.250    0.000    0.000    0.000    0.000 
#    0.000    0.000    0.000    0.000    0.000    0.000 
#
# Total GULP energy -89082.986296 kJ/mol
# GULP energy per Si atom -5567.686643 kJ/mol
# Density = 2.080798 g / cm^3
# Si number density = 20.855443 Si / 1000 Ang^3
#
#
#
# Elastic Constant Matrix: (Units=GPa)
#
#
# Indices 1 2 3 4 5 6 
#
# 1 98.1507 27.8329 45.4072 -13.1195 17.0840 -0.1874
# 2 27.8329 113.1424 34.7860 -4.0307 4.5314 15.9467
# 3 45.4072 34.7860 73.7453 -9.3228 22.2224 7.3670
# 4 -13.1195 -4.0307 -9.3228 23.3419 -1.0685 -1.3137
# 5 17.0840 4.5314 22.2224 -1.0685 27.7484 -3.9218
# 6 -0.1874 15.9467 7.3670 -1.3137 -3.9218 29.1239
#
#
#
# Elastic Compliance Matrix: (Units=1/GPa)
#
#
# Indices 1 2 3 4 5 6 
#
# 1 0.015258 -0.001541 -0.007497 0.005353 -0.002545 0.002738
# 2 -0.001541 0.011183 -0.004609 -0.000946 0.002110 -0.004726
# 3 -0.007497 -0.004609 0.026548 0.004480 -0.016607 -0.006274
# 4 0.005353 -0.000946 0.004480 0.047308 -0.004779 0.000909
# 5 -0.002545 0.002110 -0.016607 -0.004779 0.051759 0.009783
# 6 0.002738 -0.004726 -0.006274 0.000909 0.009783 0.039887
#
#
# Mechanical properties :
#
#
# Convention : Reuss Voigt Hill
#
# Bulk Modulus (GPa) = 38.92179 55.67673 47.29926
# Shear Modulus (GPa) = 21.94890 27.84367 24.89628
#
# Velocity S-wave (km/s) = 3.24764 3.65784 3.45882
# Velocity P-wave (km/s) = 5.72416 6.67789 6.21933
#
# Compressibility (1/GPa) = 0.02569255
#
# Stress axis : x y z
#
# Youngs Moduli (GPa) = 65.54073 89.42539 37.66747
#
# Poissons Ratio (x) = 0.13785 0.28241
# Poissons Ratio (y) = 0.10103 0.17361
# Poissons Ratio (z) = 0.49139 0.41215
#
# Static dielectric constant tensor:
#      x y z
#    x 1.772610 0.005770 0.098330 
#    y 0.005770 1.895410 0.030560 
#    z 0.098330 0.030560 1.821700 
# 
# From -- ./inp_files/77237.got.cif
#   From: 2010.05.17/outbox.cif.g08.bks.cpg/sg2_39_cif.got.tgz:77237.got - 2010.06.03 11:33:40.
