data_PCOD9063884
_publ_section_title
;
Structure prediction by ZEFSAII (Michael W. Deem and Ramdas Pophale) SiO2 
 PCOD9063884
Probable space group: P -1
;
_chemical_formula_sum "Si O2"
_cell_formula_units_Z 16
_cell_length_a 8.737561
_cell_length_b 14.681184
_cell_length_c 8.321483
_cell_angle_alpha 51.236121
_cell_angle_beta 72.461080
_cell_angle_gamma 103.791912
_cell_volume 649.639873
_symmetry_space_group_name_H-M "P -1"
_symmetry_group_IT_number 2
_symmetry_cell_setting 'triclinic'
loop_
_space_group_symop_operation_xyz
x,y,z
-x,-y,-z
loop_
_atom_site_type_symbol
_atom_site_label
_atom_site_fract_x
_atom_site_fract_y
_atom_site_fract_z
Si Si1 0.452579 0.814712 0.034979
Si Si2 0.678024 0.602455 0.449585
Si Si3 0.824280 0.300583 0.458008
Si Si4 0.557847 0.698396 0.681657
Si Si5 0.135045 0.145204 0.116952
Si Si6 0.040840 0.165362 0.472074
Si Si7 0.535035 0.087438 0.554298
Si Si8 0.203427 0.556570 0.180713
O O1 0.357073 0.756396 0.303196
O O2 0.290086 0.707908 0.072694
O O3 0.647148 0.816281 0.950025
O O4 0.503627 0.972097 0.821659
O O5 0.500000 0.500000 0.500000
O O6 0.581113 0.645567 0.564752
O O7 0.770912 0.530564 0.591252
O O8 0.836419 0.741335 0.145023
O O9 0.736696 0.238113 0.377566
O O10 0.934952 0.224454 0.532809
O O11 0.987885 0.464232 0.272552
O O12 0.729719 0.719432 0.712463
O O13 0.597891 0.853564 0.479429
O O14 0.355898 0.590704 0.954069
O O15 0.014508 0.139781 0.316638
O O16 0.027248 0.984913 0.265688
O O17 0.500000 0.000000 0.500000
#
# Coordination Sequence:
#
# PCOD9063884 Si02
#       8
#     2   2   2   2   2   2   2   2
#     4  12  24  51  74 106 158 201 241 317 376 449
#     4  12  25  42  74 110 145 199 250 310 372 447
#     4  12  28  45  77 110 151 197 254 302 386 444
#     4  12  26  48  76 107 154 196 255 307 382 439
#     4  11  24  44  76 108 147 192 252 301 378 440
#     4  11  24  47  75 108 144 195 244 315 367 444
#     4  12  26  49  76 110 146 206 246 312 378 451
#     4  12  26  50  73 107 156 205 244 310 379 452
#
# _framework density 24.629031000000001
#
# number of rings (size 3 to 8) (size 9 to 14) (size 15 to 20)
#    0.000    0.250    6.250    1.875    5.250    2.000 
#    0.000    0.000    0.000    0.000    0.000    0.000 
#    0.000    0.000    0.000    0.000    0.000    0.000 
#
# Total GULP energy -89491.661254 kJ/mol
# GULP energy per Si atom -5593.228828 kJ/mol
# Density = 2.457297 g / cm^3
# Si number density = 24.629031 Si / 1000 Ang^3
#
#
#
# Elastic Constant Matrix: (Units=GPa)
#
#
# Indices 1 2 3 4 5 6 
#
# 1 59.5905 10.1752 6.5093 -11.8537 -7.0842 13.1429
# 2 10.1752 132.5462 -0.3357 -9.5616 -9.5176 7.8155
# 3 6.5093 -0.3357 106.8991 -19.6049 6.0601 -1.9333
# 4 -11.8537 -9.5616 -19.6049 29.8481 -5.3282 -5.5644
# 5 -7.0842 -9.5176 6.0601 -5.3282 35.6298 -9.0881
# 6 13.1429 7.8155 -1.9333 -5.5644 -9.0881 42.7206
#
#
#
# Elastic Compliance Matrix: (Units=1/GPa)
#
#
# Indices 1 2 3 4 5 6 
#
# 1 0.019757 -0.000447 -0.000118 0.007537 0.003886 -0.004193
# 2 -0.000447 0.007989 0.000468 0.003024 0.002311 -0.000417
# 3 -0.000118 0.000468 0.010754 0.007365 -0.000285 0.001336
# 4 0.007537 0.003024 0.007365 0.044907 0.009108 0.005248
# 5 0.003886 0.002311 -0.000285 0.009108 0.032518 0.006473
# 6 -0.004193 -0.000417 0.001336 0.005248 0.006473 0.026895
#
#
# Mechanical properties :
#
#
# Convention : Reuss Voigt Hill
#
# Bulk Modulus (GPa) = 26.10565 36.85927 31.48246
# Shear Modulus (GPa) = 32.09619 40.48550 36.29084
#
# Velocity S-wave (km/s) = 3.61388 4.05879 3.84278
# Velocity P-wave (km/s) = 5.29491 6.07975 5.70085
#
# Compressibility (1/GPa) = 0.03830589
#
# Stress axis : x y z
#
# Youngs Moduli (GPa) = 50.61607 125.17608 92.98594
#
# Poissons Ratio (x) = 0.05594 0.01100
# Poissons Ratio (y) = 0.02262 -0.04355
# Poissons Ratio (z) = 0.00599 -0.05862
#
# Static dielectric constant tensor:
#      x y z
#    x 1.940070 -0.010750 0.097290 
#    y -0.010750 1.935930 0.045820 
#    z 0.097290 0.045820 1.862740 
# 
# From -- ./inp_files/205521.got.cif
#   From: 2010.05.17/outbox.cif.g08.bks.cpg/sg2_103_cif.got.tgz:205521.got - 2010.06.03 11:33:40.
