data_PCOD9063392
_publ_section_title
;
Structure prediction by ZEFSAII (Michael W. Deem and Ramdas Pophale) SiO2 
 PCOD9063392
Probable space group: P -1
;
_chemical_formula_sum "Si O2"
_cell_formula_units_Z 16
_cell_length_a 18.780342
_cell_length_b 9.303474
_cell_length_c 11.496926
_cell_angle_alpha 107.165977
_cell_angle_beta 141.190323
_cell_angle_gamma 45.052445
_cell_volume 728.583174
_symmetry_space_group_name_H-M "P -1"
_symmetry_group_IT_number 2
_symmetry_cell_setting 'triclinic'
loop_
_space_group_symop_operation_xyz
x,y,z
-x,-y,-z
loop_
_atom_site_type_symbol
_atom_site_label
_atom_site_fract_x
_atom_site_fract_y
_atom_site_fract_z
Si Si1 0.847317 0.441689 0.841682
Si Si2 0.541802 0.543080 0.439466
Si Si3 0.600714 0.170976 0.024392
Si Si4 0.840781 0.413739 0.091439
Si Si5 0.533140 0.996431 0.256892
Si Si6 0.356484 0.588622 0.004791
Si Si7 0.843809 0.762752 0.425676
Si Si8 0.273712 0.104154 0.280301
O O1 0.739955 0.418743 0.635413
O O2 0.833988 0.389593 0.941776
O O3 0.740331 0.716991 0.758732
O O4 0.062391 0.258873 0.047539
O O5 0.500000 0.500000 0.500000
O O6 0.500919 0.468746 0.266167
O O7 0.400836 0.834962 0.329390
O O8 0.439525 0.402416 0.961039
O O9 0.758925 0.952566 0.262242
O O10 0.526328 0.113654 0.837499
O O11 0.680824 0.213727 0.053941
O O12 0.815272 0.307126 0.124206
O O13 0.656983 0.712676 0.945972
O O14 0.040051 0.276527 0.336634
O O15 0.673551 0.858925 0.294097
O O16 0.639113 0.947774 0.493920
O O17 0.000000 0.500000 0.500000
#
# Coordination Sequence:
#
# PCOD9063392 Si02
#       8
#     2   2   2   2   2   2   2   2
#     4  11  24  44  67 104 132 171 225 279 336 394
#     4  12  24  43  71  97 139 181 218 270 340 402
#     4  11  25  44  70  96 140 178 223 279 327 400
#     4  12  23  42  70  96 135 176 223 276 333 399
#     4  12  22  44  72  99 134 173 227 281 333 394
#     4  11  25  46  65 100 138 185 221 263 341 405
#     4  12  24  40  70 101 129 174 230 281 334 383
#     4  11  25  42  71 104 132 171 226 282 338 394
#
# _framework density 21.960429999999999
#
# number of rings (size 3 to 8) (size 9 to 14) (size 15 to 20)
#    0.000    0.500    6.250    2.250    1.750    1.000 
#    2.250    0.000    0.000    0.000    0.000    0.000 
#    0.000    0.000    0.000    0.000    0.000    0.000 
#
# Total GULP energy -89363.501586 kJ/mol
# GULP energy per Si atom -5585.218849 kJ/mol
# Density = 2.191045 g / cm^3
# Si number density = 21.960430 Si / 1000 Ang^3
#
#
#
# Elastic Constant Matrix: (Units=GPa)
#
#
# Indices 1 2 3 4 5 6 
#
# 1 60.6215 30.3733 -28.1409 -35.5972 -6.8071 18.6364
# 2 30.3733 14.3800 42.4586 36.6995 17.0211 4.6500
# 3 -28.1409 42.4586 44.5993 -26.9599 2.7673 9.9504
# 4 -35.5972 36.6995 -26.9599 10.1122 -5.0304 -2.7380
# 5 -6.8071 17.0211 2.7673 -5.0304 36.6081 5.5587
# 6 18.6364 4.6500 9.9504 -2.7380 5.5587 29.6060
#
#
#
# Elastic Compliance Matrix: (Units=1/GPa)
#
#
# Indices 1 2 3 4 5 6 
#
# 1 0.009553 0.007755 -0.003283 -0.005691 -0.001393 -0.006393
# 2 0.007755 0.008075 0.005894 0.011771 -0.000073 -0.007029
# 3 -0.003283 0.005894 0.010208 -0.008808 -0.005004 -0.002165
# 4 -0.005691 0.011771 -0.008808 0.011870 -0.005264 0.006780
# 5 -0.001393 -0.000073 -0.005004 -0.005264 0.027206 -0.003025
# 6 -0.006393 -0.007029 -0.002165 0.006780 -0.003025 0.040828
#
#
# Mechanical properties :
#
#
# Convention : Reuss Voigt Hill
#
# Bulk Modulus (GPa) = 20.58876 23.22031 21.90453
# Shear Modulus (GPa) = 48.45122 20.25926 34.35524
#
# Velocity S-wave (km/s) = 4.70222 3.04062 3.95956
# Velocity P-wave (km/s) = 6.23513 4.78788 5.55881
#
# Compressibility (1/GPa) = 0.04857020
#
# Stress axis : x y z
#
# Youngs Moduli (GPa) = 104.67553 123.84474 97.95889
#
# Poissons Ratio (x) = -0.96044 0.32157
# Poissons Ratio (y) = -0.81178 -0.57742
# Poissons Ratio (z) = 0.34362 -0.73000
#
# Static dielectric constant tensor:
#      x y z
#    x 1.790750 -0.002210 -0.029300 
#    y -0.002210 1.851860 0.083840 
#    z -0.029300 0.083840 1.871110 
# 
# From -- ./inp_files/284702.got.cif
#   From: 2010.05.17/outbox.cif.g08.bks.cpg/sg2_143_cif.got.tgz:284702.got - 2010.06.03 11:33:40.
