data_PCOD9063252
_publ_section_title
;
Structure prediction by ZEFSAII (Michael W. Deem and Ramdas Pophale) SiO2 
 PCOD9063252
Probable space group: P -1
;
_chemical_formula_sum "Si O2"
_cell_formula_units_Z 14
_cell_length_a 6.629693
_cell_length_b 11.791603
_cell_length_c 10.844031
_cell_angle_alpha 98.459865
_cell_angle_beta 96.586445
_cell_angle_gamma 134.892517
_cell_volume 564.396905
_symmetry_space_group_name_H-M "P -1"
_symmetry_group_IT_number 2
_symmetry_cell_setting 'triclinic'
loop_
_space_group_symop_operation_xyz
x,y,z
-x,-y,-z
loop_
_atom_site_type_symbol
_atom_site_label
_atom_site_fract_x
_atom_site_fract_y
_atom_site_fract_z
Si Si1 0.808893 0.126360 0.829761
Si Si2 0.842175 0.345896 0.053369
Si Si3 0.189507 0.239014 0.649372
Si Si4 0.224023 0.383834 0.290181
Si Si5 0.392259 0.073174 0.603135
Si Si6 0.803932 0.305580 0.439668
Si Si7 0.662155 0.818848 0.823433
O O1 0.787135 0.208587 0.949458
O O2 0.078657 0.248929 0.770837
O O3 0.523160 0.038998 0.707405
O O4 0.840911 0.012744 0.871680
O O5 0.546634 0.272579 0.085705
O O6 0.000000 0.500000 0.000000
O O7 0.065170 0.404299 0.187725
O O8 0.440281 0.427759 0.642048
O O9 0.326635 0.169721 0.673494
O O10 0.903562 0.088639 0.518916
O O11 0.202898 0.247747 0.210804
O O12 0.029556 0.313672 0.387940
O O13 0.650480 0.203923 0.539939
O O14 0.541872 0.236047 0.318598
O O15 0.000000 0.500000 0.500000
#
# Coordination Sequence:
#
# PCOD9063252 Si02
#       7
#     2   2   2   2   2   2   2
#     4  12  26  46  75 102 151 194 239 301 361 436
#     4  11  26  49  77 104 141 189 249 305 364 422
#     4  11  24  43  73 109 143 190 238 299 363 426
#     4  11  26  46  75 109 147 188 244 304 359 432
#     4  11  25  46  73 110 149 192 243 296 367 431
#     4  11  24  45  73 108 151 194 239 300 361 432
#     4  11  27  46  69 109 144 192 243 294 370 429
#
# _framework density 24.805237999999999
#
# number of rings (size 3 to 8) (size 9 to 14) (size 15 to 20)
#    0.000    0.857    2.857    2.571    4.000    8.000 
#    0.000    0.000    0.000    0.000    0.000    0.000 
#    0.000    0.000    0.000    0.000    0.000    0.000 
#
# Total GULP energy -78433.292056 kJ/mol
# GULP energy per Si atom -5602.378004 kJ/mol
# Density = 2.474878 g / cm^3
# Si number density = 24.805238 Si / 1000 Ang^3
#
#
#
# Elastic Constant Matrix: (Units=GPa)
#
#
# Indices 1 2 3 4 5 6 
#
# 1 124.6438 38.8246 27.0805 -12.9224 -31.3633 -6.8880
# 2 38.8246 144.9429 26.1449 -14.2811 -3.3769 3.9791
# 3 27.0805 26.1449 83.2022 -6.6780 -18.4365 10.9535
# 4 -12.9224 -14.2811 -6.6780 42.2469 -8.0157 -3.7201
# 5 -31.3633 -3.3769 -18.4365 -8.0157 49.9034 -0.7178
# 6 -6.8880 3.9791 10.9535 -3.7201 -0.7178 39.4226
#
#
#
# Elastic Compliance Matrix: (Units=1/GPa)
#
#
# Indices 1 2 3 4 5 6 
#
# 1 0.011494 -0.002319 -0.001497 0.004146 0.007226 0.003181
# 2 -0.002319 0.007978 -0.001874 0.001374 -0.001398 -0.000585
# 3 -0.001497 -0.001874 0.014779 0.001775 0.004621 -0.003927
# 4 0.004146 0.001374 0.001775 0.027412 0.007798 0.002821
# 5 0.007226 -0.001398 0.004621 0.007798 0.027465 0.001356
# 6 0.003181 -0.000585 -0.003927 0.002821 0.001356 0.027363
#
#
# Mechanical properties :
#
#
# Convention : Reuss Voigt Hill
#
# Bulk Modulus (GPa) = 43.72790 59.65435 51.69112
# Shear Modulus (GPa) = 36.90184 43.69717 40.29950
#
# Velocity S-wave (km/s) = 3.86121 4.20171 4.03505
# Velocity P-wave (km/s) = 6.12742 6.90220 6.52632
#
# Compressibility (1/GPa) = 0.02286870
#
# Stress axis : x y z
#
# Youngs Moduli (GPa) = 86.99891 125.35242 67.66548
#
# Poissons Ratio (x) = 0.29073 0.10132
# Poissons Ratio (y) = 0.20178 0.12683
# Poissons Ratio (z) = 0.13026 0.23495
#
# Static dielectric constant tensor:
#      x y z
#    x 1.988110 -0.010860 0.009340 
#    y -0.010860 2.017200 0.077670 
#    z 0.009340 0.077670 1.964660 
# 
# From -- ./inp_files/365015.got.cif
#   From: 2010.05.17/outbox.cif.g08.bks.cpg/sg2_183_cif.got.tgz:365015.got - 2010.06.03 11:33:40.
