data_PCOD9063977
_publ_section_title
;
Structure prediction by ZEFSAII (Michael W. Deem and Ramdas Pophale) SiO2 
 PCOD9063977
Probable space group: P -1
;
_chemical_formula_sum "Si O2"
_cell_formula_units_Z 14
_cell_length_a 4.857165
_cell_length_b 16.674969
_cell_length_c 7.015305
_cell_angle_alpha 71.660927
_cell_angle_beta 101.962367
_cell_angle_gamma 98.603351
_cell_volume 525.438451
_symmetry_space_group_name_H-M "P -1"
_symmetry_group_IT_number 2
_symmetry_cell_setting 'triclinic'
loop_
_space_group_symop_operation_xyz
x,y,z
-x,-y,-z
loop_
_atom_site_type_symbol
_atom_site_label
_atom_site_fract_x
_atom_site_fract_y
_atom_site_fract_z
Si Si1 0.162230 0.925512 0.993404
Si Si2 0.619018 0.766963 0.676522
Si Si3 0.000000 0.500000 0.000000
Si Si4 0.004657 0.399795 0.700712
Si Si5 0.160746 0.750534 0.944318
Si Si6 0.422529 0.054590 0.627540
Si Si7 0.549170 0.607611 0.559830
Si Si8 0.500000 0.500000 0.000000
O O1 0.056461 0.835375 0.963419
O O2 0.279975 0.978003 0.789324
O O3 0.353327 0.905711 0.215513
O O4 0.000000 0.000000 0.000000
O O5 0.439120 0.771631 0.841746
O O6 0.698462 0.860780 0.532022
O O7 0.470867 0.697523 0.563360
O O8 0.907748 0.725191 0.783723
O O9 0.154758 0.454143 0.859922
O O10 0.274121 0.572145 0.953507
O O11 0.742891 0.439594 0.530092
O O12 0.229580 0.379248 0.590247
O O13 0.851026 0.317065 0.839794
O O14 0.500000 0.000000 0.500000
O O15 0.675010 0.548952 0.790029
#
# Coordination Sequence:
#
# PCOD9063977 Si02
#       8
#     2   2   1   2   2   2   2   1
#     4  11  26  41  72 105 148 197 250 306 366 446
#     4  12  26  46  75 102 154 195 246 304 373 441
#     4  12  26  48  74 108 148 192 242 306 364 450
#     4  12  27  48  77 111 152 194 250 304 379 443
#     4  12  26  47  72 106 151 197 244 306 368 448
#     4  11  24  45  68 108 145 198 249 303 372 435
#     4  12  27  48  77 113 147 200 243 312 371 450
#     4  12  26  48  74 108 148 186 250 296 374 438
#
# _framework density 26.644414000000001
#
# number of rings (size 3 to 8) (size 9 to 14) (size 15 to 20)
#    0.000    0.286    1.429    6.857    6.000    4.571 
#    0.000    0.000    0.000    0.000    0.000    0.000 
#    0.000    0.000    0.000    0.000    0.000    0.000 
#
# Total GULP energy -78056.528297 kJ/mol
# GULP energy per Si atom -5575.466307 kJ/mol
# Density = 2.658377 g / cm^3
# Si number density = 26.644414 Si / 1000 Ang^3
#
#
#
# Elastic Constant Matrix: (Units=GPa)
#
#
# Indices 1 2 3 4 5 6 
#
# 1 159.2517 -7.2825 53.8951 9.8473 -26.7909 -7.2248
# 2 -7.2825 144.9803 52.6675 -3.8964 -11.8003 -7.2384
# 3 53.8951 52.6675 215.1257 0.8499 -12.9516 -9.1868
# 4 9.8473 -3.8964 0.8499 51.3609 -6.2034 3.6470
# 5 -26.7909 -11.8003 -12.9516 -6.2034 67.5200 5.3744
# 6 -7.2248 -7.2384 -9.1868 3.6470 5.3744 35.2453
#
#
#
# Elastic Compliance Matrix: (Units=1/GPa)
#
#
# Indices 1 2 3 4 5 6 
#
# 1 0.007590 0.001357 -0.002025 -0.001066 0.002682 0.001008
# 2 0.001357 0.007933 -0.002150 0.000479 0.001471 0.001073
# 3 -0.002025 -0.002150 0.005701 0.000069 -0.000130 0.000642
# 4 -0.001066 0.000479 0.000069 0.020090 0.001714 -0.002442
# 5 0.002682 0.001471 -0.000130 0.001714 0.016412 -0.001862
# 6 0.001008 0.001073 0.000642 -0.002442 -0.001862 0.029504
#
#
# Mechanical properties :
#
#
# Convention : Reuss Voigt Hill
#
# Bulk Modulus (GPa) = 64.15068 79.76866 71.95967
# Shear Modulus (GPa) = 50.98874 58.83042 54.90958
#
# Velocity S-wave (km/s) = 4.37930 4.70402 4.54456
# Velocity P-wave (km/s) = 7.04982 7.71407 7.38941
#
# Compressibility (1/GPa) = 0.01558830
#
# Stress axis : x y z
#
# Youngs Moduli (GPa) = 131.76077 126.06104 175.39927
#
# Poissons Ratio (x) = -0.17103 0.35515
# Poissons Ratio (y) = -0.17877 0.37702
# Poissons Ratio (z) = 0.26679 0.27097
#
# Static dielectric constant tensor:
#      x y z
#    x 2.271010 0.266660 0.078670 
#    y 0.266660 2.298960 0.095490 
#    z 0.078670 0.095490 2.151010 
# 
# From -- ./inp_files/7643.got.cif
#   From: 2010.05.17/outbox.cif.g08.bks.cpg/sg2_4_cif.got.tgz:7643.got - 2010.06.03 11:33:40.
