data_PCOD9063153
_publ_section_title
;
Structure prediction by ZEFSAII (Michael W. Deem and Ramdas Pophale) SiO2 
 PCOD9063153
Probable space group: P -1
;
_chemical_formula_sum "Si O2"
_cell_formula_units_Z 16
_cell_length_a 25.156090
_cell_length_b 9.223018
_cell_length_c 21.883073
_cell_angle_alpha 150.488802
_cell_angle_beta 17.616754
_cell_angle_gamma 151.938997
_cell_volume 707.474350
_symmetry_space_group_name_H-M "P -1"
_symmetry_group_IT_number 2
_symmetry_cell_setting 'triclinic'
loop_
_space_group_symop_operation_xyz
x,y,z
-x,-y,-z
loop_
_atom_site_type_symbol
_atom_site_label
_atom_site_fract_x
_atom_site_fract_y
_atom_site_fract_z
Si Si1 0.704288 0.400814 0.378058
Si Si2 0.831133 0.265601 0.835494
Si Si3 0.161649 0.625980 0.535831
Si Si4 0.278280 0.347372 0.681410
Si Si5 0.898953 0.258169 0.895536
Si Si6 0.460867 0.356084 0.123559
Si Si7 0.111452 0.405543 0.289321
Si Si8 0.405293 0.338615 0.780882
O O1 0.761199 0.599281 0.326496
O O2 0.534664 0.440204 0.616368
O O3 0.884442 0.519345 0.267611
O O4 0.647309 0.033652 0.289575
O O5 0.809111 0.169208 0.894815
O O6 0.045562 0.361792 0.614592
O O7 0.683426 0.995361 0.857934
O O8 0.777367 0.574386 0.998844
O O9 0.352308 0.566927 0.287968
O O10 0.011511 0.582007 0.630199
O O11 0.213869 0.979779 0.632206
O O12 0.500000 0.500000 0.500000
O O13 0.191029 0.538498 0.891113
O O14 0.889205 0.943557 0.825719
O O15 0.493718 0.480134 0.202673
O O16 0.666947 0.391694 0.885797
O O17 0.000000 0.500000 0.500000
#
# Coordination Sequence:
#
# PCOD9063153 Si02
#       8
#     2   2   2   2   2   2   2   2
#     4  11  24  43  71 106 148 186 244 310 369 446
#     4  12  27  46  74 106 148 204 251 301 368 442
#     4  12  26  48  75 109 146 197 251 302 379 443
#     4  12  25  44  75 107 149 193 245 311 380 441
#     4  12  26  45  72 106 150 191 246 308 371 442
#     4  12  27  49  75 107 156 194 255 310 362 447
#     4  12  28  47  75 107 149 201 248 305 372 443
#     4  11  24  44  73 107 146 195 243 305 376 435
#
# _framework density 22.615662
#
# number of rings (size 3 to 8) (size 9 to 14) (size 15 to 20)
#    0.000    0.250    2.500    6.375    1.750    7.000 
#    0.000    0.000    0.000    0.000    0.000    0.000 
#    0.000    0.000    0.000    0.000    0.000    0.000 
#
# Total GULP energy -89574.075895 kJ/mol
# GULP energy per Si atom -5598.379743 kJ/mol
# Density = 2.256419 g / cm^3
# Si number density = 22.615662 Si / 1000 Ang^3
#
#
#
# Elastic Constant Matrix: (Units=GPa)
#
#
# Indices 1 2 3 4 5 6 
#
# 1 71.0555 12.1102 4.7937 -6.8736 -10.1491 0.2938
# 2 12.1102 92.6356 22.6614 0.2558 6.8190 13.3022
# 3 4.7937 22.6614 115.1792 6.6169 -13.6659 1.7639
# 4 -6.8736 0.2558 6.6169 23.8569 4.7158 -5.9949
# 5 -10.1491 6.8190 -13.6659 4.7158 33.5602 -2.6228
# 6 0.2938 13.3022 1.7639 -5.9949 -2.6228 29.2002
#
#
#
# Elastic Compliance Matrix: (Units=1/GPa)
#
#
# Indices 1 2 3 4 5 6 
#
# 1 0.015641 -0.002826 0.000228 0.004088 0.005011 0.002406
# 2 -0.002826 0.013185 -0.002945 -0.000736 -0.005131 -0.006412
# 3 0.000228 -0.002945 0.010085 -0.003636 0.005321 0.000462
# 4 0.004088 -0.000736 -0.003636 0.047762 -0.006042 0.009777
# 5 0.005011 -0.005131 0.005321 -0.006042 0.035678 0.003930
# 6 0.002406 -0.006412 0.000462 0.009777 0.003930 0.039476
#
#
# Mechanical properties :
#
#
# Convention : Reuss Voigt Hill
#
# Bulk Modulus (GPa) = 35.93833 39.77788 37.85811
# Shear Modulus (GPa) = 27.44425 33.27713 30.36069
#
# Velocity S-wave (km/s) = 3.48732 3.84007 3.66794
# Velocity P-wave (km/s) = 5.66927 6.10642 5.89190
#
# Compressibility (1/GPa) = 0.02782545
#
# Stress axis : x y z
#
# Youngs Moduli (GPa) = 63.93482 75.84204 99.15553
#
# Poissons Ratio (x) = 0.21433 -0.02260
# Poissons Ratio (y) = 0.18068 0.29200
# Poissons Ratio (z) = -0.01457 0.22334
#
# Static dielectric constant tensor:
#      x y z
#    x 1.500620 0.072840 -0.350260 
#    y 0.072840 1.791270 0.058810 
#    z -0.350260 0.058810 1.627940 
# 
# From -- ./inp_files/601965.got.cif
#   From: 2010.05.17/outbox.cif.g08.bks.cpg/sg2_301_cif.got.tgz:601965.got - 2010.06.03 11:33:40.
