data_PCOD9063546
_publ_section_title
;
Structure prediction by ZEFSAII (Michael W. Deem and Ramdas Pophale) SiO2 
 PCOD9063546
Probable space group: P -1
;
_chemical_formula_sum "Si O2"
_cell_formula_units_Z 14
_cell_length_a 10.274810
_cell_length_b 14.548336
_cell_length_c 6.475258
_cell_angle_alpha 119.938083
_cell_angle_beta 58.629857
_cell_angle_gamma 132.518153
_cell_volume 592.228913
_symmetry_space_group_name_H-M "P -1"
_symmetry_group_IT_number 2
_symmetry_cell_setting 'triclinic'
loop_
_space_group_symop_operation_xyz
x,y,z
-x,-y,-z
loop_
_atom_site_type_symbol
_atom_site_label
_atom_site_fract_x
_atom_site_fract_y
_atom_site_fract_z
Si Si1 0.007702 0.621720 0.534471
Si Si2 0.186655 0.016760 0.103609
Si Si3 0.287512 0.681214 0.020745
Si Si4 0.715157 0.555270 0.409609
Si Si5 0.193266 0.206043 0.633932
Si Si6 0.598894 0.834020 0.269730
Si Si7 0.327796 0.850065 0.791829
O O1 0.114811 0.651925 0.263617
O O2 0.139446 0.746054 0.705570
O O3 0.000000 0.500000 0.500000
O O4 0.190819 0.408114 0.398925
O O5 0.222051 0.135758 0.341456
O O6 0.221249 0.054548 0.876162
O O7 0.991058 0.898654 0.211894
O O8 0.322080 0.971270 0.985001
O O9 0.260023 0.553711 0.813279
O O10 0.324065 0.774459 0.908516
O O11 0.500000 0.500000 0.500000
O O12 0.814238 0.680371 0.323791
O O13 0.456932 0.745758 0.111788
O O14 0.355592 0.244502 0.703735
O O15 0.499132 0.885353 0.544471
#
# Coordination Sequence:
#
# PCOD9063546 Si02
#       7
#     2   2   2   2   2   2   2
#     4  11  25  44  72 103 139 185 233 281 352 419
#     4  11  25  46  69  98 142 187 239 286 348 415
#     4  11  25  45  71 105 141 182 232 291 353 419
#     4  12  25  45  72 104 146 182 229 288 353 416
#     4  11  27  45  67 101 146 189 227 288 354 418
#     4  11  24  44  70 104 137 183 240 288 349 413
#     4  11  24  44  74 103 136 182 235 296 346 411
#
# _framework density 23.639506000000001
#
# number of rings (size 3 to 8) (size 9 to 14) (size 15 to 20)
#    0.000    0.857    1.429    4.714    4.000    9.714 
#    0.000    0.000    0.000    0.000    0.000    0.000 
#    0.000    0.000    0.000    0.000    0.000    0.000 
#
# Total GULP energy -78432.018924 kJ/mol
# GULP energy per Si atom -5602.287066 kJ/mol
# Density = 2.358570 g / cm^3
# Si number density = 23.639506 Si / 1000 Ang^3
#
#
#
# Elastic Constant Matrix: (Units=GPa)
#
#
# Indices 1 2 3 4 5 6 
#
# 1 131.7501 27.2104 26.0688 -13.4066 12.3241 -13.5974
# 2 27.2104 124.4931 43.4588 -8.4475 2.2028 -28.4769
# 3 26.0688 43.4588 112.7808 -14.6691 -4.0584 -4.8191
# 4 -13.4066 -8.4475 -14.6691 39.1593 -2.5250 -2.3358
# 5 12.3241 2.2028 -4.0584 -2.5250 23.3225 -6.5401
# 6 -13.5974 -28.4769 -4.8191 -2.3358 -6.5401 46.8046
#
#
#
# Elastic Compliance Matrix: (Units=1/GPa)
#
#
# Indices 1 2 3 4 5 6 
#
# 1 0.008821 -0.000859 -0.001531 0.002071 -0.004231 0.001394
# 2 -0.000859 0.010955 -0.003587 0.001137 0.000655 0.006195
# 3 -0.001531 -0.003587 0.011067 0.002997 0.003146 -0.000898
# 4 0.002071 0.001137 0.002997 0.028035 0.003327 0.003466
# 5 -0.004231 0.000655 0.003146 0.003327 0.047734 0.006329
# 6 0.001394 0.006195 -0.000898 0.003466 0.006329 0.026504
#
#
# Mechanical properties :
#
#
# Convention : Reuss Voigt Hill
#
# Bulk Modulus (GPa) = 52.93889 62.49999 57.71944
# Shear Modulus (GPa) = 33.03230 40.00966 36.52098
#
# Velocity S-wave (km/s) = 3.74215 4.11845 3.93480
# Velocity P-wave (km/s) = 6.41205 7.00798 6.71663
#
# Compressibility (1/GPa) = 0.01888970
#
# Stress axis : x y z
#
# Youngs Moduli (GPa) = 113.36564 91.28300 90.35541
#
# Poissons Ratio (x) = 0.07842 0.13835
# Poissons Ratio (y) = 0.09740 0.32407
# Poissons Ratio (z) = 0.17358 0.32739
#
# Static dielectric constant tensor:
#      x y z
#    x 1.994190 0.065960 -0.004040 
#    y 0.065960 1.855720 -0.010170 
#    z -0.004040 -0.010170 1.878780 
# 
# From -- ./inp_files/71624.got.cif
#   From: 2010.05.17/outbox.cif.g08.bks.cpg/sg2_36_cif.got.tgz:71624.got - 2010.06.03 11:33:40.
