data_PCOD9063189
_publ_section_title
;
Structure prediction by ZEFSAII (Michael W. Deem and Ramdas Pophale) SiO2 
 PCOD9063189
Probable space group: P -1
;
_chemical_formula_sum "Si O2"
_cell_formula_units_Z 16
_cell_length_a 9.476650
_cell_length_b 14.105164
_cell_length_c 10.515474
_cell_angle_alpha 70.553816
_cell_angle_beta 136.924959
_cell_angle_gamma 82.534445
_cell_volume 737.793774
_symmetry_space_group_name_H-M "P -1"
_symmetry_group_IT_number 2
_symmetry_cell_setting 'triclinic'
loop_
_space_group_symop_operation_xyz
x,y,z
-x,-y,-z
loop_
_atom_site_type_symbol
_atom_site_label
_atom_site_fract_x
_atom_site_fract_y
_atom_site_fract_z
Si Si1 0.345798 0.482367 0.690142
Si Si2 0.426804 0.076252 0.789513
Si Si3 0.915336 0.637982 0.521497
Si Si4 0.024589 0.046421 0.860504
Si Si5 0.882868 0.283812 0.050381
Si Si6 0.192198 0.377911 0.259078
Si Si7 0.751812 0.311450 0.653489
Si Si8 0.111538 0.026059 0.438522
O O1 0.257697 0.390765 0.660749
O O2 0.649174 0.400127 0.920353
O O3 0.257857 0.578096 0.471598
O O4 0.191977 0.564831 0.673977
O O5 0.205791 0.217978 0.608116
O O6 0.349940 0.019123 0.655381
O O7 0.500000 0.000000 0.000000
O O8 0.684282 0.058323 0.931944
O O9 0.895237 0.594178 0.665560
O O10 0.957255 0.181821 0.779168
O O11 0.858748 0.054290 0.628302
O O12 0.000000 0.000000 0.000000
O O13 0.806251 0.301050 0.844395
O O14 0.136998 0.278647 0.227793
O O15 0.931560 0.163869 0.201865
O O16 0.477189 0.335590 0.448779
O O17 0.000000 0.500000 0.000000
O O18 0.000000 0.000000 0.500000
#
# Coordination Sequence:
#
# PCOD9063189 Si02
#       8
#     2   2   2   2   2   2   2   2
#     4  11  24  43  72 104 140 188 236 288 362 428
#     4  12  25  48  75 101 147 190 239 303 363 419
#     4  11  24  45  70 103 142 186 238 293 356 430
#     4  12  26  46  75 106 142 188 239 301 359 420
#     4  12  24  45  75 101 147 190 233 301 356 431
#     4  12  24  44  71 102 141 191 233 285 363 428
#     4  12  25  47  73 106 148 183 239 298 363 425
#     4  12  27  47  75 107 141 195 248 290 365 434
#
# _framework density 21.686277
#
# number of rings (size 3 to 8) (size 9 to 14) (size 15 to 20)
#    0.000    0.250    6.250    3.375    0.000    2.000 
#    2.250    0.000    0.000    0.000    0.000    0.000 
#    0.000    0.000    0.000    0.000    0.000    0.000 
#
# Total GULP energy -89427.412676 kJ/mol
# GULP energy per Si atom -5589.213292 kJ/mol
# Density = 2.163692 g / cm^3
# Si number density = 21.686277 Si / 1000 Ang^3
#
#
#
# Elastic Constant Matrix: (Units=GPa)
#
#
# Indices 1 2 3 4 5 6 
#
# 1 58.7379 22.8895 2.9176 -1.9013 -12.8887 -6.4343
# 2 22.8895 84.6006 12.0249 14.3116 4.5860 -2.2646
# 3 2.9176 12.0249 42.0747 11.6361 -6.2424 -7.4434
# 4 -1.9013 14.3116 11.6361 38.0808 14.4331 -1.1729
# 5 -12.8887 4.5860 -6.2424 14.4331 40.6230 -1.0866
# 6 -6.4343 -2.2646 -7.4434 -1.1729 -1.0866 38.6445
#
#
#
# Elastic Compliance Matrix: (Units=1/GPa)
#
#
# Indices 1 2 3 4 5 6 
#
# 1 0.021640 -0.006492 0.002278 -0.000125 0.008097 0.003885
# 2 -0.006492 0.014826 -0.003361 -0.003791 -0.002932 -0.001057
# 3 0.002278 -0.003361 0.030279 -0.011480 0.009993 0.005947
# 4 -0.000125 -0.003791 -0.011480 0.036600 -0.014426 -0.001749
# 5 0.008097 -0.002932 0.009993 -0.014426 0.034275 0.003627
# 6 0.003885 -0.001057 0.005947 -0.001749 0.003627 0.027656
#
#
# Mechanical properties :
#
#
# Convention : Reuss Voigt Hill
#
# Bulk Modulus (GPa) = 19.38146 29.00857 24.19501
# Shear Modulus (GPa) = 25.30038 33.30840 29.30439
#
# Velocity S-wave (km/s) = 3.41934 3.92333 3.67997
# Velocity P-wave (km/s) = 4.95437 5.82485 5.40716
#
# Compressibility (1/GPa) = 0.05159571
#
# Stress axis : x y z
#
# Youngs Moduli (GPa) = 46.21078 67.44710 33.02587
#
# Poissons Ratio (x) = 0.43790 -0.07524
# Poissons Ratio (y) = 0.30002 0.11099
# Poissons Ratio (z) = -0.10528 0.22667
#
# Static dielectric constant tensor:
#      x y z
#    x 1.720040 -0.185980 -0.112730 
#    y -0.185980 0.626600 -0.687760 
#    z -0.112730 -0.687760 1.354680 
# 
# From -- ./inp_files/206539.got.cif
#   From: 2010.05.17/outbox.cif.g08.bks.cpg/sg2_104_cif.got.tgz:206539.got - 2010.06.03 11:33:40.
