data_PCOD9063018
_publ_section_title
;
Structure prediction by ZEFSAII (Michael W. Deem and Ramdas Pophale) SiO2 
 PCOD9063018
Probable space group: P -1
;
_chemical_formula_sum "Si O2"
_cell_formula_units_Z 14
_cell_length_a 4.954666
_cell_length_b 23.744483
_cell_length_c 8.001733
_cell_angle_alpha 40.913530
_cell_angle_beta 61.502449
_cell_angle_gamma 72.094274
_cell_volume 539.511648
_symmetry_space_group_name_H-M "P -1"
_symmetry_group_IT_number 2
_symmetry_cell_setting 'triclinic'
loop_
_space_group_symop_operation_xyz
x,y,z
-x,-y,-z
loop_
_atom_site_type_symbol
_atom_site_label
_atom_site_fract_x
_atom_site_fract_y
_atom_site_fract_z
Si Si1 0.836399 0.583462 0.919052
Si Si2 0.116732 0.771978 0.757392
Si Si3 0.753113 0.875525 0.425232
Si Si4 0.700287 0.841519 0.990481
Si Si5 0.504982 0.342882 0.444723
Si Si6 0.148434 0.414125 0.705729
Si Si7 0.875548 0.053454 0.143434
O O1 0.127879 0.655091 0.656898
O O2 0.590221 0.603385 0.808129
O O3 0.728390 0.574999 0.163272
O O4 0.000000 0.500000 0.000000
O O5 0.431526 0.818721 0.628736
O O6 0.026448 0.815096 0.514987
O O7 0.100111 0.669764 0.014121
O O8 0.817367 0.797589 0.889072
O O9 0.839302 0.925995 0.114823
O O10 0.762843 0.953275 0.382354
O O11 0.640310 0.755718 0.314918
O O12 0.401174 0.890882 0.946501
O O13 0.977842 0.909629 0.812889
O O14 0.376868 0.386853 0.552033
O O15 0.000000 0.500000 0.500000
#
# Coordination Sequence:
#
# PCOD9063018 Si02
#       7
#     2   2   2   2   2   2   2
#     4  12  26  46  76 104 138 203 241 297 378 432
#     4  11  26  45  69 103 139 184 238 291 357 430
#     4  11  25  45  67 106 139 180 240 283 357 433
#     4  11  24  43  69 102 139 187 228 297 351 418
#     4  11  27  48  69 111 149 183 255 296 359 445
#     4  11  27  50  74 108 151 192 242 314 359 428
#     4  11  24  43  72 100 143 184 225 299 350 423
#
# _framework density 25.949394999999999
#
# number of rings (size 3 to 8) (size 9 to 14) (size 15 to 20)
#    0.000    0.857    1.429    3.857    6.000   10.857 
#    0.000    0.000    0.000    0.000    0.000    0.000 
#    0.000    0.000    0.000    0.000    0.000    0.000 
#
# Total GULP energy -78443.879291 kJ/mol
# GULP energy per Si atom -5603.134235 kJ/mol
# Density = 2.589033 g / cm^3
# Si number density = 25.949395 Si / 1000 Ang^3
#
#
#
# Elastic Constant Matrix: (Units=GPa)
#
#
# Indices 1 2 3 4 5 6 
#
# 1 124.7335 30.1949 27.5094 -10.8495 -0.8022 -1.3429
# 2 30.1949 155.7117 49.0227 -9.2919 12.4537 -12.3765
# 3 27.5094 49.0227 117.2593 -18.0814 1.3816 6.3252
# 4 -10.8495 -9.2919 -18.0814 60.1175 9.7954 -0.3093
# 5 -0.8022 12.4537 1.3816 9.7954 34.1579 1.0808
# 6 -1.3429 -12.3765 6.3252 -0.3093 1.0808 27.8066
#
#
#
# Elastic Compliance Matrix: (Units=1/GPa)
#
#
# Indices 1 2 3 4 5 6 
#
# 1 0.008704 -0.001209 -0.001416 0.000887 0.000442 0.000197
# 2 -0.001209 0.008364 -0.003323 0.000631 -0.003268 0.004554
# 3 -0.001416 -0.003323 0.010840 0.002444 0.000165 -0.003992
# 4 0.000887 0.000631 0.002444 0.018545 -0.005632 0.000193
# 5 0.000442 -0.003268 0.000165 -0.005632 0.032174 -0.002784
# 6 0.000197 0.004554 -0.003992 0.000193 -0.002784 0.039018
#
#
# Mechanical properties :
#
#
# Convention : Reuss Voigt Hill
#
# Bulk Modulus (GPa) = 62.45047 67.90651 65.17849
# Shear Modulus (GPa) = 37.07070 43.81490 40.44280
#
# Velocity S-wave (km/s) = 3.78375 4.11356 3.95210
# Velocity P-wave (km/s) = 6.57324 6.98481 6.78215
#
# Compressibility (1/GPa) = 0.01601269
#
# Stress axis : x y z
#
# Youngs Moduli (GPa) = 114.88866 119.56389 92.25417
#
# Poissons Ratio (x) = 0.14454 0.13060
# Poissons Ratio (y) = 0.13889 0.30655
# Poissons Ratio (z) = 0.16264 0.39729
#
# Static dielectric constant tensor:
#      x y z
#    x 1.948820 0.066750 -0.013140 
#    y 0.066750 2.001940 0.074340 
#    z -0.013140 0.074340 2.138500 
# 
# From -- ./inp_files/142140.got.cif
#   From: 2010.05.17/outbox.cif.g08.bks.cpg/sg2_72_cif.got.tgz:142140.got - 2010.06.03 11:33:40.
