data_PCOD9063280
_publ_section_title
;
Structure prediction by ZEFSAII (Michael W. Deem and Ramdas Pophale) SiO2 
 PCOD9063280
Probable space group: P -1
;
_chemical_formula_sum "Si O2"
_cell_formula_units_Z 16
_cell_length_a 11.530043
_cell_length_b 9.308973
_cell_length_c 14.449427
_cell_angle_alpha 129.526894
_cell_angle_beta 141.475939
_cell_angle_gamma 72.936298
_cell_volume 674.214083
_symmetry_space_group_name_H-M "P -1"
_symmetry_group_IT_number 2
_symmetry_cell_setting 'triclinic'
loop_
_space_group_symop_operation_xyz
x,y,z
-x,-y,-z
loop_
_atom_site_type_symbol
_atom_site_label
_atom_site_fract_x
_atom_site_fract_y
_atom_site_fract_z
Si Si1 0.398239 0.383628 0.110476
Si Si2 0.862447 0.243359 0.111973
Si Si3 0.789388 0.298245 0.292428
Si Si4 0.914739 0.971652 0.331124
Si Si5 0.654708 0.214773 0.778582
Si Si6 0.293639 0.215514 0.172263
Si Si7 0.760310 0.434874 0.601126
Si Si8 0.788494 0.136584 0.642993
O O1 0.606822 0.357204 0.229742
O O2 0.424174 0.614565 0.228107
O O3 0.273523 0.270767 0.077117
O O4 0.262496 0.258073 0.887921
O O5 0.748589 0.217197 0.127611
O O6 0.077794 0.446138 0.329068
O O7 0.750604 0.271018 0.962478
O O8 0.858794 0.019860 0.002245
O O9 0.000000 0.500000 0.500000
O O10 0.820627 0.130373 0.307445
O O11 0.093640 0.991446 0.377355
O O12 0.000000 0.000000 0.500000
O O13 0.808785 0.203734 0.790789
O O14 0.456791 0.998470 0.572867
O O15 0.536466 0.269800 0.360974
O O16 0.261230 0.376218 0.284207
O O17 0.844668 0.325780 0.684808
#
# Coordination Sequence:
#
# PCOD9063280 Si02
#       8
#     2   2   2   2   2   2   2   2
#     4  12  26  49  77 103 154 194 254 305 380 441
#     4  12  26  44  76 107 149 198 255 300 378 451
#     4  12  29  50  72 109 149 199 256 309 369 453
#     4  12  30  47  77 108 149 201 245 310 373 447
#     4  11  26  46  78 111 144 202 240 321 371 449
#     4  11  24  45  72 110 145 196 244 311 374 445
#     4  11  24  43  74 108 152 189 244 314 376 443
#     4  11  25  48  73 110 155 185 254 306 380 441
#
# _framework density 23.731335000000001
#
# number of rings (size 3 to 8) (size 9 to 14) (size 15 to 20)
#    0.000    0.500    3.750    3.000    8.750    2.500 
#    0.000    0.000    0.000    0.000    0.000    0.000 
#    0.000    0.000    0.000    0.000    0.000    0.000 
#
# Total GULP energy -89575.751067 kJ/mol
# GULP energy per Si atom -5598.484442 kJ/mol
# Density = 2.367732 g / cm^3
# Si number density = 23.731335 Si / 1000 Ang^3
#
#
#
# Elastic Constant Matrix: (Units=GPa)
#
#
# Indices 1 2 3 4 5 6 
#
# 1 130.4355 55.6061 26.4136 -14.7891 -9.1864 -7.1531
# 2 55.6061 123.4930 7.6189 7.2912 -2.0869 9.1924
# 3 26.4136 7.6189 78.9074 -4.0724 -7.5485 12.1784
# 4 -14.7891 7.2912 -4.0724 44.0419 12.7075 0.7575
# 5 -9.1864 -2.0869 -7.5485 12.7075 34.2464 1.4119
# 6 -7.1531 9.1924 12.1784 0.7575 1.4119 36.7119
#
#
#
# Elastic Compliance Matrix: (Units=1/GPa)
#
#
# Indices 1 2 3 4 5 6 
#
# 1 0.011603 -0.005603 -0.003857 0.004353 0.000106 0.004849
# 2 -0.005603 0.011099 0.001371 -0.003828 0.001073 -0.004288
# 3 -0.003857 0.001371 0.015020 -0.000875 0.002939 -0.006172
# 4 0.004353 -0.003828 -0.000875 0.027433 -0.009516 0.001897
# 5 0.000106 0.001073 0.002939 -0.009516 0.033568 -0.002318
# 6 0.004849 -0.004288 -0.006172 0.001897 -0.002318 0.031355
#
#
# Mechanical properties :
#
#
# Convention : Reuss Voigt Hill
#
# Bulk Modulus (GPa) = 46.41478 56.90146 51.65812
# Shear Modulus (GPa) = 32.58624 39.21320 35.89972
#
# Velocity S-wave (km/s) = 3.70960 4.06936 3.89364
# Velocity P-wave (km/s) = 6.16028 6.79036 6.48298
#
# Compressibility (1/GPa) = 0.02154486
#
# Stress axis : x y z
#
# Youngs Moduli (GPa) = 86.18334 90.09637 66.57634
#
# Poissons Ratio (x) = 0.50480 0.25677
# Poissons Ratio (y) = 0.48288 -0.09125
# Poissons Ratio (z) = 0.33238 -0.12349
#
# Static dielectric constant tensor:
#      x y z
#    x 1.929300 -0.023560 -0.030560 
#    y -0.023560 1.880170 -0.026260 
#    z -0.030560 -0.026260 1.955840 
# 
# From -- ./inp_files/516313.got.cif
#   From: 2010.05.17/outbox.cif.g08.bks.cpg/sg2_259_cif.got.tgz:516313.got - 2010.06.03 11:33:40.
