data_PCOD9063637
_publ_section_title
;
Structure prediction by ZEFSAII (Michael W. Deem and Ramdas Pophale) SiO2 
 PCOD9063637
Probable space group: P -1
;
_chemical_formula_sum "Si O2"
_cell_formula_units_Z 16
_cell_length_a 12.563706
_cell_length_b 5.183277
_cell_length_c 11.981229
_cell_angle_alpha 112.669397
_cell_angle_beta 97.198368
_cell_angle_gamma 90.845058
_cell_volume 712.583992
_symmetry_space_group_name_H-M "P -1"
_symmetry_group_IT_number 2
_symmetry_cell_setting 'triclinic'
loop_
_space_group_symop_operation_xyz
x,y,z
-x,-y,-z
loop_
_atom_site_type_symbol
_atom_site_label
_atom_site_fract_x
_atom_site_fract_y
_atom_site_fract_z
Si Si1 0.278387 0.309591 0.275200
Si Si2 0.014742 0.052929 0.880380
Si Si3 0.840124 0.303618 0.509851
Si Si4 0.656177 0.918153 0.327033
Si Si5 0.477280 0.552775 0.635073
Si Si6 0.194886 0.682113 0.135407
Si Si7 0.209055 0.382195 0.869547
Si Si8 0.955311 0.491226 0.326940
O O1 0.235634 0.485434 0.403006
O O2 0.405771 0.365752 0.285975
O O3 0.224055 0.437066 0.180495
O O4 0.248467 0.980816 0.231126
O O5 0.989113 0.784948 0.753989
O O6 0.137945 0.145956 0.888444
O O7 0.932917 0.285489 0.876972
O O8 0.000000 0.000000 0.000000
O O9 0.888619 0.424297 0.419863
O O10 0.946421 0.280099 0.596350
O O11 0.765028 0.027485 0.425232
O O12 0.578873 0.723768 0.362611
O O13 0.689895 0.737688 0.195974
O O14 0.599965 0.192815 0.325954
O O15 0.500000 0.500000 0.500000
O O16 0.230561 0.622486 0.003614
O O17 0.127994 0.452939 0.771718
#
# Coordination Sequence:
#
# PCOD9063637 Si02
#       8
#     2   2   2   2   2   2   2   2
#     4  12  27  47  75 107 146 186 246 313 369 428
#     4  12  23  43  71 106 148 198 249 288 348 442
#     4  11  24  44  71 110 151 190 234 299 374 437
#     4  12  27  48  77 106 145 193 244 309 375 440
#     4  12  27  50  76 110 142 187 251 311 377 439
#     4  12  27  46  73 109 147 196 243 298 357 439
#     4  12  27  45  73 103 152 198 244 288 369 435
#     4  11  24  45  66 113 154 194 237 296 357 454
#
# _framework density 22.453493000000002
#
# number of rings (size 3 to 8) (size 9 to 14) (size 15 to 20)
#    0.000    0.250    5.000    3.750    1.750    0.500 
#    2.250    3.750    0.000    0.000    0.000    0.000 
#    0.000    0.000    0.000    0.000    0.000    0.000 
#
# Total GULP energy -89650.651135 kJ/mol
# GULP energy per Si atom -5603.165696 kJ/mol
# Density = 2.240239 g / cm^3
# Si number density = 22.453493 Si / 1000 Ang^3
#
#
#
# Elastic Constant Matrix: (Units=GPa)
#
#
# Indices 1 2 3 4 5 6 
#
# 1 77.9381 1.9575 21.6985 1.4833 2.3471 8.0152
# 2 1.9575 47.2148 3.5465 -0.9130 11.1524 10.1211
# 3 21.6985 3.5465 114.2808 -0.2665 -22.9912 -2.2006
# 4 1.4833 -0.9130 -0.2665 42.1047 -3.0482 2.4395
# 5 2.3471 11.1524 -22.9912 -3.0482 31.9028 4.2731
# 6 8.0152 10.1211 -2.2006 2.4395 4.2731 51.8960
#
#
#
# Elastic Compliance Matrix: (Units=1/GPa)
#
#
# Indices 1 2 3 4 5 6 
#
# 1 0.014128 0.001003 -0.003497 -0.000637 -0.003677 -0.002193
# 2 0.001003 0.024746 -0.003136 -0.000026 -0.010417 -0.004255
# 3 -0.003497 -0.003136 0.011455 0.000774 0.009574 0.000813
# 4 -0.000637 -0.000026 0.000774 0.024072 0.003081 -0.001249
# 5 -0.003677 -0.010417 0.009574 0.003081 0.042537 -0.000642
# 6 -0.002193 -0.004255 0.000813 -0.001249 -0.000642 0.020584
#
#
# Mechanical properties :
#
#
# Convention : Reuss Voigt Hill
#
# Bulk Modulus (GPa) = 25.59570 32.64874 29.12222
# Shear Modulus (GPa) = 30.90132 39.32946 35.11539
#
# Velocity S-wave (km/s) = 3.71379 4.18975 3.95893
# Velocity P-wave (km/s) = 5.46020 6.16259 5.82200
#
# Compressibility (1/GPa) = 0.03906907
#
# Stress axis : x y z
#
# Youngs Moduli (GPa) = 70.78383 40.41056 87.29590
#
# Poissons Ratio (x) = -0.04055 0.30528
# Poissons Ratio (y) = -0.07103 0.27378
# Poissons Ratio (z) = 0.24754 0.12674
#
# Static dielectric constant tensor:
#      x y z
#    x 1.834810 -0.011500 0.030830 
#    y -0.011500 1.842850 0.017020 
#    z 0.030830 0.017020 1.849060 
# 
# From -- ./inp_files/411280.got.cif
#   From: 2010.05.17/outbox.cif.g08.bks.cpg/sg2_206_cif.got.tgz:411280.got - 2010.06.03 11:33:40.
