data_PCOD9063822
_publ_section_title
;
Structure prediction by ZEFSAII (Michael W. Deem and Ramdas Pophale) SiO2 
 PCOD9063822
Probable space group: P -1
;
_chemical_formula_sum "Si O2"
_cell_formula_units_Z 13
_cell_length_a 14.528594
_cell_length_b 12.227376
_cell_length_c 6.305864
_cell_angle_alpha 59.147985
_cell_angle_beta 108.204910
_cell_angle_gamma 141.239441
_cell_volume 594.061975
_symmetry_space_group_name_H-M "P -1"
_symmetry_group_IT_number 2
_symmetry_cell_setting 'triclinic'
loop_
_space_group_symop_operation_xyz
x,y,z
-x,-y,-z
loop_
_atom_site_type_symbol
_atom_site_label
_atom_site_fract_x
_atom_site_fract_y
_atom_site_fract_z
Si Si1 0.396231 0.114596 0.974072
Si Si2 0.163184 0.528470 0.032814
Si Si3 0.500000 0.000000 0.500000
Si Si4 0.159477 0.302882 0.928183
Si Si5 0.365512 0.653651 0.420352
Si Si6 0.180336 0.814438 0.751819
Si Si7 0.169032 0.020663 0.189582
O O1 0.524551 0.291180 0.734133
O O2 0.282037 0.935740 0.906308
O O3 0.458181 0.071627 0.223357
O O4 0.302893 0.128162 0.016622
O O5 0.240554 0.600722 0.243739
O O6 0.987590 0.358741 0.113183
O O7 0.190755 0.431167 0.013249
O O8 0.218755 0.714791 0.773288
O O9 0.448143 0.835324 0.452404
O O10 0.279831 0.460265 0.681446
O O11 0.992087 0.159450 0.860003
O O12 0.170145 0.165674 0.130443
O O13 0.189332 0.936901 0.470748
#
# Coordination Sequence:
#
# PCOD9063822 Si02
#       7
#     2   2   1   2   2   2   2
#     4  12  26  45  71 109 148 188 238 300 368 432
#     4  11  24  44  74 114 142 187 247 309 362 421
#     4  12  26  48  74 108 152 188 236 306 374 430
#     4  11  26  47  73 108 150 195 242 295 358 437
#     4  12  26  45  71 109 148 188 238 300 368 432
#     4  11  24  44  74 114 142 187 247 309 362 421
#     4  11  26  47  73 108 150 195 242 295 358 437
#
# _framework density 21.883239
#
# number of rings (size 3 to 8) (size 9 to 14) (size 15 to 20)
#    0.000    0.615    4.615    2.308    6.462    3.077 
#    0.000    5.385    0.000    0.000    0.000    0.000 
#    0.000    0.000    0.000    0.000    0.000    0.000 
#
# Total GULP energy -72515.620101 kJ/mol
# GULP energy per Si atom -5578.124623 kJ/mol
# Density = 2.183343 g / cm^3
# Si number density = 21.883239 Si / 1000 Ang^3
#
#
#
# Elastic Constant Matrix: (Units=GPa)
#
#
# Indices 1 2 3 4 5 6 
#
# 1 100.6530 42.6811 31.1974 -0.7395 7.4477 -11.4358
# 2 42.6811 97.9446 54.3155 15.3798 22.0810 -5.3927
# 3 31.1974 54.3155 87.3244 5.4163 15.2536 -14.7997
# 4 -0.7395 15.3798 5.4163 37.0430 1.8878 2.6827
# 5 7.4477 22.0810 15.2536 1.8878 26.2806 -14.3804
# 6 -11.4358 -5.3927 -14.7997 2.6827 -14.3804 45.4787
#
#
#
# Elastic Compliance Matrix: (Units=1/GPa)
#
#
# Indices 1 2 3 4 5 6 
#
# 1 0.012966 -0.006079 -0.001103 0.002529 0.003632 0.003180
# 2 -0.006079 0.022190 -0.009788 -0.006738 -0.014122 -0.006150
# 3 -0.001103 -0.009788 0.018624 0.000974 0.000187 0.004624
# 4 0.002529 -0.006738 0.000974 0.029694 0.001659 -0.001073
# 5 0.003632 -0.014122 0.000187 0.001659 0.058311 0.017640
# 6 0.003180 -0.006150 0.004624 -0.001073 0.017640 0.029204
#
#
# Mechanical properties :
#
#
# Convention : Reuss Voigt Hill
#
# Bulk Modulus (GPa) = 50.40450 60.25668 55.33059
# Shear Modulus (GPa) = 23.63571 32.27567 27.95569
#
# Velocity S-wave (km/s) = 3.29003 3.84461 3.57808
# Velocity P-wave (km/s) = 6.12501 6.87775 6.51226
#
# Compressibility (1/GPa) = 0.01983950
#
# Stress axis : x y z
#
# Youngs Moduli (GPa) = 77.12474 45.06561 53.69282
#
# Poissons Ratio (x) = 0.27396 0.05925
# Poissons Ratio (y) = 0.46884 0.52554
# Poissons Ratio (z) = 0.08510 0.44110
#
# Static dielectric constant tensor:
#      x y z
#    x 0.687760 -0.648610 0.659790 
#    y -0.648610 1.376860 0.394860 
#    z 0.659790 0.394860 1.307660 
# 
# From -- ./inp_files/93153.got.cif
#   From: 2010.05.17/outbox.cif.g08.bks.cpg/sg2_47_cif.got.tgz:93153.got - 2010.06.03 11:33:40.
