data_PCOD9063048
_publ_section_title
;
Structure prediction by ZEFSAII (Michael W. Deem and Ramdas Pophale) SiO2 
 PCOD9063048
Probable space group: P -1
;
_chemical_formula_sum "Si O2"
_cell_formula_units_Z 12
_cell_length_a 7.885494
_cell_length_b 16.176223
_cell_length_c 4.798442
_cell_angle_alpha 102.687060
_cell_angle_beta 105.031365
_cell_angle_gamma 47.194113
_cell_volume 432.877636
_symmetry_space_group_name_H-M "P -1"
_symmetry_group_IT_number 2
_symmetry_cell_setting 'triclinic'
loop_
_space_group_symop_operation_xyz
x,y,z
-x,-y,-z
loop_
_atom_site_type_symbol
_atom_site_label
_atom_site_fract_x
_atom_site_fract_y
_atom_site_fract_z
Si Si1 0.233152 0.116963 0.987890
Si Si2 0.100373 0.071360 0.384470
Si Si3 0.462683 0.428702 0.246481
Si Si4 0.656154 0.699980 0.542464
Si Si5 0.096499 0.639918 0.891670
Si Si6 0.623231 0.160178 0.991493
O O1 0.109838 0.081283 0.723960
O O2 0.181380 0.130304 0.305396
O O3 0.081072 0.245983 0.916738
O O4 0.500000 0.000000 0.000000
O O5 0.276925 0.946250 0.238721
O O6 0.846723 0.131382 0.206844
O O7 0.500000 0.500000 0.500000
O O8 0.404088 0.367729 0.371163
O O9 0.708731 0.355108 0.130436
O O10 0.245497 0.521326 0.026367
O O11 0.536944 0.737124 0.218004
O O12 0.926218 0.641708 0.613360
O O13 0.532018 0.808690 0.777621
#
# Coordination Sequence:
#
# PCOD9063048 Si02
#       6
#     2   2   2   2   2   2
#     4  12  25  43  75 111 155 202 251 312 384 457
#     4  11  24  43  69 108 157 203 258 305 377 464
#     4  11  29  50  79 111 151 207 261 318 392 449
#     4  12  27  49  78 111 154 197 261 322 384 456
#     4  11  28  49  78 115 155 203 258 320 384 459
#     4  11  25  44  74 111 153 207 253 316 385 455
#
# _framework density 27.72146
#
# number of rings (size 3 to 8) (size 9 to 14) (size 15 to 20)
#    0.000    0.667    0.000    6.000   14.000    3.333 
#    0.000    0.000    0.000    0.000    0.000    0.000 
#    0.000    0.000    0.000    0.000    0.000    0.000 
#
# Total GULP energy -67150.480314 kJ/mol
# GULP energy per Si atom -5595.873359 kJ/mol
# Density = 2.765836 g / cm^3
# Si number density = 27.721460 Si / 1000 Ang^3
#
#
#
# Elastic Constant Matrix: (Units=GPa)
#
#
# Indices 1 2 3 4 5 6 
#
# 1 129.1274 45.6713 46.6874 -40.9059 11.9600 -15.0885
# 2 45.6713 140.3235 43.9562 -23.0047 13.2145 -5.1220
# 3 46.6874 43.9562 163.2159 -32.3322 12.3345 -24.4765
# 4 -40.9059 -23.0047 -32.3322 55.7190 -4.0966 -1.1922
# 5 11.9600 13.2145 12.3345 -4.0966 45.0302 -5.6786
# 6 -15.0885 -5.1220 -24.4765 -1.1922 -5.6786 44.4816
#
#
#
# Elastic Compliance Matrix: (Units=1/GPa)
#
#
# Indices 1 2 3 4 5 6 
#
# 1 0.011512 -0.002118 -0.000724 0.007142 -0.001171 0.003305
# 2 -0.002118 0.008565 -0.001499 0.000982 -0.001543 -0.000728
# 3 -0.000724 -0.001499 0.008112 0.003588 -0.000753 0.004046
# 4 0.007142 0.000982 0.003588 0.025776 -0.000170 0.005179
# 5 -0.001171 -0.001543 -0.000753 -0.000170 0.023414 0.001995
# 6 0.003305 -0.000728 0.004046 0.005179 0.001995 0.026138
#
#
# Mechanical properties :
#
#
# Convention : Reuss Voigt Hill
#
# Bulk Modulus (GPa) = 51.26165 78.36630 64.81397
# Shear Modulus (GPa) = 42.12244 48.80294 45.46269
#
# Velocity S-wave (km/s) = 3.90229 4.20035 4.05406
# Velocity P-wave (km/s) = 6.23183 7.20101 6.73388
#
# Compressibility (1/GPa) = 0.01950776
#
# Stress axis : x y z
#
# Youngs Moduli (GPa) = 86.86368 116.75258 123.27555
#
# Poissons Ratio (x) = 0.24734 0.08921
# Poissons Ratio (y) = 0.18402 0.18475
# Poissons Ratio (z) = 0.06286 0.17497
#
# Static dielectric constant tensor:
#      x y z
#    x 2.369280 0.120980 0.037400 
#    y 0.120980 2.258420 0.056620 
#    z 0.037400 0.056620 2.072280 
# 
# From -- ./inp_files/45096.got.cif
#   From: 2010.05.17/outbox.cif.g08.bks.cpg/sg2_23_cif.got.tgz:45096.got - 2010.06.03 11:33:40.
