data_PCOD9063390
_publ_section_title
;
Structure prediction by ZEFSAII (Michael W. Deem and Ramdas Pophale) SiO2 
 PCOD9063390
Probable space group: P -1
;
_chemical_formula_sum "Si O2"
_cell_formula_units_Z 16
_cell_length_a 8.855517
_cell_length_b 9.435678
_cell_length_c 16.046613
_cell_angle_alpha 82.777769
_cell_angle_beta 121.601887
_cell_angle_gamma 138.202056
_cell_volume 673.164165
_symmetry_space_group_name_H-M "P -1"
_symmetry_group_IT_number 2
_symmetry_cell_setting 'triclinic'
loop_
_space_group_symop_operation_xyz
x,y,z
-x,-y,-z
loop_
_atom_site_type_symbol
_atom_site_label
_atom_site_fract_x
_atom_site_fract_y
_atom_site_fract_z
Si Si1 0.958631 0.477244 0.389701
Si Si2 0.219797 0.707065 0.275943
Si Si3 0.561925 0.638191 0.778596
Si Si4 0.197838 0.947798 0.123239
Si Si5 0.856889 0.726906 0.565346
Si Si6 0.596969 0.204717 0.057833
Si Si7 0.561098 0.456758 0.937636
Si Si8 0.675421 0.764207 0.352250
O O1 0.156719 0.682269 0.358586
O O2 0.002844 0.340047 0.383451
O O3 0.000000 0.500000 0.500000
O O4 0.659171 0.377544 0.307283
O O5 0.263106 0.881283 0.223125
O O6 0.494207 0.776730 0.339641
O O7 0.940045 0.454012 0.164592
O O8 0.411025 0.453591 0.824588
O O9 0.575434 0.512065 0.731128
O O10 0.846036 0.918383 0.865272
O O11 0.442651 0.118182 0.109565
O O12 0.914668 0.702337 0.010079
O O13 0.500000 0.500000 0.500000
O O14 0.856875 0.779183 0.465629
O O15 0.075868 0.989611 0.649959
O O16 0.499249 0.256270 0.956127
O O17 0.500000 0.000000 0.000000
O O18 0.500000 0.500000 0.000000
#
# Coordination Sequence:
#
# PCOD9063390 Si02
#       8
#     2   2   2   2   2   2   2   2
#     4  12  24  48  74 103 145 189 242 297 367 436
#     4  11  25  46  73 107 146 193 245 302 362 439
#     4  12  24  45  71 107 142 191 242 297 365 431
#     4  11  24  46  71 102 152 190 241 306 357 436
#     4  11  24  51  70  98 147 184 233 306 363 421
#     4  11  26  43  72 108 147 196 241 297 370 430
#     4  11  24  44  67 103 147 189 241 298 363 427
#     4  11  26  43  72 106 137 187 244 300 358 432
#
# _framework density 23.768348
#
# number of rings (size 3 to 8) (size 9 to 14) (size 15 to 20)
#    0.000    0.750    5.000    1.875    3.500    1.000 
#    4.500    3.125    0.000    0.000    0.000    0.000 
#    0.000    0.000    0.000    0.000    0.000    0.000 
#
# Total GULP energy -89095.754839 kJ/mol
# GULP energy per Si atom -5568.484677 kJ/mol
# Density = 2.371425 g / cm^3
# Si number density = 23.768348 Si / 1000 Ang^3
#
#
#
# Elastic Constant Matrix: (Units=GPa)
#
#
# Indices 1 2 3 4 5 6 
#
# 1 62.8377 55.0741 21.6870 8.5227 13.7612 -22.1126
# 2 55.0741 175.9679 47.8883 -11.5427 6.4703 -37.0466
# 3 21.6870 47.8883 75.2461 -29.5258 0.1962 -5.4517
# 4 8.5227 -11.5427 -29.5258 51.3338 -8.5873 10.0222
# 5 13.7612 6.4703 0.1962 -8.5873 37.3198 6.2026
# 6 -22.1126 -37.0466 -5.4517 10.0222 6.2026 45.4609
#
#
#
# Elastic Compliance Matrix: (Units=1/GPa)
#
#
# Indices 1 2 3 4 5 6 
#
# 1 0.046649 -0.004168 -0.020762 -0.030648 -0.027972 0.027377
# 2 -0.004168 0.009462 -0.004933 -0.001322 -0.001306 0.005561
# 3 -0.020762 -0.004933 0.031673 0.027174 0.017709 -0.018727
# 4 -0.030648 -0.001322 0.027174 0.049848 0.027421 -0.027457
# 5 -0.027972 -0.001306 0.017709 0.027421 0.047724 -0.025103
# 6 0.027377 0.005561 -0.018727 -0.027457 -0.025103 0.047078
#
#
# Mechanical properties :
#
#
# Convention : Reuss Voigt Hill
#
# Bulk Modulus (GPa) = 35.64007 62.59447 49.11727
# Shear Modulus (GPa) = 16.58310 39.44973 28.01641
#
# Velocity S-wave (km/s) = 2.64426 4.07843 3.43699
# Velocity P-wave (km/s) = 4.93459 6.96926 6.03824
#
# Compressibility (1/GPa) = 0.02805831
#
# Stress axis : x y z
#
# Youngs Moduli (GPa) = 21.43670 105.68624 31.57308
#
# Poissons Ratio (x) = 0.44051 0.65551
# Poissons Ratio (y) = 0.08935 0.15575
# Poissons Ratio (z) = 0.44506 0.52134
#
# Static dielectric constant tensor:
#      x y z
#    x 1.923220 -0.027630 -0.056710 
#    y -0.027630 1.815430 -0.019980 
#    z -0.056710 -0.019980 1.933490 
# 
# From -- ./inp_files/557194.got.cif
#   From: 2010.05.17/outbox.cif.g08.bks.cpg/sg2_279_cif.got.tgz:557194.got - 2010.06.03 11:33:40.
