data_PCOD9063666
_publ_section_title
;
Structure prediction by ZEFSAII (Michael W. Deem and Ramdas Pophale) SiO2 
 PCOD9063666
Probable space group: P -1
;
_chemical_formula_sum "Si O2"
_cell_formula_units_Z 16
_cell_length_a 15.237830
_cell_length_b 8.726998
_cell_length_c 9.172775
_cell_angle_alpha 113.182162
_cell_angle_beta 49.168403
_cell_angle_gamma 85.048513
_cell_volume 737.601035
_symmetry_space_group_name_H-M "P -1"
_symmetry_group_IT_number 2
_symmetry_cell_setting 'triclinic'
loop_
_space_group_symop_operation_xyz
x,y,z
-x,-y,-z
loop_
_atom_site_type_symbol
_atom_site_label
_atom_site_fract_x
_atom_site_fract_y
_atom_site_fract_z
Si Si1 0.895885 0.173569 0.875634
Si Si2 0.842988 0.502240 0.830028
Si Si3 0.860685 0.565590 0.517677
Si Si4 0.799330 0.019157 0.434135
Si Si5 0.514183 0.654700 0.639814
Si Si6 0.637034 0.846787 0.373112
Si Si7 0.244614 0.647228 0.609324
Si Si8 0.752272 0.009834 0.810148
O O1 0.851855 0.334591 0.859361
O O2 0.877953 0.006301 0.755719
O O3 0.042642 0.115232 0.753347
O O4 0.797362 0.254051 0.150405
O O5 0.821751 0.491115 0.677405
O O6 0.985828 0.491166 0.674527
O O7 0.731898 0.700813 0.092609
O O8 0.837746 0.461807 0.368943
O O9 0.775833 0.795609 0.698131
O O10 0.721089 0.929162 0.398071
O O11 0.785904 0.190879 0.413813
O O12 0.740543 0.077805 0.681976
O O13 0.500000 0.500000 0.500000
O O14 0.597204 0.732177 0.488467
O O15 0.603476 0.522806 0.625579
O O16 0.377895 0.836327 0.905831
O O17 0.500000 0.000000 0.500000
#
# Coordination Sequence:
#
# PCOD9063666 Si02
#       8
#     2   2   2   2   2   2   2   2
#     4  12  25  47  75 103 149 188 235 299 361 426
#     4  11  24  44  72 103 146 186 234 289 369 415
#     4  11  26  42  72 112 143 183 240 299 362 419
#     4  12  28  44  73 110 140 188 246 295 359 420
#     4  12  25  47  72 101 142 193 236 286 362 427
#     4  12  26  46  74 105 148 189 242 296 355 432
#     4  12  26  45  71 103 147 188 238 296 354 428
#     4  12  26  46  74 106 147 187 238 297 354 433
#
# _framework density 21.691942999999998
#
# number of rings (size 3 to 8) (size 9 to 14) (size 15 to 20)
#    0.000    0.250    3.750    4.500    5.250    4.500 
#    0.000    0.000    0.000    0.000    0.000    0.000 
#    0.000    0.000    0.000    0.000    0.000    0.000 
#
# Total GULP energy -89507.148555 kJ/mol
# GULP energy per Si atom -5594.196785 kJ/mol
# Density = 2.164257 g / cm^3
# Si number density = 21.691943 Si / 1000 Ang^3
#
#
#
# Elastic Constant Matrix: (Units=GPa)
#
#
# Indices 1 2 3 4 5 6 
#
# 1 9.4162 4.3907 -30.1166 -17.8695 40.6809 16.5678
# 2 4.3907 121.3070 22.7914 -7.5267 24.5119 -3.1792
# 3 -30.1166 22.7914 99.0219 -10.4836 10.8951 -3.7592
# 4 -17.8695 -7.5267 -10.4836 23.1613 1.8710 5.6226
# 5 40.6809 24.5119 10.8951 1.8710 14.2230 -1.3066
# 6 16.5678 -3.1792 -3.7592 5.6226 -1.3066 39.1458
#
#
#
# Elastic Compliance Matrix: (Units=1/GPa)
#
#
# Indices 1 2 3 4 5 6 
#
# 1 -0.003359 -0.003602 -0.002992 -0.007290 0.019299 0.002533
# 2 -0.003602 0.009669 -0.002953 -0.001173 -0.003754 0.002069
# 3 -0.002992 -0.002953 0.009178 -0.000192 0.006840 0.002164
# 4 -0.007290 -0.001173 -0.000192 0.036005 0.018137 -0.001594
# 5 0.019299 -0.003754 0.006840 0.018137 0.013036 -0.009986
# 6 0.002533 0.002069 0.002164 -0.001594 -0.009986 0.024745
#
#
# Mechanical properties :
#
#
# Convention : Reuss Voigt Hill
#
# Bulk Modulus (GPa) = -277.26356 24.87513 -126.19422
# Shear Modulus (GPa) = 46.65684 30.81798 38.73741
#
# Velocity S-wave (km/s) = 4.64279 3.77332 4.23045
# Velocity P-wave (km/s) = 9.96772 5.52053 5.86853
#
# Compressibility (1/GPa) = -0.00360668
#
# Stress axis : x y z
#
# Youngs Moduli (GPa) = -297.68992 103.42455 108.95756
#
# Poissons Ratio (x) = 0.37253 0.32597
# Poissons Ratio (y) = -1.07226 0.32180
# Poissons Ratio (z) = -0.89060 0.30546
#
# Static dielectric constant tensor:
#      x y z
#    x 1.852570 -0.005840 -0.030980 
#    y -0.005840 1.783050 0.000050 
#    z -0.030980 0.000050 1.759730 
# 
# From -- ./inp_files/190376.got.cif
#   From: 2010.05.17/outbox.cif.g08.bks.cpg/sg2_96_cif.got.tgz:190376.got - 2010.06.03 11:33:40.
