data_PCOD9063921
_publ_section_title
;
Structure prediction by ZEFSAII (Michael W. Deem and Ramdas Pophale) SiO2 
 PCOD9063921
Probable space group: P -1
;
_chemical_formula_sum "Si O2"
_cell_formula_units_Z 12
_cell_length_a 15.156107
_cell_length_b 8.550674
_cell_length_c 7.053516
_cell_angle_alpha 38.018125
_cell_angle_beta 80.910713
_cell_angle_gamma 78.097079
_cell_volume 550.883022
_symmetry_space_group_name_H-M "P -1"
_symmetry_group_IT_number 2
_symmetry_cell_setting 'triclinic'
loop_
_space_group_symop_operation_xyz
x,y,z
-x,-y,-z
loop_
_atom_site_type_symbol
_atom_site_label
_atom_site_fract_x
_atom_site_fract_y
_atom_site_fract_z
Si Si1 0.275341 0.392978 0.131555
Si Si2 0.092596 0.452181 0.893369
Si Si3 0.420157 0.831247 0.184380
Si Si4 0.910669 0.065692 0.844572
Si Si5 0.451056 0.490387 0.825821
Si Si6 0.265637 0.915802 0.867165
O O1 0.266299 0.155707 0.498773
O O2 0.183345 0.452470 0.986306
O O3 0.367031 0.332295 0.034529
O O4 0.289048 0.649365 0.999767
O O5 0.089260 0.677032 0.523749
O O6 0.000000 0.500000 0.000000
O O7 0.097915 0.174661 0.059224
O O8 0.404566 0.737819 0.490508
O O9 0.465135 0.603994 0.249042
O O10 0.333197 0.948543 0.986701
O O11 0.500000 0.000000 0.000000
O O12 0.829726 0.095610 0.992448
O O13 0.000000 0.000000 0.000000
O O14 0.500000 0.500000 0.000000
#
# Coordination Sequence:
#
# PCOD9063921 Si02
#       6
#     2   2   2   2   2   2
#     4  12  26  44  71  98 139 179 230 282 344 410
#     4  12  25  45  71 102 135 179 229 279 346 411
#     4  11  26  41  70  97 139 181 234 285 345 410
#     4  12  25  45  71 100 140 176 226 285 344 407
#     4  11  24  45  66 100 136 184 230 286 345 403
#     4  12  26  45  68 102 136 181 227 283 348 404
#
# _framework density 21.78321
#
# number of rings (size 3 to 8) (size 9 to 14) (size 15 to 20)
#    0.000    0.333    1.667    7.000    7.000    1.333 
#    0.000    0.000    0.000    0.000    0.000    0.000 
#    0.000    0.000    0.000    0.000    0.000    0.000 
#
# Total GULP energy -67099.592218 kJ/mol
# GULP energy per Si atom -5591.632685 kJ/mol
# Density = 2.173363 g / cm^3
# Si number density = 21.783210 Si / 1000 Ang^3
#
#
#
# Elastic Constant Matrix: (Units=GPa)
#
#
# Indices 1 2 3 4 5 6 
#
# 1 174.5023 -17.9727 54.8962 21.5371 17.2446 7.5776
# 2 -17.9727 48.8531 -4.4172 -1.2195 1.8073 5.6373
# 3 54.8962 -4.4172 190.1891 10.9663 -1.0491 -0.9819
# 4 21.5371 -1.2195 10.9663 32.7556 3.5360 -0.4937
# 5 17.2446 1.8073 -1.0491 3.5360 49.6684 15.6127
# 6 7.5776 5.6373 -0.9819 -0.4937 15.6127 45.1846
#
#
#
# Elastic Compliance Matrix: (Units=1/GPa)
#
#
# Indices 1 2 3 4 5 6 
#
# 1 0.007304 0.002606 -0.001841 -0.003875 -0.002110 -0.000903
# 2 0.002606 0.021752 -0.000220 -0.000795 -0.000729 -0.002912
# 3 -0.001841 -0.000220 0.005837 -0.000833 0.000771 0.000188
# 4 -0.003875 -0.000795 -0.000833 0.033517 -0.001542 0.001630
# 5 -0.002110 -0.000729 0.000771 -0.001542 0.023423 -0.007649
# 6 -0.000903 -0.002912 0.000188 0.001630 -0.007649 0.025311
#
#
# Mechanical properties :
#
#
# Convention : Reuss Voigt Hill
#
# Bulk Modulus (GPa) = 27.79031 53.17299 40.48165
# Shear Modulus (GPa) = 39.04793 50.92429 44.98611
#
# Velocity S-wave (km/s) = 4.23847 4.84030 4.54935
# Velocity P-wave (km/s) = 6.06120 7.46332 6.79850
#
# Compressibility (1/GPa) = 0.03598377
#
# Stress axis : x y z
#
# Youngs Moduli (GPa) = 136.91098 45.97355 171.31209
#
# Poissons Ratio (x) = -0.11982 0.31531
# Poissons Ratio (y) = -0.35682 0.03774
# Poissons Ratio (z) = 0.25199 0.01013
#
# Static dielectric constant tensor:
#      x y z
#    x 1.796740 -0.063430 0.019750 
#    y -0.063430 1.921940 -0.002510 
#    z 0.019750 -0.002510 1.779100 
# 
# From -- ./inp_files/3058.got.cif
#   From: 2010.05.17/outbox.cif.g08.bks.cpg/sg2_2_cif.got.tgz:3058.got - 2010.06.03 11:33:40.
