data_PCOD9063714
_publ_section_title
;
Structure prediction by ZEFSAII (Michael W. Deem and Ramdas Pophale) SiO2 
 PCOD9063714
Probable space group: P -1
;
_chemical_formula_sum "Si O2"
_cell_formula_units_Z 16
_cell_length_a 6.733998
_cell_length_b 12.686492
_cell_length_c 14.020016
_cell_angle_alpha 67.103330
_cell_angle_beta 97.928765
_cell_angle_gamma 135.685107
_cell_volume 752.236575
_symmetry_space_group_name_H-M "P -1"
_symmetry_group_IT_number 2
_symmetry_cell_setting 'triclinic'
loop_
_space_group_symop_operation_xyz
x,y,z
-x,-y,-z
loop_
_atom_site_type_symbol
_atom_site_label
_atom_site_fract_x
_atom_site_fract_y
_atom_site_fract_z
Si Si1 0.207624 0.174035 0.898908
Si Si2 0.213989 0.929767 0.558722
Si Si3 0.815723 0.361529 0.619733
Si Si4 0.830878 0.221823 0.197774
Si Si5 0.213388 0.170859 0.561344
Si Si6 0.176268 0.914899 0.272165
Si Si7 0.181630 0.357298 0.986943
Si Si8 0.118273 0.568616 0.179548
O O1 0.051326 0.412564 0.904973
O O2 0.535717 0.269077 0.867804
O O3 0.054624 0.156285 0.800149
O O4 0.000000 0.000000 0.000000
O O5 0.174911 0.868368 0.683887
O O6 0.909312 0.781696 0.534583
O O7 0.500000 0.000000 0.500000
O O8 0.263154 0.084758 0.524706
O O9 0.496518 0.284822 0.606427
O O10 0.807321 0.217339 0.661851
O O11 0.931016 0.437719 0.707338
O O12 0.000000 0.500000 0.500000
O O13 0.007309 0.402232 0.188485
O O14 0.487821 0.095264 0.199953
O O15 0.975410 0.240554 0.103174
O O16 0.938168 0.060693 0.653237
O O17 0.216131 0.279878 0.935418
O O18 0.500000 0.500000 0.000000
#
# Coordination Sequence:
#
# PCOD9063714 Si02
#       8
#     2   2   2   2   2   2   2   2
#     4  12  28  48  79 106 146 197 247 304 372 442
#     4  11  24  45  71 109 144 188 246 299 360 442
#     4  12  28  47  75 108 152 197 247 306 366 440
#     4  12  27  45  80 105 148 192 248 310 364 442
#     4  11  24  44  73 101 151 186 242 297 365 422
#     4  12  26  49  74 112 146 193 253 303 367 445
#     4  12  28  50  72 109 150 191 242 306 377 436
#     4  12  28  50  70 113 148 190 251 302 369 447
#
# _framework density 21.269905000000001
#
# number of rings (size 3 to 8) (size 9 to 14) (size 15 to 20)
#    0.000    0.250    6.250    1.125    8.750    3.500 
#    0.000    0.000    0.000    0.000    0.000    0.000 
#    0.000    0.000    0.000    0.000    0.000    0.000 
#
# Total GULP energy -89275.903642 kJ/mol
# GULP energy per Si atom -5579.743978 kJ/mol
# Density = 2.122149 g / cm^3
# Si number density = 21.269905 Si / 1000 Ang^3
#
#
#
# Elastic Constant Matrix: (Units=GPa)
#
#
# Indices 1 2 3 4 5 6 
#
# 1 105.9548 24.1176 48.1319 7.9811 -1.2733 36.3693
# 2 24.1176 65.2618 8.5596 11.2610 4.5536 27.0220
# 3 48.1319 8.5596 119.2988 15.9749 -9.3241 20.0289
# 4 7.9811 11.2610 15.9749 43.6916 4.2061 -1.5037
# 5 -1.2733 4.5536 -9.3241 4.2061 48.2445 9.7564
# 6 36.3693 27.0220 20.0289 -1.5037 9.7564 43.0522
#
#
#
# Elastic Compliance Matrix: (Units=1/GPa)
#
#
# Indices 1 2 3 4 5 6 
#
# 1 0.015396 -0.000146 -0.003788 -0.002009 0.002235 -0.011729
# 2 -0.000146 0.022852 0.002279 -0.007457 0.002172 -0.016033
# 3 -0.003788 0.002279 0.011329 -0.004491 0.003150 -0.004371
# 4 -0.002009 -0.007457 -0.004491 0.027638 -0.004752 0.010509
# 5 0.002235 0.002172 0.003150 -0.004752 0.023677 -0.010249
# 6 -0.011729 -0.016033 -0.004371 0.010509 -0.010249 0.047922
#
#
# Mechanical properties :
#
#
# Convention : Reuss Voigt Hill
#
# Bulk Modulus (GPa) = 21.61379 50.23707 35.92543
# Shear Modulus (GPa) = 29.84252 40.97808 35.41030
#
# Velocity S-wave (km/s) = 3.74978 4.39404 4.08463
# Velocity P-wave (km/s) = 5.37881 7.02948 6.25880
#
# Compressibility (1/GPa) = 0.04626677
#
# Stress axis : x y z
#
# Youngs Moduli (GPa) = 64.95055 43.76080 88.27100
#
# Poissons Ratio (x) = 0.00638 0.33441
# Poissons Ratio (y) = 0.00947 -0.20120
# Poissons Ratio (z) = 0.24606 -0.09975
#
# Static dielectric constant tensor:
#      x y z
#    x 1.796350 0.035610 0.037950 
#    y 0.035610 1.773910 0.030410 
#    z 0.037950 0.030410 1.784980 
# 
# From -- ./inp_files/482791.got.cif
#   From: 2010.05.17/outbox.cif.g08.bks.cpg/sg2_242_cif.got.tgz:482791.got - 2010.06.03 11:33:40.
