data_PCOD9063832
_publ_section_title
;
Structure prediction by ZEFSAII (Michael W. Deem and Ramdas Pophale) SiO2 
 PCOD9063832
Probable space group: P -1
;
_chemical_formula_sum "Si O2"
_cell_formula_units_Z 16
_cell_length_a 6.517641
_cell_length_b 21.570641
_cell_length_c 8.401964
_cell_angle_alpha 125.108844
_cell_angle_beta 105.294687
_cell_angle_gamma 48.577613
_cell_volume 711.356597
_symmetry_space_group_name_H-M "P -1"
_symmetry_group_IT_number 2
_symmetry_cell_setting 'triclinic'
loop_
_space_group_symop_operation_xyz
x,y,z
-x,-y,-z
loop_
_atom_site_type_symbol
_atom_site_label
_atom_site_fract_x
_atom_site_fract_y
_atom_site_fract_z
Si Si1 0.654104 0.176052 0.479994
Si Si2 0.845482 0.724741 0.060949
Si Si3 0.843696 0.615638 0.175974
Si Si4 0.694285 0.196965 0.148354
Si Si5 0.737126 0.983384 0.134878
Si Si6 0.714221 0.348951 0.217635
Si Si7 0.213695 0.099496 0.639762
Si Si8 0.880351 0.472770 0.572910
O O1 0.463367 0.273369 0.700522
O O2 0.630960 0.207224 0.337232
O O3 0.961694 0.119620 0.525826
O O4 0.628169 0.090253 0.333101
O O5 0.949060 0.639903 0.083075
O O6 0.760090 0.818745 0.275776
O O7 0.585163 0.759636 0.946829
O O8 0.107496 0.694444 0.968410
O O9 0.923866 0.600525 0.355609
O O10 0.000000 0.500000 0.000000
O O11 0.779357 0.263536 0.218570
O O12 0.961711 0.083157 0.991325
O O13 0.802022 0.914564 0.196719
O O14 0.500000 0.000000 0.000000
O O15 0.783568 0.416581 0.393462
O O16 0.381277 0.425155 0.247706
O O17 0.500000 0.000000 0.500000
O O18 0.000000 0.500000 0.500000
#
# Coordination Sequence:
#
# PCOD9063832 Si02
#       8
#     2   2   2   2   2   2   2   2
#     4  12  27  45  75 112 149 198 251 311 373 449
#     4  12  26  46  74 106 147 198 247 305 372 443
#     4  12  27  45  73 103 155 194 249 304 374 435
#     4  12  25  47  75 106 153 191 253 310 375 450
#     4  12  25  46  77 110 148 197 252 306 383 453
#     4  11  24  44  75 102 143 198 247 305 375 435
#     4  12  25  46  71 108 155 191 245 308 377 444
#     4  11  25  47  72 107 146 194 252 312 366 440
#
# _framework density 22.492235999999998
#
# number of rings (size 3 to 8) (size 9 to 14) (size 15 to 20)
#    0.000    0.250    1.250    8.250    5.250    1.500 
#    0.000    0.000    0.000    0.000    0.000    0.000 
#    0.000    0.000    0.000    0.000    0.000    0.000 
#
# Total GULP energy -89248.939439 kJ/mol
# GULP energy per Si atom -5578.058715 kJ/mol
# Density = 2.244104 g / cm^3
# Si number density = 22.492236 Si / 1000 Ang^3
#
#
#
# Elastic Constant Matrix: (Units=GPa)
#
#
# Indices 1 2 3 4 5 6 
#
# 1 110.6837 66.9120 41.0653 0.3283 4.8733 13.4906
# 2 66.9120 139.7860 43.6701 2.5149 6.2654 17.3018
# 3 41.0653 43.6701 81.2916 22.4037 0.2458 -0.0239
# 4 0.3283 2.5149 22.4037 64.7114 -4.7651 -1.6970
# 5 4.8733 6.2654 0.2458 -4.7651 53.1154 3.9790
# 6 13.4906 17.3018 -0.0239 -1.6970 3.9790 54.3039
#
#
#
# Elastic Compliance Matrix: (Units=1/GPa)
#
#
# Indices 1 2 3 4 5 6 
#
# 1 0.014127 -0.005010 -0.004927 0.001752 -0.000388 -0.001832
# 2 -0.005010 0.010943 -0.003547 0.000728 -0.000586 -0.002178
# 3 -0.004927 -0.003547 0.018389 -0.006141 0.000072 0.002165
# 4 0.001752 0.000728 -0.006141 0.017638 0.001381 -0.000220
# 5 -0.000388 -0.000586 0.000072 0.001381 0.019136 -0.001076
# 6 -0.001832 -0.002178 0.002165 -0.000220 -0.001076 0.019637
#
#
# Mechanical properties :
#
#
# Convention : Reuss Voigt Hill
#
# Bulk Modulus (GPa) = 60.64351 70.56177 65.60264
# Shear Modulus (GPa) = 37.78298 46.43374 42.10836
#
# Velocity S-wave (km/s) = 4.10301 4.54853 4.33150
# Velocity P-wave (km/s) = 7.03326 7.68279 7.36519
#
# Compressibility (1/GPa) = 0.01648981
#
# Stress axis : x y z
#
# Youngs Moduli (GPa) = 70.78724 91.38325 54.38087
#
# Poissons Ratio (x) = 0.45785 0.26794
# Poissons Ratio (y) = 0.35466 0.19289
# Poissons Ratio (z) = 0.34877 0.32414
#
# Static dielectric constant tensor:
#      x y z
#    x 1.898960 0.006310 -0.034560 
#    y 0.006310 1.704930 0.110530 
#    z -0.034560 0.110530 1.793860 
# 
# From -- ./inp_files/141513.got.cif
#   From: 2010.05.17/outbox.cif.g08.bks.cpg/sg2_71_cif.got.tgz:141513.got - 2010.06.03 11:33:40.
