data_PCOD9063745
_publ_section_title
;
Structure prediction by ZEFSAII (Michael W. Deem and Ramdas Pophale) SiO2 
 PCOD9063745
Probable space group: P -1
;
_chemical_formula_sum "Si O2"
_cell_formula_units_Z 14
_cell_length_a 5.687337
_cell_length_b 18.677234
_cell_length_c 10.555637
_cell_angle_alpha 35.540066
_cell_angle_beta 110.913245
_cell_angle_gamma 95.067715
_cell_volume 565.065925
_symmetry_space_group_name_H-M "P -1"
_symmetry_group_IT_number 2
_symmetry_cell_setting 'triclinic'
loop_
_space_group_symop_operation_xyz
x,y,z
-x,-y,-z
loop_
_atom_site_type_symbol
_atom_site_label
_atom_site_fract_x
_atom_site_fract_y
_atom_site_fract_z
Si Si1 0.764904 0.610313 0.041594
Si Si2 0.413007 0.393280 0.711066
Si Si3 0.006209 0.334081 0.554362
Si Si4 0.010961 0.071345 0.571839
Si Si5 0.598133 0.973177 0.914673
Si Si6 0.669033 0.239859 0.466821
Si Si7 0.960006 0.183329 0.126589
O O1 0.596422 0.593240 0.157683
O O2 0.982566 0.460437 0.276275
O O3 0.586418 0.673870 0.792309
O O4 0.887132 0.717001 0.962031
O O5 0.500000 0.500000 0.500000
O O6 0.130936 0.382264 0.629669
O O7 0.662849 0.263319 0.902528
O O8 0.725952 0.318899 0.481308
O O9 0.193291 0.177697 0.822957
O O10 0.916190 0.188879 0.486328
O O11 0.917968 0.134932 0.327125
O O12 0.333260 0.000982 0.737988
O O13 0.901709 0.949944 0.737843
O O14 0.681985 0.097090 0.720548
O O15 0.500000 0.000000 0.000000
#
# Coordination Sequence:
#
# PCOD9063745 Si02
#       7
#     2   2   2   2   2   2   2
#     4  12  27  48  72 105 146 190 241 290 357 436
#     4  12  26  45  70 103 145 186 234 298 359 418
#     4  12  27  46  73 107 143 186 233 303 365 410
#     4  11  24  44  73 106 141 187 241 295 353 421
#     4  12  26  45  70 103 145 186 234 298 359 418
#     4  12  27  48  72 105 146 190 241 290 357 436
#     4  11  24  44  73 106 141 187 241 295 353 421
#
# _framework density 24.775869
#
# number of rings (size 3 to 8) (size 9 to 14) (size 15 to 20)
#    0.000    0.286    7.143    1.286    2.000    1.714 
#    0.000    2.143    0.000    0.000    0.000    0.000 
#    0.000    0.000    0.000    0.000    0.000    0.000 
#
# Total GULP energy -78035.427218 kJ/mol
# GULP energy per Si atom -5573.959087 kJ/mol
# Density = 2.471948 g / cm^3
# Si number density = 24.775869 Si / 1000 Ang^3
#
#
#
# Elastic Constant Matrix: (Units=GPa)
#
#
# Indices 1 2 3 4 5 6 
#
# 1 29.3200 29.9044 24.6692 -2.3433 -7.7936 9.5731
# 2 29.9044 134.7455 66.7950 -13.5228 -0.8838 31.7456
# 3 24.6692 66.7950 172.1339 -19.0457 8.2381 5.4870
# 4 -2.3433 -13.5228 -19.0457 51.8308 11.6604 -2.3571
# 5 -7.7936 -0.8838 8.2381 11.6604 33.7395 8.0196
# 6 9.5731 31.7456 5.4870 -2.3571 8.0196 31.7308
#
#
#
# Elastic Compliance Matrix: (Units=1/GPa)
#
#
# Indices 1 2 3 4 5 6 
#
# 1 0.055938 -0.005843 -0.007001 -0.006898 0.020552 -0.015526
# 2 -0.005843 0.013610 -0.004120 0.000659 0.002576 -0.011743
# 3 -0.007001 -0.004120 0.008935 0.003721 -0.006780 0.006679
# 4 -0.006898 0.000659 0.003721 0.023450 -0.011903 0.005528
# 5 0.020552 0.002576 -0.006780 -0.011903 0.044941 -0.019848
# 6 -0.015526 -0.011743 0.006679 0.005528 -0.019848 0.052220
#
#
# Mechanical properties :
#
#
# Convention : Reuss Voigt Hill
#
# Bulk Modulus (GPa) = 22.44460 64.32627 43.38544
# Shear Modulus (GPa) = 20.17154 37.78230 28.97692
#
# Velocity S-wave (km/s) = 2.85645 3.90931 3.42360
# Velocity P-wave (km/s) = 4.46741 6.81151 5.75996
#
# Compressibility (1/GPa) = 0.04455414
#
# Stress axis : x y z
#
# Youngs Moduli (GPa) = 17.87696 73.47385 111.92258
#
# Poissons Ratio (x) = 0.42934 0.78358
# Poissons Ratio (y) = 0.10446 0.46111
# Poissons Ratio (z) = 0.12516 0.30271
#
# Static dielectric constant tensor:
#      x y z
#    x 1.812750 0.076790 -0.143370 
#    y 0.076790 1.968600 0.005690 
#    z -0.143370 0.005690 1.926240 
# 
# From -- ./inp_files/70731.got.cif
#   From: 2010.05.17/outbox.cif.g08.bks.cpg/sg2_36_cif.got.tgz:70731.got - 2010.06.03 11:33:40.
