data_PCOD9063803
_publ_section_title
;
Structure prediction by ZEFSAII (Michael W. Deem and Ramdas Pophale) SiO2 
 PCOD9063803
Probable space group: P -1
;
_chemical_formula_sum "Si O2"
_cell_formula_units_Z 14
_cell_length_a 22.247919
_cell_length_b 28.398606
_cell_length_c 14.120833
_cell_angle_alpha 158.782496
_cell_angle_beta 160.143105
_cell_angle_gamma 11.993033
_cell_volume 620.228494
_symmetry_space_group_name_H-M "P -1"
_symmetry_group_IT_number 2
_symmetry_cell_setting 'triclinic'
loop_
_space_group_symop_operation_xyz
x,y,z
-x,-y,-z
loop_
_atom_site_type_symbol
_atom_site_label
_atom_site_fract_x
_atom_site_fract_y
_atom_site_fract_z
Si Si1 0.270805 0.330502 0.768193
Si Si2 0.398331 0.928343 0.665437
Si Si3 0.755813 0.908794 0.597852
Si Si4 0.778545 0.758569 0.724500
Si Si5 0.559075 0.548856 0.272215
Si Si6 0.204086 0.750508 0.313700
Si Si7 0.269741 0.565149 0.349691
O O1 0.208598 0.229213 0.533022
O O2 0.051313 0.487822 0.646818
O O3 0.629542 0.109429 0.847205
O O4 0.198550 0.477707 0.020012
O O5 0.536976 0.859685 0.637852
O O6 0.519877 0.724780 0.515971
O O7 0.026232 0.166352 0.563710
O O8 0.500000 0.000000 0.000000
O O9 0.085104 0.708004 0.655243
O O10 0.461958 0.063439 0.383080
O O11 0.994500 0.756988 0.051144
O O12 0.307456 0.669782 0.207041
O O13 0.500000 0.500000 0.000000
O O14 0.528813 0.577672 0.525798
O O15 0.000000 0.000000 0.500000
O O16 0.500000 0.500000 0.500000
#
# Coordination Sequence:
#
# PCOD9063803 Si02
#       7
#     2   2   2   2   2   2   2
#     4  11  24  44  74 106 143 198 241 310 365 450
#     4  12  24  47  75 104 147 201 251 302 371 456
#     4  11  26  45  73 104 149 191 248 300 380 447
#     4  12  24  47  75 107 142 200 253 302 369 463
#     4  12  29  48  73 114 157 193 246 325 384 437
#     4  12  27  45  75 113 149 197 252 314 380 451
#     4  12  23  44  72 106 146 191 252 305 373 435
#
# _framework density 22.572324999999999
#
# number of rings (size 3 to 8) (size 9 to 14) (size 15 to 20)
#    0.000    0.286    4.286    3.857    8.000    1.143 
#    0.000    6.429    0.000    0.000    0.000    0.000 
#    0.000    0.000    0.000    0.000    0.000    0.000 
#
# Total GULP energy -78140.612379 kJ/mol
# GULP energy per Si atom -5581.472313 kJ/mol
# Density = 2.252095 g / cm^3
# Si number density = 22.572325 Si / 1000 Ang^3
#
#
#
# Elastic Constant Matrix: (Units=GPa)
#
#
# Indices 1 2 3 4 5 6 
#
# 1 79.4550 33.9901 2.8539 3.6119 7.9419 -2.2094
# 2 33.9901 203.2663 34.5570 7.9872 -1.2271 -14.0046
# 3 2.8539 34.5570 46.9507 -3.9967 -2.7365 11.4471
# 4 3.6119 7.9872 -3.9967 31.4309 2.8734 -7.0313
# 5 7.9419 -1.2271 -2.7365 2.8734 28.1888 -11.4720
# 6 -2.2094 -14.0046 11.4471 -7.0313 -11.4720 55.7284
#
#
#
# Elastic Compliance Matrix: (Units=1/GPa)
#
#
# Indices 1 2 3 4 5 6 
#
# 1 0.014115 -0.002636 0.001088 -0.000704 -0.004456 -0.001333
# 2 -0.002636 0.006540 -0.005369 -0.001578 0.001813 0.002816
# 3 0.001088 -0.005369 0.027027 0.003278 -0.000953 -0.006640
# 4 -0.000704 -0.001578 0.003278 0.033498 -0.001848 0.002748
# 5 -0.004456 0.001813 -0.000953 -0.001848 0.040387 0.008555
# 6 -0.001333 0.002816 -0.006640 0.002748 0.008555 0.022071
#
#
# Mechanical properties :
#
#
# Convention : Reuss Voigt Hill
#
# Bulk Modulus (GPa) = 29.54471 52.49713 41.02092
# Shear Modulus (GPa) = 29.62872 40.28767 34.95819
#
# Velocity S-wave (km/s) = 3.62693 4.22930 3.93965
# Velocity P-wave (km/s) = 5.53686 6.86711 6.23755
#
# Compressibility (1/GPa) = 0.03384700
#
# Stress axis : x y z
#
# Youngs Moduli (GPa) = 70.84754 152.90179 37.00038
#
# Poissons Ratio (x) = 0.40308 -0.04024
# Poissons Ratio (y) = 0.18677 0.19864
# Poissons Ratio (z) = -0.07705 0.82088
#
# Static dielectric constant tensor:
#      x y z
#    x 1.838210 0.009020 -0.053870 
#    y 0.009020 1.895210 -0.017000 
#    z -0.053870 -0.017000 1.845150 
# 
# From -- ./inp_files/543484.got.cif
#   From: 2010.05.17/outbox.cif.g08.bks.cpg/sg2_272_cif.got.tgz:543484.got - 2010.06.03 11:33:40.
