data_PCOD9063138
_publ_section_title
;
Structure prediction by ZEFSAII (Michael W. Deem and Ramdas Pophale) SiO2 
 PCOD9063138
Probable space group: P -1
;
_chemical_formula_sum "Si O2"
_cell_formula_units_Z 16
_cell_length_a 12.127285
_cell_length_b 11.386953
_cell_length_c 9.409791
_cell_angle_alpha 51.871446
_cell_angle_beta 81.903675
_cell_angle_gamma 116.592805
_cell_volume 735.877808
_symmetry_space_group_name_H-M "P -1"
_symmetry_group_IT_number 2
_symmetry_cell_setting 'triclinic'
loop_
_space_group_symop_operation_xyz
x,y,z
-x,-y,-z
loop_
_atom_site_type_symbol
_atom_site_label
_atom_site_fract_x
_atom_site_fract_y
_atom_site_fract_z
Si Si1 0.655551 0.100542 0.969039
Si Si2 0.782322 0.353250 0.009913
Si Si3 0.142548 0.559167 0.506783
Si Si4 0.162826 0.066923 0.389896
Si Si5 0.849069 0.765514 0.238752
Si Si6 0.669908 0.798245 0.042486
Si Si7 0.856235 0.298041 0.325176
Si Si8 0.683137 0.565643 0.718835
O O1 0.681775 0.138694 0.103164
O O2 0.745867 0.330921 0.727707
O O3 0.701275 0.982971 0.983215
O O4 0.500000 0.000000 0.000000
O O5 0.736899 0.476226 0.874935
O O6 0.964183 0.493710 0.844899
O O7 0.773270 0.317526 0.205977
O O8 0.115522 0.371378 0.709563
O O9 0.211518 0.726864 0.490632
O O10 0.000000 0.500000 0.500000
O O11 0.218314 0.115592 0.178907
O O12 0.291770 0.268058 0.308837
O O13 0.147935 0.880094 0.575100
O O14 0.000000 0.000000 0.500000
O O15 0.793012 0.700681 0.461130
O O16 0.712911 0.708375 0.212674
O O17 0.000000 0.000000 0.000000
O O18 0.492422 0.622947 0.157458
#
# Coordination Sequence:
#
# PCOD9063138 Si02
#       8
#     2   2   2   2   2   2   2   2
#     4  12  23  45  74 101 142 190 237 292 361 431
#     4  11  24  43  71 104 144 186 237 305 358 424
#     4  12  23  46  72 102 140 183 245 301 345 427
#     4  12  26  46  71 101 144 191 242 298 362 433
#     4  12  27  43  74 108 140 187 246 301 362 433
#     4  12  27  46  72 107 145 197 238 301 373 427
#     4  11  25  43  72 105 140 188 245 301 357 420
#     4  12  25  49  67 102 152 189 237 300 372 433
#
# _framework density 21.742740000000001
#
# number of rings (size 3 to 8) (size 9 to 14) (size 15 to 20)
#    0.000    0.250    6.250    2.250    3.500    1.000 
#    0.000    1.250    0.000    0.000    0.000    0.000 
#    0.000    0.000    0.000    0.000    0.000    0.000 
#
# Total GULP energy -89306.863704 kJ/mol
# GULP energy per Si atom -5581.678981 kJ/mol
# Density = 2.169325 g / cm^3
# Si number density = 21.742740 Si / 1000 Ang^3
#
#
#
# Elastic Constant Matrix: (Units=GPa)
#
#
# Indices 1 2 3 4 5 6 
#
# 1 119.1441 46.9873 46.1203 2.6229 34.0373 10.2159
# 2 46.9873 130.1483 19.1199 5.6192 24.8213 1.9967
# 3 46.1203 19.1199 71.6473 6.8923 24.2074 5.7217
# 4 2.6229 5.6192 6.8923 42.5936 3.8766 3.9348
# 5 34.0373 24.8213 24.2074 3.8766 39.0693 -0.1902
# 6 10.2159 1.9967 5.7217 3.9348 -0.1902 44.0438
#
#
#
# Elastic Compliance Matrix: (Units=1/GPa)
#
#
# Indices 1 2 3 4 5 6 
#
# 1 0.013916 -0.002886 -0.005806 0.001315 -0.006835 -0.002490
# 2 -0.002886 0.009379 0.000701 -0.000847 -0.003794 0.000212
# 3 -0.005806 0.000701 0.020470 -0.002223 -0.007855 -0.001180
# 4 0.001315 -0.000847 -0.002223 0.024216 -0.001643 -0.002148
# 5 -0.006835 -0.003794 -0.007855 -0.001643 0.039006 0.003093
# 6 -0.002490 0.000212 -0.001180 -0.002148 0.003093 0.023631
#
#
# Mechanical properties :
#
#
# Convention : Reuss Voigt Hill
#
# Bulk Modulus (GPa) = 35.99277 60.59939 48.29608
# Shear Modulus (GPa) = 32.07962 39.05549 35.56755
#
# Velocity S-wave (km/s) = 3.84528 4.24282 4.04893
# Velocity P-wave (km/s) = 6.02535 7.20650 6.64223
#
# Compressibility (1/GPa) = 0.02778336
#
# Stress axis : x y z
#
# Youngs Moduli (GPa) = 71.85850 106.61684 48.85247
#
# Poissons Ratio (x) = 0.30771 0.28364
# Poissons Ratio (y) = 0.20740 -0.03426
# Poissons Ratio (z) = 0.41722 -0.07476
#
# Static dielectric constant tensor:
#      x y z
#    x 1.806700 -0.049480 -0.061930 
#    y -0.049480 1.793050 0.012970 
#    z -0.061930 0.012970 1.839460 
# 
# From -- ./inp_files/261630.got.cif
#   From: 2010.05.17/outbox.cif.g08.bks.cpg/sg2_131_cif.got.tgz:261630.got - 2010.06.03 11:33:40.
