data_PCOD9063676
_publ_section_title
;
Structure prediction by ZEFSAII (Michael W. Deem and Ramdas Pophale) SiO2 
 PCOD9063676
Probable space group: P -1
;
_chemical_formula_sum "Si O2"
_cell_formula_units_Z 16
_cell_length_a 9.376912
_cell_length_b 15.568932
_cell_length_c 9.960885
_cell_angle_alpha 74.618330
_cell_angle_beta 45.233804
_cell_angle_gamma 107.061246
_cell_volume 709.478474
_symmetry_space_group_name_H-M "P -1"
_symmetry_group_IT_number 2
_symmetry_cell_setting 'triclinic'
loop_
_space_group_symop_operation_xyz
x,y,z
-x,-y,-z
loop_
_atom_site_type_symbol
_atom_site_label
_atom_site_fract_x
_atom_site_fract_y
_atom_site_fract_z
Si Si1 0.388664 0.062971 0.584543
Si Si2 0.922149 0.931013 0.724909
Si Si3 0.258646 0.501425 0.670507
Si Si4 0.355478 0.020226 0.930591
Si Si5 0.142867 0.659978 0.749300
Si Si6 0.076833 0.797078 0.386616
Si Si7 0.738718 0.677103 0.887103
Si Si8 0.114049 0.442568 0.496083
O O1 0.285629 0.023951 0.823747
O O2 0.632196 0.211167 0.373942
O O3 0.500000 0.000000 0.500000
O O4 0.176341 0.021208 0.624539
O O5 0.825701 0.797796 0.846672
O O6 0.681463 0.913039 0.964652
O O7 0.000000 0.000000 0.500000
O O8 0.500000 0.500000 0.500000
O O9 0.297396 0.622015 0.596929
O O10 0.087274 0.429755 0.678905
O O11 0.092994 0.437529 0.944695
O O12 0.683618 0.097714 0.707366
O O13 0.149293 0.878855 0.176414
O O14 0.972878 0.672697 0.756658
O O15 0.772212 0.714323 0.692909
O O16 0.063105 0.691718 0.393697
O O17 0.442518 0.547271 0.188316
O O18 0.000000 0.500000 0.500000
#
# Coordination Sequence:
#
# PCOD9063676 Si02
#       8
#     2   2   2   2   2   2   2   2
#     4  12  26  46  76 107 146 200 252 308 381 459
#     4  12  26  46  73 111 149 194 251 316 377 449
#     4  11  26  49  73 106 146 197 250 319 376 449
#     4  11  25  45  72 108 151 194 252 311 378 450
#     4  11  25  47  76 104 152 195 256 317 377 446
#     4  11  24  44  72 105 147 193 248 314 375 444
#     4  12  23  48  73 106 155 195 250 317 379 450
#     4  12  27  44  75 107 146 198 255 306 385 457
#
# _framework density 22.551776
#
# number of rings (size 3 to 8) (size 9 to 14) (size 15 to 20)
#    0.000    0.500    5.000    2.250    5.250    2.000 
#    0.000    0.000    0.000    0.000    0.000    0.000 
#    0.000    0.000    0.000    0.000    0.000    0.000 
#
# Total GULP energy -89302.769977 kJ/mol
# GULP energy per Si atom -5581.423124 kJ/mol
# Density = 2.250045 g / cm^3
# Si number density = 22.551776 Si / 1000 Ang^3
#
#
#
# Elastic Constant Matrix: (Units=GPa)
#
#
# Indices 1 2 3 4 5 6 
#
# 1 104.3996 32.5163 15.9556 4.9174 5.1769 -1.5226
# 2 32.5163 159.1868 25.8445 -1.8169 -9.0985 -21.1913
# 3 15.9556 25.8445 58.3494 14.6631 6.6747 -10.9480
# 4 4.9174 -1.8169 14.6631 35.7741 4.5263 2.9049
# 5 5.1769 -9.0985 6.6747 4.5263 37.8262 5.7086
# 6 -1.5226 -21.1913 -10.9480 2.9049 5.7086 41.8090
#
#
#
# Elastic Compliance Matrix: (Units=1/GPa)
#
#
# Indices 1 2 3 4 5 6 
#
# 1 0.010589 -0.002072 -0.001850 -0.000549 -0.001417 -0.000917
# 2 -0.002072 0.007668 -0.002916 0.001390 0.002074 0.002668
# 3 -0.001850 -0.002916 0.022775 -0.009152 -0.004222 0.005631
# 4 -0.000549 0.001390 -0.009152 0.032318 -0.001272 -0.003784
# 5 -0.001417 0.002074 -0.004222 -0.001272 0.028619 -0.003925
# 6 -0.000917 0.002668 0.005631 -0.003784 -0.003925 0.027510
#
#
# Mechanical properties :
#
#
# Convention : Reuss Voigt Hill
#
# Bulk Modulus (GPa) = 36.55450 52.28540 44.41995
# Shear Modulus (GPa) = 32.83540 39.58985 36.21263
#
# Velocity S-wave (km/s) = 3.81990 4.19443 4.01153
# Velocity P-wave (km/s) = 5.97493 6.83319 6.41843
#
# Compressibility (1/GPa) = 0.02735641
#
# Stress axis : x y z
#
# Youngs Moduli (GPa) = 94.43383 130.41001 43.90835
#
# Poissons Ratio (x) = 0.27022 0.08123
# Poissons Ratio (y) = 0.19567 0.12803
# Poissons Ratio (z) = 0.17470 0.38025
#
# Static dielectric constant tensor:
#      x y z
#    x 1.807520 -0.030130 -0.093230 
#    y -0.030130 1.842550 0.020360 
#    z -0.093230 0.020360 1.780970 
# 
# From -- ./inp_files/206739.got.cif
#   From: 2010.05.17/outbox.cif.g08.bks.cpg/sg2_104_cif.got.tgz:206739.got - 2010.06.03 11:33:40.
