data_PCOD9063872
_publ_section_title
;
Structure prediction by ZEFSAII (Michael W. Deem and Ramdas Pophale) SiO2 
 PCOD9063872
Probable space group: P -1
;
_chemical_formula_sum "Si O2"
_cell_formula_units_Z 14
_cell_length_a 13.903979
_cell_length_b 8.514198
_cell_length_c 11.235381
_cell_angle_alpha 60.997689
_cell_angle_beta 116.420693
_cell_angle_gamma 148.512906
_cell_volume 606.136455
_symmetry_space_group_name_H-M "P -1"
_symmetry_group_IT_number 2
_symmetry_cell_setting 'triclinic'
loop_
_space_group_symop_operation_xyz
x,y,z
-x,-y,-z
loop_
_atom_site_type_symbol
_atom_site_label
_atom_site_fract_x
_atom_site_fract_y
_atom_site_fract_z
Si Si1 0.857217 0.968121 0.438904
Si Si2 0.142664 0.834794 0.394359
Si Si3 0.508612 0.027432 0.287834
Si Si4 0.570905 0.324215 0.426994
Si Si5 0.634810 0.842461 0.991835
Si Si6 0.738723 0.130168 0.188529
Si Si7 0.987726 0.197681 0.921692
O O1 0.669861 0.641230 0.396329
O O2 0.833963 0.984400 0.557476
O O3 0.891082 0.197345 0.299016
O O4 0.000000 0.000000 0.500000
O O5 0.068579 0.812806 0.237907
O O6 0.000000 0.500000 0.500000
O O7 0.349440 0.043338 0.407132
O O8 0.632420 0.318326 0.338921
O O9 0.410907 0.037611 0.147498
O O10 0.615426 0.025944 0.269910
O O11 0.382626 0.746611 0.413407
O O12 0.835912 0.050636 0.987398
O O13 0.500000 0.500000 0.000000
O O14 0.630473 0.888504 0.110698
O O15 0.829858 0.440168 0.080999
O O16 0.000000 0.000000 0.000000
#
# Coordination Sequence:
#
# PCOD9063872 Si02
#       7
#     2   2   2   2   2   2   2
#     4  12  29  42  75 111 148 193 252 307 375 446
#     4  12  25  50  78 108 151 197 251 311 375 444
#     4  11  24  44  76 101 145 190 252 299 375 430
#     4  11  25  46  74 108 146 193 251 313 371 441
#     4  12  27  47  74 106 148 196 249 304 378 452
#     4  12  27  48  72 105 151 194 249 309 376 450
#     4  12  28  48  75 110 151 198 248 310 379 447
#
# _framework density 23.097107000000001
#
# number of rings (size 3 to 8) (size 9 to 14) (size 15 to 20)
#    0.000    0.286    4.286    3.000   10.000    1.143 
#    0.000    0.000    0.000    0.000    0.000    0.000 
#    0.000    0.000    0.000    0.000    0.000    0.000 
#
# Total GULP energy -78334.535993 kJ/mol
# GULP energy per Si atom -5595.323999 kJ/mol
# Density = 2.304454 g / cm^3
# Si number density = 23.097107 Si / 1000 Ang^3
#
#
#
# Elastic Constant Matrix: (Units=GPa)
#
#
# Indices 1 2 3 4 5 6 
#
# 1 165.4029 35.7470 57.7138 11.4274 -9.3471 -23.5512
# 2 35.7470 98.9406 26.1456 5.0716 -10.4978 -26.3679
# 3 57.7138 26.1456 111.6538 7.2189 9.3649 -17.0709
# 4 11.4274 5.0716 7.2189 26.8405 -15.1834 -4.8978
# 5 -9.3471 -10.4978 9.3649 -15.1834 57.5621 9.0955
# 6 -23.5512 -26.3679 -17.0709 -4.8978 9.0955 38.9273
#
#
#
# Elastic Compliance Matrix: (Units=1/GPa)
#
#
# Indices 1 2 3 4 5 6 
#
# 1 0.007978 -0.001235 -0.003519 -0.001288 0.000978 0.002057
# 2 -0.001235 0.012962 -0.001464 0.000579 0.001428 0.007130
# 3 -0.003519 -0.001464 0.012093 -0.003304 -0.004108 0.002727
# 4 -0.001288 0.000579 -0.003304 0.045754 0.012339 0.001038
# 5 0.000978 0.001428 -0.004108 0.012339 0.022332 -0.003908
# 6 0.002057 0.007130 0.002727 0.001038 -0.003908 0.034002
#
#
# Mechanical properties :
#
#
# Convention : Reuss Voigt Hill
#
# Bulk Modulus (GPa) = 48.54920 68.35668 58.45294
# Shear Modulus (GPa) = 32.37866 41.75869 37.06868
#
# Velocity S-wave (km/s) = 3.74819 4.25663 4.01047
# Velocity P-wave (km/s) = 6.30850 7.33608 6.84161
#
# Compressibility (1/GPa) = 0.02059766
#
# Stress axis : x y z
#
# Youngs Moduli (GPa) = 125.35150 77.14819 82.69174
#
# Poissons Ratio (x) = 0.09524 0.29098
# Poissons Ratio (y) = 0.15475 0.12107
# Poissons Ratio (z) = 0.44109 0.11296
#
# Static dielectric constant tensor:
#      x y z
#    x 1.861920 -0.000830 0.022250 
#    y -0.000830 1.923870 -0.005030 
#    z 0.022250 -0.005030 1.872280 
# 
# From -- ./inp_files/445664.got.cif
#   From: 2010.05.17/outbox.cif.g08.bks.cpg/sg2_223_cif.got.tgz:445664.got - 2010.06.03 11:33:40.
