data_PCOD9063898
_publ_section_title
;
Structure prediction by ZEFSAII (Michael W. Deem and Ramdas Pophale) SiO2 
 PCOD9063898
Probable space group: P -1
;
_chemical_formula_sum "Si O2"
_cell_formula_units_Z 14
_cell_length_a 19.834062
_cell_length_b 5.015245
_cell_length_c 10.364255
_cell_angle_alpha 87.555959
_cell_angle_beta 148.572271
_cell_angle_gamma 83.673272
_cell_volume 515.376803
_symmetry_space_group_name_H-M "P -1"
_symmetry_group_IT_number 2
_symmetry_cell_setting 'triclinic'
loop_
_space_group_symop_operation_xyz
x,y,z
-x,-y,-z
loop_
_atom_site_type_symbol
_atom_site_label
_atom_site_fract_x
_atom_site_fract_y
_atom_site_fract_z
Si Si1 0.748263 0.979418 0.305224
Si Si2 0.106851 0.750436 0.252429
Si Si3 0.396835 0.356561 0.749703
Si Si4 0.578253 0.353855 0.828087
Si Si5 0.395373 0.870187 0.400458
Si Si6 0.886734 0.766449 0.062729
Si Si7 0.015638 0.778546 0.644201
O O1 0.645010 0.842240 0.209953
O O2 0.864471 0.758615 0.423240
O O3 0.822008 0.092304 0.535163
O O4 0.703422 0.239222 0.127894
O O5 0.248135 0.531314 0.445620
O O6 0.999832 0.610535 0.147819
O O7 0.000000 0.000000 0.000000
O O8 0.478904 0.226045 0.757250
O O9 0.500000 0.500000 0.000000
O O10 0.479942 0.661365 0.647768
O O11 0.634065 0.287125 0.774619
O O12 0.500000 0.000000 0.500000
O O13 0.265669 0.101505 0.231709
O O14 0.895048 0.540302 0.193752
O O15 0.927142 0.044777 0.161004
O O16 0.000000 0.000000 0.500000
#
# Coordination Sequence:
#
# PCOD9063898 Si02
#       7
#     2   2   2   2   2   2   2
#     4  11  25  46  75 113 153 201 265 327 398 479
#     4  11  25  47  74 111 152 208 261 329 402 476
#     4  12  25  46  77 114 156 205 265 328 403 476
#     4  11  26  45  71 110 149 200 262 316 398 473
#     4  11  28  47  74 106 153 210 261 329 397 475
#     4  11  25  48  71 108 151 197 265 319 396 466
#     4  11  24  44  77 109 148 199 255 327 391 468
#
# _framework density 27.164593
#
# number of rings (size 3 to 8) (size 9 to 14) (size 15 to 20)
#    0.000    0.857    2.857    2.571    8.000    1.714 
#    0.000    0.000    0.000    0.000    0.000    0.000 
#    0.000    0.000    0.000    0.000    0.000    0.000 
#
# Total GULP energy -77971.661137 kJ/mol
# GULP energy per Si atom -5569.404367 kJ/mol
# Density = 2.710277 g / cm^3
# Si number density = 27.164593 Si / 1000 Ang^3
#
#
#
# Elastic Constant Matrix: (Units=GPa)
#
#
# Indices 1 2 3 4 5 6 
#
# 1 54.3580 18.2991 42.2953 -5.1033 22.4659 0.7350
# 2 18.2991 112.6929 51.7277 -21.2001 -5.3760 20.9219
# 3 42.2953 51.7277 195.1326 -43.3484 0.8810 15.3764
# 4 -5.1033 -21.2001 -43.3484 62.9488 14.1557 -5.7294
# 5 22.4659 -5.3760 0.8810 14.1557 52.7648 -0.8120
# 6 0.7350 20.9219 15.3764 -5.7294 -0.8120 44.1845
#
#
#
# Elastic Compliance Matrix: (Units=1/GPa)
#
#
# Indices 1 2 3 4 5 6 
#
# 1 0.028995 -0.003209 -0.005458 0.000622 -0.012705 0.002784
# 2 -0.003209 0.011375 -0.001622 0.001579 0.002059 -0.004526
# 3 -0.005458 -0.001622 0.007724 0.004002 0.000936 -0.001293
# 4 0.000622 0.001579 0.004002 0.020537 -0.005674 0.000408
# 5 -0.012705 0.002059 0.000936 -0.005674 0.026057 -0.001346
# 6 0.002784 -0.004526 -0.001293 0.000408 -0.001346 0.025207
#
#
# Mechanical properties :
#
#
# Convention : Reuss Voigt Hill
#
# Bulk Modulus (GPa) = 36.34072 65.20309 50.77190
# Shear Modulus (GPa) = 33.41218 48.63706 41.02462
#
# Velocity S-wave (km/s) = 3.51093 4.23597 3.89038
# Velocity P-wave (km/s) = 5.46283 6.92674 6.23787
#
# Compressibility (1/GPa) = 0.02751734
#
# Stress axis : x y z
#
# Youngs Moduli (GPa) = 34.48826 87.91527 129.45888
#
# Poissons Ratio (x) = 0.28211 0.70658
# Poissons Ratio (y) = 0.11067 0.20994
# Poissons Ratio (z) = 0.18824 0.14257
#
# Static dielectric constant tensor:
#      x y z
#    x 2.245300 -0.090120 0.108980 
#    y -0.090120 2.302340 0.076980 
#    z 0.108980 0.076980 1.929620 
# 
# From -- ./inp_files/468307.got.cif
#   From: 2010.05.17/outbox.cif.g08.bks.cpg/sg2_235_cif.got.tgz:468307.got - 2010.06.03 11:33:40.
