data_PCOD9063589
_publ_section_title
;
Structure prediction by ZEFSAII (Michael W. Deem and Ramdas Pophale) SiO2 
 PCOD9063589
Probable space group: P -1
;
_chemical_formula_sum "Si O2"
_cell_formula_units_Z 14
_cell_length_a 15.837322
_cell_length_b 21.293193
_cell_length_c 9.039556
_cell_angle_alpha 30.060539
_cell_angle_beta 150.892645
_cell_angle_gamma 153.528040
_cell_volume 610.169243
_symmetry_space_group_name_H-M "P -1"
_symmetry_group_IT_number 2
_symmetry_cell_setting 'triclinic'
loop_
_space_group_symop_operation_xyz
x,y,z
-x,-y,-z
loop_
_atom_site_type_symbol
_atom_site_label
_atom_site_fract_x
_atom_site_fract_y
_atom_site_fract_z
Si Si1 0.556599 0.547403 0.659558
Si Si2 0.337707 0.819811 0.141465
Si Si3 0.892577 0.981726 0.029749
Si Si4 0.198824 0.530345 0.337008
Si Si5 0.571507 0.278276 0.218040
Si Si6 0.997281 0.836715 0.719624
Si Si7 0.101299 0.759211 0.347949
O O1 0.500000 0.500000 0.500000
O O2 0.358316 0.514117 0.515651
O O3 0.751038 0.720930 0.612592
O O4 0.638795 0.443259 0.037832
O O5 0.322065 0.701867 0.240212
O O6 0.414841 0.795621 0.462819
O O7 0.101201 0.777512 0.888764
O O8 0.500000 0.000000 0.000000
O O9 0.020424 0.974541 0.379792
O O10 0.666003 0.821823 0.000157
O O11 0.857967 0.115617 0.725404
O O12 0.000000 0.000000 0.000000
O O13 0.104124 0.401804 0.583417
O O14 0.000000 0.500000 0.000000
O O15 0.721825 0.274277 0.336537
O O16 0.095998 0.836646 0.028390
#
# Coordination Sequence:
#
# PCOD9063589 Si02
#       7
#     2   2   2   2   2   2   2
#     4  12  24  45  72 105 143 188 244 300 360 435
#     4  11  26  47  72 107 150 186 242 301 363 430
#     4  12  25  42  72 105 146 195 245 298 359 432
#     4  12  28  45  76 108 144 194 248 301 367 438
#     4  11  24  44  71 102 144 194 235 301 363 428
#     4  11  25  46  72 103 148 192 238 300 368 424
#     4  11  26  46  70 105 146 191 246 297 368 430
#
# _framework density 22.944454
#
# number of rings (size 3 to 8) (size 9 to 14) (size 15 to 20)
#    0.000    0.571    1.429    6.000    4.000    9.143 
#    0.000    0.000    0.000    0.000    0.000    0.000 
#    0.000    0.000    0.000    0.000    0.000    0.000 
#
# Total GULP energy -78222.698141 kJ/mol
# GULP energy per Si atom -5587.335581 kJ/mol
# Density = 2.289223 g / cm^3
# Si number density = 22.944454 Si / 1000 Ang^3
#
#
#
# Elastic Constant Matrix: (Units=GPa)
#
#
# Indices 1 2 3 4 5 6 
#
# 1 168.8853 45.0776 51.4972 -14.5971 34.7389 10.1971
# 2 45.0776 69.4844 7.3769 -16.7478 -0.1519 -1.6257
# 3 51.4972 7.3769 95.5777 -20.5745 2.9417 9.0670
# 4 -14.5971 -16.7478 -20.5745 41.6800 1.5639 4.2850
# 5 34.7389 -0.1519 2.9417 1.5639 41.3356 -3.3941
# 6 10.1971 -1.6257 9.0670 4.2850 -3.3941 37.0895
#
#
#
# Elastic Compliance Matrix: (Units=1/GPa)
#
#
# Indices 1 2 3 4 5 6 
#
# 1 0.011515 -0.007193 -0.005240 -0.000779 -0.009547 -0.002984
# 2 -0.007193 0.020432 0.003464 0.007006 0.005751 0.001743
# 3 -0.005240 0.003464 0.014665 0.006947 0.002902 -0.002529
# 4 -0.000779 0.007006 0.006947 0.030511 -0.001365 -0.004827
# 5 -0.009547 0.005751 0.002902 -0.001365 0.032517 0.005301
# 6 -0.002984 0.001743 -0.002529 -0.004827 0.005301 0.029520
#
#
# Mechanical properties :
#
#
# Convention : Reuss Voigt Hill
#
# Bulk Modulus (GPa) = 34.87350 60.20565 47.53957
# Shear Modulus (GPa) = 30.00200 39.35406 34.67803
#
# Velocity S-wave (km/s) = 3.61999 4.14598 3.89188
# Velocity P-wave (km/s) = 5.71879 7.01538 6.40000
#
# Compressibility (1/GPa) = 0.02867507
#
# Stress axis : x y z
#
# Youngs Moduli (GPa) = 86.84052 48.94244 68.19086
#
# Poissons Ratio (x) = 0.35203 0.35733
# Poissons Ratio (y) = 0.62461 -0.23622
# Poissons Ratio (z) = 0.45505 -0.16954
#
# Static dielectric constant tensor:
#      x y z
#    x 1.742000 -0.118110 0.212890 
#    y -0.118110 1.694680 0.294040 
#    z 0.212890 0.294040 1.357390 
# 
# From -- ./inp_files/222904.got.cif
#   From: 2010.05.17/outbox.cif.g08.bks.cpg/sg2_112_cif.got.tgz:222904.got - 2010.06.03 11:33:40.
