data_PCOD9063359
_publ_section_title
;
Structure prediction by ZEFSAII (Michael W. Deem and Ramdas Pophale) SiO2 
 PCOD9063359
Probable space group: P -1
;
_chemical_formula_sum "Si O2"
_cell_formula_units_Z 16
_cell_length_a 6.732696
_cell_length_b 21.675687
_cell_length_c 11.659709
_cell_angle_alpha 28.825471
_cell_angle_beta 59.679338
_cell_angle_gamma 65.598133
_cell_volume 706.441034
_symmetry_space_group_name_H-M "P -1"
_symmetry_group_IT_number 2
_symmetry_cell_setting 'triclinic'
loop_
_space_group_symop_operation_xyz
x,y,z
-x,-y,-z
loop_
_atom_site_type_symbol
_atom_site_label
_atom_site_fract_x
_atom_site_fract_y
_atom_site_fract_z
Si Si1 0.415042 0.709478 0.234683
Si Si2 0.027312 0.207321 0.656023
Si Si3 0.088821 0.875615 0.557177
Si Si4 0.225991 0.011304 0.071118
Si Si5 0.095085 0.404634 0.970581
Si Si6 0.385146 0.036216 0.356110
Si Si7 0.785313 0.530084 0.435347
Si Si8 0.300779 0.424872 0.107588
O O1 0.185048 0.712559 0.372036
O O2 0.627884 0.642741 0.341370
O O3 0.357071 0.607249 0.316259
O O4 0.472233 0.853919 0.937383
O O5 0.904443 0.096665 0.794026
O O6 0.232258 0.282692 0.404651
O O7 0.145246 0.144986 0.832016
O O8 0.136023 0.980494 0.274075
O O9 0.041418 0.734764 0.750060
O O10 0.854277 0.900988 0.649548
O O11 0.309936 0.904477 0.526447
O O12 0.500000 0.000000 0.000000
O O13 0.307060 0.419109 0.976364
O O14 0.920435 0.502985 0.906581
O O15 0.143243 0.426114 0.786839
O O16 0.500000 0.000000 0.500000
O O17 0.000000 0.500000 0.500000
O O18 0.500000 0.500000 0.000000
#
# Coordination Sequence:
#
# PCOD9063359 Si02
#       8
#     2   2   2   2   2   2   2   2
#     4  11  24  46  67 104 142 180 241 298 352 437
#     4  11  24  46  68 105 139 178 241 290 356 439
#     4  11  24  44  66 100 139 175 235 287 338 427
#     4  11  25  43  72 100 140 187 228 294 361 421
#     4  11  24  49  69 105 140 175 249 293 351 445
#     4  11  25  42  70  98 137 188 225 286 357 417
#     4  11  26  45  74 103 142 194 233 298 363 420
#     4  11  26  45  76 101 140 191 230 303 366 423
#
# _framework density 22.648741000000001
#
# number of rings (size 3 to 8) (size 9 to 14) (size 15 to 20)
#    0.000    1.000    3.750    1.500    3.500    6.000 
#    2.250    0.000    0.000    0.000    0.000    0.000 
#    0.000    0.000    0.000    0.000    0.000    0.000 
#
# Total GULP energy -89381.836409 kJ/mol
# GULP energy per Si atom -5586.364776 kJ/mol
# Density = 2.259719 g / cm^3
# Si number density = 22.648741 Si / 1000 Ang^3
#
#
#
# Elastic Constant Matrix: (Units=GPa)
#
#
# Indices 1 2 3 4 5 6 
#
# 1 161.8977 20.8524 58.7190 3.1703 4.1216 22.7883
# 2 20.8524 48.1015 11.1245 9.2060 8.8780 1.6949
# 3 58.7190 11.1245 104.1293 7.0557 -7.2654 14.5593
# 4 3.1703 9.2060 7.0557 39.4288 5.8321 -4.2902
# 5 4.1216 8.8780 -7.2654 5.8321 32.9631 -2.2808
# 6 22.7883 1.6949 14.5593 -4.2902 -2.2808 39.2141
#
#
#
# Elastic Compliance Matrix: (Units=1/GPa)
#
#
# Indices 1 2 3 4 5 6 
#
# 1 0.008521 -0.002386 -0.004238 0.000518 -0.001678 -0.003316
# 2 -0.002386 0.024009 -0.001328 -0.004330 -0.005692 0.000037
# 3 -0.004238 -0.001328 0.012909 -0.002505 0.004016 -0.002313
# 4 0.000518 -0.004330 -0.002505 0.027782 -0.004116 0.003616
# 5 -0.001678 -0.005692 0.004016 -0.004116 0.033779 0.001244
# 6 -0.003316 0.000037 -0.002313 0.003616 0.001244 0.028753
#
#
# Mechanical properties :
#
#
# Convention : Reuss Voigt Hill
#
# Bulk Modulus (GPa) = 33.86108 55.05780 44.45944
# Shear Modulus (GPa) = 30.95926 37.21672 34.08799
#
# Velocity S-wave (km/s) = 3.70121 4.05805 3.88373
# Velocity P-wave (km/s) = 5.76613 6.80583 6.30744
#
# Compressibility (1/GPa) = 0.02953243
#
# Stress axis : x y z
#
# Youngs Moduli (GPa) = 117.36240 41.65103 77.46695
#
# Poissons Ratio (x) = 0.09938 0.32834
# Poissons Ratio (y) = 0.28004 0.10291
# Poissons Ratio (z) = 0.49744 0.05533
#
# Static dielectric constant tensor:
#      x y z
#    x 1.881790 0.015660 0.006070 
#    y 0.015660 1.873250 -0.014680 
#    z 0.006070 -0.014680 1.881390 
# 
# From -- ./inp_files/370956.got.cif
#   From: 2010.05.17/outbox.cif.g08.bks.cpg/sg2_186_cif.got.tgz:370956.got - 2010.06.03 11:33:40.
