data_PCOD9063308
_publ_section_title
;
Structure prediction by ZEFSAII (Michael W. Deem and Ramdas Pophale) SiO2 
 PCOD9063308
Probable space group: P -1
;
_chemical_formula_sum "Si O2"
_cell_formula_units_Z 14
_cell_length_a 8.708372
_cell_length_b 5.879716
_cell_length_c 15.882381
_cell_angle_alpha 112.238903
_cell_angle_beta 108.639552
_cell_angle_gamma 111.678468
_cell_volume 591.355898
_symmetry_space_group_name_H-M "P -1"
_symmetry_group_IT_number 2
_symmetry_cell_setting 'triclinic'
loop_
_space_group_symop_operation_xyz
x,y,z
-x,-y,-z
loop_
_atom_site_type_symbol
_atom_site_label
_atom_site_fract_x
_atom_site_fract_y
_atom_site_fract_z
Si Si1 0.206070 0.809764 0.231020
Si Si2 0.499715 0.463248 0.394666
Si Si3 0.063311 0.072883 0.882398
Si Si4 0.705693 0.650160 0.881052
Si Si5 0.902329 0.256245 0.315959
Si Si6 0.273958 0.344836 0.689018
Si Si7 0.282315 0.722560 0.406059
O O1 0.251549 0.600391 0.161354
O O2 0.184784 0.795176 0.326492
O O3 0.000314 0.743047 0.155532
O O4 0.412577 0.130249 0.306766
O O5 0.500000 0.500000 0.500000
O O6 0.689799 0.697274 0.409075
O O7 0.331114 0.504484 0.340904
O O8 0.085184 0.872854 0.790683
O O9 0.249073 0.246576 0.999842
O O10 0.876148 0.911572 0.890113
O O11 0.488512 0.534439 0.797241
O O12 0.800913 0.435635 0.304680
O O13 0.123624 0.525304 0.420416
O O14 0.828139 0.975633 0.326606
O O15 0.500000 0.000000 0.500000
#
# Coordination Sequence:
#
# PCOD9063308 Si02
#       7
#     2   2   2   2   2   2   2
#     4  12  19  44  76 104 146 182 269 316 354 420
#     4  12  25  45  79 104 137 204 261 307 366 453
#     4  11  24  43  75 109 143 202 264 305 360 448
#     4  11  24  43  75 109 143 202 264 305 360 448
#     4  12  27  49  74 111 163 197 240 314 392 446
#     4  12  27  49  74 111 163 197 240 314 392 446
#     4  12  25  45  79 104 137 204 261 307 366 453
#
# _framework density 23.674406999999999
#
# number of rings (size 3 to 8) (size 9 to 14) (size 15 to 20)
#    0.000    0.286    7.143    2.143    0.000    1.143 
#    0.000    4.286    0.000    0.000    0.000    0.000 
#    0.000    0.000    0.000    0.000    0.000    0.000 
#
# Total GULP energy -77983.037360 kJ/mol
# GULP energy per Si atom -5570.216954 kJ/mol
# Density = 2.362052 g / cm^3
# Si number density = 23.674407 Si / 1000 Ang^3
#
#
#
# Elastic Constant Matrix: (Units=GPa)
#
#
# Indices 1 2 3 4 5 6 
#
# 1 119.8963 57.2623 23.6185 -0.9142 -2.7631 -11.1284
# 2 57.2623 146.0124 41.3553 -7.2706 7.5161 17.4175
# 3 23.6185 41.3553 102.7078 -19.0043 4.6646 8.9291
# 4 -0.9142 -7.2706 -19.0043 32.7545 1.8690 -0.9402
# 5 -2.7631 7.5161 4.6646 1.8690 21.5315 5.5286
# 6 -11.1284 17.4175 8.9291 -0.9402 5.5286 46.2891
#
#
#
# Elastic Compliance Matrix: (Units=1/GPa)
#
#
# Indices 1 2 3 4 5 6 
#
# 1 0.011381 -0.004783 -0.001493 -0.001620 0.002439 0.004500
# 2 -0.004783 0.010052 -0.002323 0.000780 -0.002620 -0.004155
# 3 -0.001493 -0.002323 0.012504 0.006786 -0.002297 -0.001485
# 4 -0.001620 0.000780 0.006786 0.034849 -0.004793 -0.000712
# 5 0.002439 -0.002620 -0.002297 -0.004793 0.049614 -0.004008
# 6 0.004500 -0.004155 -0.001485 -0.000712 -0.004008 0.024999
#
#
# Mechanical properties :
#
#
# Convention : Reuss Voigt Hill
#
# Bulk Modulus (GPa) = 59.74207 68.12098 63.93152
# Shear Modulus (GPa) = 30.08861 36.54038 33.31450
#
# Velocity S-wave (km/s) = 3.56888 3.93295 3.75533
# Velocity P-wave (km/s) = 6.50171 7.03283 6.77248
#
# Compressibility (1/GPa) = 0.01673862
#
# Stress axis : x y z
#
# Youngs Moduli (GPa) = 87.86862 99.48310 79.97457
#
# Poissons Ratio (x) = 0.47586 0.11939
# Poissons Ratio (y) = 0.42031 0.18577
# Poissons Ratio (z) = 0.13117 0.23108
#
# Static dielectric constant tensor:
#      x y z
#    x 1.986780 -0.004320 0.000610 
#    y -0.004320 2.320420 -0.038620 
#    z 0.000610 -0.038620 1.954100 
# 
# From -- ./inp_files/553053.got.cif
#   From: 2010.05.17/outbox.cif.g08.bks.cpg/sg2_277_cif.got.tgz:553053.got - 2010.06.03 11:33:40.
