data_PCOD9063708
_publ_section_title
;
Structure prediction by ZEFSAII (Michael W. Deem and Ramdas Pophale) SiO2 
 PCOD9063708
Probable space group: P -1
;
_chemical_formula_sum "Si O2"
_cell_formula_units_Z 16
_cell_length_a 8.013507
_cell_length_b 14.161909
_cell_length_c 6.515171
_cell_angle_alpha 108.601516
_cell_angle_beta 95.017674
_cell_angle_gamma 76.075541
_cell_volume 680.120226
_symmetry_space_group_name_H-M "P -1"
_symmetry_group_IT_number 2
_symmetry_cell_setting 'triclinic'
loop_
_space_group_symop_operation_xyz
x,y,z
-x,-y,-z
loop_
_atom_site_type_symbol
_atom_site_label
_atom_site_fract_x
_atom_site_fract_y
_atom_site_fract_z
Si Si1 0.130421 0.193996 0.668876
Si Si2 0.607943 0.754857 0.927434
Si Si3 0.339850 0.935777 0.826041
Si Si4 0.096105 0.538204 0.843151
Si Si5 0.406349 0.620320 0.063482
Si Si6 0.840886 0.646372 0.536831
Si Si7 0.238754 0.823865 0.377969
Si Si8 0.668873 0.990669 0.719232
O O1 0.076688 0.287700 0.567612
O O2 0.953331 0.172656 0.716269
O O3 0.231712 0.099223 0.479082
O O4 0.252362 0.223331 0.878816
O O5 0.464290 0.852944 0.922304
O O6 0.689753 0.718728 0.691871
O O7 0.518751 0.669311 0.951743
O O8 0.228959 0.875661 0.637377
O O9 0.473872 0.978285 0.726978
O O10 0.251730 0.016469 0.044452
O O11 0.209676 0.439541 0.670924
O O12 0.961830 0.591827 0.694906
O O13 0.215977 0.612866 0.968942
O O14 0.000000 0.500000 0.000000
O O15 0.360337 0.709357 0.296674
O O16 0.500000 0.500000 0.000000
O O17 0.314675 0.902967 0.305406
#
# Coordination Sequence:
#
# PCOD9063708 Si02
#       8
#     2   2   2   2   2   2   2   2
#     4  12  27  45  74 103 150 191 232 294 360 430
#     4  12  26  46  71 106 141 188 238 296 351 424
#     4  11  26  45  75 103 143 186 241 295 358 423
#     4  11  25  48  71 105 144 189 235 302 354 421
#     4  12  26  45  73 101 145 186 239 293 358 422
#     4  11  24  44  73 100 144 190 238 284 365 422
#     4  12  27  46  71 105 146 186 240 299 357 427
#     4  11  25  48  72 107 143 190 236 297 361 426
#
# _framework density 23.52525
#
# number of rings (size 3 to 8) (size 9 to 14) (size 15 to 20)
#    0.000    0.500    2.500    5.250    7.000    3.000 
#    0.000    0.000    0.000    0.000    0.000    0.000 
#    0.000    0.000    0.000    0.000    0.000    0.000 
#
# Total GULP energy -89457.007851 kJ/mol
# GULP energy per Si atom -5591.062991 kJ/mol
# Density = 2.347171 g / cm^3
# Si number density = 23.525250 Si / 1000 Ang^3
#
#
#
# Elastic Constant Matrix: (Units=GPa)
#
#
# Indices 1 2 3 4 5 6 
#
# 1 65.5982 32.2092 41.9364 -2.6533 17.0973 26.6393
# 2 32.2092 133.3024 38.2680 -0.2593 10.7947 16.5661
# 3 41.9364 38.2680 138.4155 21.0316 -0.8357 10.9095
# 4 -2.6533 -0.2593 21.0316 49.6809 -8.5063 -0.6190
# 5 17.0973 10.7947 -0.8357 -8.5063 36.4776 11.7352
# 6 26.6393 16.5661 10.9095 -0.6190 11.7352 34.0960
#
#
#
# Elastic Compliance Matrix: (Units=1/GPa)
#
#
# Indices 1 2 3 4 5 6 
#
# 1 0.030631 -0.002361 -0.007801 0.003449 -0.007338 -0.017701
# 2 -0.002361 0.008825 -0.001674 0.000450 -0.000930 -0.001579
# 3 -0.007801 -0.001674 0.010534 -0.004419 0.002530 0.002587
# 4 0.003449 0.000450 -0.004419 0.022892 0.004314 -0.002568
# 5 -0.007338 -0.000930 0.002530 0.004314 0.034228 -0.006327
# 6 -0.017701 -0.001579 0.002587 -0.002568 -0.006327 0.045229
#
#
# Mechanical properties :
#
#
# Convention : Reuss Voigt Hill
#
# Bulk Modulus (GPa) = 37.99686 62.46036 50.22861
# Shear Modulus (GPa) = 27.05861 39.04441 33.05151
#
# Velocity S-wave (km/s) = 3.39513 4.07834 3.75232
# Velocity P-wave (km/s) = 5.61746 6.98463 6.33802
#
# Compressibility (1/GPa) = 0.02631797
#
# Stress axis : x y z
#
# Youngs Moduli (GPa) = 32.64676 113.31070 94.93232
#
# Poissons Ratio (x) = 0.26753 0.74056
# Poissons Ratio (y) = 0.07708 0.15892
# Poissons Ratio (z) = 0.25467 0.18969
#
# Static dielectric constant tensor:
#      x y z
#    x 1.869040 -0.058300 -0.013340 
#    y -0.058300 1.943040 0.061870 
#    z -0.013340 0.061870 1.994510 
# 
# From -- ./inp_files/39868.got.cif
#   From: 2010.05.17/outbox.cif.g08.bks.cpg/sg2_20_cif.got.tgz:39868.got - 2010.06.03 11:33:40.
