data_PCOD9063052
_publ_section_title
;
Structure prediction by ZEFSAII (Michael W. Deem and Ramdas Pophale) SiO2 
 PCOD9063052
Probable space group: P -1
;
_chemical_formula_sum "Si O2"
_cell_formula_units_Z 16
_cell_length_a 8.755728
_cell_length_b 6.021680
_cell_length_c 18.999713
_cell_angle_alpha 76.674335
_cell_angle_beta 131.605521
_cell_angle_gamma 123.500100
_cell_volume 609.573044
_symmetry_space_group_name_H-M "P -1"
_symmetry_group_IT_number 2
_symmetry_cell_setting 'triclinic'
loop_
_space_group_symop_operation_xyz
x,y,z
-x,-y,-z
loop_
_atom_site_type_symbol
_atom_site_label
_atom_site_fract_x
_atom_site_fract_y
_atom_site_fract_z
Si Si1 0.736078 0.832391 0.249101
Si Si2 0.865000 0.129273 0.546860
Si Si3 0.014002 0.648052 0.065372
Si Si4 0.381879 0.329403 0.267266
Si Si5 0.837888 0.112179 0.114307
Si Si6 0.437077 0.860537 0.767432
Si Si7 0.588294 0.718458 0.950301
Si Si8 0.725948 0.571574 0.474017
O O1 0.491441 0.571844 0.225517
O O2 0.964333 0.814539 0.336844
O O3 0.719035 0.929193 0.159998
O O4 0.763067 0.071171 0.290233
O O5 0.739598 0.301556 0.512775
O O6 0.055351 0.271013 0.528893
O O7 0.737408 0.803037 0.512638
O O8 0.922588 0.426202 0.116692
O O9 0.825655 0.737277 0.992901
O O10 0.288202 0.893594 0.146295
O O11 0.000000 0.500000 0.000000
O O12 0.531818 0.199449 0.297987
O O13 0.472049 0.451388 0.362216
O O14 0.095087 0.135793 0.183923
O O15 0.673558 0.982496 0.004553
O O16 0.402746 0.657929 0.835188
O O17 0.500000 0.500000 0.000000
#
# Coordination Sequence:
#
# PCOD9063052 Si02
#       8
#     2   2   2   2   2   2   2   2
#     4  11  26  41  69  99 135 174 228 284 341 409
#     4   9  20  40  65 104 137 180 229 287 349 426
#     4  12  24  42  66  91 129 181 226 279 336 407
#     4  11  24  43  69  97 134 176 226 282 342 412
#     4  12  25  45  65  99 133 176 230 279 337 407
#     4  12  24  41  65  96 131 178 225 281 342 402
#     4  12  26  42  63  92 133 177 224 276 341 405
#     4   9  20  38  70  98 138 183 228 281 358 422
#
# _framework density 26.247879000000001
#
# number of rings (size 3 to 8) (size 9 to 14) (size 15 to 20)
#    0.000    1.000    3.750    2.625   10.500    1.000 
#    0.000    1.250    0.000    0.000    0.000    0.000 
#    0.000    0.000    0.000    0.000    0.000    0.000 
#
# Total GULP energy -89390.663280 kJ/mol
# GULP energy per Si atom -5586.916455 kJ/mol
# Density = 2.618814 g / cm^3
# Si number density = 26.247879 Si / 1000 Ang^3
#
#
#
# Elastic Constant Matrix: (Units=GPa)
#
#
# Indices 1 2 3 4 5 6 
#
# 1 76.6718 30.2163 22.3821 -9.1663 -2.4763 -19.0471
# 2 30.2163 107.5689 28.6474 -13.7245 -4.0017 -0.3086
# 3 22.3821 28.6474 119.3190 0.5144 -8.5224 -6.8359
# 4 -9.1663 -13.7245 0.5144 39.9006 -13.8572 -2.3913
# 5 -2.4763 -4.0017 -8.5224 -13.8572 24.8412 -1.7438
# 6 -19.0471 -0.3086 -6.8359 -2.3913 -1.7438 42.4744
#
#
#
# Elastic Compliance Matrix: (Units=1/GPa)
#
#
# Indices 1 2 3 4 5 6 
#
# 1 0.017686 -0.003774 -0.001709 0.004542 0.003666 0.008035
# 2 -0.003774 0.011497 -0.001949 0.004044 0.002952 -0.001574
# 3 -0.001709 -0.001949 0.009410 -0.000200 0.002691 0.000833
# 4 0.004542 0.004044 -0.000200 0.035062 0.020936 0.004867
# 5 0.003666 0.002952 0.002691 0.020936 0.054084 0.005498
# 6 0.008035 -0.001574 0.000833 0.004867 0.005498 0.027769
#
#
# Mechanical properties :
#
#
# Convention : Reuss Voigt Hill
#
# Bulk Modulus (GPa) = 42.14204 51.78347 46.96276
# Shear Modulus (GPa) = 28.04541 36.26418 32.15479
#
# Velocity S-wave (km/s) = 3.27231 3.72103 3.50386
# Velocity P-wave (km/s) = 5.51068 6.18327 5.85664
#
# Compressibility (1/GPa) = 0.02372927
#
# Stress axis : x y z
#
# Youngs Moduli (GPa) = 56.54105 86.98056 106.26750
#
# Poissons Ratio (x) = 0.32827 0.18160
# Poissons Ratio (y) = 0.21339 0.20712
# Poissons Ratio (z) = 0.09662 0.16953
#
# Static dielectric constant tensor:
#      x y z
#    x 2.150310 -0.087400 -0.013650 
#    y -0.087400 2.365530 0.035180 
#    z -0.013650 0.035180 1.964950 
# 
# From -- ./inp_files/585660.got.cif
#   From: 2010.05.17/outbox.cif.g08.bks.cpg/sg2_293_cif.got.tgz:585660.got - 2010.06.03 11:33:40.
