data_PCOD9063242
_publ_section_title
;
Structure prediction by ZEFSAII (Michael W. Deem and Ramdas Pophale) SiO2 
 PCOD9063242
Probable space group: P -1
;
_chemical_formula_sum "Si O2"
_cell_formula_units_Z 16
_cell_length_a 18.196138
_cell_length_b 9.671850
_cell_length_c 11.191548
_cell_angle_alpha 77.531644
_cell_angle_beta 131.421598
_cell_angle_gamma 141.112302
_cell_volume 716.059051
_symmetry_space_group_name_H-M "P -1"
_symmetry_group_IT_number 2
_symmetry_cell_setting 'triclinic'
loop_
_space_group_symop_operation_xyz
x,y,z
-x,-y,-z
loop_
_atom_site_type_symbol
_atom_site_label
_atom_site_fract_x
_atom_site_fract_y
_atom_site_fract_z
Si Si1 0.427567 0.704851 0.134682
Si Si2 0.108607 0.778840 0.110227
Si Si3 0.245558 0.365405 0.441792
Si Si4 0.506839 0.147750 0.560291
Si Si5 0.639947 0.701671 0.881557
Si Si6 0.067633 0.949144 0.659499
Si Si7 0.000411 0.783752 0.226466
Si Si8 0.165699 0.824304 0.605018
O O1 0.466633 0.839696 0.273133
O O2 0.399576 0.503231 0.178025
O O3 0.608448 0.943070 0.193610
O O4 0.216539 0.487867 0.899198
O O5 0.986449 0.712841 0.089257
O O6 0.302051 0.969751 0.351902
O O7 0.196463 0.995769 0.065032
O O8 0.000000 0.500000 0.000000
O O9 0.327872 0.549081 0.381417
O O10 0.432823 0.527345 0.681023
O O11 0.119220 0.305938 0.405401
O O12 0.096717 0.057958 0.293460
O O13 0.500000 0.000000 0.500000
O O14 0.735790 0.787691 0.097296
O O15 0.117532 0.884438 0.637398
O O16 0.000000 0.000000 0.500000
O O17 0.137852 0.854981 0.438273
O O18 0.000000 0.500000 0.500000
#
# Coordination Sequence:
#
# PCOD9063242 Si02
#       8
#     2   2   2   2   2   2   2   2
#     4  12  24  45  72 101 136 185 235 291 355 417
#     4  11  25  42  69 107 148 182 227 290 359 423
#     4  11  24  44  70 107 137 186 235 293 348 417
#     4  11  25  42  70 104 146 181 232 291 355 427
#     4  11  24  43  73 106 138 185 233 293 348 417
#     4  12  25  47  74 101 141 186 244 286 348 428
#     4  12  24  46  71 103 139 183 240 285 359 420
#     4  12  29  48  70  99 146 190 229 303 349 426
#
# _framework density 22.344525999999998
#
# number of rings (size 3 to 8) (size 9 to 14) (size 15 to 20)
#    0.000    0.500    5.000    1.500    7.000    6.500 
#    0.000    0.000    0.000    0.000    0.000    0.000 
#    0.000    0.000    0.000    0.000    0.000    0.000 
#
# Total GULP energy -89486.247905 kJ/mol
# GULP energy per Si atom -5592.890494 kJ/mol
# Density = 2.229367 g / cm^3
# Si number density = 22.344526 Si / 1000 Ang^3
#
#
#
# Elastic Constant Matrix: (Units=GPa)
#
#
# Indices 1 2 3 4 5 6 
#
# 1 154.5707 33.0151 48.1098 19.8787 -5.1461 12.6045
# 2 33.0151 60.8317 9.4851 38.4852 -10.8827 -3.4675
# 3 48.1098 9.4851 100.1279 12.4955 6.8009 4.6010
# 4 19.8787 38.4852 12.4955 36.4804 1.7770 6.9724
# 5 -5.1461 -10.8827 6.8009 1.7770 45.0452 12.9907
# 6 12.6045 -3.4675 4.6010 6.9724 12.9907 23.9140
#
#
#
# Elastic Compliance Matrix: (Units=1/GPa)
#
#
# Indices 1 2 3 4 5 6 
#
# 1 0.009789 -0.010681 -0.004515 0.009195 0.001558 -0.009367
# 2 -0.010681 0.083971 0.006267 -0.092646 0.010907 0.037687
# 3 -0.004515 0.006267 0.012635 -0.009262 -0.001862 0.004569
# 4 0.009195 -0.092646 -0.009262 0.133289 -0.010941 -0.049417
# 5 0.001558 0.010907 -0.001862 -0.010941 0.029031 -0.011462
# 6 -0.009367 0.037687 0.004569 -0.049417 -0.011462 0.071974
#
#
# Mechanical properties :
#
#
# Convention : Reuss Voigt Hill
#
# Bulk Modulus (GPa) = 11.29471 55.19450 33.24461
# Shear Modulus (GPa) = 12.88460 36.08260 24.48360
#
# Velocity S-wave (km/s) = 2.40392 4.02285 3.31377
# Velocity P-wave (km/s) = 3.57364 6.80684 5.43617
#
# Compressibility (1/GPa) = 0.08853699
#
# Stress axis : x y z
#
# Youngs Moduli (GPa) = 102.15142 11.90890 79.14467
#
# Poissons Ratio (x) = 0.12720 0.35731
# Poissons Ratio (y) = 1.09112 -0.49599
# Poissons Ratio (z) = 0.46118 -0.07463
#
# Static dielectric constant tensor:
#      x y z
#    x 1.685060 0.043550 -0.017070 
#    y 0.043550 1.816050 0.005810 
#    z -0.017070 0.005810 1.816710 
# 
# From -- ./inp_files/462150.got.cif
#   From: 2010.05.17/outbox.cif.g08.bks.cpg/sg2_232_cif.got.tgz:462150.got - 2010.06.03 11:33:40.
