data_PCOD9063066
_publ_section_title
;
Structure prediction by ZEFSAII (Michael W. Deem and Ramdas Pophale) SiO2 
 PCOD9063066
Probable space group: P -1
;
_chemical_formula_sum "Si O2"
_cell_formula_units_Z 16
_cell_length_a 9.197248
_cell_length_b 8.832322
_cell_length_c 24.629179
_cell_angle_alpha 152.179366
_cell_angle_beta 46.555211
_cell_angle_gamma 124.854036
_cell_volume 673.944668
_symmetry_space_group_name_H-M "P -1"
_symmetry_group_IT_number 2
_symmetry_cell_setting 'triclinic'
loop_
_space_group_symop_operation_xyz
x,y,z
-x,-y,-z
loop_
_atom_site_type_symbol
_atom_site_label
_atom_site_fract_x
_atom_site_fract_y
_atom_site_fract_z
Si Si1 0.640121 0.647071 0.053518
Si Si2 0.616975 0.343324 0.777579
Si Si3 0.455744 0.841557 0.384011
Si Si4 0.812359 0.211776 0.399755
Si Si5 0.031184 0.823428 0.127459
Si Si6 0.144614 0.137629 0.089865
Si Si7 0.226585 0.710507 0.833954
Si Si8 0.006224 0.888815 0.562104
O O1 0.531024 0.779786 0.178874
O O2 0.721175 0.958540 0.103567
O O3 0.500000 0.500000 0.000000
O O4 0.789478 0.328543 0.928807
O O5 0.545943 0.302582 0.722156
O O6 0.648880 0.704399 0.904971
O O7 0.840829 0.160210 0.667235
O O8 0.593537 0.577397 0.301449
O O9 0.224306 0.880876 0.475047
O O10 0.577554 0.162783 0.455089
O O11 0.940925 0.084788 0.379362
O O12 0.892481 0.561123 0.480023
O O13 0.866592 0.991107 0.263277
O O14 0.074333 0.071806 0.147694
O O15 0.000000 0.500000 0.000000
O O16 0.973789 0.356332 0.168263
O O17 0.177822 0.813706 0.941566
#
# Coordination Sequence:
#
# PCOD9063066 Si02
#       8
#     2   2   2   2   2   2   2   2
#     4  12  25  40  69 103 146 188 234 293 357 436
#     4  12  26  45  70 106 141 186 242 298 359 423
#     4  12  27  47  73 105 142 186 243 303 356 423
#     4  11  26  47  77 105 142 193 238 298 358 428
#     4  12  24  45  71 108 146 184 230 294 368 426
#     4  11  24  43  70 101 147 187 230 299 358 432
#     4  11  25  43  68 105 142 191 238 288 364 429
#     4  11  27  50  74 103 143 194 248 297 350 421
#
# _framework density 23.740822999999999
#
# number of rings (size 3 to 8) (size 9 to 14) (size 15 to 20)
#    0.000    0.500    2.500    5.250    8.750    1.500 
#    0.000    0.000    0.000    0.000    0.000    0.000 
#    0.000    0.000    0.000    0.000    0.000    0.000 
#
# Total GULP energy -89479.398796 kJ/mol
# GULP energy per Si atom -5592.462425 kJ/mol
# Density = 2.368679 g / cm^3
# Si number density = 23.740823 Si / 1000 Ang^3
#
#
#
# Elastic Constant Matrix: (Units=GPa)
#
#
# Indices 1 2 3 4 5 6 
#
# 1 90.8023 36.3884 9.3944 10.1459 12.8279 3.0726
# 2 36.3884 118.5389 44.2466 -17.8334 11.2177 14.5474
# 3 9.3944 44.2466 61.7171 -14.7943 -2.1544 -0.0873
# 4 10.1459 -17.8334 -14.7943 33.8418 2.7113 14.3709
# 5 12.8279 11.2177 -2.1544 2.7113 50.9614 -5.3847
# 6 3.0726 14.5474 -0.0873 14.3709 -5.3847 38.7038
#
#
#
# Elastic Compliance Matrix: (Units=1/GPa)
#
#
# Indices 1 2 3 4 5 6 
#
# 1 0.014683 -0.006412 0.000012 -0.009648 -0.001279 0.004649
# 2 -0.006412 0.017270 -0.008609 0.012370 -0.004393 -0.011206
# 3 0.000012 -0.008609 0.023611 0.004736 0.002842 0.001925
# 4 -0.009648 0.012370 0.004736 0.051547 -0.005347 -0.023756
# 5 -0.001279 -0.004393 0.002842 -0.005347 0.022036 0.006810
# 6 0.004649 -0.011206 0.001925 -0.023756 0.006810 0.039453
#
#
# Mechanical properties :
#
#
# Convention : Reuss Voigt Hill
#
# Bulk Modulus (GPa) = 39.14917 50.12410 44.63664
# Shear Modulus (GPa) = 24.13890 36.77001 30.45445
#
# Velocity S-wave (km/s) = 3.19214 3.93976 3.58549
# Velocity P-wave (km/s) = 5.48747 6.46951 5.99862
#
# Compressibility (1/GPa) = 0.02554332
#
# Stress axis : x y z
#
# Youngs Moduli (GPa) = 68.10629 57.90379 42.35370
#
# Poissons Ratio (x) = 0.37131 -0.00049
# Poissons Ratio (y) = 0.43673 0.36463
# Poissons Ratio (z) = -0.00078 0.49851
#
# Static dielectric constant tensor:
#      x y z
#    x 1.836370 0.083220 0.026620 
#    y 0.083220 1.973570 -0.002570 
#    z 0.026620 -0.002570 1.894560 
# 
# From -- ./inp_files/226806.got.cif
#   From: 2010.05.17/outbox.cif.g08.bks.cpg/sg2_114_cif.got.tgz:226806.got - 2010.06.03 11:33:40.
