data_PCOD9063077
_publ_section_title
;
Structure prediction by ZEFSAII (Michael W. Deem and Ramdas Pophale) SiO2 
 PCOD9063077
Probable space group: P -1
;
_chemical_formula_sum "Si O2"
_cell_formula_units_Z 16
_cell_length_a 4.927617
_cell_length_b 12.392981
_cell_length_c 14.884784
_cell_angle_alpha 48.578392
_cell_angle_beta 87.710636
_cell_angle_gamma 71.419182
_cell_volume 627.135851
_symmetry_space_group_name_H-M "P -1"
_symmetry_group_IT_number 2
_symmetry_cell_setting 'triclinic'
loop_
_space_group_symop_operation_xyz
x,y,z
-x,-y,-z
loop_
_atom_site_type_symbol
_atom_site_label
_atom_site_fract_x
_atom_site_fract_y
_atom_site_fract_z
Si Si1 0.222343 0.564211 0.146854
Si Si2 0.329337 0.016392 0.803494
Si Si3 0.152500 0.562227 0.883191
Si Si4 0.894512 0.933836 0.950452
Si Si5 0.409684 0.561049 0.617913
Si Si6 0.290124 0.857307 0.547394
Si Si7 0.699723 0.640807 0.401263
Si Si8 0.354716 0.122727 0.298906
O O1 0.963946 0.507076 0.160117
O O2 0.330282 0.504984 0.277496
O O3 0.497185 0.498772 0.107256
O O4 0.085791 0.750180 0.044007
O O5 0.281368 0.193483 0.687755
O O6 0.012837 0.011813 0.826758
O O7 0.481986 0.896945 0.786980
O O8 0.556744 0.966501 0.912880
O O9 0.977974 0.750091 0.780683
O O10 0.000000 0.500000 0.000000
O O11 0.000000 0.000000 0.000000
O O12 0.208650 0.718084 0.586662
O O13 0.477317 0.629859 0.486224
O O14 0.357547 0.409886 0.669295
O O15 0.507017 0.816994 0.652492
O O16 0.406676 0.945222 0.422842
O O17 0.000000 0.000000 0.500000
O O18 0.000000 0.500000 0.500000
#
# Coordination Sequence:
#
# PCOD9063077 Si02
#       8
#     2   2   2   2   2   2   2   2
#     4  12  26  47  75 104 147 190 245 301 361 439
#     4  12  28  49  77 110 150 191 251 302 370 441
#     4  12  26  46  71 107 144 193 243 297 367 429
#     4  12  28  50  76 107 145 198 249 308 364 430
#     4  11  25  47  70 110 144 193 246 302 369 443
#     4  11  24  43  70 103 149 190 243 295 370 440
#     4  11  28  44  76 106 148 195 241 310 365 437
#     4  11  25  42  70 109 146 194 236 304 365 441
#
# _framework density 25.512812
#
# number of rings (size 3 to 8) (size 9 to 14) (size 15 to 20)
#    0.000    0.500    2.500    4.500   10.500    0.000 
#    0.000    0.000    0.000    0.000    0.000    0.000 
#    0.000    0.000    0.000    0.000    0.000    0.000 
#
# Total GULP energy -89517.754042 kJ/mol
# GULP energy per Si atom -5594.859628 kJ/mol
# Density = 2.545474 g / cm^3
# Si number density = 25.512812 Si / 1000 Ang^3
#
#
#
# Elastic Constant Matrix: (Units=GPa)
#
#
# Indices 1 2 3 4 5 6 
#
# 1 83.8836 14.6638 -1.9615 -2.1942 -0.4257 -5.0162
# 2 14.6638 134.1828 23.1650 -15.2620 -4.8162 4.5223
# 3 -1.9615 23.1650 82.3608 -16.3498 0.1977 2.1976
# 4 -2.1942 -15.2620 -16.3498 53.1961 4.6290 5.9179
# 5 -0.4257 -4.8162 0.1977 4.6290 37.9134 -5.5498
# 6 -5.0162 4.5223 2.1976 5.9179 -5.5498 30.6264
#
#
#
# Elastic Compliance Matrix: (Units=1/GPa)
#
#
# Indices 1 2 3 4 5 6 
#
# 1 0.012340 -0.001529 0.000663 0.000001 0.000270 0.002248
# 2 -0.001529 0.008238 -0.001951 0.001825 0.000586 -0.001573
# 3 0.000663 -0.001951 0.013518 0.003877 -0.001005 -0.001505
# 4 0.000001 0.001825 0.003877 0.021373 -0.003167 -0.005251
# 5 0.000270 0.000586 -0.001005 -0.003167 0.027673 0.005656
# 6 0.002248 -0.001573 -0.001505 -0.005251 0.005656 0.035400
#
#
# Mechanical properties :
#
#
# Convention : Reuss Voigt Hill
#
# Bulk Modulus (GPa) = 35.13230 41.35132 38.24181
# Shear Modulus (GPa) = 37.40744 41.98449 39.69597
#
# Velocity S-wave (km/s) = 3.83328 4.06103 3.94880
# Velocity P-wave (km/s) = 5.77862 6.18325 5.98435
#
# Compressibility (1/GPa) = 0.02846383
#
# Stress axis : x y z
#
# Youngs Moduli (GPa) = 81.03780 121.38853 73.97319
#
# Poissons Ratio (x) = 0.18561 -0.04908
# Poissons Ratio (y) = 0.12391 0.14429
# Poissons Ratio (z) = -0.05376 0.23678
#
# Static dielectric constant tensor:
#      x y z
#    x 2.053280 0.081170 -0.055140 
#    y 0.081170 2.784350 0.221270 
#    z -0.055140 0.221270 2.090910 
# 
# From -- ./inp_files/364728.got.cif
#   From: 2010.05.17/outbox.cif.g08.bks.cpg/sg2_183_cif.got.tgz:364728.got - 2010.06.03 11:33:40.
