data_PCOD9063725
_publ_section_title
;
Structure prediction by ZEFSAII (Michael W. Deem and Ramdas Pophale) SiO2 
 PCOD9063725
Probable space group: P -1
;
_chemical_formula_sum "Si O2"
_cell_formula_units_Z 16
_cell_length_a 11.754358
_cell_length_b 14.545868
_cell_length_c 14.495027
_cell_angle_alpha 30.467795
_cell_angle_beta 55.915938
_cell_angle_gamma 37.921250
_cell_volume 713.244671
_symmetry_space_group_name_H-M "P -1"
_symmetry_group_IT_number 2
_symmetry_cell_setting 'triclinic'
loop_
_space_group_symop_operation_xyz
x,y,z
-x,-y,-z
loop_
_atom_site_type_symbol
_atom_site_label
_atom_site_fract_x
_atom_site_fract_y
_atom_site_fract_z
Si Si1 0.682641 0.631762 0.937743
Si Si2 0.651609 0.194105 0.165772
Si Si3 0.475569 0.477405 0.421310
Si Si4 0.953576 0.998719 0.915690
Si Si5 0.195951 0.177901 0.419659
Si Si6 0.606322 0.959359 0.851164
Si Si7 0.206609 0.800037 0.631456
Si Si8 0.181669 0.251052 0.874260
O O1 0.452042 0.793782 0.887295
O O2 0.744189 0.691848 0.769833
O O3 0.707891 0.732514 0.927647
O O4 0.798093 0.336391 0.163711
O O5 0.862378 0.086264 0.146968
O O6 0.681590 0.003765 0.389735
O O7 0.500000 0.500000 0.000000
O O8 0.500000 0.500000 0.500000
O O9 0.626566 0.424199 0.324999
O O10 0.254003 0.724200 0.270459
O O11 0.540023 0.207846 0.619391
O O12 0.932501 0.804102 0.075426
O O13 0.000000 0.000000 0.000000
O O14 0.962914 0.434974 0.329874
O O15 0.233177 0.974873 0.509316
O O16 0.398024 0.075572 0.882075
O O17 0.758220 0.851519 0.959010
O O18 0.000000 0.000000 0.500000
#
# Coordination Sequence:
#
# PCOD9063725 Si02
#       8
#     2   2   2   2   2   2   2   2
#     4  12  26  49  73 107 150 195 254 310 369 451
#     4  12  26  48  76 106 153 199 247 305 383 451
#     4  12  26  47  75 109 154 200 253 309 379 447
#     4  12  27  47  78 111 150 201 253 313 379 449
#     4  12  27  46  73 110 150 195 250 305 383 446
#     4  11  24  44  73 103 150 192 248 310 373 443
#     4  12  28  45  76 111 153 196 248 311 378 446
#     4  11  25  44  70 110 147 192 247 310 373 450
#
# _framework density 22.432694999999999
#
# number of rings (size 3 to 8) (size 9 to 14) (size 15 to 20)
#    0.000    0.250    3.750    4.875    7.000    2.000 
#    0.000    2.500    0.000    0.000    0.000    0.000 
#    0.000    0.000    0.000    0.000    0.000    0.000 
#
# Total GULP energy -89512.186227 kJ/mol
# GULP energy per Si atom -5594.511639 kJ/mol
# Density = 2.238164 g / cm^3
# Si number density = 22.432695 Si / 1000 Ang^3
#
#
#
# Elastic Constant Matrix: (Units=GPa)
#
#
# Indices 1 2 3 4 5 6 
#
# 1 112.6160 38.5867 38.4120 7.4344 17.1193 10.8615
# 2 38.5867 82.4241 42.9679 -1.2545 12.2824 1.4820
# 3 38.4120 42.9679 168.8828 3.4916 13.7578 -2.0806
# 4 7.4344 -1.2545 3.4916 36.9305 -4.5332 0.3342
# 5 17.1193 12.2824 13.7578 -4.5332 46.5845 -1.4592
# 6 10.8615 1.4820 -2.0806 0.3342 -1.4592 38.2812
#
#
#
# Elastic Compliance Matrix: (Units=1/GPa)
#
#
# Indices 1 2 3 4 5 6 
#
# 1 0.011805 -0.004356 -0.001302 -0.002761 -0.003179 -0.003349
# 2 -0.004356 0.015971 -0.002971 0.001504 -0.001574 0.000383
# 3 -0.001302 -0.002971 0.007066 -0.000620 -0.000859 0.000841
# 4 -0.002761 0.001504 -0.000620 0.028175 0.003561 0.000581
# 5 -0.003179 -0.001574 -0.000859 0.003561 0.023706 0.001789
# 6 -0.003349 0.000383 0.000841 0.000581 0.001789 0.027167
#
#
# Mechanical properties :
#
#
# Convention : Reuss Voigt Hill
#
# Bulk Modulus (GPa) = 56.86683 67.09512 61.98097
# Shear Modulus (GPa) = 36.49411 40.62301 38.55856
#
# Velocity S-wave (km/s) = 4.03777 4.26006 4.15041
# Velocity P-wave (km/s) = 6.86608 7.36016 7.11741
#
# Compressibility (1/GPa) = 0.01758494
#
# Stress axis : x y z
#
# Youngs Moduli (GPa) = 84.71175 62.61425 141.51488
#
# Poissons Ratio (x) = 0.27273 0.18425
# Poissons Ratio (y) = 0.36899 0.42040
# Poissons Ratio (z) = 0.11029 0.18601
#
# Static dielectric constant tensor:
#      x y z
#    x 1.912750 0.092970 0.042350 
#    y 0.092970 2.039120 0.127620 
#    z 0.042350 0.127620 1.868340 
# 
# From -- ./inp_files/522140.got.cif
#   From: 2010.05.17/outbox.cif.g08.bks.cpg/sg2_262_cif.got.tgz:522140.got - 2010.06.03 11:33:40.
