data_PCOD9063746
_publ_section_title
;
Structure prediction by ZEFSAII (Michael W. Deem and Ramdas Pophale) SiO2 
 PCOD9063746
Probable space group: P -1
;
_chemical_formula_sum "Si O2"
_cell_formula_units_Z 14
_cell_length_a 8.962647
_cell_length_b 22.610152
_cell_length_c 8.736863
_cell_angle_alpha 39.705671
_cell_angle_beta 49.642888
_cell_angle_gamma 31.668829
_cell_volume 593.684445
_symmetry_space_group_name_H-M "P -1"
_symmetry_group_IT_number 2
_symmetry_cell_setting 'triclinic'
loop_
_space_group_symop_operation_xyz
x,y,z
-x,-y,-z
loop_
_atom_site_type_symbol
_atom_site_label
_atom_site_fract_x
_atom_site_fract_y
_atom_site_fract_z
Si Si1 0.734900 0.699675 0.377071
Si Si2 0.955465 0.568789 0.170742
Si Si3 0.139148 0.963022 0.147216
Si Si4 0.095862 0.153198 0.956437
Si Si5 0.597121 0.362150 0.680704
Si Si6 0.272448 0.013304 0.442844
Si Si7 0.102469 0.226110 0.382707
O O1 0.934313 0.618580 0.256823
O O2 0.419572 0.808444 0.301525
O O3 0.800623 0.776532 0.253296
O O4 0.800522 0.592785 0.660153
O O5 0.666418 0.611722 0.240351
O O6 0.978292 0.645868 0.886158
O O7 0.910117 0.010414 0.329078
O O8 0.222170 0.040484 0.969496
O O9 0.000000 0.000000 0.000000
O O10 0.762660 0.270913 0.902991
O O11 0.181113 0.077756 0.208925
O O12 0.500000 0.500000 0.500000
O O13 0.838390 0.282054 0.547873
O O14 0.180484 0.128452 0.388630
O O15 0.599538 0.872981 0.527424
#
# Coordination Sequence:
#
# PCOD9063746 Si02
#       7
#     2   2   2   2   2   2   2
#     4  11  24  44  73 106 142 195 243 302 363 437
#     4  11  24  49  71 103 151 194 244 296 373 434
#     4  12  26  45  74 107 149 193 240 305 375 433
#     4  12  25  45  71 106 147 182 251 304 358 437
#     4  12  27  46  71 108 147 196 241 297 370 439
#     4  11  25  45  71 113 140 190 252 301 372 430
#     4  11  25  46  77 105 148 193 245 309 363 436
#
# _framework density 23.581551000000001
#
# number of rings (size 3 to 8) (size 9 to 14) (size 15 to 20)
#    0.000    0.571    2.857    5.143    6.000    1.714 
#    0.000    3.571    0.000    0.000    0.000    0.000 
#    0.000    0.000    0.000    0.000    0.000    0.000 
#
# Total GULP energy -78433.243246 kJ/mol
# GULP energy per Si atom -5602.374518 kJ/mol
# Density = 2.352788 g / cm^3
# Si number density = 23.581551 Si / 1000 Ang^3
#
#
#
# Elastic Constant Matrix: (Units=GPa)
#
#
# Indices 1 2 3 4 5 6 
#
# 1 137.9889 41.8486 60.7216 -18.1080 3.8109 8.7827
# 2 41.8486 80.7670 46.6463 -27.2055 10.2274 -10.1323
# 3 60.7216 46.6463 177.4780 -33.9162 5.4681 -8.9237
# 4 -18.1080 -27.2055 -33.9162 46.6445 -7.3055 6.7055
# 5 3.8109 10.2274 5.4681 -7.3055 43.5993 -4.6175
# 6 8.7827 -10.1323 -8.9237 6.7055 -4.6175 30.3784
#
#
#
# Elastic Compliance Matrix: (Units=1/GPa)
#
#
# Indices 1 2 3 4 5 6 
#
# 1 0.010012 -0.004279 -0.002499 0.000303 -0.000050 -0.005131
# 2 -0.004279 0.018929 -0.001857 0.006956 -0.002123 0.005147
# 3 -0.002499 -0.001857 0.007692 0.003365 0.000432 0.001686
# 4 0.000303 0.006956 0.003365 0.028844 0.002459 -0.002772
# 5 -0.000050 -0.002123 0.000432 0.002459 0.024066 0.002549
# 6 -0.005131 0.005147 0.001686 -0.002772 0.002549 0.037613
#
#
# Mechanical properties :
#
#
# Convention : Reuss Voigt Hill
#
# Bulk Modulus (GPa) = 51.64955 77.18523 64.41739
# Shear Modulus (GPa) = 33.13829 40.59224 36.86527
#
# Velocity S-wave (km/s) = 3.75275 4.15342 3.95816
# Velocity P-wave (km/s) = 6.38182 7.47017 6.94734
#
# Compressibility (1/GPa) = 0.01936125
#
# Stress axis : x y z
#
# Youngs Moduli (GPa) = 99.87621 52.82914 130.00067
#
# Poissons Ratio (x) = 0.22608 0.32491
# Poissons Ratio (y) = 0.42742 0.24146
# Poissons Ratio (z) = 0.24962 0.09813
#
# Static dielectric constant tensor:
#      x y z
#    x 1.907920 0.024740 -0.006110 
#    y 0.024740 1.916810 -0.014950 
#    z -0.006110 -0.014950 1.877810 
# 
# From -- ./inp_files/225927.got.cif
#   From: 2010.05.17/outbox.cif.g08.bks.cpg/sg2_113_cif.got.tgz:225927.got - 2010.06.03 11:33:40.
