data_PCOD9063300
_publ_section_title
;
Structure prediction by ZEFSAII (Michael W. Deem and Ramdas Pophale) SiO2 
 PCOD9063300
Probable space group: P -1
;
_chemical_formula_sum "Si O2"
_cell_formula_units_Z 16
_cell_length_a 9.340287
_cell_length_b 14.043972
_cell_length_c 11.520089
_cell_angle_alpha 47.743047
_cell_angle_beta 137.975884
_cell_angle_gamma 111.339410
_cell_volume 720.133946
_symmetry_space_group_name_H-M "P -1"
_symmetry_group_IT_number 2
_symmetry_cell_setting 'triclinic'
loop_
_space_group_symop_operation_xyz
x,y,z
-x,-y,-z
loop_
_atom_site_type_symbol
_atom_site_label
_atom_site_fract_x
_atom_site_fract_y
_atom_site_fract_z
Si Si1 0.848550 0.268075 0.109482
Si Si2 0.913352 0.484885 0.332489
Si Si3 0.191989 0.303433 0.456696
Si Si4 0.367421 0.894894 0.028976
Si Si5 0.437017 0.465529 0.359463
Si Si6 0.074338 0.994479 0.181046
Si Si7 0.639307 0.306518 0.407290
Si Si8 0.824356 0.740265 0.904954
O O1 0.015696 0.238472 0.342662
O O2 0.989378 0.276847 0.069687
O O3 0.720687 0.157621 0.097338
O O4 0.653095 0.405852 0.882083
O O5 0.708172 0.418845 0.279849
O O6 0.000000 0.500000 0.500000
O O7 0.092744 0.375764 0.455224
O O8 0.880770 0.625389 0.131456
O O9 0.445584 0.219778 0.699222
O O10 0.222370 0.411857 0.293610
O O11 0.150353 0.959849 0.918442
O O12 0.500000 0.000000 0.000000
O O13 0.500000 0.500000 0.500000
O O14 0.628687 0.359486 0.491102
O O15 0.202892 0.108398 0.189082
O O16 0.199729 0.839369 0.404317
O O17 0.000000 0.000000 0.000000
O O18 0.398218 0.284376 0.261058
#
# Coordination Sequence:
#
# PCOD9063300 Si02
#       8
#     2   2   2   2   2   2   2   2
#     4  11  24  43  75 107 133 179 245 291 337 421
#     4  12  26  43  68 108 148 180 226 296 363 416
#     4  12  23  45  73 102 141 183 237 288 348 417
#     4  11  26  47  71 101 140 187 235 287 350 416
#     4  12  22  41  75 103 133 183 236 285 345 416
#     4  11  25  46  69  99 140 186 235 281 345 431
#     4  12  25  44  69 104 144 182 231 291 358 409
#     4  11  24  45  71 104 139 184 235 288 346 423
#
# _framework density 22.21809
#
# number of rings (size 3 to 8) (size 9 to 14) (size 15 to 20)
#    0.000    0.500    3.750    4.875    1.750    0.500 
#    2.250    0.000    0.000    0.000    0.000    0.000 
#    0.000    0.000    0.000    0.000    0.000    0.000 
#
# Total GULP energy -89389.013744 kJ/mol
# GULP energy per Si atom -5586.813359 kJ/mol
# Density = 2.216752 g / cm^3
# Si number density = 22.218090 Si / 1000 Ang^3
#
#
#
# Elastic Constant Matrix: (Units=GPa)
#
#
# Indices 1 2 3 4 5 6 
#
# 1 99.8550 58.3704 24.9771 -9.6016 9.8661 -1.4948
# 2 58.3704 163.3383 51.3489 7.3338 12.3961 3.2408
# 3 24.9771 51.3489 84.5007 7.5679 13.2280 -18.9232
# 4 -9.6016 7.3338 7.5679 36.7704 -0.0206 4.0726
# 5 9.8661 12.3961 13.2280 -0.0206 26.5332 2.2383
# 6 -1.4948 3.2408 -18.9232 4.0726 2.2383 49.0001
#
#
#
# Elastic Compliance Matrix: (Units=1/GPa)
#
#
# Indices 1 2 3 4 5 6 
#
# 1 0.013667 -0.004477 -0.001420 0.004767 -0.002268 -0.000128
# 2 -0.004477 0.009343 -0.004712 -0.001795 -0.000149 -0.002418
# 3 -0.001420 -0.004712 0.018402 -0.004113 -0.007127 0.008042
# 4 0.004767 -0.001795 -0.004113 0.030077 0.001468 -0.003891
# 5 -0.002268 -0.000149 -0.007127 0.001468 0.042567 -0.004878
# 6 -0.000128 -0.002418 0.008042 -0.003891 -0.004878 0.024216
#
#
# Mechanical properties :
#
#
# Convention : Reuss Voigt Hill
#
# Bulk Modulus (GPa) = 49.51606 68.56521 59.04063
# Shear Modulus (GPa) = 30.08021 36.66058 33.37039
#
# Velocity S-wave (km/s) = 3.68348 4.06647 3.87970
# Velocity P-wave (km/s) = 6.35810 7.27841 6.83377
#
# Compressibility (1/GPa) = 0.02019547
#
# Stress axis : x y z
#
# Youngs Moduli (GPa) = 73.16717 107.02794 54.34151
#
# Poissons Ratio (x) = 0.47919 0.07715
# Poissons Ratio (y) = 0.32758 0.25605
# Poissons Ratio (z) = 0.10387 0.50430
#
# Static dielectric constant tensor:
#      x y z
#    x 1.734220 -0.052710 0.130710 
#    y -0.052710 1.838890 0.119900 
#    z 0.130710 0.119900 1.457660 
# 
# From -- ./inp_files/398689.got.cif
#   From: 2010.05.17/outbox.cif.g08.bks.cpg/sg2_200_cif.got.tgz:398689.got - 2010.06.03 11:33:40.
