data_PCOD9063636
_publ_section_title
;
Structure prediction by ZEFSAII (Michael W. Deem and Ramdas Pophale) SiO2 
 PCOD9063636
Probable space group: P -1
;
_chemical_formula_sum "Si O2"
_cell_formula_units_Z 16
_cell_length_a 14.540005
_cell_length_b 11.718546
_cell_length_c 5.274117
_cell_angle_alpha 99.860240
_cell_angle_beta 112.001117
_cell_angle_gamma 49.012524
_cell_volume 625.374883
_symmetry_space_group_name_H-M "P -1"
_symmetry_group_IT_number 2
_symmetry_cell_setting 'triclinic'
loop_
_space_group_symop_operation_xyz
x,y,z
-x,-y,-z
loop_
_atom_site_type_symbol
_atom_site_label
_atom_site_fract_x
_atom_site_fract_y
_atom_site_fract_z
Si Si1 0.917518 0.965560 0.039621
Si Si2 0.107386 0.650679 0.287190
Si Si3 0.338069 0.759587 0.842494
Si Si4 0.264206 0.996404 0.482281
Si Si5 0.379428 0.522702 0.503234
Si Si6 0.113110 0.496109 0.740374
Si Si7 0.351472 0.150370 0.825112
Si Si8 0.487046 0.210889 0.650574
O O1 0.997185 0.832242 0.276109
O O2 0.785378 0.121097 0.066334
O O3 0.869092 0.908404 0.763967
O O4 0.000000 0.000000 0.000000
O O5 0.231682 0.628544 0.299074
O O6 0.138947 0.566136 0.557699
O O7 0.074753 0.585154 0.002187
O O8 0.295123 0.846384 0.563917
O O9 0.365092 0.604150 0.784236
O O10 0.457522 0.750297 0.049441
O O11 0.384775 0.935671 0.402025
O O12 0.272607 0.090354 0.731258
O O13 0.500000 0.500000 0.500000
O O14 0.419643 0.358992 0.470820
O O15 0.245589 0.323766 0.880776
O O16 0.000000 0.500000 0.500000
O O17 0.387826 0.187243 0.613991
O O18 0.500000 0.000000 0.000000
#
# Coordination Sequence:
#
# PCOD9063636 Si02
#       8
#     2   2   2   2   2   2   2   2
#     4  11  28  47  75 109 152 203 264 320 388 469
#     4  12  30  51  81 113 156 208 267 320 398 478
#     4  11  25  45  75 106 149 198 255 318 393 459
#     4  11  24  45  71 109 146 192 253 320 391 455
#     4  12  26  45  76 110 157 197 256 328 392 479
#     4  12  30  54  80 114 158 211 264 327 399 472
#     4  12  26  45  79 111 153 199 257 327 389 479
#     4  11  24  44  71 110 147 199 247 314 397 467
#
# _framework density 25.584655000000001
#
# number of rings (size 3 to 8) (size 9 to 14) (size 15 to 20)
#    0.000    0.500    3.750    2.625   10.500    2.000 
#    0.000    0.000    0.000    0.000    0.000    0.000 
#    0.000    0.000    0.000    0.000    0.000    0.000 
#
# Total GULP energy -89352.577049 kJ/mol
# GULP energy per Si atom -5584.536066 kJ/mol
# Density = 2.552642 g / cm^3
# Si number density = 25.584655 Si / 1000 Ang^3
#
#
#
# Elastic Constant Matrix: (Units=GPa)
#
#
# Indices 1 2 3 4 5 6 
#
# 1 111.8073 20.8202 3.5298 3.2759 10.1289 7.2340
# 2 20.8202 120.8314 30.6568 -13.3255 1.0778 11.8296
# 3 3.5298 30.6568 63.3474 1.4956 10.5754 -1.5958
# 4 3.2759 -13.3255 1.4956 35.5776 -0.4013 2.7574
# 5 10.1289 1.0778 10.5754 -0.4013 37.0878 2.3794
# 6 7.2340 11.8296 -1.5958 2.7574 2.3794 33.3587
#
#
#
# Elastic Compliance Matrix: (Units=1/GPa)
#
#
# Indices 1 2 3 4 5 6 
#
# 1 0.009642 -0.001934 0.000874 -0.001600 -0.002777 -0.001033
# 2 -0.001934 0.011034 -0.005825 0.004916 0.002200 -0.004335
# 3 0.000874 -0.005825 0.019720 -0.003432 -0.005956 0.003528
# 4 -0.001600 0.004916 -0.003432 0.030589 0.001875 -0.004223
# 5 -0.002777 0.002200 -0.005956 0.001875 0.029551 -0.002725
# 6 -0.001033 -0.004335 0.003528 -0.004223 -0.002725 0.032451
#
#
# Mechanical properties :
#
#
# Convention : Reuss Voigt Hill
#
# Bulk Modulus (GPa) = 37.55534 45.11108 41.33321
# Shear Modulus (GPa) = 32.12716 37.27009 34.69863
#
# Velocity S-wave (km/s) = 3.54746 3.82086 3.68670
# Velocity P-wave (km/s) = 5.61159 6.09390 5.85772
#
# Compressibility (1/GPa) = 0.02662738
#
# Stress axis : x y z
#
# Youngs Moduli (GPa) = 103.71548 90.62902 50.70919
#
# Poissons Ratio (x) = 0.17524 -0.04432
# Poissons Ratio (y) = 0.20055 0.29536
# Poissons Ratio (z) = -0.09064 0.52788
#
# Static dielectric constant tensor:
#      x y z
#    x 2.005760 -0.020800 -0.015180 
#    y -0.020800 2.046970 0.019570 
#    z -0.015180 0.019570 2.122680 
# 
# From -- ./inp_files/95007.got.cif
#   From: 2010.05.17/outbox.cif.g08.bks.cpg/sg2_48_cif.got.tgz:95007.got - 2010.06.03 11:33:40.
