data_PCOD9063497
_publ_section_title
;
Structure prediction by ZEFSAII (Michael W. Deem and Ramdas Pophale) SiO2 
 PCOD9063497
Probable space group: P -1
;
_chemical_formula_sum "Si O2"
_cell_formula_units_Z 14
_cell_length_a 16.680046
_cell_length_b 9.232776
_cell_length_c 12.814141
_cell_angle_alpha 100.177441
_cell_angle_beta 156.907940
_cell_angle_gamma 66.123080
_cell_volume 593.170106
_symmetry_space_group_name_H-M "P -1"
_symmetry_group_IT_number 2
_symmetry_cell_setting 'triclinic'
loop_
_space_group_symop_operation_xyz
x,y,z
-x,-y,-z
loop_
_atom_site_type_symbol
_atom_site_label
_atom_site_fract_x
_atom_site_fract_y
_atom_site_fract_z
Si Si1 0.486376 0.912291 0.804955
Si Si2 0.544359 0.419672 0.228706
Si Si3 0.035762 0.632603 0.124919
Si Si4 0.076214 0.814903 0.776817
Si Si5 0.760617 0.285247 0.801270
Si Si6 0.510281 0.092542 0.421513
Si Si7 0.979634 0.883602 0.373316
O O1 0.236058 0.070408 0.595159
O O2 0.501201 0.727292 0.804086
O O3 0.409207 0.997697 0.606532
O O4 0.763362 0.864783 0.148209
O O5 0.705361 0.445038 0.509273
O O6 0.743214 0.310879 0.355491
O O7 0.268397 0.628327 0.913179
O O8 0.035522 0.752260 0.046757
O O9 0.000000 0.500000 0.000000
O O10 0.801748 0.732792 0.940464
O O11 0.115137 0.971665 0.820256
O O12 0.149680 0.748671 0.976363
O O13 0.500000 0.500000 0.500000
O O14 0.670050 0.164580 0.648803
O O15 0.500000 0.000000 0.500000
O O16 0.000000 0.000000 0.500000
#
# Coordination Sequence:
#
# PCOD9063497 Si02
#       7
#     2   2   2   2   2   2   2
#     4  11  24  44  69  98 138 182 232 292 346 411
#     4  11  24  45  71  99 140 181 231 285 346 416
#     4  12  23  38  63  98 141 189 228 269 335 412
#     4  11  25  43  70 106 139 183 233 282 346 423
#     4  12  22  39  61  99 145 185 224 272 329 414
#     4  12  23  36  61  94 136 187 227 272 336 399
#     4  11  27  51  74 100 135 178 237 304 359 411
#
# _framework density 23.602001000000001
#
# number of rings (size 3 to 8) (size 9 to 14) (size 15 to 20)
#    0.000    0.571    5.714    1.714    2.000    6.286 
#    0.000    1.429    0.000    0.000    0.000    0.000 
#    0.000    0.000    0.000    0.000    0.000    0.000 
#
# Total GULP energy -78268.780495 kJ/mol
# GULP energy per Si atom -5590.627178 kJ/mol
# Density = 2.354828 g / cm^3
# Si number density = 23.602001 Si / 1000 Ang^3
#
#
#
# Elastic Constant Matrix: (Units=GPa)
#
#
# Indices 1 2 3 4 5 6 
#
# 1 113.1210 34.6079 44.4541 6.7183 30.9805 -11.4912
# 2 34.6079 112.5063 66.5197 16.0899 33.2555 0.6789
# 3 44.4541 66.5197 106.9925 9.4661 54.9963 -6.2495
# 4 6.7183 16.0899 9.4661 51.5660 -0.1687 12.2350
# 5 30.9805 33.2555 54.9963 -0.1687 48.2406 -1.4947
# 6 -11.4912 0.6789 -6.2495 12.2350 -1.4947 43.1425
#
#
#
# Elastic Compliance Matrix: (Units=1/GPa)
#
#
# Indices 1 2 3 4 5 6 
#
# 1 0.011476 -0.001152 -0.000905 -0.001759 -0.005449 0.003254
# 2 -0.001152 0.014609 -0.008751 -0.002548 0.000603 -0.001061
# 3 -0.000905 -0.008751 0.029665 -0.003708 -0.027085 0.004307
# 4 -0.001759 -0.002548 -0.003708 0.022828 0.006970 -0.007198
# 5 -0.005449 0.000603 -0.027085 0.006970 0.054546 -0.005471
# 6 0.003254 -0.001061 0.004307 -0.007198 -0.005471 0.026538
#
#
# Mechanical properties :
#
#
# Convention : Reuss Voigt Hill
#
# Bulk Modulus (GPa) = 29.29667 69.30923 49.30295
# Shear Modulus (GPa) = 25.95306 41.05903 33.50605
#
# Velocity S-wave (km/s) = 3.31964 4.17543 3.77188
# Velocity P-wave (km/s) = 5.20894 7.25777 6.31697
#
# Compressibility (1/GPa) = 0.03413357
#
# Stress axis : x y z
#
# Youngs Moduli (GPa) = 87.14151 68.44967 33.70999
#
# Poissons Ratio (x) = 0.07887 0.03051
# Poissons Ratio (y) = 0.10041 0.29499
# Poissons Ratio (z) = 0.07886 0.59899
#
# Static dielectric constant tensor:
#      x y z
#    x 1.949980 -0.004160 -0.037250 
#    y -0.004160 1.889790 -0.084980 
#    z -0.037250 -0.084980 2.051340 
# 
# From -- ./inp_files/348560.got.cif
#   From: 2010.05.17/outbox.cif.g08.bks.cpg/sg2_175_cif.got.tgz:348560.got - 2010.06.03 11:33:40.
