data_PCOD9063023
_publ_section_title
;
Structure prediction by ZEFSAII (Michael W. Deem and Ramdas Pophale) SiO2 
 PCOD9063023
Probable space group: P -1
;
_chemical_formula_sum "Si O2"
_cell_formula_units_Z 16
_cell_length_a 5.429327
_cell_length_b 10.120241
_cell_length_c 21.001818
_cell_angle_alpha 134.276023
_cell_angle_beta 119.621138
_cell_angle_gamma 61.061839
_cell_volume 700.156320
_symmetry_space_group_name_H-M "P -1"
_symmetry_group_IT_number 2
_symmetry_cell_setting 'triclinic'
loop_
_space_group_symop_operation_xyz
x,y,z
-x,-y,-z
loop_
_atom_site_type_symbol
_atom_site_label
_atom_site_fract_x
_atom_site_fract_y
_atom_site_fract_z
Si Si1 0.564122 0.067502 0.719155
Si Si2 0.361149 0.463765 0.770627
Si Si3 0.327542 0.536568 0.321679
Si Si4 0.837777 0.435617 0.042724
Si Si5 0.097645 0.808109 0.908254
Si Si6 0.456624 0.112688 0.213380
Si Si7 0.651725 0.082899 0.487954
Si Si8 0.918399 0.815320 0.127706
O O1 0.452145 0.294221 0.775815
O O2 0.901412 0.049221 0.770471
O O3 0.455814 0.977361 0.737161
O O4 0.484927 0.974536 0.613715
O O5 0.563661 0.412981 0.717252
O O6 0.018482 0.460169 0.714406
O O7 0.384671 0.675438 0.867402
O O8 0.507618 0.322878 0.284787
O O9 0.393385 0.693523 0.430700
O O10 0.921572 0.349231 0.093290
O O11 0.942482 0.628138 0.110069
O O12 0.500000 0.500000 0.000000
O O13 0.970669 0.271289 0.954610
O O14 0.882046 0.851157 0.835280
O O15 0.000000 0.000000 0.000000
O O16 0.602916 0.950036 0.127749
O O17 0.500000 0.000000 0.500000
O O18 0.000000 0.000000 0.500000
#
# Coordination Sequence:
#
# PCOD9063023 Si02
#       8
#     2   2   2   2   2   2   2   2
#     4  12  26  45  77 104 150 192 254 308 382 445
#     4  11  25  45  76 103 146 195 252 305 371 443
#     4  11  25  49  72 110 145 192 249 314 373 449
#     4  11  24  46  70 105 143 198 257 311 359 449
#     4  11  24  43  69 102 150 192 250 304 376 440
#     4  11  28  43  69 106 151 195 241 306 392 442
#     4  12  25  48  79 114 143 193 261 315 373 451
#     4  11  25  43  71 102 147 196 251 303 378 444
#
# _framework density 22.852038
#
# number of rings (size 3 to 8) (size 9 to 14) (size 15 to 20)
#    0.000    0.750    2.500    3.750   12.250    2.000 
#    0.000    0.625    0.000    0.000    0.000    0.000 
#    0.000    0.000    0.000    0.000    0.000    0.000 
#
# Total GULP energy -89288.572678 kJ/mol
# GULP energy per Si atom -5580.535792 kJ/mol
# Density = 2.280003 g / cm^3
# Si number density = 22.852038 Si / 1000 Ang^3
#
#
#
# Elastic Constant Matrix: (Units=GPa)
#
#
# Indices 1 2 3 4 5 6 
#
# 1 94.5918 22.5086 16.3981 -9.2146 -6.8899 4.4273
# 2 22.5086 123.0366 37.0556 15.6661 -9.6365 3.1438
# 3 16.3981 37.0556 128.2933 4.4199 -5.0282 8.6631
# 4 -9.2146 15.6661 4.4199 43.2252 -2.2856 0.1068
# 5 -6.8899 -9.6365 -5.0282 -2.2856 34.4419 5.1980
# 6 4.4273 3.1438 8.6631 0.1068 5.1980 21.8310
#
#
#
# Elastic Compliance Matrix: (Units=1/GPa)
#
#
# Indices 1 2 3 4 5 6 
#
# 1 0.011828 -0.002143 -0.000768 0.003501 0.002239 -0.002336
# 2 -0.002143 0.009848 -0.002341 -0.003690 0.001811 -0.000468
# 3 -0.000768 -0.002341 0.008831 -0.000160 0.000959 -0.003239
# 4 0.003501 -0.003690 -0.000160 0.025311 0.001411 -0.000575
# 5 0.002239 0.001811 0.000959 0.001411 0.031522 -0.008608
# 6 -0.002336 -0.000468 -0.003239 -0.000575 -0.008608 0.049685
#
#
# Mechanical properties :
#
#
# Convention : Reuss Voigt Hill
#
# Bulk Modulus (GPa) = 49.99231 55.31627 52.65429
# Shear Modulus (GPa) = 32.42603 37.89689 35.16146
#
# Velocity S-wave (km/s) = 3.77099 4.07671 3.92683
# Velocity P-wave (km/s) = 6.39410 6.81310 6.60692
#
# Compressibility (1/GPa) = 0.02000308
#
# Stress axis : x y z
#
# Youngs Moduli (GPa) = 84.54250 101.53908 113.24089
#
# Poissons Ratio (x) = 0.21763 0.08696
# Poissons Ratio (y) = 0.18120 0.26509
# Poissons Ratio (z) = 0.06492 0.23770
#
# Static dielectric constant tensor:
#      x y z
#    x 1.993820 0.001490 0.006360 
#    y 0.001490 1.828870 0.025530 
#    z 0.006360 0.025530 1.872980 
# 
# From -- ./inp_files/582619.got.cif
#   From: 2010.05.17/outbox.cif.g08.bks.cpg/sg2_292_cif.got.tgz:582619.got - 2010.06.03 11:33:40.
