data_PCOD9063547
_publ_section_title
;
Structure prediction by ZEFSAII (Michael W. Deem and Ramdas Pophale) SiO2 
 PCOD9063547
Probable space group: P -1
;
_chemical_formula_sum "Si O2"
_cell_formula_units_Z 16
_cell_length_a 11.982069
_cell_length_b 8.934587
_cell_length_c 17.607574
_cell_angle_alpha 48.267635
_cell_angle_beta 147.505734
_cell_angle_gamma 130.607503
_cell_volume 736.650389
_symmetry_space_group_name_H-M "P -1"
_symmetry_group_IT_number 2
_symmetry_cell_setting 'triclinic'
loop_
_space_group_symop_operation_xyz
x,y,z
-x,-y,-z
loop_
_atom_site_type_symbol
_atom_site_label
_atom_site_fract_x
_atom_site_fract_y
_atom_site_fract_z
Si Si1 0.456170 0.657455 0.070597
Si Si2 0.582360 0.805040 0.643630
Si Si3 0.033094 0.346799 0.892425
Si Si4 0.701432 0.634786 0.612466
Si Si5 0.958385 0.005971 0.086960
Si Si6 0.218261 0.997946 0.582295
Si Si7 0.769256 0.408792 0.362983
Si Si8 0.524301 0.046879 0.881533
O O1 0.670634 0.579125 0.206017
O O2 0.484321 0.763115 0.133545
O O3 0.259808 0.463903 0.015690
O O4 0.411807 0.832851 0.929420
O O5 0.636928 0.672918 0.648692
O O6 0.403120 0.680824 0.639567
O O7 0.500000 0.000000 0.500000
O O8 0.806249 0.900587 0.780043
O O9 0.887240 0.511014 0.753311
O O10 0.062445 0.229167 0.871362
O O11 0.926577 0.154174 0.949000
O O12 0.500000 0.500000 0.500000
O O13 0.761148 0.848889 0.528989
O O14 0.769523 0.030543 0.025165
O O15 0.413021 0.061786 0.732108
O O16 0.217788 0.774366 0.624719
O O17 0.000000 0.000000 0.500000
O O18 0.000000 0.500000 0.500000
#
# Coordination Sequence:
#
# PCOD9063547 Si02
#       8
#     2   2   2   2   2   2   2   2
#     4  11  25  47  70 105 137 185 235 284 352 417
#     4  12  26  48  71 104 145 184 233 293 351 421
#     4  11  24  44  70 104 139 180 232 285 344 415
#     4  12  27  43  73 105 143 185 235 284 354 414
#     4  11  25  43  71 103 141 179 230 290 347 409
#     4  12  27  48  69 106 145 187 235 293 344 420
#     4  12  28  47  74 103 141 187 237 288 355 420
#     4  11  26  45  73 101 143 181 233 292 347 415
#
# _framework density 21.719936000000001
#
# number of rings (size 3 to 8) (size 9 to 14) (size 15 to 20)
#    0.000    0.500    2.500    4.500    8.750    6.000 
#    0.000    0.000    0.000    0.000    0.000    0.000 
#    0.000    0.000    0.000    0.000    0.000    0.000 
#
# Total GULP energy -89542.184962 kJ/mol
# GULP energy per Si atom -5596.386560 kJ/mol
# Density = 2.167050 g / cm^3
# Si number density = 21.719936 Si / 1000 Ang^3
#
#
#
# Elastic Constant Matrix: (Units=GPa)
#
#
# Indices 1 2 3 4 5 6 
#
# 1 104.3247 50.0551 31.0964 -5.7688 15.5842 -17.1770
# 2 50.0551 118.2020 43.8279 3.3030 15.5396 -31.4333
# 3 31.0964 43.8279 135.9318 3.4789 22.7251 -20.4078
# 4 -5.7688 3.3030 3.4789 30.6381 0.9710 12.1958
# 5 15.5842 15.5396 22.7251 0.9710 37.0728 -4.1844
# 6 -17.1770 -31.4333 -20.4078 12.1958 -4.1844 42.6098
#
#
#
# Elastic Compliance Matrix: (Units=1/GPa)
#
#
# Indices 1 2 3 4 5 6 
#
# 1 0.012756 -0.004749 -0.000992 0.003120 -0.002846 -0.000009
# 2 -0.004749 0.013838 -0.001599 -0.005737 -0.001657 0.009007
# 3 -0.000992 -0.001599 0.009325 -0.002171 -0.004223 0.003093
# 4 0.003120 -0.005737 -0.002171 0.040310 -0.000392 -0.015590
# 5 -0.002846 -0.001657 -0.004223 -0.000392 0.031328 -0.001203
# 6 -0.000009 0.009007 0.003093 -0.015590 -0.001203 0.035935
#
#
# Mechanical properties :
#
#
# Convention : Reuss Voigt Hill
#
# Bulk Modulus (GPa) = 47.08682 67.60194 57.34438
# Shear Modulus (GPa) = 30.25679 37.62942 33.94310
#
# Velocity S-wave (km/s) = 3.73640 4.16683 3.95747
# Velocity P-wave (km/s) = 6.35141 7.37169 6.88049
#
# Compressibility (1/GPa) = 0.02123737
#
# Stress axis : x y z
#
# Youngs Moduli (GPa) = 78.39335 72.26705 107.23719
#
# Poissons Ratio (x) = 0.34323 0.10641
# Poissons Ratio (y) = 0.37232 0.17148
# Poissons Ratio (z) = 0.07779 0.11556
#
# Static dielectric constant tensor:
#      x y z
#    x 1.822730 0.026300 -0.039410 
#    y 0.026300 1.765080 -0.024640 
#    z -0.039410 -0.024640 1.751670 
# 
# From -- ./inp_files/566594.got.cif
#   From: 2010.05.17/outbox.cif.g08.bks.cpg/sg2_284_cif.got.tgz:566594.got - 2010.06.03 11:33:40.
