data_PCOD9063892
_publ_section_title
;
Structure prediction by ZEFSAII (Michael W. Deem and Ramdas Pophale) SiO2 
 PCOD9063892
Probable space group: P -1
;
_chemical_formula_sum "Si O2"
_cell_formula_units_Z 16
_cell_length_a 9.176212
_cell_length_b 15.592682
_cell_length_c 16.049886
_cell_angle_alpha 27.752225
_cell_angle_beta 139.798511
_cell_angle_gamma 136.996918
_cell_volume 678.409066
_symmetry_space_group_name_H-M "P -1"
_symmetry_group_IT_number 2
_symmetry_cell_setting 'triclinic'
loop_
_space_group_symop_operation_xyz
x,y,z
-x,-y,-z
loop_
_atom_site_type_symbol
_atom_site_label
_atom_site_fract_x
_atom_site_fract_y
_atom_site_fract_z
Si Si1 0.611515 0.836601 0.564468
Si Si2 0.306494 0.750404 0.365823
Si Si3 0.925931 0.618173 0.792075
Si Si4 0.905069 0.185398 0.461356
Si Si5 0.647631 0.484199 0.160763
Si Si6 0.413283 0.142097 0.772199
Si Si7 0.832418 0.794898 0.099515
Si Si8 0.489017 0.377159 0.756036
O O1 0.415558 0.882998 0.375850
O O2 0.809021 0.783140 0.637542
O O3 0.520141 0.644812 0.737929
O O4 0.711203 0.000034 0.531254
O O5 0.415668 0.825195 0.260128
O O6 0.399452 0.561923 0.582425
O O7 0.035969 0.689479 0.304968
O O8 0.759169 0.451905 0.812945
O O9 0.098932 0.725258 0.709133
O O10 0.000000 0.500000 0.000000
O O11 0.842699 0.354113 0.344933
O O12 0.148521 0.118707 0.644130
O O13 0.738730 0.688240 0.065646
O O14 0.500000 0.500000 0.000000
O O15 0.424971 0.319886 0.684164
O O16 0.500000 0.000000 0.000000
O O17 0.628115 0.771168 0.098370
O O18 0.000000 0.000000 0.000000
#
# Coordination Sequence:
#
# PCOD9063892 Si02
#       8
#     2   2   2   2   2   2   2   2
#     4  11  25  48  75 106 150 197 246 303 372 450
#     4  11  24  46  73 101 145 190 248 303 371 439
#     4  11  24  44  77 105 147 192 245 303 374 444
#     4  12  27  46  77 109 152 197 244 309 379 438
#     4  12  28  50  75 112 152 195 251 309 371 446
#     4  12  27  44  70 112 146 189 249 309 365 447
#     4  12  27  46  75 105 146 196 248 305 372 446
#     4  11  24  46  71 101 145 191 248 302 370 440
#
# _framework density 23.584589999999999
#
# number of rings (size 3 to 8) (size 9 to 14) (size 15 to 20)
#    0.000    0.500    5.000    3.750    7.000    2.000 
#    0.000    0.000    0.000    0.000    0.000    0.000 
#    0.000    0.000    0.000    0.000    0.000    0.000 
#
# Total GULP energy -89234.018569 kJ/mol
# GULP energy per Si atom -5577.126161 kJ/mol
# Density = 2.353091 g / cm^3
# Si number density = 23.584590 Si / 1000 Ang^3
#
#
#
# Elastic Constant Matrix: (Units=GPa)
#
#
# Indices 1 2 3 4 5 6 
#
# 1 54.5897 5.5302 10.2494 -16.9608 -8.9952 -8.1854
# 2 5.5302 126.9949 47.0901 -6.5301 -4.9155 -8.9683
# 3 10.2494 47.0901 80.8390 -3.2992 -20.1654 -5.0794
# 4 -16.9608 -6.5301 -3.2992 43.0137 2.7881 0.3309
# 5 -8.9952 -4.9155 -20.1654 2.7881 32.4932 1.6803
# 6 -8.1854 -8.9683 -5.0794 0.3309 1.6803 25.3892
#
#
#
# Elastic Compliance Matrix: (Units=1/GPa)
#
#
# Indices 1 2 3 4 5 6 
#
# 1 0.023004 0.000615 -0.001357 0.008714 0.004512 0.006950
# 2 0.000615 0.010458 -0.006588 0.001473 -0.002604 0.002727
# 3 -0.001357 -0.006588 0.018978 -0.000760 0.010453 0.000350
# 4 0.008714 0.001473 -0.000760 0.026846 -0.000287 0.002847
# 5 0.004512 -0.002604 0.010453 -0.000287 0.038137 0.000106
# 6 0.006950 0.002727 0.000350 0.002847 0.000106 0.042617
#
#
# Mechanical properties :
#
#
# Convention : Reuss Voigt Hill
#
# Bulk Modulus (GPa) = 26.46871 43.12924 34.79897
# Shear Modulus (GPa) = 26.69600 33.48282 30.08941
#
# Velocity S-wave (km/s) = 3.36806 3.77197 3.57572
# Velocity P-wave (km/s) = 5.13540 6.10713 5.64222
#
# Compressibility (1/GPa) = 0.03778046
#
# Stress axis : x y z
#
# Youngs Moduli (GPa) = 43.47075 95.62134 52.69168
#
# Poissons Ratio (x) = -0.05880 0.07150
# Poissons Ratio (y) = -0.02673 0.34713
# Poissons Ratio (z) = 0.05899 0.62994
#
# Static dielectric constant tensor:
#      x y z
#    x 2.024390 0.075070 0.260150 
#    y 0.075070 2.063330 0.158180 
#    z 0.260150 0.158180 2.430020 
# 
# From -- ./inp_files/505165.got.cif
#   From: 2010.05.17/outbox.cif.g08.bks.cpg/sg2_253_cif.got.tgz:505165.got - 2010.06.03 11:33:40.
