data_PCOD9063992
_publ_section_title
;
Structure prediction by ZEFSAII (Michael W. Deem and Ramdas Pophale) SiO2 
 PCOD9063992
Probable space group: P -1
;
_chemical_formula_sum "Si O2"
_cell_formula_units_Z 16
_cell_length_a 10.806048
_cell_length_b 12.374734
_cell_length_c 11.873124
_cell_angle_alpha 100.910718
_cell_angle_beta 80.430062
_cell_angle_gamma 155.414106
_cell_volume 648.564701
_symmetry_space_group_name_H-M "P -1"
_symmetry_group_IT_number 2
_symmetry_cell_setting 'triclinic'
loop_
_space_group_symop_operation_xyz
x,y,z
-x,-y,-z
loop_
_atom_site_type_symbol
_atom_site_label
_atom_site_fract_x
_atom_site_fract_y
_atom_site_fract_z
Si Si1 0.309678 0.942123 0.368588
Si Si2 0.833037 0.942745 0.702759
Si Si3 0.779180 0.624233 0.888013
Si Si4 0.847695 0.276876 0.260102
Si Si5 0.298352 0.151567 0.038198
Si Si6 0.208880 0.529371 0.479672
Si Si7 0.507076 0.464786 0.656385
Si Si8 0.306438 0.742763 0.937329
O O1 0.234932 0.984179 0.303819
O O2 0.501803 0.994019 0.297159
O O3 0.530102 0.179421 0.469652
O O4 0.021437 0.671386 0.423562
O O5 0.830194 0.924880 0.834058
O O6 0.611076 0.669053 0.643112
O O7 0.154572 0.173996 0.648624
O O8 0.607505 0.526416 0.783392
O O9 0.984521 0.683378 0.829968
O O10 0.541386 0.411963 0.980469
O O11 0.021991 0.902022 0.951737
O O12 0.797993 0.336529 0.192286
O O13 0.036319 0.433883 0.376156
O O14 0.495993 0.202454 0.049219
O O15 0.337419 0.511590 0.426637
O O16 0.000000 0.500000 0.000000
O O17 0.500000 0.000000 0.000000
#
# Coordination Sequence:
#
# PCOD9063992 Si02
#       8
#     2   2   2   2   2   2   2   2
#     4  12  26  45  69 101 128 172 219 282 330 387
#     4  12  26  43  70  96 135 169 226 273 323 388
#     4  11  25  42  70  95 140 174 217 261 326 397
#     4  11  24  45  69 101 136 172 216 270 327 398
#     4  12  23  42  64 104 131 179 215 265 325 388
#     4  11  27  46  70  95 131 172 224 275 335 383
#     4  11  26  47  66  99 127 178 221 274 328 388
#     4  12  23  40  66 101 137 177 211 259 325 401
#
# _framework density 24.669858999999999
#
# number of rings (size 3 to 8) (size 9 to 14) (size 15 to 20)
#    0.000    0.500    3.750    3.750    0.000   12.000 
#    0.000    0.000    0.000    0.000    0.000    0.000 
#    0.000    0.000    0.000    0.000    0.000    0.000 
#
# Total GULP energy -89596.520144 kJ/mol
# GULP energy per Si atom -5599.782509 kJ/mol
# Density = 2.461371 g / cm^3
# Si number density = 24.669859 Si / 1000 Ang^3
#
#
#
# Elastic Constant Matrix: (Units=GPa)
#
#
# Indices 1 2 3 4 5 6 
#
# 1 97.4154 32.4469 35.9833 -11.2803 24.8239 -7.5459
# 2 32.4469 152.4505 47.2803 -27.8023 -0.8746 -4.8425
# 3 35.9833 47.2803 117.5319 -9.6929 23.1388 3.5995
# 4 -11.2803 -27.8023 -9.6929 44.1619 12.3347 -3.1679
# 5 24.8239 -0.8746 23.1388 12.3347 40.2832 4.6835
# 6 -7.5459 -4.8425 3.5995 -3.1679 4.6835 38.3633
#
#
#
# Elastic Compliance Matrix: (Units=1/GPa)
#
#
# Indices 1 2 3 4 5 6 
#
# 1 0.015184 -0.001591 -0.001523 0.005923 -0.010882 0.004746
# 2 -0.001591 0.008601 -0.002974 0.004021 0.001505 0.001200
# 3 -0.001523 -0.002974 0.011601 0.001985 -0.006300 -0.000830
# 4 0.005923 0.004021 0.001985 0.031776 -0.015125 0.005957
# 5 -0.010882 0.001505 -0.006300 -0.015125 0.040694 -0.007576
# 6 0.004746 0.001200 -0.000830 0.005957 -0.007576 0.028646
#
#
# Mechanical properties :
#
#
# Convention : Reuss Voigt Hill
#
# Bulk Modulus (GPa) = 43.08696 66.53544 54.81120
# Shear Modulus (GPa) = 31.96629 41.34083 36.65356
#
# Velocity S-wave (km/s) = 3.60358 4.09805 3.85874
# Velocity P-wave (km/s) = 5.90065 7.03000 6.48994
#
# Compressibility (1/GPa) = 0.02320888
#
# Stress axis : x y z
#
# Youngs Moduli (GPa) = 65.85705 116.27130 86.20212
#
# Poissons Ratio (x) = 0.18497 0.13132
# Poissons Ratio (y) = 0.10477 0.25637
# Poissons Ratio (z) = 0.10033 0.34580
#
# Static dielectric constant tensor:
#      x y z
#    x 1.959760 -0.015100 -0.039870 
#    y -0.015100 1.875220 -0.008510 
#    z -0.039870 -0.008510 1.954840 
# 
# From -- ./inp_files/434132.got.cif
#   From: 2010.05.17/outbox.cif.g08.bks.cpg/sg2_218_cif.got.tgz:434132.got - 2010.06.03 11:33:40.
