data_PCOD9063539
_publ_section_title
;
Structure prediction by ZEFSAII (Michael W. Deem and Ramdas Pophale) SiO2 
 PCOD9063539
Probable space group: P -1
;
_chemical_formula_sum "Si O2"
_cell_formula_units_Z 14
_cell_length_a 17.420946
_cell_length_b 5.021373
_cell_length_c 9.891901
_cell_angle_alpha 113.048366
_cell_angle_beta 50.814283
_cell_angle_gamma 99.260237
_cell_volume 612.617227
_symmetry_space_group_name_H-M "P -1"
_symmetry_group_IT_number 2
_symmetry_cell_setting 'triclinic'
loop_
_space_group_symop_operation_xyz
x,y,z
-x,-y,-z
loop_
_atom_site_type_symbol
_atom_site_label
_atom_site_fract_x
_atom_site_fract_y
_atom_site_fract_z
Si Si1 0.402206 0.119385 0.301518
Si Si2 0.943804 0.211800 0.494594
Si Si3 0.468179 0.388801 0.825830
Si Si4 0.652383 0.710019 0.305129
Si Si5 0.726399 0.163257 0.814808
Si Si6 0.239135 0.916877 0.934131
Si Si7 0.982563 0.171367 0.915131
O O1 0.448629 0.401918 0.256288
O O2 0.365707 0.143818 0.501412
O O3 0.313225 0.053993 0.291376
O O4 0.508054 0.147527 0.842913
O O5 0.827946 0.276123 0.675572
O O6 0.000000 0.500000 0.500000
O O7 0.000000 0.000000 0.500000
O O8 0.953099 0.023322 0.308269
O O9 0.440332 0.253335 0.686855
O O10 0.365219 0.580314 0.019254
O O11 0.681709 0.368292 0.233764
O O12 0.738375 0.836047 0.146879
O O13 0.747134 0.017551 0.910028
O O14 0.130137 0.830207 0.011853
O O15 0.000000 0.500000 0.000000
O O16 0.000000 0.000000 0.000000
#
# Coordination Sequence:
#
# PCOD9063539 Si02
#       7
#     2   2   2   2   2   2   2
#     4  12  25  44  71 106 139 185 244 295 351 426
#     4  12  28  50  77 109 148 193 244 299 367 443
#     4  11  24  44  70 102 144 187 232 297 362 422
#     4  11  24  44  72 102 141 188 235 293 358 431
#     4  11  27  46  73 103 145 187 241 293 364 430
#     4  11  25  45  70 101 145 190 231 290 372 429
#     4  12  27  48  76 107 149 186 247 306 366 431
#
# _framework density 22.852765999999999
#
# number of rings (size 3 to 8) (size 9 to 14) (size 15 to 20)
#    0.000    0.571    1.429    6.000    8.000    4.571 
#    0.000    0.000    0.000    0.000    0.000    0.000 
#    0.000    0.000    0.000    0.000    0.000    0.000 
#
# Total GULP energy -78414.253450 kJ/mol
# GULP energy per Si atom -5601.018104 kJ/mol
# Density = 2.280075 g / cm^3
# Si number density = 22.852766 Si / 1000 Ang^3
#
#
#
# Elastic Constant Matrix: (Units=GPa)
#
#
# Indices 1 2 3 4 5 6 
#
# 1 129.1359 23.7190 39.3683 6.7725 19.5585 28.9472
# 2 23.7190 124.4819 31.1414 -3.4869 7.5240 19.4435
# 3 39.3683 31.1414 138.7668 11.7471 26.5852 26.1660
# 4 6.7725 -3.4869 11.7471 19.8736 6.2725 -1.9501
# 5 19.5585 7.5240 26.5852 6.2725 43.0133 -4.7581
# 6 28.9472 19.4435 26.1660 -1.9501 -4.7581 49.5012
#
#
#
# Elastic Compliance Matrix: (Units=1/GPa)
#
#
# Indices 1 2 3 4 5 6 
#
# 1 0.010165 -0.000672 -0.000559 -0.002424 -0.004459 -0.005908
# 2 -0.000672 0.009031 -0.001411 0.002749 -0.001069 -0.002403
# 3 -0.000559 -0.001411 0.010154 -0.004786 -0.005654 -0.005218
# 4 -0.002424 0.002749 -0.004786 0.056209 -0.004099 0.004688
# 5 -0.004459 -0.001069 -0.005654 -0.004099 0.030527 0.008789
# 6 -0.005908 -0.002403 -0.005218 0.004688 0.008789 0.028388
#
#
# Mechanical properties :
#
#
# Convention : Reuss Voigt Hill
#
# Bulk Modulus (GPa) = 41.55487 64.53800 53.04643
# Shear Modulus (GPa) = 31.68943 42.35468 37.02205
#
# Velocity S-wave (km/s) = 3.72785 4.30975 4.02932
# Velocity P-wave (km/s) = 6.06237 7.28474 6.70148
#
# Compressibility (1/GPa) = 0.02406457
#
# Stress axis : x y z
#
# Youngs Moduli (GPa) = 98.38016 110.72610 98.48388
#
# Poissons Ratio (x) = 0.07445 0.05509
# Poissons Ratio (y) = 0.06615 0.13895
# Poissons Ratio (z) = 0.05503 0.15623
#
# Static dielectric constant tensor:
#      x y z
#    x 1.760920 -0.080760 -0.076080 
#    y -0.080760 1.594110 -0.134850 
#    z -0.076080 -0.134850 1.736890 
# 
# From -- ./inp_files/322858.got.cif
#   From: 2010.05.17/outbox.cif.g08.bks.cpg/sg2_162_cif.got.tgz:322858.got - 2010.06.03 11:33:40.
