data_PCOD9063466
_publ_section_title
;
Structure prediction by ZEFSAII (Michael W. Deem and Ramdas Pophale) SiO2 
 PCOD9063466
Probable space group: P -1
;
_chemical_formula_sum "Si O2"
_cell_formula_units_Z 16
_cell_length_a 8.889898
_cell_length_b 14.235337
_cell_length_c 11.098791
_cell_angle_alpha 32.764483
_cell_angle_beta 90.568831
_cell_angle_gamma 77.918333
_cell_volume 695.904108
_symmetry_space_group_name_H-M "P -1"
_symmetry_group_IT_number 2
_symmetry_cell_setting 'triclinic'
loop_
_space_group_symop_operation_xyz
x,y,z
-x,-y,-z
loop_
_atom_site_type_symbol
_atom_site_label
_atom_site_fract_x
_atom_site_fract_y
_atom_site_fract_z
Si Si1 0.453530 0.667419 0.719011
Si Si2 0.703823 0.345477 0.507439
Si Si3 0.958778 0.572986 0.060423
Si Si4 0.084886 0.230171 0.589819
Si Si5 0.144090 0.022758 0.406125
Si Si6 0.348546 0.060981 0.582478
Si Si7 0.651521 0.723477 0.044618
Si Si8 0.321746 0.028254 0.017262
O O1 0.432800 0.600922 0.657476
O O2 0.572321 0.782049 0.588102
O O3 0.267645 0.825945 0.565677
O O4 0.500000 0.500000 0.000000
O O5 0.666955 0.559935 0.318227
O O6 0.898625 0.250093 0.577604
O O7 0.682846 0.178180 0.761123
O O8 0.955890 0.776514 0.873396
O O9 0.776188 0.605955 0.067118
O O10 0.000000 0.500000 0.000000
O O11 0.073449 0.422683 0.318351
O O12 0.205789 0.085434 0.651111
O O13 0.177736 0.172129 0.778698
O O14 0.266207 0.070761 0.443269
O O15 0.000000 0.000000 0.500000
O O16 0.485694 0.855098 0.835618
O O17 0.695088 0.879705 0.949513
O O18 0.500000 0.000000 0.000000
#
# Coordination Sequence:
#
# PCOD9063466 Si02
#       8
#     2   2   2   2   2   2   2   2
#     4  12  26  42  71 104 147 196 247 301 367 443
#     4  11  25  46  72 108 144 186 248 303 373 445
#     4  11  24  44  69 101 150 190 238 294 368 439
#     4  11  25  42  77 102 144 194 238 312 370 428
#     4  12  26  40  65 103 146 193 237 298 364 443
#     4  12  23  46  68 104 144 192 247 301 372 433
#     4  11  25  46  75 105 142 197 242 306 366 439
#     4  12  24  51  76 106 146 187 254 310 372 438
#
# _framework density 22.991672999999999
#
# number of rings (size 3 to 8) (size 9 to 14) (size 15 to 20)
#    0.000    0.500    5.000    2.250    7.000    2.500 
#    2.250    1.250    0.000    0.000    0.000    0.000 
#    0.000    0.000    0.000    0.000    0.000    0.000 
#
# Total GULP energy -89225.270885 kJ/mol
# GULP energy per Si atom -5576.579430 kJ/mol
# Density = 2.293934 g / cm^3
# Si number density = 22.991673 Si / 1000 Ang^3
#
#
#
# Elastic Constant Matrix: (Units=GPa)
#
#
# Indices 1 2 3 4 5 6 
#
# 1 90.4930 -3.3154 66.0829 -3.7533 -1.4902 -5.9250
# 2 -3.3154 38.2325 15.8707 -2.9557 9.9342 -8.3765
# 3 66.0829 15.8707 178.5629 -3.0512 4.5522 -9.3712
# 4 -3.7533 -2.9557 -3.0512 35.0336 5.2899 9.9322
# 5 -1.4902 9.9342 4.5522 5.2899 42.8721 3.0978
# 6 -5.9250 -8.3765 -9.3712 9.9322 3.0978 36.8071
#
#
#
# Elastic Compliance Matrix: (Units=1/GPa)
#
#
# Indices 1 2 3 4 5 6 
#
# 1 0.015858 0.004403 -0.006151 0.001061 -0.000070 0.001708
# 2 0.004403 0.031804 -0.003859 0.001955 -0.007559 0.007073
# 3 -0.006151 -0.003859 0.008236 -0.000335 -0.000177 0.000334
# 4 0.001061 0.001955 -0.000335 0.031528 -0.003717 -0.007664
# 5 -0.000070 -0.007559 -0.000177 -0.003717 0.025764 -0.002942
# 6 0.001708 0.007073 0.000334 -0.007664 -0.002942 0.031454
#
#
# Mechanical properties :
#
#
# Convention : Reuss Voigt Hill
#
# Bulk Modulus (GPa) = 22.37884 51.61831 36.99858
# Shear Modulus (GPa) = 29.28221 38.18591 33.73406
#
# Velocity S-wave (km/s) = 3.57263 4.07978 3.83460
# Velocity P-wave (km/s) = 5.17424 6.68524 5.97768
#
# Compressibility (1/GPa) = 0.04468506
#
# Stress axis : x y z
#
# Youngs Moduli (GPa) = 63.05952 31.44226 121.42186
#
# Poissons Ratio (x) = -0.13844 0.74681
# Poissons Ratio (y) = -0.27764 0.46856
# Poissons Ratio (z) = 0.38785 0.12133
#
# Static dielectric constant tensor:
#      x y z
#    x 2.449860 -0.039910 -0.458700 
#    y -0.039910 2.024260 0.005890 
#    z -0.458700 0.005890 2.251730 
# 
# From -- ./inp_files/398151.got.cif
#   From: 2010.05.17/outbox.cif.g08.bks.cpg/sg2_200_cif.got.tgz:398151.got - 2010.06.03 11:33:40.
