data_PCOD9063496
_publ_section_title
;
Structure prediction by ZEFSAII (Michael W. Deem and Ramdas Pophale) SiO2 
 PCOD9063496
Probable space group: P -1
;
_chemical_formula_sum "Si O2"
_cell_formula_units_Z 15
_cell_length_a 6.775403
_cell_length_b 15.204858
_cell_length_c 12.181665
_cell_angle_alpha 36.719295
_cell_angle_beta 74.257839
_cell_angle_gamma 66.250093
_cell_volume 683.730878
_symmetry_space_group_name_H-M "P -1"
_symmetry_group_IT_number 2
_symmetry_cell_setting 'triclinic'
loop_
_space_group_symop_operation_xyz
x,y,z
-x,-y,-z
loop_
_atom_site_type_symbol
_atom_site_label
_atom_site_fract_x
_atom_site_fract_y
_atom_site_fract_z
Si Si1 0.113782 0.796908 0.072192
Si Si2 0.336471 0.203436 0.508611
Si Si3 0.669352 0.876565 0.173000
Si Si4 0.550242 0.636442 0.293622
Si Si5 0.000790 0.525971 0.229805
Si Si6 0.125744 0.984212 0.664468
Si Si7 0.000000 0.500000 0.000000
Si Si8 0.232284 0.761387 0.665263
O O1 0.338709 0.747593 0.153301
O O2 0.086820 0.643457 0.171104
O O3 0.912767 0.865258 0.116768
O O4 0.103909 0.916196 0.855141
O O5 0.394934 0.105216 0.709264
O O6 0.122995 0.347976 0.421970
O O7 0.518184 0.275089 0.369489
O O8 0.285320 0.088152 0.543767
O O9 0.641428 0.718153 0.293663
O O10 0.500000 0.000000 0.000000
O O11 0.500000 0.500000 0.500000
O O12 0.745128 0.574002 0.241303
O O13 0.040441 0.538530 0.082754
O O14 0.203022 0.844817 0.705213
O O15 0.903256 0.103876 0.532745
O O16 0.133406 0.621403 0.817214
#
# Coordination Sequence:
#
# PCOD9063496 Si02
#       8
#     2   2   2   2   2   2   1   2
#     4  11  24  44  69  97 141 182 220 278 338 398
#     4  12  25  43  71 101 135 181 227 276 340 407
#     4  11  25  43  66 104 135 176 229 273 332 406
#     4  11  25  44  68  95 137 179 223 288 331 389
#     4  11  26  43  65 104 132 175 233 276 334 402
#     4  11  24  46  66 103 137 178 223 278 339 406
#     4  12  24  48  70 100 136 176 230 282 330 410
#     4  11  26  45  70 101 139 175 222 288 337 399
#
# _framework density 21.938455999999999
#
# number of rings (size 3 to 8) (size 9 to 14) (size 15 to 20)
#    0.000    0.800    2.667    3.600    3.733    9.067 
#    0.000    0.000    0.000    0.000    0.000    0.000 
#    0.000    0.000    0.000    0.000    0.000    0.000 
#
# Total GULP energy -83647.172195 kJ/mol
# GULP energy per Si atom -5576.478146 kJ/mol
# Density = 2.188852 g / cm^3
# Si number density = 21.938456 Si / 1000 Ang^3
#
#
#
# Elastic Constant Matrix: (Units=GPa)
#
#
# Indices 1 2 3 4 5 6 
#
# 1 128.9808 37.2738 33.5807 -5.9417 -10.4820 -2.8559
# 2 37.2738 46.8379 -3.2086 -8.5587 -7.0458 17.4211
# 3 33.5807 -3.2086 61.1900 3.5679 -18.8745 0.2207
# 4 -5.9417 -8.5587 3.5679 31.1850 14.4689 0.5096
# 5 -10.4820 -7.0458 -18.8745 14.4689 34.5231 -10.3009
# 6 -2.8559 17.4211 0.2207 0.5096 -10.3009 36.6761
#
#
#
# Elastic Compliance Matrix: (Units=1/GPa)
#
#
# Indices 1 2 3 4 5 6 
#
# 1 0.014824 -0.015712 -0.009449 0.000138 -0.001464 0.008261
# 2 -0.015712 0.044500 0.010445 0.008537 -0.000308 -0.022629
# 3 -0.009449 0.010445 0.028834 -0.011395 0.019754 -0.000164
# 4 0.000138 0.008537 -0.011395 0.049386 -0.028962 -0.012796
# 5 -0.001464 -0.000308 0.019754 -0.028962 0.056201 0.016100
# 6 0.008261 -0.022629 -0.000164 -0.012796 0.016100 0.043358
#
#
# Mechanical properties :
#
#
# Convention : Reuss Voigt Hill
#
# Bulk Modulus (GPa) = 17.02829 41.36672 29.19751
# Shear Modulus (GPa) = 17.47586 31.76769 24.62178
#
# Velocity S-wave (km/s) = 2.82545 3.80944 3.35373
# Velocity P-wave (km/s) = 4.29219 6.18432 5.32300
#
# Compressibility (1/GPa) = 0.05872580
#
# Stress axis : x y z
#
# Youngs Moduli (GPa) = 67.45866 22.47211 34.68158
#
# Poissons Ratio (x) = 0.35308 0.32769
# Poissons Ratio (y) = 1.05991 -0.36225
# Poissons Ratio (z) = 0.63739 -0.23472
#
# Static dielectric constant tensor:
#      x y z
#    x 1.894770 0.079230 -0.037890 
#    y 0.079230 1.853590 -0.050700 
#    z -0.037890 -0.050700 1.802940 
# 
# From -- ./inp_files/28350.got.cif
#   From: 2010.05.17/outbox.cif.g08.bks.cpg/sg2_15_cif.got.tgz:28350.got - 2010.06.03 11:33:40.
