data_PCOD9063774
_publ_section_title
;
Structure prediction by ZEFSAII (Michael W. Deem and Ramdas Pophale) SiO2 
 PCOD9063774
Probable space group: P -1
;
_chemical_formula_sum "Si O2"
_cell_formula_units_Z 14
_cell_length_a 16.189788
_cell_length_b 6.700655
_cell_length_c 11.597148
_cell_angle_alpha 86.783717
_cell_angle_beta 47.873123
_cell_angle_gamma 119.049950
_cell_volume 659.247437
_symmetry_space_group_name_H-M "P -1"
_symmetry_group_IT_number 2
_symmetry_cell_setting 'triclinic'
loop_
_space_group_symop_operation_xyz
x,y,z
-x,-y,-z
loop_
_atom_site_type_symbol
_atom_site_label
_atom_site_fract_x
_atom_site_fract_y
_atom_site_fract_z
Si Si1 0.725607 0.234504 0.823089
Si Si2 0.905599 0.692285 0.048445
Si Si3 0.337487 0.544229 0.919460
Si Si4 0.080500 0.577987 0.758583
Si Si5 0.675418 0.945148 0.664209
Si Si6 0.120749 0.907290 0.184792
Si Si7 0.139408 0.220644 0.452523
O O1 0.856622 0.234260 0.734621
O O2 0.774179 0.482247 0.691904
O O3 0.623253 0.977171 0.835153
O O4 0.682727 0.288606 0.982229
O O5 0.762697 0.557669 0.099752
O O6 0.845094 0.475835 0.216327
O O7 0.033216 0.724649 0.857034
O O8 0.000000 0.000000 0.000000
O O9 0.523215 0.745475 0.732340
O O10 0.261804 0.243171 0.051338
O O11 0.913096 0.263615 0.891446
O O12 0.188527 0.760142 0.540523
O O13 0.749389 0.823291 0.625636
O O14 0.962213 0.837263 0.342070
O O15 0.000000 0.000000 0.500000
#
# Coordination Sequence:
#
# PCOD9063774 Si02
#       7
#     2   2   2   2   2   2   2
#     4  12  23  41  69  98 138 179 221 266 336 400
#     4  11  24  46  75  98 125 175 232 283 324 392
#     4  12  26  43  66 102 141 174 219 280 341 391
#     4  11  24  44  73  99 125 176 234 272 327 399
#     4  12  27  42  65 104 143 175 215 276 343 397
#     4  12  22  41  70  96 130 178 228 270 321 401
#     4  12  22  39  66  97 134 179 226 269 317 399
#
# _framework density 21.236336000000001
#
# number of rings (size 3 to 8) (size 9 to 14) (size 15 to 20)
#    0.000    0.286    7.143    2.571    0.000    4.000 
#    0.000    0.714    0.000    0.000    0.000    0.000 
#    0.000    0.000    0.000    0.000    0.000    0.000 
#
# Total GULP energy -78085.779311 kJ/mol
# GULP energy per Si atom -5577.555665 kJ/mol
# Density = 2.118800 g / cm^3
# Si number density = 21.236336 Si / 1000 Ang^3
#
#
#
# Elastic Constant Matrix: (Units=GPa)
#
#
# Indices 1 2 3 4 5 6 
#
# 1 164.6354 63.9095 34.5405 -9.9745 -7.8234 -1.3743
# 2 63.9095 127.2978 21.9476 15.8901 -18.9727 -3.0852
# 3 34.5405 21.9476 32.3561 -0.5555 -8.3490 -6.4268
# 4 -9.9745 15.8901 -0.5555 27.2536 4.3046 4.5679
# 5 -7.8234 -18.9727 -8.3490 4.3046 29.4974 -2.9798
# 6 -1.3743 -3.0852 -6.4268 4.5679 -2.9798 40.1971
#
#
#
# Elastic Compliance Matrix: (Units=1/GPa)
#
#
# Indices 1 2 3 4 5 6 
#
# 1 0.010264 -0.005363 -0.008935 0.007899 -0.004685 -0.002734
# 2 -0.005363 0.013578 -0.000799 -0.011790 0.009082 0.002744
# 3 -0.008935 -0.000799 0.045551 -0.005109 0.011599 0.008356
# 4 0.007899 -0.011790 -0.005109 0.050121 -0.015083 -0.008265
# 5 -0.004685 0.009082 0.011599 -0.015083 0.044734 0.007422
# 6 -0.002734 0.002744 0.008356 -0.008265 0.007422 0.027820
#
#
# Mechanical properties :
#
#
# Convention : Reuss Voigt Hill
#
# Bulk Modulus (GPa) = 25.51098 62.78718 44.14908
# Shear Modulus (GPa) = 21.24700 32.98241 27.11470
#
# Velocity S-wave (km/s) = 3.16650 3.94523 3.57712
# Velocity P-wave (km/s) = 5.04063 7.09811 6.15594
#
# Compressibility (1/GPa) = 0.03919881
#
# Stress axis : x y z
#
# Youngs Moduli (GPa) = 97.43241 73.65094 21.95331
#
# Poissons Ratio (x) = 0.39498 0.19616
# Poissons Ratio (y) = 0.52252 0.01754
# Poissons Ratio (z) = 0.87057 0.05883
#
# Static dielectric constant tensor:
#      x y z
#    x 1.781640 0.029380 0.020040 
#    y 0.029380 1.878640 0.043380 
#    z 0.020040 0.043380 1.825620 
# 
# From -- ./inp_files/27743.got.cif
#   From: 2010.05.17/outbox.cif.g08.bks.cpg/sg2_14_cif.got.tgz:27743.got - 2010.06.03 11:33:40.
