data_PCOD9063461
_publ_section_title
;
Structure prediction by ZEFSAII (Michael W. Deem and Ramdas Pophale) SiO2 
 PCOD9063461
Probable space group: P -1
;
_chemical_formula_sum "Si O2"
_cell_formula_units_Z 16
_cell_length_a 13.490006
_cell_length_b 12.025582
_cell_length_c 12.130404
_cell_angle_alpha 23.711436
_cell_angle_beta 71.704621
_cell_angle_gamma 75.078883
_cell_volume 749.022350
_symmetry_space_group_name_H-M "P -1"
_symmetry_group_IT_number 2
_symmetry_cell_setting 'triclinic'
loop_
_space_group_symop_operation_xyz
x,y,z
-x,-y,-z
loop_
_atom_site_type_symbol
_atom_site_label
_atom_site_fract_x
_atom_site_fract_y
_atom_site_fract_z
Si Si1 0.433237 0.252290 0.080958
Si Si2 0.857761 0.146927 0.499707
Si Si3 0.605715 0.165699 0.353093
Si Si4 0.735612 0.673945 0.100817
Si Si5 0.198492 0.785769 0.912004
Si Si6 0.385189 0.466110 0.514021
Si Si7 0.901318 0.820460 0.557941
Si Si8 0.350854 0.878336 0.963759
O O1 0.407653 0.509912 0.930879
O O2 0.375066 0.299456 0.944872
O O3 0.556184 0.244462 0.027145
O O4 0.384398 0.966989 0.409267
O O5 0.797234 0.422805 0.259230
O O6 0.978388 0.226192 0.416764
O O7 0.859987 0.972513 0.543374
O O8 0.804479 0.952261 0.790506
O O9 0.701843 0.113676 0.289550
O O10 0.500000 0.000000 0.500000
O O11 0.704233 0.609678 0.295327
O O12 0.110615 0.979351 0.724571
O O13 0.162529 0.470529 0.180488
O O14 0.242217 0.818254 0.991272
O O15 0.500000 0.500000 0.500000
O O16 0.358673 0.734883 0.210263
O O17 0.380752 0.204820 0.670095
#
# Coordination Sequence:
#
# PCOD9063461 Si02
#       8
#     2   2   2   2   2   2   2   2
#     4  12  24  38  60  93 133 172 209 256 318 391
#     4  11  24  44  69 101 127 166 217 274 322 384
#     4  12  24  36  57  92 136 172 207 247 306 399
#     4  12  24  41  69  93 129 166 216 279 327 368
#     4  12  24  41  65  93 135 179 206 258 329 391
#     4  12  26  44  66  94 130 176 224 270 319 373
#     4  11  24  44  69  98 133 167 215 262 327 396
#     4  12  26  42  63  93 134 175 217 259 318 386
#
# _framework density 21.361177999999999
#
# number of rings (size 3 to 8) (size 9 to 14) (size 15 to 20)
#    0.000    0.250    2.500    8.250    3.500    2.000 
#    0.000    0.000    0.000   15.000    0.000    0.000 
#    0.000    0.000    0.000    0.000    0.000    0.000 
#
# Total GULP energy -89571.941435 kJ/mol
# GULP energy per Si atom -5598.246340 kJ/mol
# Density = 2.131256 g / cm^3
# Si number density = 21.361178 Si / 1000 Ang^3
#
#
#
# Elastic Constant Matrix: (Units=GPa)
#
#
# Indices 1 2 3 4 5 6 
#
# 1 94.2811 19.7326 16.8093 -6.0393 5.8441 24.3249
# 2 19.7326 34.9266 4.6029 4.8291 1.0116 10.8946
# 3 16.8093 4.6029 96.6259 -4.9368 8.1803 6.9886
# 4 -6.0393 4.8291 -4.9368 39.2505 3.6744 -4.8526
# 5 5.8441 1.0116 8.1803 3.6744 36.4877 -1.7051
# 6 24.3249 10.8946 6.9886 -4.8526 -1.7051 30.2807
#
#
#
# Elastic Compliance Matrix: (Units=1/GPa)
#
#
# Indices 1 2 3 4 5 6 
#
# 1 0.014659 -0.005358 -0.001308 0.001825 -0.002529 -0.009396
# 2 -0.005358 0.035531 -0.000424 -0.006428 0.000176 -0.009402
# 3 -0.001308 -0.000424 0.010959 0.001301 -0.002425 -0.001254
# 4 0.001825 -0.006428 0.001301 0.027583 -0.002959 0.004800
# 5 -0.002529 0.000176 -0.002425 -0.002959 0.028820 0.003677
# 6 -0.009396 -0.009402 -0.001254 0.004800 0.003677 0.045221
#
#
# Mechanical properties :
#
#
# Convention : Reuss Voigt Hill
#
# Bulk Modulus (GPa) = 21.29017 34.23590 27.76304
# Shear Modulus (GPa) = 25.95933 33.51638 29.73785
#
# Velocity S-wave (km/s) = 3.48984 3.96540 3.73519
# Velocity P-wave (km/s) = 5.12123 6.08505 5.62382
#
# Compressibility (1/GPa) = 0.04697004
#
# Stress axis : x y z
#
# Youngs Moduli (GPa) = 68.21715 28.14476 91.24541
#
# Poissons Ratio (x) = 0.15079 0.11934
# Poissons Ratio (y) = 0.36549 0.03867
# Poissons Ratio (z) = 0.08922 0.01193
#
# Static dielectric constant tensor:
#      x y z
#    x 1.772920 0.036970 0.036250 
#    y 0.036970 1.803320 0.037020 
#    z 0.036250 0.037020 1.768360 
# 
# From -- ./inp_files/452075.got.cif
#   From: 2010.05.17/outbox.cif.g08.bks.cpg/sg2_227_cif.got.tgz:452075.got - 2010.06.03 11:33:40.
