data_PCOD9063583
_publ_section_title
;
Structure prediction by ZEFSAII (Michael W. Deem and Ramdas Pophale) SiO2 
 PCOD9063583
Probable space group: P -1
;
_chemical_formula_sum "Si O2"
_cell_formula_units_Z 14
_cell_length_a 8.505037
_cell_length_b 14.041794
_cell_length_c 4.986567
_cell_angle_alpha 98.658657
_cell_angle_beta 76.382598
_cell_angle_gamma 113.660326
_cell_volume 529.080478
_symmetry_space_group_name_H-M "P -1"
_symmetry_group_IT_number 2
_symmetry_cell_setting 'triclinic'
loop_
_space_group_symop_operation_xyz
x,y,z
-x,-y,-z
loop_
_atom_site_type_symbol
_atom_site_label
_atom_site_fract_x
_atom_site_fract_y
_atom_site_fract_z
Si Si1 0.737286 0.704733 0.252778
Si Si2 0.505789 0.640259 0.807231
Si Si3 0.487586 0.853725 0.999466
Si Si4 0.161701 0.518991 0.144120
Si Si5 0.016541 0.668858 0.476927
Si Si6 0.795862 0.935047 0.531475
Si Si7 0.291458 0.881188 0.602440
O O1 0.582142 0.636012 0.485325
O O2 0.437137 0.734431 0.878243
O O3 0.664002 0.677852 0.973225
O O4 0.766258 0.824731 0.356855
O O5 0.342192 0.541538 0.930208
O O6 0.909797 0.686321 0.272210
O O7 0.732078 0.015656 0.438123
O O8 0.420339 0.858517 0.326431
O O9 0.375238 0.895876 0.866467
O O10 0.112233 0.424418 0.329979
O O11 0.165521 0.622928 0.336577
O O12 0.000000 0.500000 0.000000
O O13 0.110184 0.780848 0.623567
O O14 0.688165 0.907060 0.842758
O O15 0.000000 0.000000 0.500000
#
# Coordination Sequence:
#
# PCOD9063583 Si02
#       7
#     2   2   2   2   2   2   2
#     4  11  27  47  70 105 146 188 225 290 357 420
#     4  11  25  47  73 102 148 181 235 289 354 416
#     4  11  24  44  71 101 143 185 240 277 351 404
#     4  11  26  46  77 103 136 184 242 292 348 419
#     4  11  26  45  71 105 140 182 238 287 356 408
#     4  11  24  46  70 108 145 186 236 284 351 417
#     4  12  24  46  72 104 141 192 229 294 335 425
#
# _framework density 26.461003999999999
#
# number of rings (size 3 to 8) (size 9 to 14) (size 15 to 20)
#    0.000    0.857    2.857    3.429    6.000    3.429 
#    0.000    7.143    0.000    0.000    0.000    0.000 
#    0.000    0.000    0.000    0.000    0.000    0.000 
#
# Total GULP energy -78571.422720 kJ/mol
# GULP energy per Si atom -5612.244480 kJ/mol
# Density = 2.640078 g / cm^3
# Si number density = 26.461004 Si / 1000 Ang^3
#
#
#
# Elastic Constant Matrix: (Units=GPa)
#
#
# Indices 1 2 3 4 5 6 
#
# 1 108.4087 43.6977 18.8557 2.6918 -2.5087 -19.2500
# 2 43.6977 158.0770 17.0722 -16.0183 -6.1198 -4.6394
# 3 18.8557 17.0722 69.4850 2.4733 3.0738 -18.0264
# 4 2.6918 -16.0183 2.4733 36.3151 -2.0697 -0.2229
# 5 -2.5087 -6.1198 3.0738 -2.0697 45.2358 5.3796
# 6 -19.2500 -4.6394 -18.0264 -0.2229 5.3796 54.0561
#
#
#
# Elastic Compliance Matrix: (Units=1/GPa)
#
#
# Indices 1 2 3 4 5 6 
#
# 1 0.011358 -0.003116 -0.001369 -0.002113 -0.000191 0.003331
# 2 -0.003116 0.007758 -0.001530 0.003824 0.001282 -0.001066
# 3 -0.001369 -0.001530 0.016626 -0.001794 -0.002105 0.005128
# 4 -0.002113 0.003824 -0.001794 0.029610 0.002008 -0.001101
# 5 -0.000191 0.001282 -0.002105 0.002008 0.022852 -0.002926
# 6 0.003331 -0.001066 0.005128 -0.001101 -0.002926 0.021591
#
#
# Mechanical properties :
#
#
# Convention : Reuss Voigt Hill
#
# Bulk Modulus (GPa) = 42.16993 55.02466 48.59730
# Shear Modulus (GPa) = 38.54200 44.21108 41.37654
#
# Velocity S-wave (km/s) = 3.82063 4.09198 3.95863
# Velocity P-wave (km/s) = 5.95266 6.57004 6.26896
#
# Compressibility (1/GPa) = 0.02371358
#
# Stress axis : x y z
#
# Youngs Moduli (GPa) = 88.04495 128.89260 60.14601
#
# Poissons Ratio (x) = 0.40159 0.08232
# Poissons Ratio (y) = 0.27432 0.09203
# Poissons Ratio (z) = 0.12051 0.19721
#
# Static dielectric constant tensor:
#      x y z
#    x 2.088970 0.016410 -0.039870 
#    y 0.016410 2.067130 0.030610 
#    z -0.039870 0.030610 2.071190 
# 
# From -- ./inp_files/50608.got.cif
#   From: 2010.05.17/outbox.cif.g08.bks.cpg/sg2_26_cif.got.tgz:50608.got - 2010.06.03 11:33:40.
