data_PCOD9063824
_publ_section_title
;
Structure prediction by ZEFSAII (Michael W. Deem and Ramdas Pophale) SiO2 
 PCOD9063824
Probable space group: P -1
;
_chemical_formula_sum "Si O2"
_cell_formula_units_Z 12
_cell_length_a 6.607234
_cell_length_b 15.828630
_cell_length_c 12.395429
_cell_angle_alpha 146.740224
_cell_angle_beta 47.736852
_cell_angle_gamma 137.378919
_cell_volume 475.680045
_symmetry_space_group_name_H-M "P -1"
_symmetry_group_IT_number 2
_symmetry_cell_setting 'triclinic'
loop_
_space_group_symop_operation_xyz
x,y,z
-x,-y,-z
loop_
_atom_site_type_symbol
_atom_site_label
_atom_site_fract_x
_atom_site_fract_y
_atom_site_fract_z
Si Si1 0.306335 0.217773 0.738309
Si Si2 0.814076 0.302573 0.331761
Si Si3 0.787279 0.138715 0.390834
Si Si4 0.347723 0.537356 0.929282
Si Si5 0.152144 0.921160 0.084914
Si Si6 0.345107 0.418566 0.580112
O O1 0.454128 0.096350 0.510062
O O2 0.356523 0.366107 0.792443
O O3 0.955619 0.119132 0.795587
O O4 0.482994 0.314282 0.887007
O O5 0.815999 0.187591 0.307505
O O6 0.473140 0.281041 0.416399
O O7 0.000000 0.500000 0.500000
O O8 0.944496 0.261161 0.132945
O O9 0.994442 0.312771 0.567494
O O10 0.947663 0.013558 0.215124
O O11 0.440444 0.552339 0.785814
O O12 0.000000 0.500000 0.000000
O O13 0.500000 0.000000 0.000000
O O14 0.500000 0.500000 0.500000
#
# Coordination Sequence:
#
# PCOD9063824 Si02
#       6
#     2   2   2   2   2   2
#     4  11  26  47  75 105 155 196 251 304 374 452
#     4  12  25  47  75 107 147 197 252 307 363 441
#     4  12  25  48  71 105 152 196 245 305 377 441
#     4  11  24  44  74 116 145 193 252 313 368 433
#     4  12  28  49  73 110 153 199 248 309 379 445
#     4  12  24  41  74 112 148 187 249 307 367 439
#
# _framework density 25.227039999999999
#
# number of rings (size 3 to 8) (size 9 to 14) (size 15 to 20)
#    0.000    0.333    6.667    2.000    4.667    0.000 
#    3.000    1.667    0.000    0.000    0.000    0.000 
#    0.000    0.000    0.000    0.000    0.000    0.000 
#
# Total GULP energy -67096.049483 kJ/mol
# GULP energy per Si atom -5591.337457 kJ/mol
# Density = 2.516962 g / cm^3
# Si number density = 25.227040 Si / 1000 Ang^3
#
#
#
# Elastic Constant Matrix: (Units=GPa)
#
#
# Indices 1 2 3 4 5 6 
#
# 1 86.9263 12.2382 16.5633 -9.2930 1.5099 -6.8791
# 2 12.2382 100.3650 31.2201 -27.9061 -4.3727 -5.1689
# 3 16.5633 31.2201 127.4534 -38.8212 -18.3267 6.3842
# 4 -9.2930 -27.9061 -38.8212 47.1750 -4.5224 -5.7473
# 5 1.5099 -4.3727 -18.3267 -4.5224 37.2389 -5.8195
# 6 -6.8791 -5.1689 6.3842 -5.7473 -5.8195 42.6611
#
#
#
# Elastic Compliance Matrix: (Units=1/GPa)
#
#
# Indices 1 2 3 4 5 6 
#
# 1 0.012145 -0.000696 -0.001281 0.001113 -0.000739 0.002115
# 2 -0.000696 0.012538 -0.000461 0.007499 0.002629 0.002845
# 3 -0.001281 -0.000461 0.012326 0.010360 0.007368 0.000294
# 4 0.001113 0.007499 0.010360 0.036182 0.011257 0.005948
# 5 -0.000739 0.002629 0.007368 0.011257 0.032984 0.005113
# 6 0.002115 0.002845 0.000294 0.005948 0.005113 0.025581
#
#
# Mechanical properties :
#
#
# Convention : Reuss Voigt Hill
#
# Bulk Modulus (GPa) = 31.12113 48.30976 39.71545
# Shear Modulus (GPa) = 33.93423 42.39655 38.16539
#
# Velocity S-wave (km/s) = 3.67161 4.10396 3.89379
# Velocity P-wave (km/s) = 5.50795 6.45354 5.99940
#
# Compressibility (1/GPa) = 0.03213251
#
# Stress axis : x y z
#
# Youngs Moduli (GPa) = 82.33624 79.75752 81.13125
#
# Poissons Ratio (x) = 0.05553 0.10392
# Poissons Ratio (y) = 0.05732 0.03742
# Poissons Ratio (z) = 0.10546 0.03679
#
# Static dielectric constant tensor:
#      x y z
#    x 2.066740 0.135840 0.016460 
#    y 0.135840 2.120500 0.037020 
#    z 0.016460 0.037020 2.019070 
# 
# From -- ./inp_files/368141.got.cif
#   From: 2010.05.17/outbox.cif.g08.bks.cpg/sg2_185_cif.got.tgz:368141.got - 2010.06.03 11:33:40.
