data_PCOD9063754
_publ_section_title
;
Structure prediction by ZEFSAII (Michael W. Deem and Ramdas Pophale) SiO2 
 PCOD9063754
Probable space group: P -1
;
_chemical_formula_sum "Si O2"
_cell_formula_units_Z 14
_cell_length_a 7.717885
_cell_length_b 11.672561
_cell_length_c 7.846138
_cell_angle_alpha 57.782918
_cell_angle_beta 61.214823
_cell_angle_gamma 73.734477
_cell_volume 523.854097
_symmetry_space_group_name_H-M "P -1"
_symmetry_group_IT_number 2
_symmetry_cell_setting 'triclinic'
loop_
_space_group_symop_operation_xyz
x,y,z
-x,-y,-z
loop_
_atom_site_type_symbol
_atom_site_label
_atom_site_fract_x
_atom_site_fract_y
_atom_site_fract_z
Si Si1 0.753350 0.913734 0.821321
Si Si2 0.196057 0.824570 0.575099
Si Si3 0.500000 0.000000 0.500000
Si Si4 0.514072 0.681321 0.020696
Si Si5 0.500000 0.500000 0.500000
Si Si6 0.834375 0.890393 0.183243
Si Si7 0.100100 0.394351 0.660732
Si Si8 0.221762 0.575270 0.956631
O O1 0.962555 0.855374 0.695550
O O2 0.750905 0.076730 0.683639
O O3 0.580705 0.838404 0.858658
O O4 0.741884 0.874096 0.052841
O O5 0.318976 0.899095 0.603231
O O6 0.242253 0.663300 0.703121
O O7 0.338645 0.084512 0.623949
O O8 0.461513 0.627370 0.274695
O O9 0.352237 0.645378 0.985584
O O10 0.699505 0.578120 0.971704
O O11 0.329774 0.415725 0.552075
O O12 0.944158 0.749668 0.282217
O O13 0.000000 0.000000 0.000000
O O14 0.000000 0.500000 0.500000
O O15 0.999336 0.411843 0.879506
#
# Coordination Sequence:
#
# PCOD9063754 Si02
#       8
#     2   2   1   2   1   2   2   2
#     4  11  24  47  71 110 156 198 262 332 386 479
#     4  11  24  44  73 108 146 202 258 318 399 464
#     4  12  26  46  80 104 150 214 258 320 402 474
#     4  11  25  44  77 111 155 200 261 321 398 490
#     4  12  24  46  72 118 156 202 268 318 400 488
#     4  12  26  53  75 113 160 209 271 334 401 489
#     4  12  26  49  78 114 158 210 259 337 406 477
#     4  11  24  48  74 111 153 204 255 326 402 484
#
# _framework density 26.724997999999999
#
# number of rings (size 3 to 8) (size 9 to 14) (size 15 to 20)
#    0.000    0.571    5.714    0.857    2.000    4.000 
#    2.571    0.000    0.000    0.000    0.000    0.000 
#    0.000    0.000    0.000    0.000    0.000    0.000 
#
# Total GULP energy -78043.754060 kJ/mol
# GULP energy per Si atom -5574.553861 kJ/mol
# Density = 2.666417 g / cm^3
# Si number density = 26.724998 Si / 1000 Ang^3
#
#
#
# Elastic Constant Matrix: (Units=GPa)
#
#
# Indices 1 2 3 4 5 6 
#
# 1 110.3369 4.8448 8.6046 -8.2249 -11.8012 16.7185
# 2 4.8448 89.7496 44.5244 -22.5099 -14.4013 -12.9620
# 3 8.6046 44.5244 123.8571 -26.4160 1.7642 -8.2414
# 4 -8.2249 -22.5099 -26.4160 55.5936 -1.2276 -6.0401
# 5 -11.8012 -14.4013 1.7642 -1.2276 43.9906 -10.1115
# 6 16.7185 -12.9620 -8.2414 -6.0401 -10.1115 44.0569
#
#
#
# Elastic Compliance Matrix: (Units=1/GPa)
#
#
# Indices 1 2 3 4 5 6 
#
# 1 0.009898 -0.000196 -0.000720 0.000712 0.001852 -0.003426
# 2 -0.000196 0.016950 -0.004557 0.005555 0.007365 0.006661
# 3 -0.000720 -0.004557 0.010509 0.003101 -0.001811 0.000908
# 4 0.000712 0.005555 0.003101 0.022545 0.003876 0.005925
# 5 0.001852 0.007365 -0.001811 0.003876 0.027661 0.008005
# 6 -0.003426 0.006661 0.000908 0.005925 0.008005 0.028777
#
#
# Mechanical properties :
#
#
# Convention : Reuss Voigt Hill
#
# Bulk Modulus (GPa) = 37.86031 48.87680 43.36855
# Shear Modulus (GPa) = 36.74020 46.45955 41.59987
#
# Velocity S-wave (km/s) = 3.71179 4.17397 3.94965
# Velocity P-wave (km/s) = 5.70677 6.44654 6.08790
#
# Compressibility (1/GPa) = 0.02641289
#
# Stress axis : x y z
#
# Youngs Moduli (GPa) = 101.02902 58.99555 95.15326
#
# Poissons Ratio (x) = 0.01159 0.06847
# Poissons Ratio (y) = 0.01984 0.43357
# Poissons Ratio (z) = 0.07270 0.26882
#
# Static dielectric constant tensor:
#      x y z
#    x 2.199840 -0.060580 -0.050890 
#    y -0.060580 2.080370 0.016000 
#    z -0.050890 0.016000 1.704120 
# 
# From -- ./inp_files/183964.got.cif
#   From: 2010.05.17/outbox.cif.g08.bks.cpg/sg2_92_cif.got.tgz:183964.got - 2010.06.03 11:33:40.
