data_PCOD9063158
_publ_section_title
;
Structure prediction by ZEFSAII (Michael W. Deem and Ramdas Pophale) SiO2 
 PCOD9063158
Probable space group: P -1
;
_chemical_formula_sum "Si O2"
_cell_formula_units_Z 16
_cell_length_a 5.646788
_cell_length_b 12.056652
_cell_length_c 21.419128
_cell_angle_alpha 28.423549
_cell_angle_beta 67.287772
_cell_angle_gamma 69.536876
_cell_volume 640.111678
_symmetry_space_group_name_H-M "P -1"
_symmetry_group_IT_number 2
_symmetry_cell_setting 'triclinic'
loop_
_space_group_symop_operation_xyz
x,y,z
-x,-y,-z
loop_
_atom_site_type_symbol
_atom_site_label
_atom_site_fract_x
_atom_site_fract_y
_atom_site_fract_z
Si Si1 0.058400 0.640212 0.722952
Si Si2 0.279766 0.606051 0.408984
Si Si3 0.367971 0.646277 0.885104
Si Si4 0.067297 0.334525 0.985184
Si Si5 0.435584 0.549608 0.288943
Si Si6 0.849607 0.858360 0.514995
Si Si7 0.805578 0.046749 0.939666
Si Si8 0.372608 0.864693 0.384514
O O1 0.943397 0.513504 0.857384
O O2 0.276884 0.465481 0.758688
O O3 0.868237 0.753640 0.634819
O O4 0.210070 0.868673 0.616100
O O5 0.391266 0.676863 0.295540
O O6 0.279323 0.839540 0.335018
O O7 0.452940 0.370031 0.518123
O O8 0.000000 0.500000 0.500000
O O9 0.310013 0.476911 0.916425
O O10 0.501806 0.889547 0.736870
O O11 0.500000 0.500000 0.000000
O O12 0.098123 0.715107 0.912365
O O13 0.108739 0.102476 0.055317
O O14 0.219801 0.676316 0.205526
O O15 0.344061 0.286259 0.434712
O O16 0.133206 0.827773 0.472344
O O17 0.500000 0.000000 0.000000
O O18 0.000000 0.000000 0.000000
#
# Coordination Sequence:
#
# PCOD9063158 Si02
#       8
#     2   2   2   2   2   2   2   2
#     4  11  24  45  71 103 149 187 247 308 388 464
#     4  11  25  43  71 106 146 195 242 318 381 464
#     4  11  28  47  75 103 148 204 261 325 382 468
#     4  11  27  49  73 109 148 203 264 319 393 459
#     4  12  25  43  76 105 151 191 257 311 401 460
#     4  11  24  43  71 110 144 192 243 319 386 471
#     4  12  29  51  82 115 159 211 261 325 397 478
#     4  11  25  45  72 107 149 192 260 313 393 462
#
# _framework density 24.995638
#
# number of rings (size 3 to 8) (size 9 to 14) (size 15 to 20)
#    0.000    0.750    3.750    1.875    7.000    4.000 
#    0.000    0.000    0.000    0.000    0.000    0.000 
#    0.000    0.000    0.000    0.000    0.000    0.000 
#
# Total GULP energy -89393.268756 kJ/mol
# GULP energy per Si atom -5587.079297 kJ/mol
# Density = 2.493875 g / cm^3
# Si number density = 24.995638 Si / 1000 Ang^3
#
#
#
# Elastic Constant Matrix: (Units=GPa)
#
#
# Indices 1 2 3 4 5 6 
#
# 1 70.2887 31.4885 5.2113 -9.4323 -2.7635 -4.8219
# 2 31.4885 124.2642 4.5962 -12.9247 -6.1522 2.8351
# 3 5.2113 4.5962 69.7757 -13.1683 3.5309 -5.8147
# 4 -9.4323 -12.9247 -13.1683 41.7223 0.1636 -6.7269
# 5 -2.7635 -6.1522 3.5309 0.1636 46.5569 -9.3739
# 6 -4.8219 2.8351 -5.8147 -6.7269 -9.3739 36.7988
#
#
#
# Elastic Compliance Matrix: (Units=1/GPa)
#
#
# Indices 1 2 3 4 5 6 
#
# 1 0.016675 -0.003923 -0.000200 0.003019 0.001140 0.003298
# 2 -0.003923 0.009295 -0.000069 0.001857 0.000857 -0.000683
# 3 -0.000200 -0.000069 0.015677 0.005416 -0.000564 0.003303
# 4 0.003019 0.001857 0.005416 0.027984 0.001232 0.006538
# 5 0.001140 0.000857 -0.000564 0.001232 0.022918 0.006057
# 6 0.003298 -0.000683 0.003303 0.006538 0.006057 0.030920
#
#
# Mechanical properties :
#
#
# Convention : Reuss Voigt Hill
#
# Bulk Modulus (GPa) = 30.06330 38.54675 34.30502
# Shear Modulus (GPa) = 34.97926 39.88444 37.43185
#
# Velocity S-wave (km/s) = 3.74493 3.99890 3.87400
# Velocity P-wave (km/s) = 5.54553 6.06436 5.81074
#
# Compressibility (1/GPa) = 0.03326315
#
# Stress axis : x y z
#
# Youngs Moduli (GPa) = 59.96828 107.58267 63.78767
#
# Poissons Ratio (x) = 0.42205 0.01277
# Poissons Ratio (y) = 0.23525 0.00441
# Poissons Ratio (z) = 0.01201 0.00743
#
# Static dielectric constant tensor:
#      x y z
#    x 2.112890 0.065780 0.084340 
#    y 0.065780 2.038320 0.074350 
#    z 0.084340 0.074350 2.125450 
# 
# From -- ./inp_files/427848.got.cif
#   From: 2010.05.17/outbox.cif.g08.bks.cpg/sg2_214_cif.got.tgz:427848.got - 2010.06.03 11:33:40.
