data_PCOD9063271
_publ_section_title
;
Structure prediction by ZEFSAII (Michael W. Deem and Ramdas Pophale) SiO2 
 PCOD9063271
Probable space group: P -1
;
_chemical_formula_sum "Si O2"
_cell_formula_units_Z 16
_cell_length_a 8.826358
_cell_length_b 20.994421
_cell_length_c 9.215921
_cell_angle_alpha 55.191239
_cell_angle_beta 57.409560
_cell_angle_gamma 31.028787
_cell_volume 717.818690
_symmetry_space_group_name_H-M "P -1"
_symmetry_group_IT_number 2
_symmetry_cell_setting 'triclinic'
loop_
_space_group_symop_operation_xyz
x,y,z
-x,-y,-z
loop_
_atom_site_type_symbol
_atom_site_label
_atom_site_fract_x
_atom_site_fract_y
_atom_site_fract_z
Si Si1 0.135791 0.461300 0.637057
Si Si2 0.169016 0.023564 0.556049
Si Si3 0.859442 0.262754 0.900628
Si Si4 0.184975 0.013817 0.221081
Si Si5 0.792251 0.286156 0.559005
Si Si6 0.726771 0.622682 0.887886
Si Si7 0.771410 0.750974 0.107455
Si Si8 0.723490 0.793535 0.748382
O O1 0.438896 0.405625 0.565371
O O2 0.210598 0.347461 0.794925
O O3 0.000000 0.500000 0.500000
O O4 0.868771 0.587169 0.704964
O O5 0.050493 0.975792 0.680636
O O6 0.928397 0.162890 0.571368
O O7 0.216874 0.025757 0.358395
O O8 0.466301 0.926989 0.623274
O O9 0.863209 0.262002 0.725273
O O10 0.954586 0.310907 0.860382
O O11 0.535189 0.348621 0.008602
O O12 0.078060 0.122429 0.037422
O O13 0.485305 0.875030 0.184035
O O14 0.967559 0.295064 0.376566
O O15 0.626346 0.738042 0.854171
O O16 0.000000 0.500000 0.000000
O O17 0.757677 0.795484 0.898784
#
# Coordination Sequence:
#
# PCOD9063271 Si02
#       8
#     2   2   2   2   2   2   2   2
#     4  12  30  47  74  99 141 186 235 288 336 412
#     4  11  24  43  74 106 140 179 227 285 351 414
#     4  12  26  45  75 102 143 180 230 288 343 415
#     4  11  24  43  74 106 140 179 227 285 351 414
#     4  12  26  47  71 107 138 183 230 285 350 408
#     4  12  26  51  70 101 137 188 237 278 346 404
#     4  12  26  47  71 107 138 183 230 285 350 408
#     4  12  26  45  75 102 143 180 230 288 343 415
#
# _framework density 22.289750000000002
#
# number of rings (size 3 to 8) (size 9 to 14) (size 15 to 20)
#    0.000    0.250    5.000    3.000    7.000    3.000 
#    0.000    0.000    0.000    0.000    0.000    0.000 
#    0.000    0.000    0.000    0.000    0.000    0.000 
#
# Total GULP energy -89575.935750 kJ/mol
# GULP energy per Si atom -5598.495984 kJ/mol
# Density = 2.223902 g / cm^3
# Si number density = 22.289750 Si / 1000 Ang^3
#
#
#
# Elastic Constant Matrix: (Units=GPa)
#
#
# Indices 1 2 3 4 5 6 
#
# 1 97.5723 16.6969 47.1028 16.0770 15.9615 -22.6580
# 2 16.6969 54.6221 10.6420 17.4727 11.1158 -14.1289
# 3 47.1028 10.6420 118.7728 21.9782 35.8945 -16.8520
# 4 16.0770 17.4727 21.9782 40.1369 5.4066 1.4426
# 5 15.9615 11.1158 35.8945 5.4066 55.1673 8.9613
# 6 -22.6580 -14.1289 -16.8520 1.4426 8.9613 30.3632
#
#
#
# Elastic Compliance Matrix: (Units=1/GPa)
#
#
# Indices 1 2 3 4 5 6 
#
# 1 0.015812 0.002124 -0.001717 -0.006068 -0.005525 0.013754
# 2 0.002124 0.031230 0.007467 -0.017537 -0.014152 0.025272
# 3 -0.001717 0.007467 0.016680 -0.010461 -0.013419 0.015908
# 4 -0.006068 -0.017537 -0.010461 0.039943 0.012072 -0.023955
# 5 -0.005525 -0.014152 -0.013419 0.012072 0.034838 -0.029012
# 6 0.013754 0.025272 0.015908 -0.023955 -0.029012 0.073488
#
#
# Mechanical properties :
#
#
# Convention : Reuss Voigt Hill
#
# Bulk Modulus (GPa) = 12.58320 46.65003 29.61661
# Shear Modulus (GPa) = 22.44861 38.23517 30.34189
#
# Velocity S-wave (km/s) = 3.17697 4.14620 3.69351
# Velocity P-wave (km/s) = 4.37208 6.62538 5.61296
#
# Compressibility (1/GPa) = 0.07947106
#
# Stress axis : x y z
#
# Youngs Moduli (GPa) = 63.24435 32.02016 59.95381
#
# Poissons Ratio (x) = -0.06802 0.10293
# Poissons Ratio (y) = -0.13436 -0.44768
# Poissons Ratio (z) = 0.10858 -0.23910
#
# Static dielectric constant tensor:
#      x y z
#    x 1.804040 -0.055740 -0.102260 
#    y -0.055740 1.706990 -0.147620 
#    z -0.102260 -0.147620 1.653940 
# 
# From -- ./inp_files/185346.got.cif
#   From: 2010.05.17/outbox.cif.g08.bks.cpg/sg2_93_cif.got.tgz:185346.got - 2010.06.03 11:33:40.
