data_PCOD9063577
_publ_section_title
;
Structure prediction by ZEFSAII (Michael W. Deem and Ramdas Pophale) SiO2 
 PCOD9063577
Probable space group: P -1
;
_chemical_formula_sum "Si O2"
_cell_formula_units_Z 16
_cell_length_a 9.032017
_cell_length_b 17.536787
_cell_length_c 17.901924
_cell_angle_alpha 148.942922
_cell_angle_beta 135.745434
_cell_angle_gamma 29.977953
_cell_volume 727.255170
_symmetry_space_group_name_H-M "P -1"
_symmetry_group_IT_number 2
_symmetry_cell_setting 'triclinic'
loop_
_space_group_symop_operation_xyz
x,y,z
-x,-y,-z
loop_
_atom_site_type_symbol
_atom_site_label
_atom_site_fract_x
_atom_site_fract_y
_atom_site_fract_z
Si Si1 0.944113 0.013979 0.113956
Si Si2 0.802656 0.898018 0.214995
Si Si3 0.787498 0.883542 0.604107
Si Si4 0.145860 0.660280 0.992435
Si Si5 0.335689 0.285582 0.451339
Si Si6 0.224448 0.675320 0.307807
Si Si7 0.480842 0.763904 0.985925
Si Si8 0.850546 0.688490 0.310439
O O1 0.032781 0.812001 0.009355
O O2 0.966107 0.128299 0.281493
O O3 0.207696 0.927973 0.079819
O O4 0.644375 0.159511 0.079434
O O5 0.973837 0.816553 0.131351
O O6 0.007904 0.855886 0.320751
O O7 0.488497 0.134590 0.307892
O O8 0.731298 0.761452 0.090123
O O9 0.669981 0.828834 0.579070
O O10 0.895908 0.738257 0.449961
O O11 0.500970 0.120276 0.674785
O O12 0.500000 0.500000 0.000000
O O13 0.075296 0.521123 0.842154
O O14 0.535044 0.328683 0.578943
O O15 0.000000 0.500000 0.500000
O O16 0.396776 0.459326 0.146730
O O17 0.036102 0.690180 0.317901
#
# Coordination Sequence:
#
# PCOD9063577 Si02
#       8
#     2   2   2   2   2   2   2   2
#     4  11  24  44  71 100 150 187 232 295 362 425
#     4  12  26  46  75 103 145 185 247 299 348 426
#     4  11  24  45  68 101 146 185 238 291 359 423
#     4  12  26  44  73 110 142 190 243 296 359 422
#     4  12  28  47  71 106 144 191 240 291 363 431
#     4  12  25  45  74 105 140 189 242 296 353 430
#     4  11  24  45  73 103 140 188 235 299 360 422
#     4  11  25  43  70 104 142 184 240 300 349 420
#
# _framework density 22.000530999999999
#
# number of rings (size 3 to 8) (size 9 to 14) (size 15 to 20)
#    0.000    0.500    5.000    2.250    7.000    0.500 
#    2.250    1.250    0.000    0.000    0.000    0.000 
#    0.000    0.000    0.000    0.000    0.000    0.000 
#
# Total GULP energy -89578.453488 kJ/mol
# GULP energy per Si atom -5598.653343 kJ/mol
# Density = 2.195046 g / cm^3
# Si number density = 22.000531 Si / 1000 Ang^3
#
#
#
# Elastic Constant Matrix: (Units=GPa)
#
#
# Indices 1 2 3 4 5 6 
#
# 1 69.9386 23.5307 27.0056 -9.4520 -7.2291 -3.1992
# 2 23.5307 96.3780 38.1471 2.2215 -5.5543 1.0900
# 3 27.0056 38.1471 119.5825 -9.5134 -6.0604 -9.6725
# 4 -9.4520 2.2215 -9.5134 26.9182 -3.0801 -5.5418
# 5 -7.2291 -5.5543 -6.0604 -3.0801 43.8946 4.9754
# 6 -3.1992 1.0900 -9.6725 -5.5418 4.9754 25.6624
#
#
#
# Elastic Compliance Matrix: (Units=1/GPa)
#
#
# Indices 1 2 3 4 5 6 
#
# 1 0.017490 -0.003531 -0.001981 0.006522 0.002330 0.002540
# 2 -0.003531 0.012975 -0.003944 -0.004363 0.000611 -0.003538
# 3 -0.001981 -0.003944 0.010846 0.004522 0.000434 0.004901
# 4 0.006522 -0.004363 0.004522 0.044134 0.002921 0.011667
# 5 0.002330 0.000611 0.000434 0.002921 0.023913 -0.003577
# 6 0.002540 -0.003538 0.004901 0.011667 -0.003577 0.044495
#
#
# Mechanical properties :
#
#
# Convention : Reuss Voigt Hill
#
# Bulk Modulus (GPa) = 44.64504 51.47399 48.05952
# Shear Modulus (GPa) = 27.74231 32.44276 30.09253
#
# Velocity S-wave (km/s) = 3.55489 3.84426 3.70240
# Velocity P-wave (km/s) = 6.09806 6.56902 6.33792
#
# Compressibility (1/GPa) = 0.02239890
#
# Stress axis : x y z
#
# Youngs Moduli (GPa) = 57.17693 77.07323 92.19955
#
# Poissons Ratio (x) = 0.27213 0.18264
# Poissons Ratio (y) = 0.20188 0.36363
# Poissons Ratio (z) = 0.11326 0.30397
#
# Static dielectric constant tensor:
#      x y z
#    x 1.789770 -0.002270 -0.023260 
#    y -0.002270 1.800960 0.006870 
#    z -0.023260 0.006870 1.803040 
# 
# From -- ./inp_files/208229.got.cif
#   From: 2010.05.17/outbox.cif.g08.bks.cpg/sg2_105_cif.got.tgz:208229.got - 2010.06.03 11:33:40.
