data_PCOD9063146
_publ_section_title
;
Structure prediction by ZEFSAII (Michael W. Deem and Ramdas Pophale) SiO2 
 PCOD9063146
Probable space group: P -1
;
_chemical_formula_sum "Si O2"
_cell_formula_units_Z 16
_cell_length_a 8.915294
_cell_length_b 12.435042
_cell_length_c 8.094314
_cell_angle_alpha 123.827909
_cell_angle_beta 104.353848
_cell_angle_gamma 67.165140
_cell_volume 686.424754
_symmetry_space_group_name_H-M "P -1"
_symmetry_group_IT_number 2
_symmetry_cell_setting 'triclinic'
loop_
_space_group_symop_operation_xyz
x,y,z
-x,-y,-z
loop_
_atom_site_type_symbol
_atom_site_label
_atom_site_fract_x
_atom_site_fract_y
_atom_site_fract_z
Si Si1 0.782370 0.590770 0.250880
Si Si2 0.561251 0.949802 0.791098
Si Si3 0.159692 0.718199 0.071623
Si Si4 0.439719 0.337387 0.527603
Si Si5 0.933105 0.293598 0.604944
Si Si6 0.500520 0.770260 0.152861
Si Si7 0.046921 0.136319 0.163246
Si Si8 0.616200 0.541835 0.737029
O O1 0.760323 0.593406 0.444639
O O2 0.599871 0.703158 0.286151
O O3 0.908044 0.660643 0.281348
O O4 0.802927 0.445041 0.057987
O O5 0.494894 0.826965 0.617822
O O6 0.758460 0.896499 0.798659
O O7 0.493481 0.921869 0.237660
O O8 0.500000 0.000000 0.000000
O O9 0.106740 0.768789 0.287009
O O10 0.320542 0.757299 0.099277
O O11 0.026300 0.772044 0.938282
O O12 0.521008 0.449031 0.720918
O O13 0.467655 0.378575 0.378574
O O14 0.966662 0.202357 0.371380
O O15 0.789127 0.433093 0.654913
O O16 0.612977 0.664578 0.963448
O O17 0.000000 0.000000 0.000000
#
# Coordination Sequence:
#
# PCOD9063146 Si02
#       8
#     2   2   2   2   2   2   2   2
#     4  12  25  45  72 111 149 186 255 314 368 437
#     4  12  27  47  73 106 149 200 241 308 374 447
#     4  12  26  48  78 107 151 200 244 318 367 442
#     4  11  24  43  71 105 145 193 247 302 369 446
#     4  12  28  46  75 114 146 194 249 316 373 431
#     4  12  25  48  72 109 150 192 251 304 372 444
#     4  12  29  52  73 109 152 197 250 300 379 453
#     4  11  24  44  75 109 143 195 253 302 370 441
#
# _framework density 23.309184999999999
#
# number of rings (size 3 to 8) (size 9 to 14) (size 15 to 20)
#    0.000    0.250    6.250    2.250    7.000    2.000 
#    0.000    0.000    0.000    0.000    0.000    0.000 
#    0.000    0.000    0.000    0.000    0.000    0.000 
#
# Total GULP energy -89348.851002 kJ/mol
# GULP energy per Si atom -5584.303188 kJ/mol
# Density = 2.325613 g / cm^3
# Si number density = 23.309185 Si / 1000 Ang^3
#
#
#
# Elastic Constant Matrix: (Units=GPa)
#
#
# Indices 1 2 3 4 5 6 
#
# 1 80.8460 30.4253 15.6807 15.3855 -12.7009 -5.8950
# 2 30.4253 159.0791 48.9304 14.2654 0.5620 -3.3590
# 3 15.6807 48.9304 146.9163 14.6868 -31.3496 1.6003
# 4 15.3855 14.2654 14.6868 37.3931 7.9190 4.2014
# 5 -12.7009 0.5620 -31.3496 7.9190 40.5387 -0.6426
# 6 -5.8950 -3.3590 1.6003 4.2014 -0.6426 30.3833
#
#
#
# Elastic Compliance Matrix: (Units=1/GPa)
#
#
# Indices 1 2 3 4 5 6 
#
# 1 0.016317 -0.002844 0.001776 -0.008537 0.008258 0.004113
# 2 -0.002844 0.007769 -0.003002 0.000045 -0.003323 0.000389
# 3 0.001776 -0.003002 0.010238 -0.005700 0.009636 0.000466
# 4 -0.008537 0.000045 -0.005700 0.036248 -0.014270 -0.006665
# 5 0.008258 -0.003323 0.009636 -0.014270 0.037596 0.003496
# 6 0.004113 0.000389 0.000466 -0.006665 0.003496 0.034725
#
#
# Mechanical properties :
#
#
# Convention : Reuss Voigt Hill
#
# Bulk Modulus (GPa) = 38.18921 64.10158 51.14539
# Shear Modulus (GPa) = 31.29701 41.11667 36.20684
#
# Velocity S-wave (km/s) = 3.66825 4.20452 3.94551
# Velocity P-wave (km/s) = 5.86180 7.15059 6.53803
#
# Compressibility (1/GPa) = 0.02618541
#
# Stress axis : x y z
#
# Youngs Moduli (GPa) = 61.28602 128.71147 97.67891
#
# Poissons Ratio (x) = 0.36604 -0.17352
# Poissons Ratio (y) = 0.17429 0.29321
# Poissons Ratio (z) = -0.10887 0.38637
#
# Static dielectric constant tensor:
#      x y z
#    x 1.990850 -0.019150 0.016150 
#    y -0.019150 1.933890 -0.106350 
#    z 0.016150 -0.106350 1.956360 
# 
# From -- ./inp_files/190902.got.cif
#   From: 2010.05.17/outbox.cif.g08.bks.cpg/sg2_96_cif.got.tgz:190902.got - 2010.06.03 11:33:40.
