data_PCOD9063407
_publ_section_title
;
Structure prediction by ZEFSAII (Michael W. Deem and Ramdas Pophale) SiO2 
 PCOD9063407
Probable space group: P -1
;
_chemical_formula_sum "Si O2"
_cell_formula_units_Z 16
_cell_length_a 6.492156
_cell_length_b 25.417742
_cell_length_c 12.560542
_cell_angle_alpha 31.478495
_cell_angle_beta 132.020601
_cell_angle_gamma 134.046135
_cell_volume 761.626749
_symmetry_space_group_name_H-M "P -1"
_symmetry_group_IT_number 2
_symmetry_cell_setting 'triclinic'
loop_
_space_group_symop_operation_xyz
x,y,z
-x,-y,-z
loop_
_atom_site_type_symbol
_atom_site_label
_atom_site_fract_x
_atom_site_fract_y
_atom_site_fract_z
Si Si1 0.344938 0.233429 0.865546
Si Si2 0.697512 0.407691 0.525987
Si Si3 0.774255 0.996528 0.835638
Si Si4 0.406942 0.733882 0.881173
Si Si5 0.598646 0.844234 0.537722
Si Si6 0.171310 0.921012 0.505969
Si Si7 0.218966 0.702371 0.473805
Si Si8 0.847491 0.507730 0.823021
O O1 0.576887 0.333174 0.715638
O O2 0.024104 0.237271 0.718116
O O3 0.402166 0.126910 0.029984
O O4 0.365736 0.235771 0.996002
O O5 0.722367 0.334734 0.559646
O O6 0.445128 0.459516 0.321708
O O7 0.000000 0.500000 0.500000
O O8 0.583831 0.073791 0.656192
O O9 0.938056 0.038731 0.708708
O O10 0.000000 0.000000 0.000000
O O11 0.537579 0.766541 0.752666
O O12 0.195139 0.804294 0.701426
O O13 0.244408 0.610102 0.051539
O O14 0.488897 0.774896 0.512235
O O15 0.937752 0.911922 0.531428
O O16 0.500000 0.000000 0.500000
O O17 0.065689 0.594879 0.672897
O O18 0.000000 0.500000 0.000000
#
# Coordination Sequence:
#
# PCOD9063407 Si02
#       8
#     2   2   2   2   2   2   2   2
#     4  11  24  46  71  98 138 180 222 284 339 403
#     4  11  26  44  68 102 139 181 232 280 339 412
#     4  11  24  45  67 100 135 173 226 279 342 402
#     4  11  24  45  69  99 137 180 227 276 347 405
#     4  11  26  42  72 102 136 178 228 282 342 407
#     4  11  26  47  65  99 137 178 224 283 337 402
#     4  11  24  44  71 103 135 177 229 282 342 402
#     4  11  24  44  68 100 141 177 224 290 340 399
#
# _framework density 21.007663999999998
#
# number of rings (size 3 to 8) (size 9 to 14) (size 15 to 20)
#    0.000    1.000    3.750    1.500    3.500    9.000 
#    2.250    0.000    0.000    0.000    0.000    0.000 
#    0.000    0.000    0.000    0.000    0.000    0.000 
#
# Total GULP energy -89425.068534 kJ/mol
# GULP energy per Si atom -5589.066783 kJ/mol
# Density = 2.095985 g / cm^3
# Si number density = 21.007664 Si / 1000 Ang^3
#
#
#
# Elastic Constant Matrix: (Units=GPa)
#
#
# Indices 1 2 3 4 5 6 
#
# 1 69.3602 35.4577 21.5374 0.2092 -5.3207 3.9305
# 2 35.4577 112.8945 35.1552 -1.5281 -0.8328 -8.1104
# 3 21.5374 35.1552 121.0693 -1.0122 -7.3056 1.8422
# 4 0.2092 -1.5281 -1.0122 41.0081 -16.7366 -0.5065
# 5 -5.3207 -0.8328 -7.3056 -16.7366 17.1913 0.9847
# 6 3.9305 -8.1104 1.8422 -0.5065 0.9847 34.4377
#
#
#
# Elastic Compliance Matrix: (Units=1/GPa)
#
#
# Indices 1 2 3 4 5 6 
#
# 1 0.018426 -0.005605 -0.001091 0.002882 0.007977 -0.003550
# 2 -0.005605 0.011668 -0.002662 -0.000964 -0.003446 0.003614
# 3 -0.001091 -0.002662 0.009650 0.002722 0.006351 -0.001160
# 4 0.002882 -0.000964 0.002722 0.041870 0.042840 -0.001311
# 5 0.007977 -0.003446 0.006351 0.042840 0.105130 -0.004438
# 6 -0.003550 0.003614 -0.001160 -0.001311 -0.004438 0.030464
#
#
# Mechanical properties :
#
#
# Convention : Reuss Voigt Hill
#
# Bulk Modulus (GPa) = 47.55314 54.18051 50.86682
# Shear Modulus (GPa) = 20.58170 32.60567 26.59369
#
# Velocity S-wave (km/s) = 3.13345 3.94392 3.56181
# Velocity P-wave (km/s) = 5.98135 6.82541 6.41727
#
# Compressibility (1/GPa) = 0.02102911
#
# Stress axis : x y z
#
# Youngs Moduli (GPa) = 54.27180 85.70235 103.62186
#
# Poissons Ratio (x) = 0.48033 0.11305
# Poissons Ratio (y) = 0.30417 0.27586
# Poissons Ratio (z) = 0.05921 0.22815
#
# Static dielectric constant tensor:
#      x y z
#    x 1.693840 0.020350 -0.015750 
#    y 0.020350 1.763740 0.027870 
#    z -0.015750 0.027870 1.725690 
# 
# From -- ./inp_files/111609.got.cif
#   From: 2010.05.17/outbox.cif.g08.bks.cpg/sg2_56_cif.got.tgz:111609.got - 2010.06.03 11:33:40.
