data_PCOD9063684
_publ_section_title
;
Structure prediction by ZEFSAII (Michael W. Deem and Ramdas Pophale) SiO2 
 PCOD9063684
Probable space group: P -1
;
_chemical_formula_sum "Si O2"
_cell_formula_units_Z 15
_cell_length_a 11.249839
_cell_length_b 8.959519
_cell_length_c 9.947384
_cell_angle_alpha 109.504603
_cell_angle_beta 60.703223
_cell_angle_gamma 128.436977
_cell_volume 684.255037
_symmetry_space_group_name_H-M "P -1"
_symmetry_group_IT_number 2
_symmetry_cell_setting 'triclinic'
loop_
_space_group_symop_operation_xyz
x,y,z
-x,-y,-z
loop_
_atom_site_type_symbol
_atom_site_label
_atom_site_fract_x
_atom_site_fract_y
_atom_site_fract_z
Si Si1 0.070985 0.366823 0.431939
Si Si2 0.035338 0.249390 0.126862
Si Si3 0.549112 0.382852 0.630788
Si Si4 0.465393 0.693231 0.693770
Si Si5 0.264126 0.021552 0.184099
Si Si6 0.726378 0.890270 0.087782
Si Si7 0.000000 0.000000 0.500000
Si Si8 0.171259 0.617811 0.016049
O O1 0.003057 0.236394 0.297654
O O2 0.268851 0.507496 0.375698
O O3 0.020862 0.210953 0.530476
O O4 0.000000 0.500000 0.500000
O O5 0.142306 0.472629 0.104683
O O6 0.154627 0.184987 0.996839
O O7 0.858321 0.115416 0.112882
O O8 0.503526 0.537099 0.671199
O O9 0.545746 0.303845 0.459835
O O10 0.415255 0.221611 0.757329
O O11 0.611648 0.891177 0.734222
O O12 0.304701 0.645715 0.844435
O O13 0.117710 0.040354 0.317724
O O14 0.213561 0.812528 0.113623
O O15 0.338752 0.135145 0.036145
O O16 0.000000 0.500000 0.000000
#
# Coordination Sequence:
#
# PCOD9063684 Si02
#       8
#     2   2   2   2   2   2   1   2
#     4  12  28  48  76 112 153 198 253 315 383 446
#     4  11  24  44  72 107 141 195 247 306 373 448
#     4  11  26  48  75 106 153 198 251 312 376 456
#     4  11  26  46  74 109 145 200 251 304 382 449
#     4  12  26  46  75 106 147 198 247 309 379 447
#     4  11  24  45  74 104 142 193 246 302 372 451
#     4  12  26  48  80 108 156 196 262 308 380 454
#     4  12  26  46  73 107 153 192 253 315 369 456
#
# _framework density 21.921652000000002
#
# number of rings (size 3 to 8) (size 9 to 14) (size 15 to 20)
#    0.000    0.533    5.333    1.200    7.467    1.067 
#    2.400    1.333    0.000    0.000    0.000    0.000 
#    0.000    0.000    0.000    0.000    0.000    0.000 
#
# Total GULP energy -83559.877322 kJ/mol
# GULP energy per Si atom -5570.658488 kJ/mol
# Density = 2.187176 g / cm^3
# Si number density = 21.921652 Si / 1000 Ang^3
#
#
#
# Elastic Constant Matrix: (Units=GPa)
#
#
# Indices 1 2 3 4 5 6 
#
# 1 51.5166 32.7696 31.1174 25.0388 -14.7246 -15.1093
# 2 32.7696 96.2200 8.8564 -6.0813 -8.4402 8.7170
# 3 31.1174 8.8564 61.9696 -7.4518 -11.7816 40.7813
# 4 25.0388 -6.0813 -7.4518 24.7438 1.0520 25.4875
# 5 -14.7246 -8.4402 -11.7816 1.0520 33.6888 11.8656
# 6 -15.1093 8.7170 40.7813 25.4875 11.8656 1.5924
#
#
#
# Elastic Compliance Matrix: (Units=1/GPa)
#
#
# Indices 1 2 3 4 5 6 
#
# 1 0.018963 -0.004133 0.005125 -0.001531 0.015171 -0.017257
# 2 -0.004133 0.011445 -0.003667 0.000181 -0.002211 0.005634
# 3 0.005125 -0.003667 0.008560 -0.010857 0.002174 0.007043
# 4 -0.001531 0.000181 -0.010857 0.020595 -0.011434 0.018086
# 5 0.015171 -0.002211 0.002174 -0.011434 0.038743 -0.005295
# 6 -0.017257 0.005634 0.007043 0.018086 -0.005295 0.003017
#
#
# Mechanical properties :
#
#
# Convention : Reuss Voigt Hill
#
# Bulk Modulus (GPa) = 29.74432 39.46589 34.60511
# Shear Modulus (GPa) = 42.41683 21.13585 31.77634
#
# Velocity S-wave (km/s) = 4.40355 3.10845 3.81141
# Velocity P-wave (km/s) = 6.28116 5.56107 5.93205
#
# Compressibility (1/GPa) = 0.03361987
#
# Stress axis : x y z
#
# Youngs Moduli (GPa) = 52.73414 87.37586 116.81726
#
# Poissons Ratio (x) = 0.36109 -0.59873
# Poissons Ratio (y) = 0.21793 0.42837
# Poissons Ratio (z) = -0.27028 0.32041
#
# Static dielectric constant tensor:
#      x y z
#    x 1.825550 -0.034180 0.017550 
#    y -0.034180 1.863380 -0.054250 
#    z 0.017550 -0.054250 1.763060 
# 
# From -- ./inp_files/244732.got.cif
#   From: 2010.05.17/outbox.cif.g08.bks.cpg/sg2_123_cif.got.tgz:244732.got - 2010.06.03 11:33:40.
