data_PCOD9063364
_publ_section_title
;
Structure prediction by ZEFSAII (Michael W. Deem and Ramdas Pophale) SiO2 
 PCOD9063364
Probable space group: P -1
;
_chemical_formula_sum "Si O2"
_cell_formula_units_Z 14
_cell_length_a 11.136680
_cell_length_b 14.557735
_cell_length_c 8.823638
_cell_angle_alpha 68.269106
_cell_angle_beta 66.167582
_cell_angle_gamma 29.880566
_cell_volume 651.290165
_symmetry_space_group_name_H-M "P -1"
_symmetry_group_IT_number 2
_symmetry_cell_setting 'triclinic'
loop_
_space_group_symop_operation_xyz
x,y,z
-x,-y,-z
loop_
_atom_site_type_symbol
_atom_site_label
_atom_site_fract_x
_atom_site_fract_y
_atom_site_fract_z
Si Si1 0.991404 0.624938 0.612940
Si Si2 0.775895 0.199927 0.068434
Si Si3 0.370482 0.030783 0.193469
Si Si4 0.895216 0.011417 0.691287
Si Si5 0.265852 0.554148 0.019298
Si Si6 0.562599 0.558734 0.338139
Si Si7 0.876377 0.684747 0.296288
O O1 0.926153 0.698064 0.429504
O O2 0.253117 0.497773 0.614216
O O3 0.005994 0.497949 0.669620
O O4 0.799873 0.785738 0.737044
O O5 0.756707 0.327225 0.953899
O O6 0.496932 0.344191 0.094635
O O7 0.870629 0.138962 0.227546
O O8 0.000000 0.000000 0.000000
O O9 0.217397 0.027460 0.239970
O O10 0.591746 0.860208 0.296662
O O11 0.500000 0.000000 0.000000
O O12 0.671282 0.225935 0.719462
O O13 0.000000 0.000000 0.500000
O O14 0.311678 0.541540 0.826429
O O15 0.012543 0.662279 0.114109
O O16 0.500000 0.500000 0.500000
#
# Coordination Sequence:
#
# PCOD9063364 Si02
#       7
#     2   2   2   2   2   2   2
#     4  11  26  45  71 102 142 184 237 293 350 423
#     4  11  24  44  66 105 141 186 236 291 356 420
#     4  12  26  47  73 104 143 187 241 290 357 433
#     4  12  26  44  71 104 143 187 239 298 358 422
#     4  11  26  43  72 103 143 187 239 293 356 428
#     4  12  25  46  70 103 143 187 239 298 357 425
#     4  11  26  46  71 105 140 188 236 291 358 421
#
# _framework density 21.495795000000001
#
# number of rings (size 3 to 8) (size 9 to 14) (size 15 to 20)
#    0.000    0.571    2.857    4.714    8.000    3.429 
#    0.000    0.000    0.000    0.000    0.000    0.000 
#    0.000    0.000    0.000    0.000    0.000    0.000 
#
# Total GULP energy -78192.183588 kJ/mol
# GULP energy per Si atom -5585.155971 kJ/mol
# Density = 2.144687 g / cm^3
# Si number density = 21.495795 Si / 1000 Ang^3
#
#
#
# Elastic Constant Matrix: (Units=GPa)
#
#
# Indices 1 2 3 4 5 6 
#
# 1 71.1403 3.7129 42.3512 3.4073 2.2141 -4.3282
# 2 3.7129 116.2905 19.2183 -1.0850 5.6918 7.2254
# 3 42.3512 19.2183 102.1653 7.7571 2.1153 -2.3675
# 4 3.4073 -1.0850 7.7571 33.3510 -9.6425 11.3236
# 5 2.2141 5.6918 2.1153 -9.6425 35.6333 -6.7676
# 6 -4.3282 7.2254 -2.3675 11.3236 -6.7676 44.2877
#
#
#
# Elastic Compliance Matrix: (Units=1/GPa)
#
#
# Indices 1 2 3 4 5 6 
#
# 1 0.018822 0.000633 -0.007814 -0.000778 -0.000751 0.001403
# 2 0.000633 0.009128 -0.002068 0.000964 -0.001496 -0.002013
# 3 -0.007814 -0.002068 0.013676 -0.002955 -0.000612 0.000967
# 4 -0.000778 0.000964 -0.002955 0.035991 0.008226 -0.008337
# 5 -0.000751 -0.001496 -0.000612 0.008226 0.031142 0.002794
# 6 0.001403 -0.002013 0.000967 -0.008337 0.002794 0.025655
#
#
# Mechanical properties :
#
#
# Convention : Reuss Voigt Hill
#
# Bulk Modulus (GPa) = 43.24102 46.68452 44.96277
# Shear Modulus (GPa) = 31.12903 37.60866 34.36885
#
# Velocity S-wave (km/s) = 3.80958 4.18734 4.00292
# Velocity P-wave (km/s) = 6.28572 6.71889 6.50591
#
# Compressibility (1/GPa) = 0.02312619
#
# Stress axis : x y z
#
# Youngs Moduli (GPa) = 53.13056 109.55242 73.12195
#
# Poissons Ratio (x) = -0.06932 0.57138
# Poissons Ratio (y) = -0.03362 0.15124
# Poissons Ratio (z) = 0.41517 0.22658
#
# Static dielectric constant tensor:
#      x y z
#    x 1.827310 -0.044290 0.089050 
#    y -0.044290 1.915420 0.068010 
#    z 0.089050 0.068010 1.418270 
# 
# From -- ./inp_files/269720.got.cif
#   From: 2010.05.17/outbox.cif.g08.bks.cpg/sg2_135_cif.got.tgz:269720.got - 2010.06.03 11:33:40.
