data_PCOD9063685
_publ_section_title
;
Structure prediction by ZEFSAII (Michael W. Deem and Ramdas Pophale) SiO2 
 PCOD9063685
Probable space group: P -1
;
_chemical_formula_sum "Si O2"
_cell_formula_units_Z 12
_cell_length_a 15.440161
_cell_length_b 9.901457
_cell_length_c 5.607946
_cell_angle_alpha 101.706520
_cell_angle_beta 64.261885
_cell_angle_gamma 53.923810
_cell_volume 484.778499
_symmetry_space_group_name_H-M "P -1"
_symmetry_group_IT_number 2
_symmetry_cell_setting 'triclinic'
loop_
_space_group_symop_operation_xyz
x,y,z
-x,-y,-z
loop_
_atom_site_type_symbol
_atom_site_label
_atom_site_fract_x
_atom_site_fract_y
_atom_site_fract_z
Si Si1 0.360643 0.198289 0.502484
Si Si2 0.945008 0.495628 0.815675
Si Si3 0.339276 0.716883 0.663323
Si Si4 0.775635 0.423145 0.513851
Si Si5 0.047520 0.098085 0.389847
Si Si6 0.496719 0.779538 0.277569
O O1 0.268893 0.384979 0.486699
O O2 0.474607 0.177987 0.487205
O O3 0.437161 0.971056 0.255767
O O4 0.235220 0.298417 0.886602
O O5 0.000000 0.500000 0.500000
O O6 0.997218 0.279011 0.679861
O O7 0.000000 0.500000 0.000000
O O8 0.500000 0.500000 0.500000
O O9 0.261128 0.666370 0.638494
O O10 0.377700 0.788890 0.445080
O O11 0.222801 0.908403 0.057616
O O12 0.945928 0.233501 0.325061
O O13 0.656144 0.545033 0.917244
O O14 0.000000 0.000000 0.500000
#
# Coordination Sequence:
#
# PCOD9063685 Si02
#       6
#     2   2   2   2   2   2
#     4  11  24  45  73 105 150 198 251 314 388 459
#     4  12  27  49  78 113 157 202 264 323 390 468
#     4  12  25  46  73 110 151 196 259 317 384 466
#     4  12  24  48  77 106 153 204 254 319 392 465
#     4  12  27  49  77 111 154 205 256 323 396 465
#     4  11  24  44  72 107 148 195 254 310 388 458
#
# _framework density 24.753575000000001
#
# number of rings (size 3 to 8) (size 9 to 14) (size 15 to 20)
#    0.000    0.333    3.333    5.500    0.000    4.000 
#    0.000    0.000    0.000    0.000    0.000    0.000 
#    0.000    0.000    0.000    0.000    0.000    0.000 
#
# Total GULP energy -67250.928499 kJ/mol
# GULP energy per Si atom -5604.244042 kJ/mol
# Density = 2.469723 g / cm^3
# Si number density = 24.753575 Si / 1000 Ang^3
#
#
#
# Elastic Constant Matrix: (Units=GPa)
#
#
# Indices 1 2 3 4 5 6 
#
# 1 107.4053 31.7852 20.0656 8.9638 12.9581 -0.6239
# 2 31.7852 142.9204 12.4249 5.4243 -1.4004 -0.2390
# 3 20.0656 12.4249 101.6873 19.4694 -15.2761 -2.7809
# 4 8.9638 5.4243 19.4694 51.8578 3.0254 -4.4569
# 5 12.9581 -1.4004 -15.2761 3.0254 42.9001 4.3812
# 6 -0.6239 -0.2390 -2.7809 -4.4569 4.3812 39.1533
#
#
#
# Elastic Compliance Matrix: (Units=1/GPa)
#
#
# Indices 1 2 3 4 5 6 
#
# 1 0.010989 -0.002256 -0.002434 -0.000465 -0.004269 0.000413
# 2 -0.002256 0.007545 -0.000282 -0.000357 0.000867 -0.000148
# 3 -0.002434 -0.000282 0.011981 -0.004383 0.005330 -0.000285
# 4 -0.000465 -0.000357 -0.004383 0.021446 -0.003197 0.002478
# 5 -0.004269 0.000867 0.005330 -0.003197 0.027066 -0.003077
# 6 0.000413 -0.000148 -0.000285 0.002478 -0.003077 0.026152
#
#
# Mechanical properties :
#
#
# Convention : Reuss Voigt Hill
#
# Bulk Modulus (GPa) = 48.61106 53.39604 51.00355
# Shear Modulus (GPa) = 40.99031 45.96473 43.47752
#
# Velocity S-wave (km/s) = 4.07373 4.31384 4.19551
# Velocity P-wave (km/s) = 6.46589 6.81397 6.64221
#
# Compressibility (1/GPa) = 0.02057145
#
# Stress axis : x y z
#
# Youngs Moduli (GPa) = 90.99971 132.53954 83.46534
#
# Poissons Ratio (x) = 0.29899 0.20313
# Poissons Ratio (y) = 0.20528 0.02355
# Poissons Ratio (z) = 0.22147 0.03740
#
# Static dielectric constant tensor:
#      x y z
#    x 1.888910 0.005840 -0.002600 
#    y 0.005840 1.995510 -0.063440 
#    z -0.002600 -0.063440 1.985900 
# 
# From -- ./inp_files/22882.got.cif
#   From: 2010.05.17/outbox.cif.g08.bks.cpg/sg2_12_cif.got.tgz:22882.got - 2010.06.03 11:33:40.
