data_PCOD9063075
_publ_section_title
;
Structure prediction by ZEFSAII (Michael W. Deem and Ramdas Pophale) SiO2 
 PCOD9063075
Probable space group: P -1
;
_chemical_formula_sum "Si O2"
_cell_formula_units_Z 14
_cell_length_a 12.711593
_cell_length_b 9.035616
_cell_length_c 19.012135
_cell_angle_alpha 138.925661
_cell_angle_beta 27.665557
_cell_angle_gamma 126.794177
_cell_volume 649.046260
_symmetry_space_group_name_H-M "P -1"
_symmetry_group_IT_number 2
_symmetry_cell_setting 'triclinic'
loop_
_space_group_symop_operation_xyz
x,y,z
-x,-y,-z
loop_
_atom_site_type_symbol
_atom_site_label
_atom_site_fract_x
_atom_site_fract_y
_atom_site_fract_z
Si Si1 0.028961 0.295468 0.628897
Si Si2 0.565298 0.141305 0.213178
Si Si3 0.132420 0.499691 0.848311
Si Si4 0.813952 0.711537 0.984592
Si Si5 0.694271 0.888756 0.900755
Si Si6 0.897138 0.957057 0.362570
Si Si7 0.686945 0.364386 0.728862
O O1 0.298088 0.204708 0.417218
O O2 0.981018 0.169534 0.684191
O O3 0.979094 0.567934 0.775519
O O4 0.859617 0.265765 0.655386
O O5 0.660134 0.368558 0.223293
O O6 0.725461 0.982924 0.120065
O O7 0.605243 0.982184 0.063316
O O8 0.213468 0.238665 0.677543
O O9 0.945140 0.640074 0.953960
O O10 0.000000 0.500000 0.000000
O O11 0.578168 0.616705 0.085838
O O12 0.732649 0.613761 0.774409
O O13 0.922444 0.975213 0.774117
O O14 0.500000 0.000000 0.000000
O O15 0.734639 0.189573 0.572317
#
# Coordination Sequence:
#
# PCOD9063075 Si02
#       7
#     2   2   2   2   2   2   2
#     4  11  24  44  76 108 144 181 235 294 357 425
#     4  12  25  47  74 103 143 192 234 291 350 420
#     4  11  25  50  71  98 145 186 244 291 349 415
#     4  11  25  45  74 105 141 192 235 294 349 418
#     4  12  25  42  70 104 148 185 231 295 358 418
#     4  11  24  43  70 103 140 187 230 291 351 417
#     4  12  24  45  72 109 145 181 237 290 362 428
#
# _framework density 21.57011
#
# number of rings (size 3 to 8) (size 9 to 14) (size 15 to 20)
#    0.000    0.571    4.286    4.286    2.000    2.286 
#    2.571    0.714    0.000    0.000    0.000    0.000 
#    0.000    0.000    0.000    0.000    0.000    0.000 
#
# Total GULP energy -78344.296472 kJ/mol
# GULP energy per Si atom -5596.021177 kJ/mol
# Density = 2.152102 g / cm^3
# Si number density = 21.570110 Si / 1000 Ang^3
#
#
#
# Elastic Constant Matrix: (Units=GPa)
#
#
# Indices 1 2 3 4 5 6 
#
# 1 73.5639 5.4549 33.7136 2.7335 9.4703 1.3746
# 2 5.4549 125.2988 39.2351 10.8328 -1.8706 6.7779
# 3 33.7136 39.2351 143.2166 9.9886 8.4545 -1.3846
# 4 2.7335 10.8328 9.9886 37.9211 3.6467 9.2808
# 5 9.4703 -1.8706 8.4545 3.6467 26.4618 2.2689
# 6 1.3746 6.7779 -1.3846 9.2808 2.2689 23.8782
#
#
#
# Elastic Compliance Matrix: (Units=1/GPa)
#
#
# Indices 1 2 3 4 5 6 
#
# 1 0.015789 0.000393 -0.003596 0.000355 -0.004442 -0.000945
# 2 0.000393 0.009059 -0.002592 -0.001534 0.001738 -0.002313
# 3 -0.003596 -0.002592 0.008778 -0.001709 -0.001660 0.002274
# 4 0.000355 -0.001534 -0.001709 0.030245 -0.002900 -0.011164
# 5 -0.004442 0.001738 -0.001660 -0.002900 0.040697 -0.003074
# 6 -0.000945 -0.002313 0.002274 -0.011164 -0.003074 0.047353
#
#
# Mechanical properties :
#
#
# Convention : Reuss Voigt Hill
#
# Bulk Modulus (GPa) = 45.38159 55.43184 50.40671
# Shear Modulus (GPa) = 29.26426 35.23060 32.24743
#
# Velocity S-wave (km/s) = 3.68734 4.04580 3.87072
# Velocity P-wave (km/s) = 6.26206 6.89775 6.58758
#
# Compressibility (1/GPa) = 0.02203537
#
# Stress axis : x y z
#
# Youngs Moduli (GPa) = 63.33603 110.38417 113.91687
#
# Poissons Ratio (x) = -0.04335 0.40965
# Poissons Ratio (y) = -0.02488 0.29530
# Poissons Ratio (z) = 0.22776 0.28614
#
# Static dielectric constant tensor:
#      x y z
#    x 1.770060 -0.007510 0.024640 
#    y -0.007510 1.811200 0.047400 
#    z 0.024640 0.047400 1.796920 
# 
# From -- ./inp_files/296884.got.cif
#   From: 2010.05.17/outbox.cif.g08.bks.cpg/sg2_149_cif.got.tgz:296884.got - 2010.06.03 11:33:40.
