data_PCOD9063044
_publ_section_title
;
Structure prediction by ZEFSAII (Michael W. Deem and Ramdas Pophale) SiO2 
 PCOD9063044
Probable space group: P -1
;
_chemical_formula_sum "Si O2"
_cell_formula_units_Z 16
_cell_length_a 11.968197
_cell_length_b 9.182416
_cell_length_c 9.887916
_cell_angle_alpha 77.833783
_cell_angle_beta 38.440587
_cell_angle_gamma 93.795286
_cell_volume 610.719266
_symmetry_space_group_name_H-M "P -1"
_symmetry_group_IT_number 2
_symmetry_cell_setting 'triclinic'
loop_
_space_group_symop_operation_xyz
x,y,z
-x,-y,-z
loop_
_atom_site_type_symbol
_atom_site_label
_atom_site_fract_x
_atom_site_fract_y
_atom_site_fract_z
Si Si1 0.341775 0.195986 0.620948
Si Si2 0.812865 0.687190 0.657503
Si Si3 0.229864 0.776483 0.182597
Si Si4 0.552271 0.392213 0.817218
Si Si5 0.217803 0.659843 0.914197
Si Si6 0.832496 0.997566 0.436581
Si Si7 0.928726 0.696996 0.972110
Si Si8 0.465993 0.098923 0.785283
O O1 0.553836 0.289470 0.339538
O O2 0.202398 0.093726 0.656043
O O3 0.244631 0.305622 0.765557
O O4 0.373912 0.080616 0.728046
O O5 0.712908 0.570634 0.646516
O O6 0.834721 0.867439 0.567860
O O7 0.030163 0.698851 0.468863
O O8 0.655368 0.611303 0.938122
O O9 0.383326 0.712539 0.114062
O O10 0.190490 0.715616 0.078175
O O11 0.315919 0.969888 0.053315
O O12 0.528960 0.286370 0.727067
O O13 0.115011 0.469288 0.028543
O O14 0.117338 0.730811 0.881547
O O15 0.653449 0.052442 0.619612
O O16 0.023457 0.156658 0.206666
#
# Coordination Sequence:
#
# PCOD9063044 Si02
#       8
#     2   2   2   2   2   2   2   2
#     4  12  23  44  68 101 141 183 220 275 343 407
#     4  11  26  47  73  98 134 182 227 285 339 405
#     4  12  24  46  73  99 137 184 224 284 342 397
#     4  11  27  49  68 101 136 179 234 283 335 397
#     4  11  24  43  69 107 141 176 226 277 345 400
#     4  12  23  46  71 100 142 178 222 285 342 400
#     4  11  25  40  68 107 140 179 224 276 336 418
#     4  12  25  44  73 100 141 181 225 282 336 404
#
# _framework density 26.198616999999999
#
# number of rings (size 3 to 8) (size 9 to 14) (size 15 to 20)
#    0.000    0.500    3.750    4.125    1.750    4.500 
#    2.250    0.000    0.000    0.000    0.000    0.000 
#    0.000    0.000    0.000    0.000    0.000    0.000 
#
# Total GULP energy -89849.617603 kJ/mol
# GULP energy per Si atom -5615.601100 kJ/mol
# Density = 2.613899 g / cm^3
# Si number density = 26.198617 Si / 1000 Ang^3
#
#
#
# Elastic Constant Matrix: (Units=GPa)
#
#
# Indices 1 2 3 4 5 6 
#
# 1 65.9732 14.5476 6.2527 -2.2522 -2.8470 7.8084
# 2 14.5476 103.9375 9.9490 0.0343 3.5706 14.3892
# 3 6.2527 9.9490 79.4030 0.7619 -9.9097 -3.0543
# 4 -2.2522 0.0343 0.7619 42.7846 -3.9218 2.5195
# 5 -2.8470 3.5706 -9.9097 -3.9218 28.7353 1.7996
# 6 7.8084 14.3892 -3.0543 2.5195 1.7996 32.1280
#
#
#
# Elastic Compliance Matrix: (Units=1/GPa)
#
#
# Indices 1 2 3 4 5 6 
#
# 1 0.016167 -0.001760 -0.000963 0.001244 0.001873 -0.003435
# 2 -0.001760 0.010692 -0.001592 0.000025 -0.001772 -0.004415
# 3 -0.000963 -0.001592 0.013525 0.000020 0.004646 0.001971
# 4 0.001244 0.000025 0.000020 0.023903 0.003538 -0.002384
# 5 0.001873 -0.001772 0.004646 0.003538 0.037391 -0.001592
# 6 -0.003435 -0.004415 0.001971 -0.002384 -0.001592 0.034401
#
#
# Mechanical properties :
#
#
# Convention : Reuss Voigt Hill
#
# Bulk Modulus (GPa) = 31.49257 34.53470 33.01364
# Shear Modulus (GPa) = 32.19717 35.30053 33.74885
#
# Velocity S-wave (km/s) = 3.50946 3.67470 3.59303
# Velocity P-wave (km/s) = 5.33559 5.58705 5.46277
#
# Compressibility (1/GPa) = 0.03175352
#
# Stress axis : x y z
#
# Youngs Moduli (GPa) = 61.85502 93.52799 73.93843
#
# Poissons Ratio (x) = 0.16460 0.07119
# Poissons Ratio (y) = 0.10886 0.11773
# Poissons Ratio (z) = 0.05956 0.14893
#
# Static dielectric constant tensor:
#      x y z
#    x 2.040320 0.026040 0.017190 
#    y 0.026040 2.022180 0.002850 
#    z 0.017190 0.002850 2.008600 
# 
# From -- ./inp_files/297455.got.cif
#   From: 2010.05.17/outbox.cif.g08.bks.cpg/sg2_149_cif.got.tgz:297455.got - 2010.06.03 11:33:40.
