data_PCOD9063786
_publ_section_title
;
Structure prediction by ZEFSAII (Michael W. Deem and Ramdas Pophale) SiO2 
 PCOD9063786
Probable space group: P -1
;
_chemical_formula_sum "Si O2"
_cell_formula_units_Z 16
_cell_length_a 18.640097
_cell_length_b 11.481385
_cell_length_c 7.850354
_cell_angle_alpha 122.625358
_cell_angle_beta 46.462360
_cell_angle_gamma 146.640946
_cell_volume 666.954468
_symmetry_space_group_name_H-M "P -1"
_symmetry_group_IT_number 2
_symmetry_cell_setting 'triclinic'
loop_
_space_group_symop_operation_xyz
x,y,z
-x,-y,-z
loop_
_atom_site_type_symbol
_atom_site_label
_atom_site_fract_x
_atom_site_fract_y
_atom_site_fract_z
Si Si1 0.666753 0.032824 0.897643
Si Si2 0.195807 0.400257 0.596924
Si Si3 0.006243 0.604319 0.234931
Si Si4 0.322909 0.331060 0.084717
Si Si5 0.798714 0.188418 0.449183
Si Si6 0.051885 0.927900 0.981077
Si Si7 0.528484 0.155878 0.361041
Si Si8 0.465983 0.603825 0.744589
O O1 0.720150 0.151219 0.722749
O O2 0.819129 0.179557 0.865134
O O3 0.605726 0.816906 0.787211
O O4 0.558556 0.029931 0.159647
O O5 0.085009 0.354013 0.608506
O O6 0.247703 0.314043 0.361898
O O7 0.343176 0.656621 0.571050
O O8 0.098986 0.279492 0.832105
O O9 0.923594 0.429006 0.376515
O O10 0.000000 0.500000 0.000000
O O11 0.500000 0.500000 0.000000
O O12 0.347731 0.451484 0.968527
O O13 0.188154 0.094341 0.030811
O O14 0.880433 0.127197 0.283076
O O15 0.648848 0.015718 0.436596
O O16 0.000000 0.000000 0.000000
O O17 0.562478 0.301824 0.267266
O O18 0.500000 0.500000 0.500000
#
# Coordination Sequence:
#
# PCOD9063786 Si02
#       8
#     2   2   2   2   2   2   2   2
#     4  11  25  44  75 103 144 190 244 297 360 443
#     4  12  27  45  72 105 149 185 244 303 366 436
#     4  12  25  45  67 106 147 188 233 300 367 428
#     4  12  28  46  73 106 144 190 241 305 367 435
#     4  11  24  44  74 102 141 189 245 297 359 432
#     4  12  27  49  72 103 146 198 246 299 369 447
#     4  11  24  47  71 108 143 190 244 298 359 441
#     4  11  24  46  75 103 142 187 242 296 362 432
#
# _framework density 23.989644999999999
#
# number of rings (size 3 to 8) (size 9 to 14) (size 15 to 20)
#    0.000    0.500    2.500    6.000    7.000    3.500 
#    0.000    0.000    0.000    0.000    0.000    0.000 
#    0.000    0.000    0.000    0.000    0.000    0.000 
#
# Total GULP energy -89308.539392 kJ/mol
# GULP energy per Si atom -5581.783712 kJ/mol
# Density = 2.393504 g / cm^3
# Si number density = 23.989645 Si / 1000 Ang^3
#
#
#
# Elastic Constant Matrix: (Units=GPa)
#
#
# Indices 1 2 3 4 5 6 
#
# 1 92.6538 33.4678 19.9272 3.3262 -37.8836 9.3223
# 2 33.4678 81.5961 19.6859 15.9689 -6.2787 15.9501
# 3 19.9272 19.6859 69.3126 0.3250 -20.5189 1.9557
# 4 3.3262 15.9689 0.3250 29.1699 -1.2722 6.1393
# 5 -37.8836 -6.2787 -20.5189 -1.2722 40.4169 -5.7772
# 6 9.3223 15.9501 1.9557 6.1393 -5.7772 49.2407
#
#
#
# Elastic Compliance Matrix: (Units=1/GPa)
#
#
# Indices 1 2 3 4 5 6 
#
# 1 0.021396 -0.008434 0.002136 0.002904 0.020004 0.000581
# 2 -0.008434 0.018885 -0.005309 -0.008803 -0.008546 -0.004215
# 3 0.002136 -0.005309 0.018481 0.002608 0.010860 0.001530
# 4 0.002904 -0.008803 0.002608 0.039380 0.003590 -0.002290
# 5 0.020004 -0.008546 0.010860 0.003590 0.048330 0.003773
# 6 0.000581 -0.004215 0.001530 -0.002290 0.003773 0.022231
#
#
# Mechanical properties :
#
#
# Convention : Reuss Voigt Hill
#
# Bulk Modulus (GPa) = 28.13083 43.30269 35.71676
# Shear Modulus (GPa) = 24.53804 35.13094 29.83449
#
# Velocity S-wave (km/s) = 3.20169 3.83093 3.53035
# Velocity P-wave (km/s) = 5.04177 6.13659 5.61592
#
# Compressibility (1/GPa) = 0.03554819
#
# Stress axis : x y z
#
# Youngs Moduli (GPa) = 46.73717 52.95319 54.11044
#
# Poissons Ratio (x) = 0.44660 -0.11557
# Poissons Ratio (y) = 0.39418 0.28725
# Poissons Ratio (z) = -0.09982 0.28111
#
# Static dielectric constant tensor:
#      x y z
#    x 2.136390 0.162280 -0.009180 
#    y 0.162280 2.102400 -0.028950 
#    z -0.009180 -0.028950 1.889480 
# 
# From -- ./inp_files/346339.got.cif
#   From: 2010.05.17/outbox.cif.g08.bks.cpg/sg2_174_cif.got.tgz:346339.got - 2010.06.03 11:33:40.
