data_PCOD9063634
_publ_section_title
;
Structure prediction by ZEFSAII (Michael W. Deem and Ramdas Pophale) SiO2 
 PCOD9063634
Probable space group: P -1
;
_chemical_formula_sum "Si O2"
_cell_formula_units_Z 16
_cell_length_a 5.194025
_cell_length_b 12.118753
_cell_length_c 10.607821
_cell_angle_alpha 73.265512
_cell_angle_beta 102.316472
_cell_angle_gamma 103.500850
_cell_volume 614.063256
_symmetry_space_group_name_H-M "P -1"
_symmetry_group_IT_number 2
_symmetry_cell_setting 'triclinic'
loop_
_space_group_symop_operation_xyz
x,y,z
-x,-y,-z
loop_
_atom_site_type_symbol
_atom_site_label
_atom_site_fract_x
_atom_site_fract_y
_atom_site_fract_z
Si Si1 0.752268 0.730355 0.146021
Si Si2 0.167899 0.885847 0.707621
Si Si3 0.363298 0.055966 0.080847
Si Si4 0.284636 0.410775 0.424790
Si Si5 0.267030 0.740129 0.519642
Si Si6 0.330857 0.514225 0.131336
Si Si7 0.984877 0.687814 0.956006
Si Si8 0.960712 0.093363 0.715769
O O1 0.600812 0.597860 0.178730
O O2 0.793670 0.802144 0.255123
O O3 0.632466 0.812598 0.007504
O O4 0.018187 0.724858 0.094328
O O5 0.454455 0.937661 0.778833
O O6 0.213684 0.813491 0.613594
O O7 0.031754 0.794091 0.829877
O O8 0.016994 0.996530 0.654326
O O9 0.097596 0.975518 0.135275
O O10 0.500000 0.000000 0.000000
O O11 0.500000 0.500000 0.500000
O O12 0.461293 0.312034 0.435651
O O13 0.202005 0.468549 0.267452
O O14 0.004657 0.359233 0.481982
O O15 0.258373 0.833074 0.376758
O O16 0.297224 0.395416 0.085030
O O17 0.189594 0.598770 0.001897
#
# Coordination Sequence:
#
# PCOD9063634 Si02
#       8
#     2   2   2   2   2   2   2   2
#     4  12  24  41  72 106 147 192 249 317 390 462
#     4  12  25  48  75 109 157 200 257 319 386 469
#     4  12  25  43  73 113 152 195 246 322 388 461
#     4  12  29  53  79 111 156 208 265 325 378 465
#     4  12  31  51  80 112 156 210 268 314 387 459
#     4  11  26  43  74 106 147 193 253 318 397 449
#     4  11  24  44  71 109 148 190 251 318 394 466
#     4  12  28  47  74 108 156 203 261 315 386 462
#
# _framework density 26.055947
#
# number of rings (size 3 to 8) (size 9 to 14) (size 15 to 20)
#    0.000    0.250    5.000    3.000    8.750    0.500 
#    0.000    0.000    0.000    0.000    0.000    0.000 
#    0.000    0.000    0.000    0.000    0.000    0.000 
#
# Total GULP energy -89421.160264 kJ/mol
# GULP energy per Si atom -5588.822517 kJ/mol
# Density = 2.599664 g / cm^3
# Si number density = 26.055947 Si / 1000 Ang^3
#
#
#
# Elastic Constant Matrix: (Units=GPa)
#
#
# Indices 1 2 3 4 5 6 
#
# 1 67.3605 12.0794 3.1150 -11.9218 -0.4512 -4.3561
# 2 12.0794 135.7745 24.8429 8.9035 -6.5216 2.2887
# 3 3.1150 24.8429 89.7956 -17.5312 0.2580 -5.5173
# 4 -11.9218 8.9035 -17.5312 44.2751 -4.3275 -3.3419
# 5 -0.4512 -6.5216 0.2580 -4.3275 29.5922 0.0311
# 6 -4.3561 2.2887 -5.5173 -3.3419 0.0311 32.8209
#
#
#
# Elastic Compliance Matrix: (Units=1/GPa)
#
#
# Indices 1 2 3 4 5 6 
#
# 1 0.016361 -0.002086 0.001298 0.005632 0.000599 0.003108
# 2 -0.002086 0.008429 -0.003046 -0.003462 0.001348 -0.001730
# 3 0.001298 -0.003046 0.013414 0.006541 0.000185 0.003305
# 4 0.005632 -0.003462 0.006541 0.028091 0.003369 0.004946
# 5 0.000599 0.001348 0.000185 0.003369 0.034590 0.000327
# 6 0.003108 -0.001730 0.003305 0.004946 0.000327 0.032061
#
#
# Mechanical properties :
#
#
# Convention : Reuss Voigt Hill
#
# Bulk Modulus (GPa) = 32.74686 41.44501 37.09593
# Shear Modulus (GPa) = 33.15852 38.19719 35.67785
#
# Velocity S-wave (km/s) = 3.57121 3.83295 3.70439
# Velocity P-wave (km/s) = 5.44058 5.96065 5.70654
#
# Compressibility (1/GPa) = 0.03053728
#
# Stress axis : x y z
#
# Youngs Moduli (GPa) = 61.11946 118.63928 74.55165
#
# Poissons Ratio (x) = 0.24750 -0.09680
# Poissons Ratio (y) = 0.12751 0.22705
# Poissons Ratio (z) = -0.07936 0.36133
#
# Static dielectric constant tensor:
#      x y z
#    x 2.082960 0.029360 -0.042410 
#    y 0.029360 2.132210 0.044170 
#    z -0.042410 0.044170 2.029490 
# 
# From -- ./inp_files/364101.got.cif
#   From: 2010.05.17/outbox.cif.g08.bks.cpg/sg2_183_cif.got.tgz:364101.got - 2010.06.03 11:33:40.
