data_PCOD9063504
_publ_section_title
;
Structure prediction by ZEFSAII (Michael W. Deem and Ramdas Pophale) SiO2 
 PCOD9063504
Probable space group: P -1
;
_chemical_formula_sum "Si O2"
_cell_formula_units_Z 16
_cell_length_a 9.059576
_cell_length_b 14.695546
_cell_length_c 10.632834
_cell_angle_alpha 61.903420
_cell_angle_beta 141.668069
_cell_angle_gamma 93.757839
_cell_volume 644.055169
_symmetry_space_group_name_H-M "P -1"
_symmetry_group_IT_number 2
_symmetry_cell_setting 'triclinic'
loop_
_space_group_symop_operation_xyz
x,y,z
-x,-y,-z
loop_
_atom_site_type_symbol
_atom_site_label
_atom_site_fract_x
_atom_site_fract_y
_atom_site_fract_z
Si Si1 0.384612 0.762004 0.700543
Si Si2 0.471805 0.958064 0.715295
Si Si3 0.501766 0.477351 0.163043
Si Si4 0.654574 0.644167 0.226466
Si Si5 0.236932 0.175188 0.743366
Si Si6 0.402094 0.869055 0.233921
Si Si7 0.084707 0.806016 0.903495
Si Si8 0.050197 0.370229 0.148277
O O1 0.467921 0.862602 0.678548
O O2 0.452797 0.657404 0.709975
O O3 0.041831 0.830215 0.448429
O O4 0.556709 0.688675 0.989343
O O5 0.649949 0.021631 0.781386
O O6 0.578485 0.889550 0.965346
O O7 0.153430 0.082758 0.414360
O O8 0.711076 0.507618 0.357103
O O9 0.500000 0.500000 0.000000
O O10 0.190418 0.587237 0.933442
O O11 0.864799 0.681464 0.395170
O O12 0.380327 0.731056 0.074509
O O13 0.440397 0.122837 0.791936
O O14 0.635302 0.732650 0.529128
O O15 0.133943 0.867318 0.013985
O O16 0.011484 0.704288 0.946734
O O17 0.000000 0.500000 0.000000
#
# Coordination Sequence:
#
# PCOD9063504 Si02
#       8
#     2   2   2   2   2   2   2   2
#     4  10  18  28  44  69 105 140 170 206 258 314
#     4  10  19  29  45  75 110 138 175 218 261 312
#     4   9  17  34  54  74 108 142 170 214 266 313
#     4   8  17  29  44  70 101 135 175 216 259 307
#     4  10  18  27  45  76 106 141 176 211 264 316
#     4  10  19  31  51  73 102 141 177 216 265 311
#     4   9  18  33  51  74 103 136 173 222 267 307
#     4  10  21  37  57  81 105 134 178 223 261 308
#
# _framework density 24.842592
#
# number of rings (size 3 to 8) (size 9 to 14) (size 15 to 20)
#    0.000    2.500    0.000    4.125    0.000    8.000 
#    0.000    7.500    0.000    3.000    0.000    5.250 
#    0.000    0.000    0.000    0.000    0.000    0.000 
#
# Total GULP energy -89230.001397 kJ/mol
# GULP energy per Si atom -5576.875087 kJ/mol
# Density = 2.478605 g / cm^3
# Si number density = 24.842592 Si / 1000 Ang^3
#
#
#
# Elastic Constant Matrix: (Units=GPa)
#
#
# Indices 1 2 3 4 5 6 
#
# 1 49.1810 26.9508 17.4295 -7.3974 7.4512 -4.1393
# 2 26.9508 271.5652 68.6242 2.9754 -8.7985 7.9114
# 3 17.4295 68.6242 57.8003 -2.6154 0.9165 19.3024
# 4 -7.3974 2.9754 -2.6154 39.2963 -0.5343 8.8894
# 5 7.4512 -8.7985 0.9165 -0.5343 16.9637 -22.6286
# 6 -4.1393 7.9114 19.3024 8.8894 -22.6286 11.6352
#
#
#
# Elastic Compliance Matrix: (Units=1/GPa)
#
#
# Indices 1 2 3 4 5 6 
#
# 1 0.025365 -0.001188 -0.006735 0.003767 -0.008095 0.002384
# 2 -0.001188 0.004705 -0.003470 0.000284 -0.003585 -0.005056
# 3 -0.006735 -0.003470 0.017451 -0.003271 0.022092 0.016477
# 4 0.003767 0.000284 -0.003271 0.024210 0.010333 0.008172
# 5 -0.008095 -0.003585 0.022092 0.010333 0.000145 -0.044704
# 6 0.002384 -0.005056 0.016477 0.008172 -0.044704 -0.030287
#
#
# Mechanical properties :
#
#
# Convention : Reuss Voigt Hill
#
# Bulk Modulus (GPa) = 40.43000 67.17281 53.80140
# Shear Modulus (GPa) = 68.85210 31.28184 50.06697
#
# Velocity S-wave (km/s) = 5.27025 3.55237 4.49416
# Velocity P-wave (km/s) = 7.30368 6.62751 6.97380
#
# Compressibility (1/GPa) = 0.02473411
#
# Stress axis : x y z
#
# Youngs Moduli (GPa) = 39.42459 212.53478 57.30361
#
# Poissons Ratio (x) = 0.25255 0.38596
# Poissons Ratio (y) = 0.04685 0.19883
# Poissons Ratio (z) = 0.26554 0.73746
#
# Static dielectric constant tensor:
#      x y z
#    x 1.980120 0.074490 0.029630 
#    y 0.074490 2.138780 -0.017470 
#    z 0.029630 -0.017470 1.954360 
# 
# From -- ./inp_files/520832.got.cif
#   From: 2010.05.17/outbox.cif.g08.bks.cpg/sg2_261_cif.got.tgz:520832.got - 2010.06.03 11:33:40.
