data_PCOD9063187
_publ_section_title
;
Structure prediction by ZEFSAII (Michael W. Deem and Ramdas Pophale) SiO2 
 PCOD9063187
Probable space group: P -1
;
_chemical_formula_sum "Si O2"
_cell_formula_units_Z 16
_cell_length_a 15.874671
_cell_length_b 9.497732
_cell_length_c 12.441974
_cell_angle_alpha 48.109751
_cell_angle_beta 128.253644
_cell_angle_gamma 88.524248
_cell_volume 723.805108
_symmetry_space_group_name_H-M "P -1"
_symmetry_group_IT_number 2
_symmetry_cell_setting 'triclinic'
loop_
_space_group_symop_operation_xyz
x,y,z
-x,-y,-z
loop_
_atom_site_type_symbol
_atom_site_label
_atom_site_fract_x
_atom_site_fract_y
_atom_site_fract_z
Si Si1 0.433485 0.598714 0.775816
Si Si2 0.981699 0.284405 0.333169
Si Si3 0.300872 0.324793 0.553137
Si Si4 0.123262 0.322321 0.786402
Si Si5 0.162119 0.208959 0.331699
Si Si6 0.667781 0.698094 0.174163
Si Si7 0.313679 0.679427 0.255032
Si Si8 0.750154 0.304713 0.045774
O O1 0.359380 0.490678 0.749151
O O2 0.586161 0.440253 0.900246
O O3 0.296544 0.943570 0.493993
O O4 0.500000 0.500000 0.000000
O O5 0.943410 0.539840 0.219252
O O6 0.097611 0.129857 0.399919
O O7 0.815472 0.403599 0.107420
O O8 0.093380 0.037942 0.637240
O O9 0.235474 0.268388 0.439904
O O10 0.245477 0.365955 0.611459
O O11 0.274608 0.573519 0.366859
O O12 0.493474 0.030802 0.862778
O O13 0.242517 0.337893 0.840052
O O14 0.000000 0.500000 0.500000
O O15 0.208025 0.008177 0.013077
O O16 0.000000 0.500000 0.000000
O O17 0.500000 0.500000 0.500000
O O18 0.281217 0.630503 0.137713
#
# Coordination Sequence:
#
# PCOD9063187 Si02
#       8
#     2   2   2   2   2   2   2   2
#     4  12  23  44  76 102 135 187 242 278 345 429
#     4  11  24  44  70 101 142 182 236 285 349 417
#     4  11  24  45  71 101 143 184 233 294 346 413
#     4  12  25  43  71 103 142 188 234 284 354 422
#     4  12  27  46  69 105 147 182 228 297 356 410
#     4  11  24  43  73 104 135 186 242 282 345 424
#     4  12  25  44  68 103 143 180 233 294 347 410
#     4  11  24  43  72 103 137 186 233 288 346 417
#
# _framework density 22.105401000000001
#
# number of rings (size 3 to 8) (size 9 to 14) (size 15 to 20)
#    0.000    0.500    5.000    3.000    3.500    3.000 
#    0.000    3.750    0.000    0.000    0.000    0.000 
#    0.000    0.000    0.000    0.000    0.000    0.000 
#
# Total GULP energy -89452.457864 kJ/mol
# GULP energy per Si atom -5590.778616 kJ/mol
# Density = 2.205509 g / cm^3
# Si number density = 22.105401 Si / 1000 Ang^3
#
#
#
# Elastic Constant Matrix: (Units=GPa)
#
#
# Indices 1 2 3 4 5 6 
#
# 1 81.4419 21.2999 12.3061 1.0555 1.2215 8.6688
# 2 21.2999 114.2139 47.3294 -7.8700 0.5180 10.8919
# 3 12.3061 47.3294 125.7392 -0.3141 -13.6455 9.5154
# 4 1.0555 -7.8700 -0.3141 34.7253 -0.9281 -4.0238
# 5 1.2215 0.5180 -13.6455 -0.9281 30.0842 3.9538
# 6 8.6688 10.8919 9.5154 -4.0238 3.9538 37.3348
#
#
#
# Elastic Compliance Matrix: (Units=1/GPa)
#
#
# Indices 1 2 3 4 5 6 
#
# 1 0.013175 -0.002168 -0.000332 -0.001186 -0.000365 -0.002431
# 2 -0.002168 0.011135 -0.004062 0.002359 -0.001706 -0.001275
# 3 -0.000332 -0.004062 0.010196 -0.000913 0.004937 -0.001958
# 4 -0.001186 0.002359 -0.000913 0.029712 0.000114 0.003010
# 5 -0.000365 -0.001706 0.004937 0.000114 0.036117 -0.004488
# 6 -0.002431 -0.001275 -0.001958 0.003010 -0.004488 0.029020
#
#
# Mechanical properties :
#
#
# Convention : Reuss Voigt Hill
#
# Bulk Modulus (GPa) = 46.76612 53.69619 50.23115
# Shear Modulus (GPa) = 33.42110 36.45952 34.94031
#
# Velocity S-wave (km/s) = 3.89253 4.06562 3.98002
# Velocity P-wave (km/s) = 6.43462 6.81049 6.62522
#
# Compressibility (1/GPa) = 0.02138300
#
# Stress axis : x y z
#
# Youngs Moduli (GPa) = 75.89872 89.80813 98.07699
#
# Poissons Ratio (x) = 0.19468 0.03258
# Poissons Ratio (y) = 0.16452 0.39837
# Poissons Ratio (z) = 0.02521 0.36479
#
# Static dielectric constant tensor:
#      x y z
#    x 2.079150 -0.160690 0.043740 
#    y -0.160690 1.927900 -0.026220 
#    z 0.043740 -0.026220 1.838540 
# 
# From -- ./inp_files/461105.got.cif
#   From: 2010.05.17/outbox.cif.g08.bks.cpg/sg2_231_cif.got.tgz:461105.got - 2010.06.03 11:33:40.
