data_PCOD9063710
_publ_section_title
;
Structure prediction by ZEFSAII (Michael W. Deem and Ramdas Pophale) SiO2 
 PCOD9063710
Probable space group: P -1
;
_chemical_formula_sum "Si O2"
_cell_formula_units_Z 14
_cell_length_a 19.327206
_cell_length_b 19.960041
_cell_length_c 5.154796
_cell_angle_alpha 97.684059
_cell_angle_beta 72.309852
_cell_angle_gamma 157.822023
_cell_volume 652.085232
_symmetry_space_group_name_H-M "P -1"
_symmetry_group_IT_number 2
_symmetry_cell_setting 'triclinic'
loop_
_space_group_symop_operation_xyz
x,y,z
-x,-y,-z
loop_
_atom_site_type_symbol
_atom_site_label
_atom_site_fract_x
_atom_site_fract_y
_atom_site_fract_z
Si Si1 0.933834 0.485092 0.818424
Si Si2 0.304380 0.393261 0.336533
Si Si3 0.529909 0.945342 0.981563
Si Si4 0.973200 0.043810 0.223911
Si Si5 0.081363 0.276081 0.903365
Si Si6 0.508012 0.620972 0.717364
Si Si7 0.783733 0.137240 0.295901
O O1 0.000000 0.500000 0.500000
O O2 0.052159 0.658590 0.795593
O O3 0.687598 0.278635 0.961173
O O4 0.000000 0.500000 0.000000
O O5 0.135235 0.304593 0.557898
O O6 0.437286 0.509369 0.506987
O O7 0.464118 0.549624 0.007228
O O8 0.151677 0.200362 0.323994
O O9 0.696423 0.062518 0.647502
O O10 0.500000 0.000000 0.000000
O O11 0.603892 0.996325 0.216433
O O12 0.741262 0.847253 0.507007
O O13 0.000000 0.000000 0.000000
O O14 0.024628 0.155312 0.048095
O O15 0.310706 0.500847 0.860907
O O16 0.900856 0.171143 0.102465
#
# Coordination Sequence:
#
# PCOD9063710 Si02
#       7
#     2   2   2   2   2   2   2
#     4  12  23  42  67  96 130 172 219 267 334 400
#     4   9  22  43  63  95 135 167 228 273 337 397
#     4  12  24  42  70 100 135 175 220 279 338 393
#     4  11  24  44  73 101 136 182 228 282 341 407
#     4   9  25  45  64 101 137 180 230 282 336 405
#     4   9  22  43  66  92 139 170 222 278 340 396
#     4  12  25  43  69  95 140 174 226 281 329 399
#
# _framework density 21.469586
#
# number of rings (size 3 to 8) (size 9 to 14) (size 15 to 20)
#    0.857    0.571    2.857    1.286    6.000    4.571 
#    0.000    0.000    0.000    0.000    0.000    0.000 
#    0.000    0.000    0.000    0.000    0.000    0.000 
#
# Total GULP energy -78140.882147 kJ/mol
# GULP energy per Si atom -5581.491582 kJ/mol
# Density = 2.142072 g / cm^3
# Si number density = 21.469586 Si / 1000 Ang^3
#
#
#
# Elastic Constant Matrix: (Units=GPa)
#
#
# Indices 1 2 3 4 5 6 
#
# 1 58.6506 11.0509 21.2940 2.9112 -7.6768 -2.9017
# 2 11.0509 93.0120 32.4688 -18.9861 2.5566 -10.7145
# 3 21.2940 32.4688 134.3709 -4.2946 8.4515 -7.4456
# 4 2.9112 -18.9861 -4.2946 51.9475 5.2592 3.8064
# 5 -7.6768 2.5566 8.4515 5.2592 31.9810 -1.6386
# 6 -2.9017 -10.7145 -7.4456 3.8064 -1.6386 21.5342
#
#
#
# Elastic Compliance Matrix: (Units=1/GPa)
#
#
# Indices 1 2 3 4 5 6 
#
# 1 0.019519 -0.001798 -0.003044 -0.002747 0.006169 0.001638
# 2 -0.001798 0.013322 -0.002446 0.004566 -0.001364 0.004629
# 3 -0.003044 -0.002446 0.008763 0.000203 -0.002825 0.001152
# 4 -0.002747 0.004566 0.000203 0.021736 -0.004767 -0.002233
# 5 0.006169 -0.001364 -0.002825 -0.004767 0.034525 0.002645
# 6 0.001638 0.004629 0.001152 -0.002233 0.002645 0.049956
#
#
# Mechanical properties :
#
#
# Convention : Reuss Voigt Hill
#
# Bulk Modulus (GPa) = 36.99797 46.18453 41.59125
# Shear Modulus (GPa) = 29.17055 35.84053 32.50554
#
# Velocity S-wave (km/s) = 3.69004 4.09022 3.89527
# Velocity P-wave (km/s) = 5.95192 6.62305 6.29643
#
# Compressibility (1/GPa) = 0.02702851
#
# Stress axis : x y z
#
# Youngs Moduli (GPa) = 51.23231 75.06612 114.11042
#
# Poissons Ratio (x) = 0.13499 0.34732
# Poissons Ratio (y) = 0.09213 0.27909
# Poissons Ratio (z) = 0.15594 0.18359
#
# Static dielectric constant tensor:
#      x y z
#    x 1.821110 0.022130 0.026880 
#    y 0.022130 1.782200 -0.042580 
#    z 0.026880 -0.042580 1.912540 
# 
# From -- ./inp_files/120300.got.cif
#   From: 2010.05.17/outbox.cif.g08.bks.cpg/sg2_61_cif.got.tgz:120300.got - 2010.06.03 11:33:40.
