data_PCOD9063094
_publ_section_title
;
Structure prediction by ZEFSAII (Michael W. Deem and Ramdas Pophale) SiO2 
 PCOD9063094
Probable space group: P -1
;
_chemical_formula_sum "Si O2"
_cell_formula_units_Z 14
_cell_length_a 16.073831
_cell_length_b 10.318527
_cell_length_c 4.957066
_cell_angle_alpha 74.482681
_cell_angle_beta 53.936617
_cell_angle_gamma 49.670753
_cell_volume 498.001001
_symmetry_space_group_name_H-M "P -1"
_symmetry_group_IT_number 2
_symmetry_cell_setting 'triclinic'
loop_
_space_group_symop_operation_xyz
x,y,z
-x,-y,-z
loop_
_atom_site_type_symbol
_atom_site_label
_atom_site_fract_x
_atom_site_fract_y
_atom_site_fract_z
Si Si1 0.559230 0.837696 0.671741
Si Si2 0.967023 0.651029 0.682914
Si Si3 0.291786 0.098787 0.244786
Si Si4 0.211346 0.525873 0.617635
Si Si5 0.927379 0.169910 0.859211
Si Si6 0.268011 0.867449 0.690004
Si Si7 0.646389 0.340849 0.908273
O O1 0.649269 0.825156 0.747120
O O2 0.662034 0.660460 0.422384
O O3 0.500000 0.000000 0.500000
O O4 0.422362 0.904075 0.030968
O O5 0.086533 0.540727 0.737226
O O6 0.000000 0.500000 0.500000
O O7 0.806754 0.784663 0.873648
O O8 0.992187 0.790654 0.492206
O O9 0.221469 0.056134 0.617067
O O10 0.148818 0.664906 0.894054
O O11 0.279497 0.572810 0.248464
O O12 0.830205 0.140696 0.925901
O O13 0.000000 0.000000 0.000000
O O14 0.284439 0.783783 0.417582
O O15 0.386689 0.735766 0.736596
O O16 0.500000 0.500000 0.000000
#
# Coordination Sequence:
#
# PCOD9063094 Si02
#       7
#     2   2   2   2   2   2   2
#     4  11  27  48  70 106 151 204 260 320 392 473
#     4  12  25  47  73 108 154 196 260 316 392 468
#     4  11  26  45  74 105 149 203 258 319 392 469
#     4  11  26  45  75 108 149 201 258 322 389 470
#     4  11  25  46  71 109 152 192 254 320 395 461
#     4  11  24  44  72 108 147 200 255 323 389 470
#     4  11  24  43  70 109 149 197 255 323 394 460
#
# _framework density 28.112393000000001
#
# number of rings (size 3 to 8) (size 9 to 14) (size 15 to 20)
#    0.000    0.857    4.286    1.286    6.000    3.429 
#    0.000    0.000    0.000    0.000    0.000    0.000 
#    0.000    0.000    0.000    0.000    0.000    0.000 
#
# Total GULP energy -78087.337655 kJ/mol
# GULP energy per Si atom -5577.666975 kJ/mol
# Density = 2.804841 g / cm^3
# Si number density = 28.112393 Si / 1000 Ang^3
#
#
#
# Elastic Constant Matrix: (Units=GPa)
#
#
# Indices 1 2 3 4 5 6 
#
# 1 149.9658 15.7928 32.2579 28.2446 -1.6653 0.5706
# 2 15.7928 161.2325 11.7080 25.2750 16.4070 -18.1906
# 3 32.2579 11.7080 54.2588 -1.0394 -5.0029 -1.1253
# 4 28.2446 25.2750 -1.0394 47.3198 -1.5346 0.0538
# 5 -1.6653 16.4070 -5.0029 -1.5346 65.9941 -2.9368
# 6 0.5706 -18.1906 -1.1253 0.0538 -2.9368 45.0987
#
#
#
# Elastic Compliance Matrix: (Units=1/GPa)
#
#
# Indices 1 2 3 4 5 6 
#
# 1 0.008873 0.000457 -0.005525 -0.005676 -0.000445 -0.000088
# 2 0.000457 0.007526 -0.002105 -0.004407 -0.001995 0.002853
# 3 -0.005525 -0.002105 0.022466 0.004987 0.002199 -0.000081
# 4 -0.005676 -0.004407 0.004987 0.027047 0.001893 -0.001490
# 5 -0.000445 -0.001995 0.002199 0.001893 0.015861 0.000287
# 6 -0.000088 0.002853 -0.000081 -0.001490 0.000287 0.023344
#
#
# Mechanical properties :
#
#
# Convention : Reuss Voigt Hill
#
# Bulk Modulus (GPa) = 40.78519 53.88606 47.33562
# Shear Modulus (GPa) = 39.17386 52.06240 45.61813
#
# Velocity S-wave (km/s) = 3.73697 4.30808 4.03265
# Velocity P-wave (km/s) = 5.75842 6.62992 6.20948
#
# Compressibility (1/GPa) = 0.02451871
#
# Stress axis : x y z
#
# Youngs Moduli (GPa) = 112.70158 132.87366 44.51177
#
# Poissons Ratio (x) = -0.06075 0.24594
# Poissons Ratio (y) = -0.05153 0.09370
# Poissons Ratio (z) = 0.62272 0.27969
#
# Static dielectric constant tensor:
#      x y z
#    x 2.182940 0.178480 -0.230790 
#    y 0.178480 1.983420 0.139490 
#    z -0.230790 0.139490 2.839480 
# 
# From -- ./inp_files/109555.got.cif
#   From: 2010.05.17/outbox.cif.g08.bks.cpg/sg2_55_cif.got.tgz:109555.got - 2010.06.03 11:33:40.
