data_PCOD9063699
_publ_section_title
;
Structure prediction by ZEFSAII (Michael W. Deem and Ramdas Pophale) SiO2 
 PCOD9063699
Probable space group: P -1
;
_chemical_formula_sum "Si O2"
_cell_formula_units_Z 16
_cell_length_a 10.999615
_cell_length_b 21.518284
_cell_length_c 8.998847
_cell_angle_alpha 32.204204
_cell_angle_beta 136.998611
_cell_angle_gamma 126.406411
_cell_volume 772.302952
_symmetry_space_group_name_H-M "P -1"
_symmetry_group_IT_number 2
_symmetry_cell_setting 'triclinic'
loop_
_space_group_symop_operation_xyz
x,y,z
-x,-y,-z
loop_
_atom_site_type_symbol
_atom_site_label
_atom_site_fract_x
_atom_site_fract_y
_atom_site_fract_z
Si Si1 0.996495 0.888817 0.617590
Si Si2 0.073969 0.601426 0.759684
Si Si3 0.314123 0.713023 0.279026
Si Si4 0.662173 0.765214 0.627222
Si Si5 0.190196 0.497220 0.759300
Si Si6 0.173668 0.978694 0.298558
Si Si7 0.724700 0.767910 0.031235
Si Si8 0.634645 0.261651 0.078436
O O1 0.795978 0.851875 0.497927
O O2 0.000000 0.000000 0.500000
O O3 0.093871 0.925078 0.483702
O O4 0.119471 0.776646 0.010619
O O5 0.909016 0.691850 0.381916
O O6 0.159763 0.545581 0.799910
O O7 0.219932 0.667391 0.849284
O O8 0.000000 0.500000 0.000000
O O9 0.460929 0.783604 0.352307
O O10 0.310697 0.583138 0.602638
O O11 0.354188 0.712485 0.140048
O O12 0.727255 0.634470 0.900825
O O13 0.683022 0.772844 0.808124
O O14 0.000000 0.500000 0.500000
O O15 0.311277 0.876385 0.568316
O O16 0.255102 0.100889 0.157836
O O17 0.000000 0.000000 0.000000
O O18 0.562408 0.713086 0.083079
#
# Coordination Sequence:
#
# PCOD9063699 Si02
#       8
#     2   2   2   2   2   2   2   2
#     4  11  24  45  68  99 134 176 226 276 334 397
#     4  12  27  45  71 100 136 180 224 277 339 397
#     4  11  26  44  69 102 135 177 226 276 337 395
#     4  12  26  45  72  99 136 178 226 280 335 394
#     4  12  23  46  73  97 135 178 226 280 332 397
#     4  11  24  44  72  97 135 178 222 275 338 397
#     4  12  25  46  70 101 135 180 224 276 338 398
#     4  11  27  45  68 102 140 174 224 279 333 403
#
# _framework density 20.717258999999999
#
# number of rings (size 3 to 8) (size 9 to 14) (size 15 to 20)
#    0.000    0.500    5.000    2.250    5.250    2.000 
#    0.000    0.000    0.000    0.000    0.000    0.000 
#    0.000    0.000    0.000    0.000    0.000    0.000 
#
# Total GULP energy -89540.899088 kJ/mol
# GULP energy per Si atom -5596.306193 kJ/mol
# Density = 2.067011 g / cm^3
# Si number density = 20.717259 Si / 1000 Ang^3
#
#
#
# Elastic Constant Matrix: (Units=GPa)
#
#
# Indices 1 2 3 4 5 6 
#
# 1 75.1255 40.6985 2.8714 8.3272 3.3524 5.6156
# 2 40.6985 155.8568 27.2309 10.8667 0.9738 4.3719
# 3 2.8714 27.2309 35.3927 0.5525 -4.9729 -9.9425
# 4 8.3272 10.8667 0.5525 39.9368 -3.8310 4.2081
# 5 3.3524 0.9738 -4.9729 -3.8310 16.6108 0.7127
# 6 5.6156 4.3719 -9.9425 4.2081 0.7127 39.4782
#
#
#
# Elastic Compliance Matrix: (Units=1/GPa)
#
#
# Indices 1 2 3 4 5 6 
#
# 1 0.016020 -0.004165 0.001160 -0.002397 -0.003142 -0.001213
# 2 -0.004165 0.008976 -0.007432 -0.001459 -0.002158 -0.002079
# 3 0.001160 -0.007432 0.038274 0.001309 0.011535 0.009950
# 4 -0.002397 -0.001459 0.001309 0.026841 0.007244 -0.002160
# 5 -0.003142 -0.002158 0.011535 0.007244 0.066017 0.001627
# 6 -0.001213 -0.002079 0.009950 -0.002160 0.001627 0.028440
#
#
# Mechanical properties :
#
#
# Convention : Reuss Voigt Hill
#
# Bulk Modulus (GPa) = 23.58796 45.33074 34.45935
# Shear Modulus (GPa) = 22.77141 32.24344 27.50742
#
# Velocity S-wave (km/s) = 3.31894 3.94935 3.64779
# Velocity P-wave (km/s) = 5.10858 6.53641 5.86610
#
# Compressibility (1/GPa) = 0.04239450
#
# Stress axis : x y z
#
# Youngs Moduli (GPa) = 62.42322 111.40973 26.12732
#
# Poissons Ratio (x) = 0.46403 -0.03031
# Poissons Ratio (y) = 0.26000 0.19419
# Poissons Ratio (z) = -0.07241 0.82805
#
# Static dielectric constant tensor:
#      x y z
#    x 1.732470 0.014620 0.047100 
#    y 0.014620 1.718300 0.013820 
#    z 0.047100 0.013820 1.792500 
# 
# From -- ./inp_files/282665.got.cif
#   From: 2010.05.17/outbox.cif.g08.bks.cpg/sg2_142_cif.got.tgz:282665.got - 2010.06.03 11:33:40.
