data_PCOD9063224
_publ_section_title
;
Structure prediction by ZEFSAII (Michael W. Deem and Ramdas Pophale) SiO2 
 PCOD9063224
Probable space group: P -1
;
_chemical_formula_sum "Si O2"
_cell_formula_units_Z 13
_cell_length_a 14.949311
_cell_length_b 11.593366
_cell_length_c 10.503300
_cell_angle_alpha 140.980292
_cell_angle_beta 132.440704
_cell_angle_gamma 29.187032
_cell_volume 558.861438
_symmetry_space_group_name_H-M "P -1"
_symmetry_group_IT_number 2
_symmetry_cell_setting 'triclinic'
loop_
_space_group_symop_operation_xyz
x,y,z
-x,-y,-z
loop_
_atom_site_type_symbol
_atom_site_label
_atom_site_fract_x
_atom_site_fract_y
_atom_site_fract_z
Si Si1 0.769131 0.378206 0.268687
Si Si2 0.660046 0.959088 0.279827
Si Si3 0.288458 0.969799 0.081571
Si Si4 0.277390 0.274116 0.127752
Si Si5 0.500000 0.000000 0.500000
Si Si6 0.025817 0.135877 0.544156
Si Si7 0.914356 0.462196 0.279168
O O1 0.638115 0.697743 0.444773
O O2 0.930721 0.196242 0.371544
O O3 0.852365 0.344542 0.183713
O O4 0.677958 0.284162 0.104702
O O5 0.735294 0.771824 0.318582
O O6 0.770935 0.020684 0.421580
O O7 0.442928 0.220443 0.281934
O O8 0.716443 0.763418 0.048699
O O9 0.320458 0.033282 0.032447
O O10 0.073898 0.244805 0.146060
O O11 0.408403 0.932974 0.272081
O O12 0.088146 0.568274 0.248917
O O13 0.000000 0.000000 0.500000
O O14 0.000000 0.500000 0.500000
#
# Coordination Sequence:
#
# PCOD9063224 Si02
#       7
#     2   2   2   2   1   2   2
#     4  12  26  44  70 110 136 195 238 291 371 418
#     4  11  24  43  73 100 140 193 235 295 361 426
#     4  12  25  44  73 104 142 191 241 292 363 428
#     4  11  24  46  71 102 143 191 239 296 361 420
#     4  12  22  44  68  96 150 180 228 306 336 440
#     4  12  25  45  74 100 146 186 238 302 355 431
#     4  12  22  44  72 100 145 186 239 299 360 423
#
# _framework density 23.261578
#
# number of rings (size 3 to 8) (size 9 to 14) (size 15 to 20)
#    0.000    0.308    6.154    3.231    2.154    0.615 
#    0.000    0.000    0.000    0.000    0.000    0.000 
#    0.000    0.000    0.000    0.000    0.000    0.000 
#
# Total GULP energy -72579.445117 kJ/mol
# GULP energy per Si atom -5583.034240 kJ/mol
# Density = 2.320863 g / cm^3
# Si number density = 23.261578 Si / 1000 Ang^3
#
#
#
# Elastic Constant Matrix: (Units=GPa)
#
#
# Indices 1 2 3 4 5 6 
#
# 1 89.4976 32.4971 20.1846 5.3268 35.4740 20.8914
# 2 32.4971 71.9601 14.7145 -22.2714 20.3407 7.9898
# 3 20.1846 14.7145 99.1694 -8.2101 30.9490 12.0795
# 4 5.3268 -22.2714 -8.2101 31.4409 5.2836 0.3051
# 5 35.4740 20.3407 30.9490 5.2836 49.5408 5.9669
# 6 20.8914 7.9898 12.0795 0.3051 5.9669 44.5489
#
#
#
# Elastic Compliance Matrix: (Units=1/GPa)
#
#
# Indices 1 2 3 4 5 6 
#
# 1 0.019632 -0.007650 0.000363 -0.006972 -0.009605 -0.006599
# 2 -0.007650 0.026378 0.002418 0.022155 -0.009138 -0.000727
# 3 0.000363 0.002418 0.013800 0.007008 -0.010258 -0.003020
# 4 -0.006972 0.022155 0.007008 0.052872 -0.013989 -0.001092
# 5 -0.009605 -0.009138 -0.010258 -0.013989 0.038246 0.003898
# 6 -0.006599 -0.000727 -0.003020 -0.001092 0.003898 0.025976
#
#
# Mechanical properties :
#
#
# Convention : Reuss Voigt Hill
#
# Bulk Modulus (GPa) = 19.97130 43.93551 31.95341
# Shear Modulus (GPa) = 24.59030 37.98819 31.28924
#
# Velocity S-wave (km/s) = 3.25487 4.04553 3.67154
# Velocity P-wave (km/s) = 4.76757 6.38360 5.63383
#
# Compressibility (1/GPa) = 0.05007186
#
# Stress axis : x y z
#
# Youngs Moduli (GPa) = 50.93785 37.91110 72.46166
#
# Poissons Ratio (x) = 0.29002 -0.02634
# Poissons Ratio (y) = 0.38968 -0.17519
# Poissons Ratio (z) = -0.01851 -0.09166
#
# Static dielectric constant tensor:
#      x y z
#    x 1.973460 -0.073010 -0.055960 
#    y -0.073010 1.880510 0.006470 
#    z -0.055960 0.006470 1.856330 
# 
# From -- ./inp_files/268402.got.cif
#   From: 2010.05.17/outbox.cif.g08.bks.cpg/sg2_135_cif.got.tgz:268402.got - 2010.06.03 11:33:40.
