data_PCOD9063151
_publ_section_title
;
Structure prediction by ZEFSAII (Michael W. Deem and Ramdas Pophale) SiO2 
 PCOD9063151
Probable space group: P -1
;
_chemical_formula_sum "Si O2"
_cell_formula_units_Z 15
_cell_length_a 9.316706
_cell_length_b 9.434880
_cell_length_c 10.062708
_cell_angle_alpha 75.405263
_cell_angle_beta 64.155155
_cell_angle_gamma 49.457344
_cell_volume 604.305960
_symmetry_space_group_name_H-M "P -1"
_symmetry_group_IT_number 2
_symmetry_cell_setting 'triclinic'
loop_
_space_group_symop_operation_xyz
x,y,z
-x,-y,-z
loop_
_atom_site_type_symbol
_atom_site_label
_atom_site_fract_x
_atom_site_fract_y
_atom_site_fract_z
Si Si1 0.002541 0.928215 0.869505
Si Si2 0.399600 0.286035 0.309472
Si Si3 0.460576 0.854372 0.012334
Si Si4 0.306930 0.554797 0.484229
Si Si5 0.152051 0.534923 0.984209
Si Si6 0.960435 0.575267 0.329624
Si Si7 0.000000 0.000000 0.500000
Si Si8 0.249694 0.014556 0.575464
O O1 0.109671 0.965811 0.708084
O O2 0.113862 0.709722 0.887642
O O3 0.772463 0.043044 0.889336
O O4 0.000000 0.000000 0.000000
O O5 0.503485 0.194396 0.148591
O O6 0.389510 0.456604 0.329555
O O7 0.535331 0.127790 0.403400
O O8 0.159464 0.394537 0.363497
O O9 0.621422 0.656795 0.064999
O O10 0.500000 0.000000 0.000000
O O11 0.500000 0.500000 0.500000
O O12 0.196220 0.471973 0.611374
O O13 0.142320 0.774862 0.486702
O O14 0.070680 0.586823 0.155324
O O15 0.000000 0.500000 0.000000
O O16 0.848127 0.778787 0.388202
O O17 0.787000 0.010722 0.555210
#
# Coordination Sequence:
#
# PCOD9063151 Si02
#       8
#     2   2   2   2   2   2   1   2
#     4  12  24  46  74 107 148 192 243 301 367 439
#     4  11  24  45  75 105 147 192 245 302 370 438
#     4  11  24  45  71 109 148 193 245 299 368 443
#     4  12  27  50  74 108 145 194 253 308 372 438
#     4  11  24  43  71 106 145 189 241 297 363 433
#     4  11  26  47  74 104 149 193 244 309 373 443
#     4  12  28  48  72 108 148 194 250 306 364 446
#     4  12  26  47  75 108 151 196 247 305 372 437
#
# _framework density 24.821864000000001
#
# number of rings (size 3 to 8) (size 9 to 14) (size 15 to 20)
#    0.000    0.533    6.667    0.400    1.867    3.200 
#    2.400    0.000    0.000    0.000    0.000    0.000 
#    0.000    0.000    0.000    0.000    0.000    0.000 
#
# Total GULP energy -83722.673274 kJ/mol
# GULP energy per Si atom -5581.511552 kJ/mol
# Density = 2.476537 g / cm^3
# Si number density = 24.821864 Si / 1000 Ang^3
#
#
#
# Elastic Constant Matrix: (Units=GPa)
#
#
# Indices 1 2 3 4 5 6 
#
# 1 140.5500 58.9933 35.7090 -2.3911 -17.6785 -25.2345
# 2 58.9933 226.8668 60.0133 -5.8082 -19.7208 -1.6559
# 3 35.7090 60.0133 56.7567 8.6611 -17.8304 0.4958
# 4 -2.3911 -5.8082 8.6611 28.5630 9.7136 0.1556
# 5 -17.6785 -19.7208 -17.8304 9.7136 42.4379 5.0005
# 6 -25.2345 -1.6559 0.4958 0.1556 5.0005 63.2556
#
#
#
# Elastic Compliance Matrix: (Units=1/GPa)
#
#
# Indices 1 2 3 4 5 6 
#
# 1 0.009634 -0.001016 -0.005181 0.001994 0.000458 0.003816
# 2 -0.001016 0.006605 -0.007370 0.003951 -0.001345 -0.000078
# 3 -0.005181 -0.007370 0.035713 -0.017448 0.013839 -0.003591
# 4 0.001994 0.003951 -0.017448 0.046556 -0.015574 0.002152
# 5 0.000458 -0.001345 0.013839 -0.015574 0.032805 -0.002516
# 6 0.003816 -0.000078 -0.003591 0.002152 -0.002516 0.017551
#
#
# Mechanical properties :
#
#
# Convention : Reuss Voigt Hill
#
# Bulk Modulus (GPa) = 40.29184 81.51164 60.90174
# Shear Modulus (GPa) = 27.13388 44.81517 35.97452
#
# Velocity S-wave (km/s) = 3.30986 4.25369 3.81111
# Velocity P-wave (km/s) = 5.55649 7.55216 6.62984
#
# Compressibility (1/GPa) = 0.02481892
#
# Stress axis : x y z
#
# Youngs Moduli (GPa) = 103.79438 151.39425 28.00105
#
# Poissons Ratio (x) = 0.15382 0.14507
# Poissons Ratio (y) = 0.10546 0.20637
# Poissons Ratio (z) = 0.53775 1.11576
#
# Static dielectric constant tensor:
#      x y z
#    x 1.925770 -0.014880 -0.025990 
#    y -0.014880 1.898520 -0.052660 
#    z -0.025990 -0.052660 1.992160 
# 
# From -- ./inp_files/378629.got.cif
#   From: 2010.05.17/outbox.cif.g08.bks.cpg/sg2_190_cif.got.tgz:378629.got - 2010.06.03 11:33:40.
