data_PCOD9063876
_publ_section_title
;
Structure prediction by ZEFSAII (Michael W. Deem and Ramdas Pophale) SiO2 
 PCOD9063876
Probable space group: P -1
;
_chemical_formula_sum "Si O2"
_cell_formula_units_Z 14
_cell_length_a 20.953179
_cell_length_b 5.652356
_cell_length_c 10.013644
_cell_angle_alpha 82.220301
_cell_angle_beta 40.350289
_cell_angle_gamma 104.896554
_cell_volume 629.513310
_symmetry_space_group_name_H-M "P -1"
_symmetry_group_IT_number 2
_symmetry_cell_setting 'triclinic'
loop_
_space_group_symop_operation_xyz
x,y,z
-x,-y,-z
loop_
_atom_site_type_symbol
_atom_site_label
_atom_site_fract_x
_atom_site_fract_y
_atom_site_fract_z
Si Si1 0.489865 0.686921 0.886387
Si Si2 0.863364 0.733195 0.214709
Si Si3 0.248953 0.936860 0.508591
Si Si4 0.074253 0.378006 0.440139
Si Si5 0.316004 0.851344 0.143891
Si Si6 0.847675 0.800750 0.928631
Si Si7 0.398036 0.333563 0.785059
O O1 0.435362 0.533787 0.842374
O O2 0.626255 0.952764 0.626102
O O3 0.500000 0.500000 0.000000
O O4 0.403966 0.777170 0.070177
O O5 0.833331 0.415958 0.327784
O O6 0.795351 0.867539 0.381067
O O7 0.829843 0.686200 0.114798
O O8 0.000000 0.000000 0.000000
O O9 0.281589 0.004875 0.294832
O O10 0.190489 0.573677 0.325508
O O11 0.123835 0.336983 0.227272
O O12 0.000000 0.500000 0.500000
O O13 0.974847 0.107532 0.704794
O O14 0.380687 0.047675 0.896906
O O15 0.729701 0.776269 0.067852
O O16 0.500000 0.500000 0.500000
#
# Coordination Sequence:
#
# PCOD9063876 Si02
#       7
#     2   2   2   2   2   2   2
#     4  12  26  48  74 109 151 202 262 316 386 465
#     4  12  29  50  78 114 155 204 260 326 395 464
#     4  12  28  47  80 107 156 205 258 321 391 463
#     4  11  24  44  76 105 144 200 254 320 384 460
#     4  12  26  46  77 109 147 201 264 317 388 465
#     4  11  26  46  73 110 152 195 261 322 390 463
#     4  12  27  45  72 110 156 197 255 319 393 464
#
# _framework density 22.239402999999999
#
# number of rings (size 3 to 8) (size 9 to 14) (size 15 to 20)
#    0.000    0.286    4.286    3.429    8.000    1.714 
#    0.000    0.000    0.000    0.000    0.000    0.000 
#    0.000    0.000    0.000    0.000    0.000    0.000 
#
# Total GULP energy -78144.400097 kJ/mol
# GULP energy per Si atom -5581.742864 kJ/mol
# Density = 2.218878 g / cm^3
# Si number density = 22.239403 Si / 1000 Ang^3
#
#
#
# Elastic Constant Matrix: (Units=GPa)
#
#
# Indices 1 2 3 4 5 6 
#
# 1 119.8801 45.1342 46.0361 22.9820 -4.8160 16.5676
# 2 45.1342 103.0466 49.0589 23.0829 -5.4741 22.8014
# 3 46.0361 49.0589 139.0311 -1.3658 -0.1512 -8.3743
# 4 22.9820 23.0829 -1.3658 85.9185 6.7225 7.4446
# 5 -4.8160 -5.4741 -0.1512 6.7225 59.5087 -4.9496
# 6 16.5676 22.8014 -8.3743 7.4446 -4.9496 53.7516
#
#
#
# Elastic Compliance Matrix: (Units=1/GPa)
#
#
# Indices 1 2 3 4 5 6 
#
# 1 0.011215 -0.002345 -0.003062 -0.002254 0.000726 -0.002560
# 2 -0.002345 0.015159 -0.004961 -0.003090 0.001046 -0.005956
# 3 -0.003062 -0.004961 0.010236 0.001983 -0.000543 0.004318
# 4 -0.002254 -0.003090 0.001983 0.013228 -0.001931 0.000304
# 5 0.000726 0.001046 -0.000543 -0.001931 0.017268 0.001106
# 6 -0.002560 -0.005956 0.004318 0.000304 0.001106 0.022652
#
#
# Mechanical properties :
#
#
# Convention : Reuss Voigt Hill
#
# Bulk Modulus (GPa) = 62.98952 71.37957 67.18454
# Shear Modulus (GPa) = 43.18396 54.61764 48.90080
#
# Velocity S-wave (km/s) = 4.41134 4.96108 4.69426
# Velocity P-wave (km/s) = 7.37099 8.06114 7.72378
#
# Compressibility (1/GPa) = 0.01587566
#
# Stress axis : x y z
#
# Youngs Moduli (GPa) = 89.16431 65.96923 97.69611
#
# Poissons Ratio (x) = 0.15468 0.29913
# Poissons Ratio (y) = 0.20906 0.48462
# Poissons Ratio (z) = 0.27300 0.32724
#
# Static dielectric constant tensor:
#      x y z
#    x 1.732530 -0.042080 0.105270 
#    y -0.042080 1.902390 0.061610 
#    z 0.105270 0.061610 1.484860 
# 
# From -- ./inp_files/28255.got.cif
#   From: 2010.05.17/outbox.cif.g08.bks.cpg/sg2_15_cif.got.tgz:28255.got - 2010.06.03 11:33:40.
