data_PCOD9063104
_publ_section_title
;
Structure prediction by ZEFSAII (Michael W. Deem and Ramdas Pophale) SiO2 
 PCOD9063104
Probable space group: P -1
;
_chemical_formula_sum "Si O2"
_cell_formula_units_Z 16
_cell_length_a 9.661431
_cell_length_b 15.136268
_cell_length_c 8.760936
_cell_angle_alpha 141.853609
_cell_angle_beta 75.303071
_cell_angle_gamma 114.242933
_cell_volume 716.095271
_symmetry_space_group_name_H-M "P -1"
_symmetry_group_IT_number 2
_symmetry_cell_setting 'triclinic'
loop_
_space_group_symop_operation_xyz
x,y,z
-x,-y,-z
loop_
_atom_site_type_symbol
_atom_site_label
_atom_site_fract_x
_atom_site_fract_y
_atom_site_fract_z
Si Si1 0.677110 0.110531 0.613987
Si Si2 0.858779 0.898307 0.295571
Si Si3 0.629757 0.835423 0.767990
Si Si4 0.102625 0.620118 0.517445
Si Si5 0.170770 0.551781 0.086300
Si Si6 0.326612 0.863175 0.997056
Si Si7 0.914890 0.829397 0.853624
Si Si8 0.633957 0.639288 0.227781
O O1 0.725653 0.271771 0.734033
O O2 0.500000 0.000000 0.500000
O O3 0.779530 0.012313 0.403512
O O4 0.717598 0.154800 0.839488
O O5 0.731546 0.771181 0.260993
O O6 0.911708 0.827388 0.036589
O O7 0.000000 0.000000 0.500000
O O8 0.502628 0.875240 0.953698
O O9 0.744886 0.788273 0.777741
O O10 0.570356 0.711293 0.482061
O O11 0.705905 0.991097 0.862057
O O12 0.155450 0.539690 0.256064
O O13 0.241103 0.728453 0.724519
O O14 0.000000 0.500000 0.500000
O O15 0.004401 0.721322 0.623906
O O16 0.249061 0.437716 0.845963
O O17 0.000000 0.500000 0.000000
O O18 0.000000 0.000000 0.000000
O O19 0.500000 0.500000 0.000000
#
# Coordination Sequence:
#
# PCOD9063104 Si02
#       8
#     2   2   2   2   2   2   2   2
#     4  12  25  43  69 102 135 179 229 281 339 409
#     4  12  24  43  69 101 137 178 227 279 340 409
#     4  11  24  43  70  99 136 180 225 285 334 412
#     4  12  25  45  71 100 141 182 223 282 348 406
#     4  12  26  45  68 100 141 179 226 279 343 406
#     4  11  24  44  69 100 136 178 228 277 351 398
#     4  12  23  42  68 104 134 177 234 281 334 404
#     4  12  25  46  68 100 137 182 226 279 343 404
#
# _framework density 22.343397
#
# number of rings (size 3 to 8) (size 9 to 14) (size 15 to 20)
#    0.000    0.250    2.500    7.500    3.500    0.000 
#    0.000    1.875    0.000    0.000    0.000    0.000 
#    0.000    0.000    0.000    0.000    0.000    0.000 
#
# Total GULP energy -89559.255335 kJ/mol
# GULP energy per Si atom -5597.453458 kJ/mol
# Density = 2.229254 g / cm^3
# Si number density = 22.343397 Si / 1000 Ang^3
#
#
#
# Elastic Constant Matrix: (Units=GPa)
#
#
# Indices 1 2 3 4 5 6 
#
# 1 65.9043 -1.8492 -9.8086 -0.1824 7.5850 -3.2416
# 2 -1.8492 89.4490 10.9038 12.6030 3.4489 5.1585
# 3 -9.8086 10.9038 82.1088 -10.8885 12.3583 7.8198
# 4 -0.1824 12.6030 -10.8885 40.0026 -6.2086 -4.5366
# 5 7.5850 3.4489 12.3583 -6.2086 52.4467 2.1138
# 6 -3.2416 5.1585 7.8198 -4.5366 2.1138 22.0909
#
#
#
# Elastic Compliance Matrix: (Units=1/GPa)
#
#
# Indices 1 2 3 4 5 6 
#
# 1 0.015926 -0.000005 0.002208 0.000451 -0.002847 0.001921
# 2 -0.000005 0.012304 -0.001857 -0.004865 -0.000820 -0.003137
# 3 0.002208 -0.001857 0.013903 0.003568 -0.002924 -0.003151
# 4 0.000451 -0.004865 0.003568 0.028533 0.002568 0.005553
# 5 -0.002847 -0.000820 -0.002924 0.002568 0.020551 -0.000630
# 6 0.001921 -0.003137 -0.003151 0.005553 -0.000630 0.048598
#
#
# Mechanical properties :
#
#
# Convention : Reuss Voigt Hill
#
# Bulk Modulus (GPa) = 23.35075 26.21712 24.78393
# Shear Modulus (GPa) = 32.59538 38.78914 35.69226
#
# Velocity S-wave (km/s) = 3.82362 4.17111 4.00114
# Velocity P-wave (km/s) = 5.47421 5.91242 5.69753
#
# Compressibility (1/GPa) = 0.04282517
#
# Stress axis : x y z
#
# Youngs Moduli (GPa) = 62.79227 81.27525 71.92799
#
# Poissons Ratio (x) = 0.00037 -0.15885
# Poissons Ratio (y) = 0.00029 0.13360
# Poissons Ratio (z) = -0.13867 0.15096
#
# Static dielectric constant tensor:
#      x y z
#    x 1.836680 0.000570 0.011730 
#    y 0.000570 1.796020 0.011580 
#    z 0.011730 0.011580 1.774260 
# 
# From -- ./inp_files/209296.got.cif
#   From: 2010.05.17/outbox.cif.g08.bks.cpg/sg2_105_cif.got.tgz:209296.got - 2010.06.03 11:33:40.
