data_PCOD9063367
_publ_section_title
;
Structure prediction by ZEFSAII (Michael W. Deem and Ramdas Pophale) SiO2 
 PCOD9063367
Probable space group: P -1
;
_chemical_formula_sum "Si O2"
_cell_formula_units_Z 16
_cell_length_a 22.098875
_cell_length_b 8.857501
_cell_length_c 5.403822
_cell_angle_alpha 100.898845
_cell_angle_beta 121.147517
_cell_angle_gamma 46.288007
_cell_volume 629.645397
_symmetry_space_group_name_H-M "P -1"
_symmetry_group_IT_number 2
_symmetry_cell_setting 'triclinic'
loop_
_space_group_symop_operation_xyz
x,y,z
-x,-y,-z
loop_
_atom_site_type_symbol
_atom_site_label
_atom_site_fract_x
_atom_site_fract_y
_atom_site_fract_z
Si Si1 0.346312 0.137302 0.776253
Si Si2 0.654738 0.355358 0.679374
Si Si3 0.297456 0.896987 0.798947
Si Si4 0.523689 0.825112 0.682271
Si Si5 0.909646 0.754929 0.326652
Si Si6 0.840931 0.296895 0.108003
Si Si7 0.841102 0.578859 0.874172
Si Si8 0.987266 0.161143 0.776013
O O1 0.243707 0.315790 0.471878
O O2 0.330497 0.024293 0.901488
O O3 0.430691 0.949735 0.705615
O O4 0.385298 0.240529 0.988479
O O5 0.663700 0.246033 0.411514
O O6 0.559083 0.614306 0.566098
O O7 0.661726 0.245199 0.910551
O O8 0.749142 0.325629 0.888881
O O9 0.175528 0.076334 0.601454
O O10 0.500000 0.000000 0.500000
O O11 0.000000 0.500000 0.500000
O O12 0.957264 0.828563 0.322900
O O13 0.846854 0.748577 0.997934
O O14 0.891464 0.231394 0.463392
O O15 0.817214 0.505220 0.031736
O O16 0.929008 0.091388 0.056610
O O17 0.947219 0.353552 0.931783
#
# Coordination Sequence:
#
# PCOD9063367 Si02
#       8
#     2   2   2   2   2   2   2   2
#     4  11  28  50  81 114 153 197 263 320 399 468
#     4  12  29  50  82 111 163 205 258 327 395 468
#     4  12  30  52  76 117 160 210 257 321 394 472
#     4  11  28  53  85 117 149 198 260 329 397 486
#     4  12  25  45  71 108 155 211 266 313 379 456
#     4  11  25  42  69 109 152 204 259 322 382 463
#     4  12  25  43  77 106 150 208 256 331 384 460
#     4  11  24  44  66 108 151 205 265 319 384 458
#
# _framework density 25.41113
#
# number of rings (size 3 to 8) (size 9 to 14) (size 15 to 20)
#    0.000    0.500    2.500    3.750   14.000    1.000 
#    0.000    0.000    0.000    0.000    0.000    0.000 
#    0.000    0.000    0.000    0.000    0.000    0.000 
#
# Total GULP energy -89727.104664 kJ/mol
# GULP energy per Si atom -5607.944042 kJ/mol
# Density = 2.535329 g / cm^3
# Si number density = 25.411130 Si / 1000 Ang^3
#
#
#
# Elastic Constant Matrix: (Units=GPa)
#
#
# Indices 1 2 3 4 5 6 
#
# 1 85.7680 24.9043 10.7538 3.2623 -2.3172 -0.0235
# 2 24.9043 174.1372 32.0291 13.7641 -13.2335 -10.6678
# 3 10.7538 32.0291 73.8100 4.0716 -11.5165 2.0619
# 4 3.2623 13.7641 4.0716 46.4830 2.3478 -5.3439
# 5 -2.3172 -13.2335 -11.5165 2.3478 37.7961 0.6111
# 6 -0.0235 -10.6678 2.0619 -5.3439 0.6111 39.2562
#
#
#
# Elastic Compliance Matrix: (Units=1/GPa)
#
#
# Indices 1 2 3 4 5 6 
#
# 1 0.012259 -0.001557 -0.001096 -0.000345 -0.000099 -0.000404
# 2 -0.001557 0.006761 -0.002419 -0.001564 0.001604 0.001726
# 3 -0.001096 -0.002419 0.015462 -0.000948 0.003883 -0.001660
# 4 -0.000345 -0.001564 -0.000948 0.022513 -0.002300 0.002725
# 5 -0.000099 0.001604 0.003883 -0.002300 0.028348 -0.000522
# 6 -0.000404 0.001726 -0.001660 0.002725 -0.000522 0.026409
#
#
# Mechanical properties :
#
#
# Convention : Reuss Voigt Hill
#
# Bulk Modulus (GPa) = 41.08497 52.12105 46.60301
# Shear Modulus (GPa) = 38.45917 42.44226 40.45071
#
# Velocity S-wave (km/s) = 3.89456 4.09127 3.99413
# Velocity P-wave (km/s) = 6.03545 6.54780 6.29684
#
# Compressibility (1/GPa) = 0.02433980
#
# Stress axis : x y z
#
# Youngs Moduli (GPa) = 81.57214 147.89956 64.67416
#
# Poissons Ratio (x) = 0.23024 0.07087
# Poissons Ratio (y) = 0.12698 0.15644
# Poissons Ratio (z) = 0.08939 0.35775
#
# Static dielectric constant tensor:
#      x y z
#    x 1.992310 -0.026810 -0.027730 
#    y -0.026810 2.066170 0.025680 
#    z -0.027730 0.025680 2.025260 
# 
# From -- ./inp_files/117187.got.cif
#   From: 2010.05.17/outbox.cif.g08.bks.cpg/sg2_59_cif.got.tgz:117187.got - 2010.06.03 11:33:40.
