data_PCOD9063285
_publ_section_title
;
Structure prediction by ZEFSAII (Michael W. Deem and Ramdas Pophale) SiO2 
 PCOD9063285
Probable space group: P -1
;
_chemical_formula_sum "Si O2"
_cell_formula_units_Z 16
_cell_length_a 16.063442
_cell_length_b 11.873571
_cell_length_c 9.636393
_cell_angle_alpha 130.620907
_cell_angle_beta 126.537707
_cell_angle_gamma 26.963616
_cell_volume 631.951485
_symmetry_space_group_name_H-M "P -1"
_symmetry_group_IT_number 2
_symmetry_cell_setting 'triclinic'
loop_
_space_group_symop_operation_xyz
x,y,z
-x,-y,-z
loop_
_atom_site_type_symbol
_atom_site_label
_atom_site_fract_x
_atom_site_fract_y
_atom_site_fract_z
Si Si1 0.078029 0.298038 0.535513
Si Si2 0.018459 0.153335 0.146669
Si Si3 0.081131 0.230566 0.784089
Si Si4 0.298731 0.677133 0.474273
Si Si5 0.204200 0.534633 0.083808
Si Si6 0.420951 0.978241 0.061460
Si Si7 0.573697 0.246016 0.863958
Si Si8 0.520903 0.786108 0.535888
O O1 0.006163 0.226703 0.348501
O O2 0.010955 0.389040 0.699440
O O3 0.000000 0.500000 0.500000
O O4 0.301416 0.032723 0.553226
O O5 0.212731 0.984750 0.148013
O O6 0.869279 0.395544 0.088172
O O7 0.000000 0.000000 0.000000
O O8 0.933067 0.373540 0.869095
O O9 0.171051 0.963212 0.623612
O O10 0.239867 0.145937 0.934837
O O11 0.500000 0.500000 0.500000
O O12 0.221197 0.685320 0.269075
O O13 0.344912 0.493454 0.484002
O O14 0.406839 0.228830 0.038405
O O15 0.420780 0.122796 0.275503
O O16 0.451451 0.802767 0.054223
O O17 0.480407 0.253325 0.659697
O O18 0.500000 0.500000 0.000000
#
# Coordination Sequence:
#
# PCOD9063285 Si02
#       8
#     2   2   2   2   2   2   2   2
#     4  11  25  49  74 113 164 204 258 331 402 477
#     4  11  24  43  74 114 153 200 265 324 390 472
#     4  12  26  51  84 116 158 210 275 329 399 488
#     4  12  24  49  81 113 158 212 267 334 398 476
#     4  12  26  47  81 116 157 209 273 329 400 472
#     4  12  25  50  78 113 164 207 266 334 399 483
#     4  11  24  46  79 113 159 214 264 325 400 475
#     4  11  26  47  80 114 157 215 263 328 414 472
#
# _framework density 25.318397000000001
#
# number of rings (size 3 to 8) (size 9 to 14) (size 15 to 20)
#    0.000    0.500    3.750    3.750    1.750    3.000 
#    9.000    3.125    2.750    0.000    0.000    0.000 
#    0.000    0.000    0.000    0.000    0.000    0.000 
#
# Total GULP energy -89759.515700 kJ/mol
# GULP energy per Si atom -5609.969731 kJ/mol
# Density = 2.526077 g / cm^3
# Si number density = 25.318397 Si / 1000 Ang^3
#
#
#
# Elastic Constant Matrix: (Units=GPa)
#
#
# Indices 1 2 3 4 5 6 
#
# 1 117.8311 49.1733 62.4935 -6.6194 1.8979 -9.4924
# 2 49.1733 110.4520 53.2378 7.0830 10.2053 14.2969
# 3 62.4935 53.2378 203.8038 -9.7029 25.9305 -2.4959
# 4 -6.6194 7.0830 -9.7029 54.3147 5.9183 6.1382
# 5 1.8979 10.2053 25.9305 5.9183 46.7260 0.4075
# 6 -9.4924 14.2969 -2.4959 6.1382 0.4075 51.3205
#
#
#
# Elastic Compliance Matrix: (Units=1/GPa)
#
#
# Indices 1 2 3 4 5 6 
#
# 1 0.012193 -0.004837 -0.002619 0.001071 0.001850 0.003333
# 2 -0.004837 0.012918 -0.001874 -0.001977 -0.001297 -0.004338
# 3 -0.002619 -0.001874 0.006703 0.001468 -0.003392 0.000215
# 4 0.001071 -0.001977 0.001468 0.019545 -0.002889 -0.001495
# 5 0.001850 -0.001297 -0.003392 -0.002889 0.023852 0.000695
# 6 0.003333 -0.004338 0.000215 -0.001495 0.000695 0.021494
#
#
# Mechanical properties :
#
#
# Convention : Reuss Voigt Hill
#
# Bulk Modulus (GPa) = 76.01255 84.65514 80.33384
# Shear Modulus (GPa) = 41.75358 48.28438 45.01898
#
# Velocity S-wave (km/s) = 4.06537 4.37176 4.22134
# Velocity P-wave (km/s) = 7.21970 7.68061 7.45372
#
# Compressibility (1/GPa) = 0.01315572
#
# Stress axis : x y z
#
# Youngs Moduli (GPa) = 82.01352 77.40935 149.18122
#
# Poissons Ratio (x) = 0.37443 0.39069
# Poissons Ratio (y) = 0.39670 0.27950
# Poissons Ratio (z) = 0.21478 0.14503
#
# Static dielectric constant tensor:
#      x y z
#    x 1.992740 0.023990 -0.011670 
#    y 0.023990 2.056000 0.022760 
#    z -0.011670 0.022760 1.982630 
# 
# From -- ./inp_files/333813.got.cif
#   From: 2010.05.17/outbox.cif.g08.bks.cpg/sg2_167_cif.got.tgz:333813.got - 2010.06.03 11:33:40.
