data_PCOD9063758
_publ_section_title
;
Structure prediction by ZEFSAII (Michael W. Deem and Ramdas Pophale) SiO2 
 PCOD9063758
Probable space group: P -1
;
_chemical_formula_sum "Si O2"
_cell_formula_units_Z 15
_cell_length_a 11.650067
_cell_length_b 7.470429
_cell_length_c 9.751408
_cell_angle_alpha 111.406336
_cell_angle_beta 122.407650
_cell_angle_gamma 55.926573
_cell_volume 590.943834
_symmetry_space_group_name_H-M "P -1"
_symmetry_group_IT_number 2
_symmetry_cell_setting 'triclinic'
loop_
_space_group_symop_operation_xyz
x,y,z
-x,-y,-z
loop_
_atom_site_type_symbol
_atom_site_label
_atom_site_fract_x
_atom_site_fract_y
_atom_site_fract_z
Si Si1 0.349020 0.171746 0.118323
Si Si2 0.092886 0.592666 0.672910
Si Si3 0.635339 0.032658 0.662266
Si Si4 0.320449 0.942184 0.766458
Si Si5 0.569537 0.531071 0.194596
Si Si6 0.099085 0.924277 0.296352
Si Si7 0.091323 0.598037 0.998657
Si Si8 0.000000 0.000000 0.500000
O O1 0.533823 0.055097 0.212835
O O2 0.269230 0.421653 0.090832
O O3 0.288204 0.143022 0.217741
O O4 0.309666 0.047247 0.938752
O O5 0.273878 0.454757 0.728925
O O6 0.000000 0.500000 0.500000
O O7 0.062380 0.612172 0.821939
O O8 0.039861 0.847886 0.666012
O O9 0.556076 0.263109 0.751144
O O10 0.760477 0.032560 0.638639
O O11 0.500000 0.000000 0.500000
O O12 0.378254 0.687790 0.749472
O O13 0.153022 0.048927 0.627146
O O14 0.500000 0.500000 0.000000
O O15 0.060505 0.823480 0.112257
O O16 0.107410 0.792371 0.400342
O O17 0.000000 0.500000 0.000000
#
# Coordination Sequence:
#
# PCOD9063758 Si02
#       8
#     2   2   2   2   2   2   2   1
#     4  11  25  45  75 110 156 194 260 315 394 458
#     4  12  28  48  78 114 156 208 258 318 391 470
#     4  12  26  47  76 113 153 199 258 326 390 464
#     4  11  24  44  73 108 149 202 254 315 380 465
#     4  12  24  47  75 107 145 203 256 304 387 470
#     4  12  27  49  75 108 160 202 264 319 397 461
#     4  12  28  46  78 115 158 205 267 323 399 467
#     4  12  26  46  74 110 146 208 258 324 384 458
#
# _framework density 25.383122
#
# number of rings (size 3 to 8) (size 9 to 14) (size 15 to 20)
#    0.000    0.267    2.667    6.000    5.600    1.067 
#    0.000    2.667    0.000    0.000    0.000    0.000 
#    0.000    0.000    0.000    0.000    0.000    0.000 
#
# Total GULP energy -83920.232400 kJ/mol
# GULP energy per Si atom -5594.682160 kJ/mol
# Density = 2.532535 g / cm^3
# Si number density = 25.383122 Si / 1000 Ang^3
#
#
#
# Elastic Constant Matrix: (Units=GPa)
#
#
# Indices 1 2 3 4 5 6 
#
# 1 165.3046 10.4006 78.7061 -7.2661 2.1125 -26.1415
# 2 10.4006 106.7031 36.5445 -3.6603 1.5476 -2.2214
# 3 78.7061 36.5445 165.6549 5.5899 0.1180 -4.4694
# 4 -7.2661 -3.6603 5.5899 40.8487 -5.4470 4.9615
# 5 2.1125 1.5476 0.1180 -5.4470 53.2436 -2.6867
# 6 -26.1415 -2.2214 -4.4694 4.9615 -2.6867 37.1316
#
#
#
# Elastic Compliance Matrix: (Units=1/GPa)
#
#
# Indices 1 2 3 4 5 6 
#
# 1 0.009051 0.000788 -0.004375 0.001599 0.000078 0.005685
# 2 0.000788 0.010270 -0.002667 0.001325 -0.000155 0.000660
# 3 -0.004375 -0.002667 0.008719 -0.001985 -0.000069 -0.001930
# 4 0.001599 0.001325 -0.001985 0.025758 0.002421 -0.002300
# 5 0.000078 -0.000155 -0.000069 0.002421 0.019086 0.001095
# 6 0.005685 0.000660 -0.001930 -0.002300 0.001095 0.031127
#
#
# Mechanical properties :
#
#
# Convention : Reuss Voigt Hill
#
# Bulk Modulus (GPa) = 64.38180 76.55168 70.46674
# Shear Modulus (GPa) = 41.08629 47.04553 44.06591
#
# Velocity S-wave (km/s) = 4.02760 4.30980 4.17109
# Velocity P-wave (km/s) = 6.85915 7.41551 7.14275
#
# Compressibility (1/GPa) = 0.01553234
#
# Stress axis : x y z
#
# Youngs Moduli (GPa) = 110.48299 97.37331 114.69804
#
# Poissons Ratio (x) = -0.07675 0.50180
# Poissons Ratio (y) = -0.08708 0.30588
# Poissons Ratio (z) = 0.48335 0.25968
#
# Static dielectric constant tensor:
#      x y z
#    x 2.455950 0.485200 -0.601840 
#    y 0.485200 2.535640 -0.673400 
#    z -0.601840 -0.673400 2.860100 
# 
# From -- ./inp_files/245644.got.cif
#   From: 2010.05.17/outbox.cif.g08.bks.cpg/sg2_123_cif.got.tgz:245644.got - 2010.06.03 11:33:40.
