data_PCOD9063368
_publ_section_title
;
Structure prediction by ZEFSAII (Michael W. Deem and Ramdas Pophale) SiO2 
 PCOD9063368
Probable space group: P -1
;
_chemical_formula_sum "Si O2"
_cell_formula_units_Z 12
_cell_length_a 9.124829
_cell_length_b 18.988599
_cell_length_c 5.123424
_cell_angle_alpha 96.823571
_cell_angle_beta 79.550895
_cell_angle_gamma 37.754436
_cell_volume 481.178127
_symmetry_space_group_name_H-M "P -1"
_symmetry_group_IT_number 2
_symmetry_cell_setting 'triclinic'
loop_
_space_group_symop_operation_xyz
x,y,z
-x,-y,-z
loop_
_atom_site_type_symbol
_atom_site_label
_atom_site_fract_x
_atom_site_fract_y
_atom_site_fract_z
Si Si1 0.463017 0.930965 0.425474
Si Si2 0.781696 0.767649 0.747714
Si Si3 0.085144 0.897098 0.082308
Si Si4 0.207045 0.483697 0.546353
Si Si5 0.758382 0.296738 0.427256
Si Si6 0.558198 0.665060 0.100745
O O1 0.647060 0.817185 0.528912
O O2 0.500000 0.000000 0.500000
O O3 0.158685 0.029437 0.621998
O O4 0.563574 0.876566 0.078797
O O5 0.941193 0.634482 0.727629
O O6 0.009385 0.738474 0.654966
O O7 0.358339 0.803014 0.116102
O O8 0.147840 0.809380 0.815721
O O9 0.000000 0.000000 0.000000
O O10 0.469486 0.431393 0.457185
O O11 0.286714 0.394888 0.703304
O O12 0.237901 0.438289 0.233246
O O13 0.662213 0.309630 0.751069
#
# Coordination Sequence:
#
# PCOD9063368 Si02
#       6
#     2   2   2   2   2   2
#     4  12  26  41  62  94 137 163 203 262 320 371
#     4  12  23  38  66  93 134 164 201 259 329 370
#     4  11  24  44  66  92 125 174 216 250 310 381
#     4   9  20  36  61  95 125 161 210 254 318 367
#     4   9  21  37  64  94 125 164 209 266 298 370
#     4   9  20  38  61  90 125 156 215 263 297 359
#
# _framework density 24.938789
#
# number of rings (size 3 to 8) (size 9 to 14) (size 15 to 20)
#    1.000    0.667    1.667    3.000    4.667    1.333 
#    0.000    0.000    0.000   14.000    0.000    0.000 
#    0.000    0.000    0.000    0.000    0.000    0.000 
#
# Total GULP energy -67157.728506 kJ/mol
# GULP energy per Si atom -5596.477376 kJ/mol
# Density = 2.488203 g / cm^3
# Si number density = 24.938789 Si / 1000 Ang^3
#
#
#
# Elastic Constant Matrix: (Units=GPa)
#
#
# Indices 1 2 3 4 5 6 
#
# 1 79.8545 25.1837 11.6258 7.9623 -13.0795 -1.1675
# 2 25.1837 150.1134 30.7234 5.9774 -6.3759 -9.9510
# 3 11.6258 30.7234 128.6048 -3.9797 -7.6107 1.1209
# 4 7.9623 5.9774 -3.9797 48.5331 -10.8761 0.5199
# 5 -13.0795 -6.3759 -7.6107 -10.8761 23.2673 8.1961
# 6 -1.1675 -9.9510 1.1209 0.5199 8.1961 40.9116
#
#
#
# Elastic Compliance Matrix: (Units=1/GPa)
#
#
# Indices 1 2 3 4 5 6 
#
# 1 0.014551 -0.002133 -0.000334 -0.000362 0.007906 -0.001674
# 2 -0.002133 0.007499 -0.001693 -0.000919 -0.000828 0.001987
# 3 -0.000334 -0.001693 0.008478 0.001738 0.003412 -0.001359
# 4 -0.000362 -0.000919 0.001738 0.023700 0.012262 -0.003039
# 5 0.007906 -0.000828 0.003412 0.012262 0.058233 -0.011891
# 6 -0.001674 0.001987 -0.001359 -0.003039 -0.011891 0.027337
#
#
# Mechanical properties :
#
#
# Convention : Reuss Voigt Hill
#
# Bulk Modulus (GPa) = 45.03372 54.84874 49.94123
# Shear Modulus (GPa) = 32.14970 41.94504 37.04737
#
# Velocity S-wave (km/s) = 3.59436 4.10557 3.85844
# Velocity P-wave (km/s) = 5.94330 6.67198 6.31816
#
# Compressibility (1/GPa) = 0.02220558
#
# Stress axis : x y z
#
# Youngs Moduli (GPa) = 68.72450 133.34563 117.95058
#
# Poissons Ratio (x) = 0.28448 0.03945
# Poissons Ratio (y) = 0.14662 0.19975
# Poissons Ratio (z) = 0.02299 0.22582
#
# Static dielectric constant tensor:
#      x y z
#    x 2.025780 -0.000990 -0.032460 
#    y -0.000990 1.995100 -0.012170 
#    z -0.032460 -0.012170 1.902960 
# 
# From -- ./inp_files/61397.got.cif
#   From: 2010.05.17/outbox.cif.g08.bks.cpg/sg2_31_cif.got.tgz:61397.got - 2010.06.03 11:33:40.
