data_PCOD9063938
_publ_section_title
;
Structure prediction by ZEFSAII (Michael W. Deem and Ramdas Pophale) SiO2 
 PCOD9063938
Probable space group: P -1
;
_chemical_formula_sum "Si O2"
_cell_formula_units_Z 14
_cell_length_a 12.760779
_cell_length_b 12.377140
_cell_length_c 20.652724
_cell_angle_alpha 21.549018
_cell_angle_beta 38.274243
_cell_angle_gamma 50.549354
_cell_volume 674.685173
_symmetry_space_group_name_H-M "P -1"
_symmetry_group_IT_number 2
_symmetry_cell_setting 'triclinic'
loop_
_space_group_symop_operation_xyz
x,y,z
-x,-y,-z
loop_
_atom_site_type_symbol
_atom_site_label
_atom_site_fract_x
_atom_site_fract_y
_atom_site_fract_z
Si Si1 0.456594 0.258094 0.722357
Si Si2 0.999304 0.849333 0.788043
Si Si3 0.437895 0.590778 0.049153
Si Si4 0.571114 0.733458 0.632210
Si Si5 0.177031 0.348968 0.711258
Si Si6 0.009971 0.153818 0.479703
Si Si7 0.357486 0.155840 0.967879
O O1 0.322395 0.380938 0.680112
O O2 0.660271 0.541180 0.484281
O O3 0.339506 0.120912 0.919796
O O4 0.482112 0.965045 0.835353
O O5 0.843974 0.929877 0.855487
O O6 0.205739 0.110419 0.559754
O O7 0.961590 0.889687 0.707719
O O8 0.000000 0.500000 0.000000
O O9 0.496794 0.444559 0.165725
O O10 0.217008 0.407531 0.253627
O O11 0.500000 0.500000 0.000000
O O12 0.500000 0.000000 0.500000
O O13 0.480378 0.499150 0.747630
O O14 0.105633 0.629112 0.587088
O O15 0.000000 0.000000 0.000000
O O16 0.000000 0.000000 0.500000
O O17 0.500000 0.000000 0.000000
#
# Coordination Sequence:
#
# PCOD9063938 Si02
#       7
#     2   2   2   2   2   2   2
#     4  11  25  44  70 105 141 185 242 291 354 435
#     4  11  26  47  71 107 144 187 247 292 353 439
#     4  11  24  45  71 102 140 183 241 293 352 433
#     4  11  25  45  71 107 141 187 240 293 363 421
#     4  11  24  45  67 102 144 183 234 289 361 418
#     4  11  25  43  71 103 139 185 236 295 353 418
#     4  12  25  45  74 101 146 191 236 300 360 426
#
# _framework density 20.750419000000001
#
# number of rings (size 3 to 8) (size 9 to 14) (size 15 to 20)
#    0.000    0.857    4.286    1.714    4.000    4.000 
#    0.000    0.000    0.000    0.000    0.000    0.000 
#    0.000    0.000    0.000    0.000    0.000    0.000 
#
# Total GULP energy -77940.066712 kJ/mol
# GULP energy per Si atom -5567.147622 kJ/mol
# Density = 2.070319 g / cm^3
# Si number density = 20.750419 Si / 1000 Ang^3
#
#
#
# Elastic Constant Matrix: (Units=GPa)
#
#
# Indices 1 2 3 4 5 6 
#
# 1 103.5590 58.4526 37.3490 -2.1367 20.8248 -25.3293
# 2 58.4526 126.7050 44.3122 8.5178 14.5440 -13.2546
# 3 37.3490 44.3122 105.5284 3.5104 -2.6750 -13.9372
# 4 -2.1367 8.5178 3.5104 44.6379 -11.3865 -2.4029
# 5 20.8248 14.5440 -2.6750 -11.3865 50.9317 0.6075
# 6 -25.3293 -13.2546 -13.9372 -2.4029 0.6075 45.3165
#
#
#
# Elastic Compliance Matrix: (Units=1/GPa)
#
#
# Indices 1 2 3 4 5 6 
#
# 1 0.016449 -0.005355 -0.002831 0.001080 -0.005186 0.006884
# 2 -0.005355 0.011794 -0.003095 -0.002796 -0.001958 -0.000618
# 3 -0.002831 -0.003095 0.011993 0.000268 0.002717 0.001179
# 4 0.001080 -0.002796 0.000268 0.024515 0.005839 0.001090
# 5 -0.005186 -0.001958 0.002717 0.005839 0.023793 -0.002645
# 6 0.006884 -0.000618 0.001179 0.001090 -0.002645 0.026190
#
#
# Mechanical properties :
#
#
# Convention : Reuss Voigt Hill
#
# Bulk Modulus (GPa) = 56.58450 68.44667 62.51559
# Shear Modulus (GPa) = 34.91928 41.22246 38.07087
#
# Velocity S-wave (km/s) = 4.10667 4.46195 4.28799
# Velocity P-wave (km/s) = 7.05795 7.72027 7.39653
#
# Compressibility (1/GPa) = 0.01767268
#
# Stress axis : x y z
#
# Youngs Moduli (GPa) = 60.79414 84.79232 83.37960
#
# Poissons Ratio (x) = 0.45410 0.23606
# Poissons Ratio (y) = 0.32558 0.25806
# Poissons Ratio (z) = 0.17211 0.26243
#
# Static dielectric constant tensor:
#      x y z
#    x 1.927130 0.036880 0.198820 
#    y 0.036880 1.700670 0.076470 
#    z 0.198820 0.076470 1.922030 
# 
# From -- ./inp_files/595028.got.cif
#   From: 2010.05.17/outbox.cif.g08.bks.cpg/sg2_298_cif.got.tgz:595028.got - 2010.06.03 11:33:40.
