data_PCOD9063062
_publ_section_title
;
Structure prediction by ZEFSAII (Michael W. Deem and Ramdas Pophale) SiO2 
 PCOD9063062
Probable space group: P -1
;
_chemical_formula_sum "Si O2"
_cell_formula_units_Z 16
_cell_length_a 20.515788
_cell_length_b 8.986940
_cell_length_c 9.296388
_cell_angle_alpha 75.295144
_cell_angle_beta 127.065452
_cell_angle_gamma 143.170703
_cell_volume 720.149499
_symmetry_space_group_name_H-M "P -1"
_symmetry_group_IT_number 2
_symmetry_cell_setting 'triclinic'
loop_
_space_group_symop_operation_xyz
x,y,z
-x,-y,-z
loop_
_atom_site_type_symbol
_atom_site_label
_atom_site_fract_x
_atom_site_fract_y
_atom_site_fract_z
Si Si1 0.962254 0.118717 0.443347
Si Si2 0.740594 0.654782 0.818532
Si Si3 0.566994 0.856084 0.958870
Si Si4 0.065477 0.763861 0.124650
Si Si5 0.851183 0.507642 0.135899
Si Si6 0.382233 0.721505 0.506097
Si Si7 0.359836 0.352226 0.021626
Si Si8 0.867636 0.440255 0.678920
O O1 0.006875 0.235043 0.635401
O O2 0.076195 0.403273 0.433312
O O3 0.000000 0.000000 0.500000
O O4 0.794159 0.872115 0.221035
O O5 0.656637 0.478649 0.603587
O O6 0.876427 0.971472 0.862792
O O7 0.787126 0.569007 0.979136
O O8 0.663956 0.634015 0.848511
O O9 0.452174 0.779518 0.735168
O O10 0.486557 0.659979 0.040709
O O11 0.599135 0.760376 0.922406
O O12 0.717180 0.193429 0.100955
O O13 0.180735 0.814847 0.318992
O O14 0.919093 0.524204 0.087866
O O15 0.016326 0.665748 0.919415
O O16 0.244412 0.616474 0.383965
O O17 0.500000 0.000000 0.500000
#
# Coordination Sequence:
#
# PCOD9063062 Si02
#       8
#     2   2   2   2   2   2   2   2
#     4  12  24  43  75 106 136 180 237 288 345 412
#     4  12  25  42  72 102 137 180 232 284 345 407
#     4  11  27  49  70  98 147 186 233 280 348 420
#     4  11  24  43  70 103 141 172 232 296 344 401
#     4  12  25  45  73 105 138 184 229 291 347 412
#     4  12  26  45  69 100 139 189 232 280 345 420
#     4  11  26  48  71 103 141 186 228 292 345 410
#     4  11  24  43  70 101 138 182 226 292 346 404
#
# _framework density 22.217607999999998
#
# number of rings (size 3 to 8) (size 9 to 14) (size 15 to 20)
#    0.000    0.500    5.000    1.875    7.000    4.000 
#    2.250    0.000    0.000    0.000    0.000    0.000 
#    0.000    0.000    0.000    0.000    0.000    0.000 
#
# Total GULP energy -89401.041688 kJ/mol
# GULP energy per Si atom -5587.565105 kJ/mol
# Density = 2.216704 g / cm^3
# Si number density = 22.217608 Si / 1000 Ang^3
#
#
#
# Elastic Constant Matrix: (Units=GPa)
#
#
# Indices 1 2 3 4 5 6 
#
# 1 83.5529 14.1116 14.1457 -1.9393 13.7215 3.0329
# 2 14.1116 113.0981 8.7483 2.7390 8.4057 -6.5201
# 3 14.1457 8.7483 37.3987 -3.3426 6.4519 -5.9221
# 4 -1.9393 2.7390 -3.3426 28.9746 -4.9845 0.2192
# 5 13.7215 8.4057 6.4519 -4.9845 25.6650 -7.1285
# 6 3.0329 -6.5201 -5.9221 0.2192 -7.1285 31.5728
#
#
#
# Elastic Compliance Matrix: (Units=1/GPa)
#
#
# Indices 1 2 3 4 5 6 
#
# 1 0.014279 -0.001097 -0.004583 -0.000712 -0.007407 -0.004125
# 2 -0.001097 0.009347 -0.001338 -0.001475 -0.002055 0.001331
# 3 -0.004583 -0.001338 0.030336 0.002808 -0.002743 0.005215
# 4 -0.000712 -0.001475 0.002808 0.036238 0.007689 0.001775
# 5 -0.007407 -0.002055 -0.002743 0.007689 0.048759 0.010728
# 6 -0.004125 0.001331 0.005215 0.001775 0.010728 0.035732
#
#
# Mechanical properties :
#
#
# Convention : Reuss Voigt Hill
#
# Bulk Modulus (GPa) = 25.04698 34.22897 29.63798
# Shear Modulus (GPa) = 24.74787 30.37878 27.56332
#
# Velocity S-wave (km/s) = 3.34111 3.70175 3.52605
# Velocity P-wave (km/s) = 5.11684 5.80606 5.47231
#
# Compressibility (1/GPa) = 0.03992497
#
# Stress axis : x y z
#
# Youngs Moduli (GPa) = 70.03104 106.98055 32.96456
#
# Poissons Ratio (x) = 0.11738 0.15109
# Poissons Ratio (y) = 0.07684 0.04411
# Poissons Ratio (z) = 0.32099 0.14315
#
# Static dielectric constant tensor:
#      x y z
#    x 1.823780 -0.075670 0.111210 
#    y -0.075670 1.890800 -0.072880 
#    z 0.111210 -0.072880 1.474010 
# 
# From -- ./inp_files/320654.got.cif
#   From: 2010.05.17/outbox.cif.g08.bks.cpg/sg2_161_cif.got.tgz:320654.got - 2010.06.03 11:33:40.
