data_PCOD9063408
_publ_section_title
;
Structure prediction by ZEFSAII (Michael W. Deem and Ramdas Pophale) SiO2 
 PCOD9063408
Probable space group: P -1
;
_chemical_formula_sum "Si O2"
_cell_formula_units_Z 14
_cell_length_a 15.422327
_cell_length_b 5.087785
_cell_length_c 14.568480
_cell_angle_alpha 102.199285
_cell_angle_beta 29.703552
_cell_angle_gamma 102.299653
_cell_volume 552.614379
_symmetry_space_group_name_H-M "P -1"
_symmetry_group_IT_number 2
_symmetry_cell_setting 'triclinic'
loop_
_space_group_symop_operation_xyz
x,y,z
-x,-y,-z
loop_
_atom_site_type_symbol
_atom_site_label
_atom_site_fract_x
_atom_site_fract_y
_atom_site_fract_z
Si Si1 0.931724 0.509186 0.719378
Si Si2 0.519754 0.322515 0.583899
Si Si3 0.252682 0.668569 0.304290
Si Si4 0.423438 0.876834 0.778088
Si Si5 0.445753 0.180508 0.148701
Si Si6 0.947806 0.087523 0.834759
Si Si7 0.186379 0.023116 0.775293
O O1 0.786948 0.401358 0.770902
O O2 0.966487 0.295763 0.749930
O O3 0.096933 0.568132 0.506336
O O4 0.895603 0.789503 0.821858
O O5 0.520163 0.633770 0.627660
O O6 0.336726 0.231630 0.694078
O O7 0.502476 0.152820 0.682325
O O8 0.693348 0.234425 0.365970
O O9 0.406879 0.482167 0.180656
O O10 0.274439 0.989451 0.320816
O O11 0.434731 0.845690 0.874755
O O12 0.216921 0.839994 0.945843
O O13 0.500000 0.000000 0.000000
O O14 0.118203 0.085372 0.740633
O O15 0.000000 0.000000 0.000000
#
# Coordination Sequence:
#
# PCOD9063408 Si02
#       7
#     2   2   2   2   2   2   2
#     4  11  25  44  69 109 142 195 245 308 369 442
#     4  11  28  51  78 108 152 193 247 312 373 457
#     4  11  24  44  68 100 150 190 251 303 365 435
#     4  12  26  48  73 113 147 195 251 301 368 447
#     4  12  25  42  71 102 149 199 247 297 366 436
#     4  12  26  45  77 105 150 190 249 304 374 451
#     4  11  27  54  78 114 148 196 247 315 390 448
#
# _framework density 25.334119999999999
#
# number of rings (size 3 to 8) (size 9 to 14) (size 15 to 20)
#    0.000    0.571    1.429    5.571    6.000    6.286 
#    0.000    0.000    0.000    0.000    0.000    0.000 
#    0.000    0.000    0.000    0.000    0.000    0.000 
#
# Total GULP energy -78425.960403 kJ/mol
# GULP energy per Si atom -5601.854315 kJ/mol
# Density = 2.527646 g / cm^3
# Si number density = 25.334120 Si / 1000 Ang^3
#
#
#
# Elastic Constant Matrix: (Units=GPa)
#
#
# Indices 1 2 3 4 5 6 
#
# 1 147.4986 37.3150 40.6414 3.8880 -4.7343 -19.1063
# 2 37.3150 107.0798 20.7442 15.7941 1.0642 -15.9557
# 3 40.6414 20.7442 157.5166 -0.9399 -7.8662 2.1729
# 4 3.8880 15.7941 -0.9399 36.3756 2.0602 4.6223
# 5 -4.7343 1.0642 -7.8662 2.0602 29.3398 -3.9182
# 6 -19.1063 -15.9557 2.1729 4.6223 -3.9182 38.7748
#
#
#
# Elastic Compliance Matrix: (Units=1/GPa)
#
#
# Indices 1 2 3 4 5 6 
#
# 1 0.008315 -0.001910 -0.001876 -0.000652 0.001440 0.003639
# 2 -0.001910 0.011724 -0.001149 -0.005498 -0.000041 0.004599
# 3 -0.001876 -0.001149 0.007081 0.001034 0.001327 -0.001783
# 4 -0.000652 -0.005498 0.001034 0.030966 -0.002685 -0.006604
# 5 0.001440 -0.000041 0.001327 -0.002685 0.035465 0.004522
# 6 0.003639 0.004599 -0.001783 -0.006604 0.004522 0.030820
#
#
# Mechanical properties :
#
#
# Convention : Reuss Voigt Hill
#
# Bulk Modulus (GPa) = 57.97569 67.72180 62.84874
# Shear Modulus (GPa) = 35.71669 41.79100 38.75384
#
# Velocity S-wave (km/s) = 3.75884 4.06592 3.91539
# Velocity P-wave (km/s) = 6.46317 6.98798 6.73069
#
# Compressibility (1/GPa) = 0.01724861
#
# Stress axis : x y z
#
# Youngs Moduli (GPa) = 120.26990 85.29747 141.22373
#
# Poissons Ratio (x) = 0.16291 0.26493
# Poissons Ratio (y) = 0.22970 0.16233
# Poissons Ratio (z) = 0.22562 0.09805
#
# Static dielectric constant tensor:
#      x y z
#    x 2.003040 0.004780 0.011630 
#    y 0.004780 1.987550 -0.076720 
#    z 0.011630 -0.076720 2.060720 
# 
# From -- ./inp_files/525907.got.cif
#   From: 2010.05.17/outbox.cif.g08.bks.cpg/sg2_263_cif.got.tgz:525907.got - 2010.06.03 11:33:40.
