data_PCOD9063861
_publ_section_title
;
Structure prediction by ZEFSAII (Michael W. Deem and Ramdas Pophale) SiO2 
 PCOD9063861
Probable space group: P -1
;
_chemical_formula_sum "Si O2"
_cell_formula_units_Z 16
_cell_length_a 14.664427
_cell_length_b 5.802324
_cell_length_c 14.073442
_cell_angle_alpha 67.681918
_cell_angle_beta 41.833994
_cell_angle_gamma 60.192759
_cell_volume 692.931951
_symmetry_space_group_name_H-M "P -1"
_symmetry_group_IT_number 2
_symmetry_cell_setting 'triclinic'
loop_
_space_group_symop_operation_xyz
x,y,z
-x,-y,-z
loop_
_atom_site_type_symbol
_atom_site_label
_atom_site_fract_x
_atom_site_fract_y
_atom_site_fract_z
Si Si1 0.848123 0.194651 0.047280
Si Si2 0.723681 0.429489 0.299982
Si Si3 0.049862 0.461022 0.764588
Si Si4 0.443106 0.833346 0.990028
Si Si5 0.122312 0.051307 0.284059
Si Si6 0.595060 0.014876 0.220250
Si Si7 0.685606 0.936711 0.490251
Si Si8 0.096628 0.199358 0.491620
O O1 0.750378 0.295503 0.198518
O O2 0.742593 0.085400 0.086657
O O3 0.908041 0.404098 0.919629
O O4 0.000000 0.000000 0.000000
O O5 0.878302 0.408021 0.231706
O O6 0.646007 0.732208 0.279772
O O7 0.655175 0.250501 0.444780
O O8 0.191692 0.220473 0.656606
O O9 0.981320 0.649356 0.700908
O O10 0.461741 0.937266 0.852772
O O11 0.500000 0.500000 0.000000
O O12 0.500000 0.000000 0.000000
O O13 0.272469 0.939379 0.130821
O O14 0.144782 0.033892 0.382529
O O15 0.019060 0.900402 0.350237
O O16 0.454501 0.155514 0.375925
O O17 0.765806 0.855391 0.540888
O O18 0.000000 0.500000 0.500000
#
# Coordination Sequence:
#
# PCOD9063861 Si02
#       8
#     2   2   2   2   2   2   2   2
#     4  12  26  46  74 107 147 198 253 318 382 479
#     4  12  25  48  74 107 150 197 261 320 401 464
#     4  12  25  45  77 110 148 198 262 320 399 472
#     4  12  32  55  81 117 162 215 267 332 404 484
#     4  11  26  45  78 108 147 205 266 326 400 470
#     4  12  30  48  77 111 158 205 257 328 402 477
#     4  12  26  46  74 109 155 198 258 328 400 474
#     4  11  24  44  75 110 147 200 261 338 388 477
#
# _framework density 23.090288999999999
#
# number of rings (size 3 to 8) (size 9 to 14) (size 15 to 20)
#    0.000    0.250    5.000    2.250   10.500    3.000 
#    0.000    0.000    0.000    0.000    0.000    0.000 
#    0.000    0.000    0.000    0.000    0.000    0.000 
#
# Total GULP energy -89138.175306 kJ/mol
# GULP energy per Si atom -5571.135957 kJ/mol
# Density = 2.303773 g / cm^3
# Si number density = 23.090289 Si / 1000 Ang^3
#
#
#
# Elastic Constant Matrix: (Units=GPa)
#
#
# Indices 1 2 3 4 5 6 
#
# 1 98.6006 40.1924 34.4678 -11.2659 -3.6829 -3.3660
# 2 40.1924 66.4289 17.5657 -8.0123 -0.9124 -9.7538
# 3 34.4678 17.5657 120.5025 -13.1324 -26.1835 -3.0910
# 4 -11.2659 -8.0123 -13.1324 33.5610 4.1895 0.3228
# 5 -3.6829 -0.9124 -26.1835 4.1895 35.2565 -8.0042
# 6 -3.3660 -9.7538 -3.0910 0.3228 -8.0042 25.6586
#
#
#
# Elastic Compliance Matrix: (Units=1/GPa)
#
#
# Indices 1 2 3 4 5 6 
#
# 1 0.014670 -0.008121 -0.003247 0.001962 -0.001808 -0.002142
# 2 -0.008121 0.021351 -0.000154 0.002116 0.001000 0.007318
# 3 -0.003247 -0.000154 0.011484 0.002242 0.008736 0.003596
# 4 0.001962 0.002116 0.002242 0.032059 -0.001801 0.000367
# 5 -0.001808 0.001000 0.008736 -0.001801 0.037860 0.013028
# 6 -0.002142 0.007318 0.003596 0.000367 0.013028 0.045967
#
#
# Mechanical properties :
#
#
# Convention : Reuss Voigt Hill
#
# Bulk Modulus (GPa) = 40.87695 52.22044 46.54869
# Shear Modulus (GPa) = 25.69520 31.78229 28.73875
#
# Velocity S-wave (km/s) = 3.33951 3.71406 3.53175
# Velocity P-wave (km/s) = 5.71063 6.40759 6.06912
#
# Compressibility (1/GPa) = 0.02446367
#
# Stress axis : x y z
#
# Youngs Moduli (GPa) = 68.16402 46.83584 87.07441
#
# Poissons Ratio (x) = 0.38033 0.28269
# Poissons Ratio (y) = 0.55353 0.01342
# Poissons Ratio (z) = 0.22130 0.00722
#
# Static dielectric constant tensor:
#      x y z
#    x 1.890390 0.044790 0.090210 
#    y 0.044790 1.828350 0.085310 
#    z 0.090210 0.085310 1.884180 
# 
# From -- ./inp_files/525604.got.cif
#   From: 2010.05.17/outbox.cif.g08.bks.cpg/sg2_263_cif.got.tgz:525604.got - 2010.06.03 11:33:40.
