data_PCOD9063380
_publ_section_title
;
Structure prediction by ZEFSAII (Michael W. Deem and Ramdas Pophale) SiO2 
 PCOD9063380
Probable space group: P -1
;
_chemical_formula_sum "Si O2"
_cell_formula_units_Z 12
_cell_length_a 5.328314
_cell_length_b 19.196386
_cell_length_c 17.112961
_cell_angle_alpha 23.182643
_cell_angle_beta 49.000574
_cell_angle_gamma 46.866902
_cell_volume 500.536948
_symmetry_space_group_name_H-M "P -1"
_symmetry_group_IT_number 2
_symmetry_cell_setting 'triclinic'
loop_
_space_group_symop_operation_xyz
x,y,z
-x,-y,-z
loop_
_atom_site_type_symbol
_atom_site_label
_atom_site_fract_x
_atom_site_fract_y
_atom_site_fract_z
Si Si1 0.216001 0.398096 0.691136
Si Si2 0.147496 0.058852 0.563207
Si Si3 0.759871 0.782238 0.911316
Si Si4 0.801154 0.169195 0.918200
Si Si5 0.881847 0.598103 0.699329
Si Si6 0.885576 0.315621 0.212521
O O1 0.500000 0.500000 0.500000
O O2 0.458457 0.252772 0.850141
O O3 0.034046 0.304688 0.757703
O O4 0.931638 0.531129 0.668552
O O5 0.101019 0.194965 0.505938
O O6 0.901951 0.196999 0.409002
O O7 0.500000 0.000000 0.500000
O O8 0.023951 0.882044 0.793748
O O9 0.854520 0.804308 0.779740
O O10 0.371363 0.874485 0.921372
O O11 0.853830 0.566289 0.137234
O O12 0.000000 0.000000 0.000000
O O13 0.515268 0.615996 0.796580
O O14 0.000000 0.500000 0.000000
#
# Coordination Sequence:
#
# PCOD9063380 Si02
#       6
#     2   2   2   2   2   2
#     4  11  26  48  76 105 141 187 239 294 364 424
#     4  12  25  41  65 104 136 188 236 282 356 423
#     4  11  24  44  67 100 141 181 236 291 352 424
#     4  11  26  49  73 107 141 186 239 299 360 419
#     4  11  25  44  67  98 141 180 234 289 354 421
#     4  12  22  41  67  95 139 180 227 290 348 420
#
# _framework density 23.974253999999998
#
# number of rings (size 3 to 8) (size 9 to 14) (size 15 to 20)
#    0.000    0.667    3.333    4.000    4.667    2.667 
#    0.000    0.000    0.000    0.000    0.000    0.000 
#    0.000    0.000    0.000    0.000    0.000    0.000 
#
# Total GULP energy -66958.848278 kJ/mol
# GULP energy per Si atom -5579.904023 kJ/mol
# Density = 2.391969 g / cm^3
# Si number density = 23.974254 Si / 1000 Ang^3
#
#
#
# Elastic Constant Matrix: (Units=GPa)
#
#
# Indices 1 2 3 4 5 6 
#
# 1 67.0695 36.4908 14.2225 -11.6351 -18.9353 5.8299
# 2 36.4908 189.4858 41.9778 -10.9905 -20.9117 8.1789
# 3 14.2225 41.9778 72.7454 -5.5825 -26.9635 4.1604
# 4 -11.6351 -10.9905 -5.5825 44.7010 3.4261 -12.3153
# 5 -18.9353 -20.9117 -26.9635 3.4261 47.9358 -6.4571
# 6 5.8299 8.1789 4.1604 -12.3153 -6.4571 37.0610
#
#
#
# Elastic Compliance Matrix: (Units=1/GPa)
#
#
# Indices 1 2 3 4 5 6 
#
# 1 0.018739 -0.002827 0.000561 0.003761 0.006208 -0.000055
# 2 -0.002827 0.006564 -0.003243 0.000332 -0.000177 -0.000560
# 3 0.000561 -0.003243 0.019103 0.001148 0.009541 0.000527
# 4 0.003761 0.000332 0.001148 0.025662 0.001520 0.007998
# 5 0.006208 -0.000177 0.009541 0.001520 0.028972 0.003544
# 6 -0.000055 -0.000560 0.000527 0.007998 0.003544 0.030331
#
#
# Mechanical properties :
#
#
# Convention : Reuss Voigt Hill
#
# Bulk Modulus (GPa) = 29.95208 57.18699 43.56953
# Shear Modulus (GPa) = 32.99901 41.71354 37.35627
#
# Velocity S-wave (km/s) = 3.71406 4.17577 3.95167
# Velocity P-wave (km/s) = 5.55993 6.86693 6.24770
#
# Compressibility (1/GPa) = 0.03338666
#
# Stress axis : x y z
#
# Youngs Moduli (GPa) = 53.36391 152.33823 52.34863
#
# Poissons Ratio (x) = 0.43071 -0.02935
# Poissons Ratio (y) = 0.15088 0.16977
# Poissons Ratio (z) = -0.02992 0.49405
#
# Static dielectric constant tensor:
#      x y z
#    x 2.126000 0.107410 0.001880 
#    y 0.107410 2.004370 0.008880 
#    z 0.001880 0.008880 1.451440 
# 
# From -- ./inp_files/550835.got.cif
#   From: 2010.05.17/outbox.cif.g08.bks.cpg/sg2_276_cif.got.tgz:550835.got - 2010.06.03 11:33:40.
