data_PCOD9063781
_publ_section_title
;
Structure prediction by ZEFSAII (Michael W. Deem and Ramdas Pophale) SiO2 
 PCOD9063781
Probable space group: P -1
;
_chemical_formula_sum "Si O2"
_cell_formula_units_Z 14
_cell_length_a 17.658588
_cell_length_b 9.382233
_cell_length_c 9.513353
_cell_angle_alpha 120.589563
_cell_angle_beta 30.824699
_cell_angle_gamma 111.320378
_cell_volume 685.544342
_symmetry_space_group_name_H-M "P -1"
_symmetry_group_IT_number 2
_symmetry_cell_setting 'triclinic'
loop_
_space_group_symop_operation_xyz
x,y,z
-x,-y,-z
loop_
_atom_site_type_symbol
_atom_site_label
_atom_site_fract_x
_atom_site_fract_y
_atom_site_fract_z
Si Si1 0.543930 0.505989 0.208976
Si Si2 0.010118 0.166586 0.479099
Si Si3 0.317914 0.271232 0.123009
Si Si4 0.258907 0.549744 0.854176
Si Si5 0.443917 0.864628 0.121713
Si Si6 0.865229 0.651602 0.267967
Si Si7 0.097726 0.984524 0.697890
O O1 0.382503 0.597568 0.570949
O O2 0.655214 0.488708 0.155932
O O3 0.613380 0.602793 0.023431
O O4 0.532131 0.319639 0.080023
O O5 0.180197 0.201749 0.233807
O O6 0.957841 0.137233 0.389531
O O7 0.000000 0.000000 0.500000
O O8 0.888999 0.314503 0.814454
O O9 0.240644 0.350833 0.429496
O O10 0.458778 0.142141 0.894479
O O11 0.211106 0.387660 0.775970
O O12 0.266980 0.918367 0.442297
O O13 0.500000 0.000000 0.000000
O O14 0.909022 0.834613 0.275553
O O15 0.000000 0.500000 0.000000
O O16 0.000000 0.000000 0.000000
#
# Coordination Sequence:
#
# PCOD9063781 Si02
#       7
#     2   2   2   2   2   2   2
#     4  11  26  44  72 107 139 190 241 293 352 424
#     4  12  24  48  70 105 144 187 231 296 356 417
#     4  12  26  43  75 104 142 184 243 289 353 418
#     4  11  24  44  74 100 145 184 240 289 359 421
#     4  12  23  48  73 101 144 186 233 294 358 420
#     4  12  24  44  72 103 140 187 237 290 352 422
#     4  12  28  46  73 103 142 187 237 289 360 420
#
# _framework density 20.421727000000001
#
# number of rings (size 3 to 8) (size 9 to 14) (size 15 to 20)
#    0.000    0.286    7.143    0.429    4.000    1.714 
#    0.000    1.429    0.000    0.000    0.000    0.000 
#    0.000    0.000    0.000    0.000    0.000    0.000 
#
# Total GULP energy -78246.500603 kJ/mol
# GULP energy per Si atom -5589.035757 kJ/mol
# Density = 2.037525 g / cm^3
# Si number density = 20.421727 Si / 1000 Ang^3
#
#
#
# Elastic Constant Matrix: (Units=GPa)
#
#
# Indices 1 2 3 4 5 6 
#
# 1 106.3584 59.1503 83.6499 -18.5813 -25.2333 17.6936
# 2 59.1503 119.9371 55.0279 -20.0412 6.8835 -0.8162
# 3 83.6499 55.0279 138.0698 -14.8296 -2.3712 -3.2922
# 4 -18.5813 -20.0412 -14.8296 27.5920 -6.9578 4.9081
# 5 -25.2333 6.8835 -2.3712 -6.9578 43.2569 -2.9495
# 6 17.6936 -0.8162 -3.2922 4.9081 -2.9495 35.7736
#
#
#
# Elastic Compliance Matrix: (Units=1/GPa)
#
#
# Indices 1 2 3 4 5 6 
#
# 1 0.054572 -0.012951 -0.025005 0.028160 0.034969 -0.030568
# 2 -0.012951 0.014225 0.002084 -0.000751 -0.009399 0.006250
# 3 -0.025005 0.002084 0.020528 -0.010537 -0.014495 0.014555
# 4 0.028160 -0.000751 -0.010537 0.058784 0.023992 -0.021002
# 5 0.034969 -0.009399 -0.014495 0.023992 0.046831 -0.018275
# 6 -0.030568 0.006250 0.014555 -0.021002 -0.018275 0.045929
#
#
# Mechanical properties :
#
#
# Convention : Reuss Voigt Hill
#
# Bulk Modulus (GPa) = 56.87820 84.44682 70.66251
# Shear Modulus (GPa) = 15.69991 32.42699 24.06345
#
# Velocity S-wave (km/s) = 2.77570 3.98913 3.43640
# Velocity P-wave (km/s) = 6.17940 7.91573 7.10084
#
# Compressibility (1/GPa) = 0.01758143
#
# Stress axis : x y z
#
# Youngs Moduli (GPa) = 18.32438 70.29793 48.71441
#
# Poissons Ratio (x) = 0.91042 1.21809
# Poissons Ratio (y) = 0.23732 -0.10151
# Poissons Ratio (z) = 0.45820 -0.14649
#
# Static dielectric constant tensor:
#      x y z
#    x 1.752870 0.026780 -0.015970 
#    y 0.026780 1.683630 0.000810 
#    z -0.015970 0.000810 1.666260 
# 
# From -- ./inp_files/170345.got.cif
#   From: 2010.05.17/outbox.cif.g08.bks.cpg/sg2_86_cif.got.tgz:170345.got - 2010.06.03 11:33:40.
