data_PCOD9063030
_publ_section_title
;
Structure prediction by ZEFSAII (Michael W. Deem and Ramdas Pophale) SiO2 
 PCOD9063030
Probable space group: P -1
;
_chemical_formula_sum "Si O2"
_cell_formula_units_Z 16
_cell_length_a 8.613821
_cell_length_b 9.506221
_cell_length_c 15.286858
_cell_angle_alpha 36.256608
_cell_angle_beta 91.901504
_cell_angle_gamma 105.343429
_cell_volume 677.341974
_symmetry_space_group_name_H-M "P -1"
_symmetry_group_IT_number 2
_symmetry_cell_setting 'triclinic'
loop_
_space_group_symop_operation_xyz
x,y,z
-x,-y,-z
loop_
_atom_site_type_symbol
_atom_site_label
_atom_site_fract_x
_atom_site_fract_y
_atom_site_fract_z
Si Si1 0.899505 0.747087 0.184490
Si Si2 0.523717 0.116007 0.714479
Si Si3 0.016762 0.716724 0.574427
Si Si4 0.978052 0.671296 0.801638
Si Si5 0.168674 0.886057 0.872789
Si Si6 0.690486 0.848530 0.742404
Si Si7 0.665355 0.661267 0.536934
Si Si8 0.454177 0.692281 0.671686
O O1 0.730372 0.524822 0.248101
O O2 0.007218 0.579230 0.292543
O O3 0.850913 0.862683 0.213817
O O4 0.000000 0.000000 0.000000
O O5 0.616905 0.388780 0.625502
O O6 0.433649 0.189511 0.591669
O O7 0.365116 0.939932 0.858144
O O8 0.646229 0.977324 0.760914
O O9 0.012820 0.755749 0.659121
O O10 0.866580 0.765971 0.499614
O O11 0.192879 0.909938 0.438425
O O12 0.807598 0.689710 0.827095
O O13 0.114407 0.811748 0.808579
O O14 0.948124 0.370554 0.949752
O O15 0.509872 0.686994 0.774973
O O16 0.587241 0.627006 0.648899
O O17 0.500000 0.000000 0.500000
#
# Coordination Sequence:
#
# PCOD9063030 Si02
#       8
#     2   2   2   2   2   2   2   2
#     4  12  26  48  73 104 145 191 238 289 361 433
#     4  11  25  44  67 101 146 189 224 297 361 427
#     4  12  25  44  72 109 138 183 247 295 351 419
#     4  11  26  46  70 103 142 189 237 299 349 426
#     4  11  26  48  68  97 149 191 234 283 369 426
#     4  12  26  42  73 106 140 183 245 295 352 417
#     4  11  24  43  69 103 144 182 231 301 358 412
#     4  12  23  44  71 106 137 181 241 291 352 421
#
# _framework density 23.621748
#
# number of rings (size 3 to 8) (size 9 to 14) (size 15 to 20)
#    0.000    0.500    6.250    1.125    7.000    1.000 
#    2.250    1.875    0.000    0.000    0.000    0.000 
#    0.000    0.000    0.000    0.000    0.000    0.000 
#
# Total GULP energy -89423.825920 kJ/mol
# GULP energy per Si atom -5588.989120 kJ/mol
# Density = 2.356798 g / cm^3
# Si number density = 23.621748 Si / 1000 Ang^3
#
#
#
# Elastic Constant Matrix: (Units=GPa)
#
#
# Indices 1 2 3 4 5 6 
#
# 1 89.3350 35.4528 5.4062 -20.9553 -7.4919 -7.1139
# 2 35.4528 130.3558 18.9583 -29.5943 -6.2945 -13.2450
# 3 5.4062 18.9583 71.7756 -23.1913 -6.3522 9.6216
# 4 -20.9553 -29.5943 -23.1913 29.3564 -8.3175 0.9564
# 5 -7.4919 -6.2945 -6.3522 -8.3175 27.5509 -9.8430
# 6 -7.1139 -13.2450 9.6216 0.9564 -9.8430 49.3335
#
#
#
# Elastic Compliance Matrix: (Units=1/GPa)
#
#
# Indices 1 2 3 4 5 6 
#
# 1 0.017162 0.000320 0.006259 0.021351 0.013954 0.003710
# 2 0.000320 0.012069 0.002680 0.017279 0.010279 0.004480
# 3 0.006259 0.002680 0.024486 0.031437 0.017343 -0.000303
# 4 0.021351 0.017279 0.031437 0.106144 0.052630 0.010030
# 5 0.013954 0.010279 0.017343 0.052630 0.067253 0.013788
# 6 0.003710 0.004480 -0.000303 0.010030 0.013788 0.024623
#
#
# Mechanical properties :
#
#
# Convention : Reuss Voigt Hill
#
# Bulk Modulus (GPa) = 13.84358 45.67789 29.76073
# Shear Modulus (GPa) = 19.43290 36.69143 28.06217
#
# Velocity S-wave (km/s) = 2.87133 3.94546 3.45045
# Velocity P-wave (km/s) = 4.10682 6.33520 5.33857
#
# Compressibility (1/GPa) = 0.07223566
#
# Stress axis : x y z
#
# Youngs Moduli (GPa) = 58.26861 82.85852 40.83990
#
# Poissons Ratio (x) = -0.02653 -0.25561
# Poissons Ratio (y) = -0.01866 -0.10947
# Poissons Ratio (z) = -0.36470 -0.22209
#
# Static dielectric constant tensor:
#      x y z
#    x 1.898340 0.003780 -0.013920 
#    y 0.003780 1.896790 0.044100 
#    z -0.013920 0.044100 2.032470 
# 
# From -- ./inp_files/494279.got.cif
#   From: 2010.05.17/outbox.cif.g08.bks.cpg/sg2_248_cif.got.tgz:494279.got - 2010.06.03 11:33:40.
