data_PCOD9063074
_publ_section_title
;
Structure prediction by ZEFSAII (Michael W. Deem and Ramdas Pophale) SiO2 
 PCOD9063074
Probable space group: P -1
;
_chemical_formula_sum "Si O2"
_cell_formula_units_Z 14
_cell_length_a 13.689780
_cell_length_b 11.081076
_cell_length_c 8.156200
_cell_angle_alpha 111.323807
_cell_angle_beta 115.047673
_cell_angle_gamma 33.198340
_cell_volume 613.636046
_symmetry_space_group_name_H-M "P -1"
_symmetry_group_IT_number 2
_symmetry_cell_setting 'triclinic'
loop_
_space_group_symop_operation_xyz
x,y,z
-x,-y,-z
loop_
_atom_site_type_symbol
_atom_site_label
_atom_site_fract_x
_atom_site_fract_y
_atom_site_fract_z
Si Si1 0.297061 0.984041 0.608255
Si Si2 0.969881 0.589105 0.201228
Si Si3 0.298021 0.566443 0.038369
Si Si4 0.206450 0.808851 0.616300
Si Si5 0.308606 0.448827 0.359853
Si Si6 0.952805 0.750987 0.753675
Si Si7 0.310655 0.822547 0.036073
O O1 0.220790 0.150198 0.779474
O O2 0.145994 0.140915 0.436749
O O3 0.303002 0.830858 0.598342
O O4 0.502969 0.812973 0.614865
O O5 0.132830 0.532907 0.314835
O O6 0.982792 0.456645 0.268577
O O7 0.000000 0.500000 0.000000
O O8 0.294328 0.511589 0.191496
O O9 0.484137 0.350392 0.966055
O O10 0.302196 0.719323 0.118721
O O11 0.123672 0.679710 0.873537
O O12 0.303568 0.578953 0.536985
O O13 0.210596 0.850450 0.826466
O O14 0.000000 0.000000 0.500000
O O15 0.798029 0.946930 0.869868
#
# Coordination Sequence:
#
# PCOD9063074 Si02
#       7
#     2   2   2   2   2   2   2
#     4  12  27  45  72 105 138 179 232 289 347 403
#     4  12  27  49  71  98 138 187 237 281 337 414
#     4  11  24  43  70 103 139 178 225 279 351 403
#     4  12  22  43  73 102 143 176 224 286 348 403
#     4  12  26  45  73 103 140 183 227 287 346 405
#     4  12  26  47  71 100 142 184 231 280 341 408
#     4  11  25  42  71 107 137 177 229 283 343 412
#
# _framework density 22.814826
#
# number of rings (size 3 to 8) (size 9 to 14) (size 15 to 20)
#    0.000    0.286    4.286    4.714    4.000    2.286 
#    0.000    0.000    0.000    0.000    0.000    0.000 
#    0.000    0.000    0.000    0.000    0.000    0.000 
#
# Total GULP energy -78456.377526 kJ/mol
# GULP energy per Si atom -5604.026966 kJ/mol
# Density = 2.276290 g / cm^3
# Si number density = 22.814826 Si / 1000 Ang^3
#
#
#
# Elastic Constant Matrix: (Units=GPa)
#
#
# Indices 1 2 3 4 5 6 
#
# 1 57.0254 -1.0659 -18.1384 7.3393 -3.7268 9.3496
# 2 -1.0659 95.0965 16.5447 22.3379 16.7189 -27.6354
# 3 -18.1384 16.5447 90.1351 9.7057 -12.2971 4.2432
# 4 7.3393 22.3379 9.7057 48.4308 9.8308 -1.3462
# 5 -3.7268 16.7189 -12.2971 9.8308 6.3355 13.0590
# 6 9.3496 -27.6354 4.2432 -1.3462 13.0590 26.4189
#
#
#
# Elastic Compliance Matrix: (Units=1/GPa)
#
#
# Indices 1 2 3 4 5 6 
#
# 1 0.015884 0.004963 0.000191 -0.001634 -0.014377 0.006563
# 2 0.004963 0.006406 0.003951 -0.008935 0.020963 -0.006508
# 3 0.000191 0.003951 0.008082 -0.000361 -0.013997 0.009668
# 4 -0.001634 -0.008935 -0.000361 0.024106 0.003577 -0.009250
# 5 -0.014377 0.020963 -0.013997 0.003577 -0.034346 0.046424
# 6 0.006563 -0.006508 0.009668 -0.009250 0.046424 0.003750
#
#
# Mechanical properties :
#
#
# Convention : Reuss Voigt Hill
#
# Bulk Modulus (GPa) = 20.58309 26.32643 23.45476
# Shear Modulus (GPa) = 228.67859 32.56480 130.62170
#
# Velocity S-wave (km/s) = 10.02248 3.78213 7.57478
# Velocity P-wave (km/s) = 11.95721 5.53506 9.31697
#
# Compressibility (1/GPa) = 0.04858357
#
# Stress axis : x y z
#
# Youngs Moduli (GPa) = 62.95550 156.10644 123.73705
#
# Poissons Ratio (x) = -0.77483 -0.02363
# Poissons Ratio (y) = -0.31248 -0.48894
# Poissons Ratio (z) = -0.01202 -0.61685
#
# Static dielectric constant tensor:
#      x y z
#    x 1.839070 0.004650 -0.031180 
#    y 0.004650 1.861790 -0.013890 
#    z -0.031180 -0.013890 1.860180 
# 
# From -- ./inp_files/305782.got.cif
#   From: 2010.05.17/outbox.cif.g08.bks.cpg/sg2_153_cif.got.tgz:305782.got - 2010.06.03 11:33:40.
