data_PCOD9063853
_publ_section_title
;
Structure prediction by ZEFSAII (Michael W. Deem and Ramdas Pophale) SiO2 
 PCOD9063853
Probable space group: P -1
;
_chemical_formula_sum "Si O2"
_cell_formula_units_Z 14
_cell_length_a 9.926127
_cell_length_b 30.093308
_cell_length_c 5.391196
_cell_angle_alpha 58.692044
_cell_angle_beta 65.443876
_cell_angle_gamma 27.599110
_cell_volume 633.314914
_symmetry_space_group_name_H-M "P -1"
_symmetry_group_IT_number 2
_symmetry_cell_setting 'triclinic'
loop_
_space_group_symop_operation_xyz
x,y,z
-x,-y,-z
loop_
_atom_site_type_symbol
_atom_site_label
_atom_site_fract_x
_atom_site_fract_y
_atom_site_fract_z
Si Si1 0.963464 0.240155 0.727335
Si Si2 0.248924 0.219992 0.948295
Si Si3 0.614300 0.407344 0.152835
Si Si4 0.463398 0.060398 0.530117
Si Si5 0.192640 0.444169 0.262808
Si Si6 0.593595 0.221682 0.681056
Si Si7 0.072821 0.859552 0.824030
O O1 0.690512 0.354724 0.504037
O O2 0.142560 0.156779 0.616207
O O3 0.888666 0.214494 0.032862
O O4 0.188214 0.213384 0.746335
O O5 0.462644 0.114990 0.226974
O O6 0.926319 0.315532 0.041587
O O7 0.376391 0.238515 0.801250
O O8 0.376531 0.441881 0.112822
O O9 0.500000 0.500000 0.000000
O O10 0.500000 0.000000 0.500000
O O11 0.728598 0.976572 0.763567
O O12 0.410878 0.329330 0.456287
O O13 0.000000 0.500000 0.500000
O O14 0.000000 0.500000 0.000000
O O15 0.808784 0.149928 0.489744
O O16 0.754502 0.177396 0.952340
#
# Coordination Sequence:
#
# PCOD9063853 Si02
#       7
#     2   2   2   2   2   2   2
#     4  11  24  45  74 104 143 190 249 294 357 441
#     4  11  27  45  72 106 146 189 246 299 356 438
#     4  11  26  47  75 106 144 193 243 300 361 432
#     4  11  24  44  75 107 140 194 246 297 359 430
#     4  12  27  47  74 104 143 188 239 297 368 429
#     4  12  28  47  70 107 151 188 239 304 365 426
#     4  12  25  46  74 102 149 190 240 296 361 429
#
# _framework density 22.105905
#
# number of rings (size 3 to 8) (size 9 to 14) (size 15 to 20)
#    0.000    0.571    2.857    3.857   10.000    1.714 
#    0.000    0.000    0.000    0.000    0.000    0.000 
#    0.000    0.000    0.000    0.000    0.000    0.000 
#
# Total GULP energy -78333.909591 kJ/mol
# GULP energy per Si atom -5595.279256 kJ/mol
# Density = 2.205559 g / cm^3
# Si number density = 22.105905 Si / 1000 Ang^3
#
#
#
# Elastic Constant Matrix: (Units=GPa)
#
#
# Indices 1 2 3 4 5 6 
#
# 1 195.8083 41.8931 67.4845 -14.8954 -6.9545 -9.2435
# 2 41.8931 94.1028 54.1463 -9.3737 -11.6803 5.5635
# 3 67.4845 54.1463 104.7701 -21.1091 15.1581 -1.2280
# 4 -14.8954 -9.3737 -21.1091 41.8015 -2.5543 -2.9684
# 5 -6.9545 -11.6803 15.1581 -2.5543 53.5293 -3.7352
# 6 -9.2435 5.5635 -1.2280 -2.9684 -3.7352 32.1805
#
#
#
# Elastic Compliance Matrix: (Units=1/GPa)
#
#
# Indices 1 2 3 4 5 6 
#
# 1 0.006954 -0.000270 -0.004566 0.000407 0.002309 0.002175
# 2 -0.000270 0.017301 -0.009922 -0.001042 0.006304 -0.002812
# 3 -0.004566 -0.009922 0.019958 0.005787 -0.008081 0.000761
# 4 0.000407 -0.001042 0.005787 0.026947 -0.000320 0.002966
# 5 0.002309 0.006304 -0.008081 -0.000320 0.022761 0.001877
# 6 0.002175 -0.002812 0.000761 0.002966 0.001877 0.032706
#
#
# Mechanical properties :
#
#
# Convention : Reuss Voigt Hill
#
# Bulk Modulus (GPa) = 68.04663 80.19214 74.11938
# Shear Modulus (GPa) = 31.04745 40.91273 35.98009
#
# Velocity S-wave (km/s) = 3.75171 4.30671 4.03876
# Velocity P-wave (km/s) = 7.04387 7.81572 7.43981
#
# Compressibility (1/GPa) = 0.01469581
#
# Stress axis : x y z
#
# Youngs Moduli (GPa) = 143.79692 57.79982 50.10532
#
# Poissons Ratio (x) = 0.01560 0.22880
# Poissons Ratio (y) = 0.03881 0.49717
# Poissons Ratio (z) = 0.65664 0.57351
#
# Static dielectric constant tensor:
#      x y z
#    x 1.807110 0.005020 0.035430 
#    y 0.005020 1.855530 0.079190 
#    z 0.035430 0.079190 1.879180 
# 
# From -- ./inp_files/28504.got.cif
#   From: 2010.05.17/outbox.cif.g08.bks.cpg/sg2_15_cif.got.tgz:28504.got - 2010.06.03 11:33:40.
