data_PCOD9063192
_publ_section_title
;
Structure prediction by ZEFSAII (Michael W. Deem and Ramdas Pophale) SiO2 
 PCOD9063192
Probable space group: P -1
;
_chemical_formula_sum "Si O2"
_cell_formula_units_Z 13
_cell_length_a 9.025645
_cell_length_b 8.285305
_cell_length_c 8.569237
_cell_angle_alpha 94.846743
_cell_angle_beta 118.423660
_cell_angle_gamma 110.897010
_cell_volume 500.644225
_symmetry_space_group_name_H-M "P -1"
_symmetry_group_IT_number 2
_symmetry_cell_setting 'triclinic'
loop_
_space_group_symop_operation_xyz
x,y,z
-x,-y,-z
loop_
_atom_site_type_symbol
_atom_site_label
_atom_site_fract_x
_atom_site_fract_y
_atom_site_fract_z
Si Si1 0.489236 0.171366 0.932828
Si Si2 0.200526 0.255564 0.195220
Si Si3 0.891399 0.243617 0.573526
Si Si4 0.781670 0.375824 0.829954
Si Si5 0.917201 0.956340 0.211111
Si Si6 0.500000 0.500000 0.500000
Si Si7 0.286204 0.558474 0.688846
O O1 0.639834 0.251536 0.877390
O O2 0.269063 0.099520 0.787773
O O3 0.549397 0.337525 0.097562
O O4 0.500000 0.000000 0.000000
O O5 0.290077 0.478125 0.252507
O O6 0.384615 0.270269 0.374882
O O7 0.142340 0.169105 0.988180
O O8 0.016610 0.157283 0.202270
O O9 0.796054 0.263955 0.685132
O O10 0.777054 0.289244 0.388099
O O11 0.931989 0.075500 0.615486
O O12 0.103766 0.407356 0.672744
O O13 0.000000 0.500000 0.000000
O O14 0.350825 0.470431 0.575357
#
# Coordination Sequence:
#
# PCOD9063192 Si02
#       7
#     2   2   2   2   2   1   2
#     4  12  27  45  74 110 146 190 251 305 362 437
#     4  11  24  43  72 104 145 190 241 296 364 435
#     4  11  25  44  73 107 147 191 243 303 369 431
#     4  12  22  43  75 102 141 194 243 293 364 440
#     4  11  25  44  73 106 145 188 245 303 358 432
#     4  12  24  44  74 104 146 196 238 298 364 440
#     4  11  25  45  71 109 150 191 242 304 370 435
#
# _framework density 25.966542
#
# number of rings (size 3 to 8) (size 9 to 14) (size 15 to 20)
#    0.000    0.615    6.154    0.923    4.308    1.231 
#    2.769    3.077    0.000    0.000    0.000    0.000 
#    0.000    0.000    0.000    0.000    0.000    0.000 
#
# Total GULP energy -72577.494463 kJ/mol
# GULP energy per Si atom -5582.884189 kJ/mol
# Density = 2.590744 g / cm^3
# Si number density = 25.966542 Si / 1000 Ang^3
#
#
#
# Elastic Constant Matrix: (Units=GPa)
#
#
# Indices 1 2 3 4 5 6 
#
# 1 161.5644 73.7533 46.0833 -18.9936 -2.9866 31.6250
# 2 73.7533 126.8299 43.4213 -26.4805 -10.2837 34.7933
# 3 46.0833 43.4213 117.7429 15.3648 -12.5480 15.0133
# 4 -18.9936 -26.4805 15.3648 34.5210 0.7522 -4.1080
# 5 -2.9866 -10.2837 -12.5480 0.7522 47.2479 -5.6840
# 6 31.6250 34.7933 15.0133 -4.1080 -5.6840 57.4891
#
#
#
# Elastic Compliance Matrix: (Units=1/GPa)
#
#
# Indices 1 2 3 4 5 6 
#
# 1 0.009283 -0.003123 -0.002791 0.003701 -0.001175 -0.002339
# 2 -0.003123 0.015537 -0.005273 0.011888 0.000949 -0.005365
# 3 -0.002791 -0.005273 0.013191 -0.011421 0.002446 0.000708
# 4 0.003701 0.011888 -0.011421 0.044857 -0.001308 -0.003172
# 5 -0.001175 0.000949 0.002446 -0.001308 0.022152 0.001530
# 6 -0.002339 -0.005365 0.000708 -0.003172 0.001530 0.021668
#
#
# Mechanical properties :
#
#
# Convention : Reuss Voigt Hill
#
# Bulk Modulus (GPa) = 63.95997 81.40590 72.68293
# Shear Modulus (GPa) = 32.40976 44.04355 38.22666
#
# Velocity S-wave (km/s) = 3.53673 4.12292 3.84102
# Velocity P-wave (km/s) = 6.43141 7.35411 6.90819
#
# Compressibility (1/GPa) = 0.01563478
#
# Stress axis : x y z
#
# Youngs Moduli (GPa) = 107.72864 64.36360 75.80885
#
# Poissons Ratio (x) = 0.20102 0.21160
# Poissons Ratio (y) = 0.33645 0.39977
# Poissons Ratio (z) = 0.30070 0.33941
#
# Static dielectric constant tensor:
#      x y z
#    x 2.457500 -0.189520 0.604170 
#    y -0.189520 2.137950 -0.242330 
#    z 0.604170 -0.242330 2.948560 
# 
# From -- ./inp_files/153005.got.cif
#   From: 2010.05.17/outbox.cif.g08.bks.cpg/sg2_77_cif.got.tgz:153005.got - 2010.06.03 11:33:40.
