data_PCOD9063543
_publ_section_title
;
Structure prediction by ZEFSAII (Michael W. Deem and Ramdas Pophale) SiO2 
 PCOD9063543
Probable space group: P -1
;
_chemical_formula_sum "Si O2"
_cell_formula_units_Z 12
_cell_length_a 12.672889
_cell_length_b 8.454969
_cell_length_c 19.200059
_cell_angle_alpha 50.338788
_cell_angle_beta 19.495797
_cell_angle_gamma 50.703936
_cell_volume 524.524335
_symmetry_space_group_name_H-M "P -1"
_symmetry_group_IT_number 2
_symmetry_cell_setting 'triclinic'
loop_
_space_group_symop_operation_xyz
x,y,z
-x,-y,-z
loop_
_atom_site_type_symbol
_atom_site_label
_atom_site_fract_x
_atom_site_fract_y
_atom_site_fract_z
Si Si1 0.093056 0.116283 0.758676
Si Si2 0.373061 0.522983 0.272471
Si Si3 0.260737 0.477071 0.093371
Si Si4 0.840156 0.124262 0.496898
Si Si5 0.683993 0.892523 0.524192
Si Si6 0.747345 0.710362 0.102028
O O1 0.107619 0.194002 0.647821
O O2 0.917712 0.292334 0.866830
O O3 0.441774 0.067192 0.588811
O O4 0.926741 0.907663 0.917748
O O5 0.504704 0.289699 0.279326
O O6 0.472903 0.671167 0.228475
O O7 0.000000 0.500000 0.500000
O O8 0.545806 0.584803 0.078848
O O9 0.031754 0.313180 0.305180
O O10 0.500000 0.500000 0.000000
O O11 0.472515 0.220114 0.713711
O O12 0.850246 0.979398 0.462841
O O13 0.000000 0.000000 0.500000
O O14 0.000000 0.500000 0.000000
#
# Coordination Sequence:
#
# PCOD9063543 Si02
#       6
#     2   2   2   2   2   2
#     4  11  25  44  71 104 144 183 234 294 352 425
#     4  12  25  45  73 104 144 187 237 293 354 428
#     4  12  26  45  72 103 140 188 236 291 357 427
#     4  12  27  47  73 105 142 189 242 297 356 431
#     4  11  24  44  70 103 142 185 235 290 355 415
#     4  12  25  44  71 106 143 184 237 292 356 419
#
# _framework density 22.877872
#
# number of rings (size 3 to 8) (size 9 to 14) (size 15 to 20)
#    0.000    0.333    1.667    8.000    4.667    2.000 
#    0.000    5.000    0.000    0.000    0.000    0.000 
#    0.000    0.000    0.000    0.000    0.000    0.000 
#
# Total GULP energy -67092.741260 kJ/mol
# GULP energy per Si atom -5591.061772 kJ/mol
# Density = 2.282580 g / cm^3
# Si number density = 22.877872 Si / 1000 Ang^3
#
#
#
# Elastic Constant Matrix: (Units=GPa)
#
#
# Indices 1 2 3 4 5 6 
#
# 1 112.5435 14.5738 15.9349 -4.0489 -4.0040 8.0256
# 2 14.5738 87.8897 22.4417 -8.4052 -5.7807 -0.6975
# 3 15.9349 22.4417 102.3831 -10.2321 9.3824 -6.2409
# 4 -4.0489 -8.4052 -10.2321 55.0739 2.2329 -7.0070
# 5 -4.0040 -5.7807 9.3824 2.2329 38.9829 -7.5336
# 6 8.0256 -0.6975 -6.2409 -7.0070 -7.5336 35.0730
#
#
#
# Elastic Compliance Matrix: (Units=1/GPa)
#
#
# Indices 1 2 3 4 5 6 
#
# 1 0.009425 -0.001180 -0.001419 -0.000071 0.000695 -0.002298
# 2 -0.001180 0.012535 -0.002601 0.001352 0.002451 0.000853
# 3 -0.001419 -0.002601 0.011144 0.001944 -0.002936 0.002014
# 4 -0.000071 0.001352 0.001944 0.019267 -0.000584 0.004113
# 5 0.000695 0.002451 -0.002936 -0.000584 0.027838 0.005230
# 6 -0.002298 0.000853 0.002014 0.004113 0.005230 0.031358
#
#
# Mechanical properties :
#
#
# Convention : Reuss Voigt Hill
#
# Bulk Modulus (GPa) = 44.04560 45.41301 44.72931
# Shear Modulus (GPa) = 38.59912 42.48367 40.54139
#
# Velocity S-wave (km/s) = 4.11199 4.31394 4.21417
# Velocity P-wave (km/s) = 6.46830 6.68631 6.57821
#
# Compressibility (1/GPa) = 0.02270374
#
# Stress axis : x y z
#
# Youngs Moduli (GPa) = 106.09866 79.77600 89.73056
#
# Poissons Ratio (x) = 0.09413 0.12734
# Poissons Ratio (y) = 0.12518 0.23343
# Poissons Ratio (z) = 0.15057 0.20753
#
# Static dielectric constant tensor:
#      x y z
#    x 1.855050 -0.030750 0.018760 
#    y -0.030750 1.882440 0.096750 
#    z 0.018760 0.096750 1.903600 
# 
# From -- ./inp_files/147583.got.cif
#   From: 2010.05.17/outbox.cif.g08.bks.cpg/sg2_74_cif.got.tgz:147583.got - 2010.06.03 11:33:40.
