data_PCOD9063609
_publ_section_title
;
Structure prediction by ZEFSAII (Michael W. Deem and Ramdas Pophale) SiO2 
 PCOD9063609
Probable space group: P -1
;
_chemical_formula_sum "Si O2"
_cell_formula_units_Z 15
_cell_length_a 20.784400
_cell_length_b 6.206693
_cell_length_c 9.190280
_cell_angle_alpha 109.272308
_cell_angle_beta 140.505420
_cell_angle_gamma 91.549760
_cell_volume 628.525498
_symmetry_space_group_name_H-M "P -1"
_symmetry_group_IT_number 2
_symmetry_cell_setting 'triclinic'
loop_
_space_group_symop_operation_xyz
x,y,z
-x,-y,-z
loop_
_atom_site_type_symbol
_atom_site_label
_atom_site_fract_x
_atom_site_fract_y
_atom_site_fract_z
Si Si1 0.501770 0.743283 0.875239
Si Si2 0.374188 0.769158 0.248981
Si Si3 0.010600 0.661785 0.195850
Si Si4 0.500000 0.500000 0.500000
Si Si5 0.008769 0.887298 0.645445
Si Si6 0.301961 0.296675 0.610699
Si Si7 0.190528 0.582997 0.655649
Si Si8 0.812353 0.185559 0.895402
O O1 0.496338 0.679006 0.678752
O O2 0.389849 0.497787 0.691651
O O3 0.615349 0.743070 0.139179
O O4 0.500000 0.000000 0.000000
O O5 0.390903 0.519223 0.244188
O O6 0.304387 0.817670 0.264119
O O7 0.500000 0.000000 0.500000
O O8 0.303931 0.759139 0.980512
O O9 0.000002 0.917028 0.210420
O O10 0.128803 0.720813 0.494029
O O11 0.905241 0.466258 0.067750
O O12 0.000000 0.500000 0.000000
O O13 0.000000 0.000000 0.500000
O O14 0.903051 0.611673 0.436144
O O15 0.127411 0.885279 0.882472
O O16 0.227412 0.420070 0.576152
O O17 0.218870 0.026487 0.330747
#
# Coordination Sequence:
#
# PCOD9063609 Si02
#       8
#     2   2   2   1   2   2   2   2
#     4  11  26  45  71 103 145 201 253 300 370 446
#     4  12  27  45  68 103 146 193 241 299 368 438
#     4  11  24  44  74 105 135 187 244 300 383 446
#     4  12  26  46  70 106 142 194 262 298 358 454
#     4  11  24  44  71 105 143 185 243 308 381 447
#     4  11  24  46  66 100 148 187 238 307 367 436
#     4  11  25  44  70 104 146 187 243 309 368 449
#     4  11  25  45  71 104 146 187 244 311 370 451
#
# _framework density 23.865380999999999
#
# number of rings (size 3 to 8) (size 9 to 14) (size 15 to 20)
#    0.000    0.800    1.333    4.800    3.733   13.867 
#    0.000    0.000    0.000    0.000    0.000    0.000 
#    0.000    0.000    0.000    0.000    0.000    0.000 
#
# Total GULP energy -83741.201217 kJ/mol
# GULP energy per Si atom -5582.746748 kJ/mol
# Density = 2.381106 g / cm^3
# Si number density = 23.865381 Si / 1000 Ang^3
#
#
#
# Elastic Constant Matrix: (Units=GPa)
#
#
# Indices 1 2 3 4 5 6 
#
# 1 119.2909 28.8422 35.9588 -6.8550 -2.1460 -32.8719
# 2 28.8422 68.8004 21.9267 -6.5104 5.7939 -21.8227
# 3 35.9588 21.9267 125.2771 0.4097 7.6765 -2.7366
# 4 -6.8550 -6.5104 0.4097 35.9110 -13.6513 -3.7958
# 5 -2.1460 5.7939 7.6765 -13.6513 52.3538 -1.5953
# 6 -32.8719 -21.8227 -2.7366 -3.7958 -1.5953 45.5588
#
#
#
# Elastic Compliance Matrix: (Units=1/GPa)
#
#
# Indices 1 2 3 4 5 6 
#
# 1 0.012283 -0.001238 -0.003285 0.003974 0.002417 0.008488
# 2 -0.001238 0.018999 -0.002772 0.003947 -0.000463 0.008354
# 3 -0.003285 -0.002772 0.009462 -0.002328 -0.001926 -0.003391
# 4 0.003974 0.003947 -0.002328 0.033612 0.009067 0.007736
# 5 0.002417 -0.000463 -0.001926 0.009067 0.021987 0.002932
# 6 0.008488 0.008354 -0.003391 0.007736 0.002932 0.032619
#
#
# Mechanical properties :
#
#
# Convention : Reuss Voigt Hill
#
# Bulk Modulus (GPa) = 38.23314 54.09155 46.16234
# Shear Modulus (GPa) = 32.83644 41.87408 37.35526
#
# Velocity S-wave (km/s) = 3.71334 4.19333 3.96061
# Velocity P-wave (km/s) = 5.86859 6.79411 6.34824
#
# Compressibility (1/GPa) = 0.02615532
#
# Stress axis : x y z
#
# Youngs Moduli (GPa) = 81.41279 52.63340 105.68731
#
# Poissons Ratio (x) = 0.06514 0.34715
# Poissons Ratio (y) = 0.10075 0.29299
# Poissons Ratio (z) = 0.26742 0.14591
#
# Static dielectric constant tensor:
#      x y z
#    x 1.929220 0.010940 -0.058990 
#    y 0.010940 1.955530 -0.004900 
#    z -0.058990 -0.004900 1.898780 
# 
# From -- ./inp_files/340591.got.cif
#   From: 2010.05.17/outbox.cif.g08.bks.cpg/sg2_171_cif.got.tgz:340591.got - 2010.06.03 11:33:40.
