data_PCOD9063579
_publ_section_title
;
Structure prediction by ZEFSAII (Michael W. Deem and Ramdas Pophale) SiO2 
 PCOD9063579
Probable space group: P -1
;
_chemical_formula_sum "Si O2"
_cell_formula_units_Z 10
_cell_length_a 11.741963
_cell_length_b 5.933767
_cell_length_c 11.873622
_cell_angle_alpha 60.322348
_cell_angle_beta 34.952496
_cell_angle_gamma 79.359298
_cell_volume 368.896713
_symmetry_space_group_name_H-M "P -1"
_symmetry_group_IT_number 2
_symmetry_cell_setting 'triclinic'
loop_
_space_group_symop_operation_xyz
x,y,z
-x,-y,-z
loop_
_atom_site_type_symbol
_atom_site_label
_atom_site_fract_x
_atom_site_fract_y
_atom_site_fract_z
Si Si1 0.838292 0.325600 0.012489
Si Si2 0.042316 0.262943 0.663441
Si Si3 0.557908 0.777725 0.741298
Si Si4 0.655738 0.336252 0.400441
Si Si5 0.744215 0.066336 0.740751
O O1 0.903426 0.131065 0.921256
O O2 0.089372 0.518805 0.800310
O O3 0.698841 0.441152 0.014796
O O4 0.694270 0.261340 0.259222
O O5 0.276656 0.257788 0.470964
O O6 0.119336 0.607678 0.500584
O O7 0.892110 0.087383 0.724067
O O8 0.547617 0.069231 0.639590
O O9 0.676616 0.834171 0.751639
O O10 0.500000 0.500000 0.500000
O O11 0.500000 0.000000 0.000000
#
# Coordination Sequence:
#
# PCOD9063579 Si02
#       5
#     2   2   2   2   2
#     4  11  24  44  71 101 135 183 226 280 341 402
#     4  11  25  45  70 105 138 175 234 274 340 412
#     4  12  25  44  72 102 138 181 225 282 340 400
#     4  11  26  46  69 103 140 179 230 279 338 407
#     4  11  24  47  69 102 139 180 223 285 341 401
#
# _framework density 27.107856000000002
#
# number of rings (size 3 to 8) (size 9 to 14) (size 15 to 20)
#    0.000    0.800    4.000    2.400    0.000    7.200 
#    0.000    0.000    0.000    0.000    0.000    0.000 
#    0.000    0.000    0.000    0.000    0.000    0.000 
#
# Total GULP energy -55809.161762 kJ/mol
# GULP energy per Si atom -5580.916176 kJ/mol
# Density = 2.704616 g / cm^3
# Si number density = 27.107856 Si / 1000 Ang^3
#
#
#
# Elastic Constant Matrix: (Units=GPa)
#
#
# Indices 1 2 3 4 5 6 
#
# 1 164.5013 49.4578 46.3664 -4.4940 -23.0473 39.1283
# 2 49.4578 61.8704 50.5031 -3.8663 0.2375 10.8088
# 3 46.3664 50.5031 228.6954 29.9917 -33.9913 12.9396
# 4 -4.4940 -3.8663 29.9917 52.2555 3.2353 2.9921
# 5 -23.0473 0.2375 -33.9913 3.2353 61.9721 -4.7423
# 6 39.1283 10.8088 12.9396 2.9921 -4.7423 46.5574
#
#
#
# Elastic Compliance Matrix: (Units=1/GPa)
#
#
# Indices 1 2 3 4 5 6 
#
# 1 0.010280 -0.007389 0.000421 0.000259 0.003556 -0.006695
# 2 -0.007389 0.027447 -0.006269 0.005365 -0.006528 0.000570
# 3 0.000421 -0.006269 0.006912 -0.004650 0.004208 -0.000092
# 4 0.000259 0.005365 -0.004650 0.022576 -0.003807 -0.002009
# 5 0.003556 -0.006528 0.004208 -0.003807 0.019963 -0.000365
# 6 -0.006695 0.000570 -0.000092 -0.002009 -0.000365 0.027091
#
#
# Mechanical properties :
#
#
# Convention : Reuss Voigt Hill
#
# Bulk Modulus (GPa) = 55.05105 83.08021 69.06563
# Shear Modulus (GPa) = 34.06042 52.73964 43.40003
#
# Velocity S-wave (km/s) = 3.54853 4.41562 4.00561
# Velocity P-wave (km/s) = 6.09439 7.53070 6.85030
#
# Compressibility (1/GPa) = 0.01816496
#
# Stress axis : x y z
#
# Youngs Moduli (GPa) = 97.27951 36.43324 144.67237
#
# Poissons Ratio (x) = 0.26920 -0.06091
# Poissons Ratio (y) = 0.71877 0.90701
# Poissons Ratio (z) = -0.04095 0.22842
#
# Static dielectric constant tensor:
#      x y z
#    x 2.125750 0.081730 0.020980 
#    y 0.081730 2.235160 -0.081460 
#    z 0.020980 -0.081460 2.141130 
# 
# From -- ./inp_files/2285.got.cif
#   From: 2010.05.17/outbox.cif.g08.bks.cpg/sg2_2_cif.got.tgz:2285.got - 2010.06.03 11:33:40.
