data_PCOD9063848
_publ_section_title
;
Structure prediction by ZEFSAII (Michael W. Deem and Ramdas Pophale) SiO2 
 PCOD9063848
Probable space group: P -1
;
_chemical_formula_sum "Si O2"
_cell_formula_units_Z 16
_cell_length_a 14.065013
_cell_length_b 11.564677
_cell_length_c 5.173539
_cell_angle_alpha 69.387774
_cell_angle_beta 122.158954
_cell_angle_gamma 90.216919
_cell_volume 648.654007
_symmetry_space_group_name_H-M "P -1"
_symmetry_group_IT_number 2
_symmetry_cell_setting 'triclinic'
loop_
_space_group_symop_operation_xyz
x,y,z
-x,-y,-z
loop_
_atom_site_type_symbol
_atom_site_label
_atom_site_fract_x
_atom_site_fract_y
_atom_site_fract_z
Si Si1 0.073306 0.515495 0.843291
Si Si2 0.894639 0.213481 0.204331
Si Si3 0.501117 0.819657 0.272851
Si Si4 0.380670 0.531801 0.958387
Si Si5 0.681080 0.591941 0.526545
Si Si6 0.673982 0.227014 0.568537
Si Si7 0.333903 0.020859 0.506941
Si Si8 0.909323 0.961872 0.697960
O O1 0.094425 0.658106 0.745262
O O2 0.000000 0.500000 0.500000
O O3 0.194960 0.417280 0.154211
O O4 0.000000 0.500000 0.000000
O O5 0.014599 0.139885 0.304986
O O6 0.858154 0.101243 0.397158
O O7 0.792741 0.251127 0.823333
O O8 0.592040 0.728817 0.286025
O O9 0.432507 0.741087 0.413265
O O10 0.585632 0.884263 0.517657
O O11 0.408419 0.929294 0.905755
O O12 0.305215 0.470459 0.690216
O O13 0.348944 0.684543 0.784766
O O14 0.500000 0.500000 0.000000
O O15 0.373414 0.485125 0.273874
O O16 0.683942 0.079202 0.653529
O O17 0.202225 0.086130 0.337490
O O18 0.000000 0.000000 0.000000
#
# Coordination Sequence:
#
# PCOD9063848 Si02
#       8
#     2   2   2   2   2   2   2   2
#     4  12  30  52  76 109 152 199 250 315 384 450
#     4  11  26  45  72 105 143 189 253 308 371 446
#     4  11  26  45  67 107 150 192 245 300 383 442
#     4  12  25  42  76 109 145 186 251 301 369 443
#     4  12  27  48  72 112 144 199 245 307 374 453
#     4  12  23  44  72 102 147 188 245 309 366 449
#     4  11  25  44  72 102 148 191 245 308 372 440
#     4  11  24  44  75 106 136 194 251 310 364 433
#
# _framework density 24.666464999999999
#
# number of rings (size 3 to 8) (size 9 to 14) (size 15 to 20)
#    0.000    0.500    5.000    2.250    7.000    0.000 
#    0.000    0.000    0.000    0.000    0.000    0.000 
#    0.000    0.000    0.000    0.000    0.000    0.000 
#
# Total GULP energy -89484.148254 kJ/mol
# GULP energy per Si atom -5592.759266 kJ/mol
# Density = 2.461032 g / cm^3
# Si number density = 24.666465 Si / 1000 Ang^3
#
#
#
# Elastic Constant Matrix: (Units=GPa)
#
#
# Indices 1 2 3 4 5 6 
#
# 1 99.7561 6.1340 26.1538 2.6076 20.4763 3.2030
# 2 6.1340 112.1004 15.8941 20.5947 11.6173 -1.9056
# 3 26.1538 15.8941 67.9186 22.7698 17.9144 13.0188
# 4 2.6076 20.5947 22.7698 43.6410 1.3900 3.5517
# 5 20.4763 11.6173 17.9144 1.3900 48.9515 0.9972
# 6 3.2030 -1.9056 13.0188 3.5517 0.9972 24.9801
#
#
#
# Elastic Compliance Matrix: (Units=1/GPa)
#
#
# Indices 1 2 3 4 5 6 
#
# 1 0.011790 0.000041 -0.004297 0.001575 -0.003427 0.000644
# 2 0.000041 0.010086 -0.000675 -0.004493 -0.002074 0.001837
# 3 -0.004297 -0.000675 0.023723 -0.010784 -0.006212 -0.010083
# 4 0.001575 -0.004493 -0.010784 0.030406 0.003478 0.000613
# 5 -0.003427 -0.002074 -0.006212 0.003478 0.024487 0.002047
# 6 0.000644 0.001837 -0.010083 0.000613 0.002047 0.045175
#
#
# Mechanical properties :
#
#
# Convention : Reuss Voigt Hill
#
# Bulk Modulus (GPa) = 27.98302 41.79320 34.88811
# Shear Modulus (GPa) = 29.86118 38.95407 34.40762
#
# Velocity S-wave (km/s) = 3.48314 3.97827 3.73891
# Velocity P-wave (km/s) = 5.24838 6.17108 5.72834
#
# Compressibility (1/GPa) = 0.03573595
#
# Stress axis : x y z
#
# Youngs Moduli (GPa) = 84.81680 99.15082 42.15373
#
# Poissons Ratio (x) = -0.00405 0.18115
# Poissons Ratio (y) = -0.00346 0.02845
# Poissons Ratio (z) = 0.36448 0.06691
#
# Static dielectric constant tensor:
#      x y z
#    x 1.992850 -0.023730 0.030940 
#    y -0.023730 2.045730 0.051580 
#    z 0.030940 0.051580 2.041480 
# 
# From -- ./inp_files/68995.got.cif
#   From: 2010.05.17/outbox.cif.g08.bks.cpg/sg2_35_cif.got.tgz:68995.got - 2010.06.03 11:33:40.
