data_PCOD9063031
_publ_section_title
;
Structure prediction by ZEFSAII (Michael W. Deem and Ramdas Pophale) SiO2 
 PCOD9063031
Probable space group: P -1
;
_chemical_formula_sum "Si O2"
_cell_formula_units_Z 16
_cell_length_a 10.414299
_cell_length_b 13.630377
_cell_length_c 14.098036
_cell_angle_alpha 159.724707
_cell_angle_beta 103.117046
_cell_angle_gamma 74.167807
_cell_volume 664.655628
_symmetry_space_group_name_H-M "P -1"
_symmetry_group_IT_number 2
_symmetry_cell_setting 'triclinic'
loop_
_space_group_symop_operation_xyz
x,y,z
-x,-y,-z
loop_
_atom_site_type_symbol
_atom_site_label
_atom_site_fract_x
_atom_site_fract_y
_atom_site_fract_z
Si Si1 0.446190 0.953602 0.343471
Si Si2 0.153596 0.598604 0.393179
Si Si3 0.480540 0.481936 0.186645
Si Si4 0.089385 0.247689 0.730887
Si Si5 0.345228 0.125452 0.123805
Si Si6 0.850970 0.719420 0.445493
Si Si7 0.765127 0.822628 0.124985
Si Si8 0.289786 0.575031 0.687581
O O1 0.287795 0.045856 0.373118
O O2 0.500000 0.000000 0.500000
O O3 0.483691 0.636012 0.019823
O O4 0.517336 0.181555 0.503866
O O5 0.249960 0.367183 0.263829
O O6 0.000872 0.755397 0.535657
O O7 0.230871 0.861920 0.626129
O O8 0.126655 0.404901 0.121847
O O9 0.355481 0.342084 0.063829
O O10 0.592068 0.352227 0.161633
O O11 0.134551 0.331885 0.712034
O O12 0.213262 0.163711 0.746550
O O13 0.000000 0.000000 0.500000
O O14 0.000000 0.500000 0.000000
O O15 0.341910 0.299931 0.380790
O O16 0.500000 0.000000 0.000000
O O17 0.263236 0.860659 0.878289
O O18 0.815374 0.496477 0.316647
#
# Coordination Sequence:
#
# PCOD9063031 Si02
#       8
#     2   2   2   2   2   2   2   2
#     4  11  24  43  69 103 145 196 243 305 362 440
#     4  12  27  45  73 107 146 199 243 311 376 437
#     4  11  24  43  70 103 142 193 245 303 374 430
#     4  12  24  44  70 105 145 198 242 289 357 438
#     4  12  27  50  77 110 145 191 256 312 383 456
#     4  11  26  47  73 108 153 191 247 297 377 449
#     4  12  24  46  71 107 151 190 252 303 362 441
#     4  11  26  48  77 108 149 194 241 323 379 442
#
# _framework density 24.072614999999999
#
# number of rings (size 3 to 8) (size 9 to 14) (size 15 to 20)
#    0.000    0.500    2.500    5.250    0.000   12.000 
#    0.000    0.000    0.000    0.000    0.000    0.000 
#    0.000    0.000    0.000    0.000    0.000    0.000 
#
# Total GULP energy -89184.890749 kJ/mol
# GULP energy per Si atom -5574.055672 kJ/mol
# Density = 2.401782 g / cm^3
# Si number density = 24.072615 Si / 1000 Ang^3
#
#
#
# Elastic Constant Matrix: (Units=GPa)
#
#
# Indices 1 2 3 4 5 6 
#
# 1 133.9375 54.9450 34.9546 8.9823 10.4460 4.8137
# 2 54.9450 101.4143 17.8867 -6.1366 1.7836 14.2859
# 3 34.9546 17.8867 143.1494 5.0334 -3.6115 20.1991
# 4 8.9823 -6.1366 5.0334 44.2218 -0.5260 4.3739
# 5 10.4460 1.7836 -3.6115 -0.5260 24.5335 -1.9772
# 6 4.8137 14.2859 20.1991 4.3739 -1.9772 48.5079
#
#
#
# Elastic Compliance Matrix: (Units=1/GPa)
#
#
# Indices 1 2 3 4 5 6 
#
# 1 0.010936 -0.005875 -0.002175 -0.003005 -0.004482 0.001639
# 2 -0.005875 0.013736 0.000164 0.003471 0.001296 -0.003791
# 3 -0.002175 0.000164 0.007980 -0.000118 0.001839 -0.003070
# 4 -0.003005 0.003471 -0.000118 0.024010 0.001300 -0.002787
# 5 -0.004482 0.001296 0.001839 0.001300 0.042948 0.000931
# 6 0.001639 -0.003791 -0.003070 -0.002787 0.000931 0.023136
#
#
# Mechanical properties :
#
#
# Convention : Reuss Voigt Hill
#
# Bulk Modulus (GPa) = 59.24404 66.00819 62.62612
# Shear Modulus (GPa) = 34.68705 41.50031 38.09368
#
# Velocity S-wave (km/s) = 3.80008 4.15657 3.98232
# Velocity P-wave (km/s) = 6.62708 7.10747 6.87147
#
# Compressibility (1/GPa) = 0.01687933
#
# Stress axis : x y z
#
# Youngs Moduli (GPa) = 91.43997 72.80116 125.31266
#
# Poissons Ratio (x) = 0.42773 0.27255
# Poissons Ratio (y) = 0.53724 -0.02053
# Poissons Ratio (z) = 0.19888 -0.01193
#
# Static dielectric constant tensor:
#      x y z
#    x 2.027800 -0.064830 -0.090020 
#    y -0.064830 1.979660 -0.088610 
#    z -0.090020 -0.088610 1.872420 
# 
# From -- ./inp_files/522054.got.cif
#   From: 2010.05.17/outbox.cif.g08.bks.cpg/sg2_262_cif.got.tgz:522054.got - 2010.06.03 11:33:40.
