data_PCOD9063536
_publ_section_title
;
Structure prediction by ZEFSAII (Michael W. Deem and Ramdas Pophale) SiO2 
 PCOD9063536
Probable space group: P -1
;
_chemical_formula_sum "Si O2"
_cell_formula_units_Z 13
_cell_length_a 7.464204
_cell_length_b 9.249763
_cell_length_c 11.823466
_cell_angle_alpha 92.483161
_cell_angle_beta 81.926892
_cell_angle_gamma 40.567430
_cell_volume 511.161676
_symmetry_space_group_name_H-M "P -1"
_symmetry_group_IT_number 2
_symmetry_cell_setting 'triclinic'
loop_
_space_group_symop_operation_xyz
x,y,z
-x,-y,-z
loop_
_atom_site_type_symbol
_atom_site_label
_atom_site_fract_x
_atom_site_fract_y
_atom_site_fract_z
Si Si1 0.742926 0.044369 0.449712
Si Si2 0.993794 0.860766 0.657437
Si Si3 0.186780 0.608701 0.247865
Si Si4 0.204335 0.319568 0.376555
Si Si5 0.500000 0.500000 0.000000
Si Si6 0.248816 0.967084 0.081778
Si Si7 0.837228 0.741202 0.070088
O O1 0.495285 0.110807 0.411762
O O2 0.738623 0.214720 0.416028
O O3 0.761274 0.029454 0.582921
O O4 0.038369 0.794679 0.365391
O O5 0.971115 0.702389 0.665048
O O6 0.936120 0.955844 0.790420
O O7 0.279094 0.399032 0.284890
O O8 0.943140 0.715880 0.182565
O O9 0.414097 0.548742 0.146833
O O10 0.000000 0.500000 0.500000
O O11 0.603356 0.265095 0.990320
O O12 0.504299 0.912980 0.101309
O O13 0.085348 0.167133 0.010775
O O14 0.000000 0.500000 0.000000
#
# Coordination Sequence:
#
# PCOD9063536 Si02
#       7
#     2   2   2   2   1   2   2
#     4  11  26  48  73 108 151 189 245 312 376 445
#     4  11  24  49  74 105 146 197 240 310 378 438
#     4  12  26  48  69 107 148 192 250 302 378 445
#     4  12  27  47  74 112 147 195 247 308 376 450
#     4  12  26  46  70 110 146 196 246 308 370 444
#     4  11  25  45  70 104 143 189 252 304 365 442
#     4  11  24  44  70 102 141 193 246 302 367 445
#
# _framework density 25.432269000000002
#
# number of rings (size 3 to 8) (size 9 to 14) (size 15 to 20)
#    0.000    0.615    4.615    2.308    6.462    2.462 
#    2.769    0.000    0.000    0.000    0.000    0.000 
#    0.000    0.000    0.000    0.000    0.000    0.000 
#
# Total GULP energy -72513.888537 kJ/mol
# GULP energy per Si atom -5577.991426 kJ/mol
# Density = 2.537438 g / cm^3
# Si number density = 25.432269 Si / 1000 Ang^3
#
#
#
# Elastic Constant Matrix: (Units=GPa)
#
#
# Indices 1 2 3 4 5 6 
#
# 1 90.6182 5.1633 -11.8790 -9.9659 7.3655 10.8539
# 2 5.1633 88.2329 45.6007 -14.2984 1.4439 40.1726
# 3 -11.8790 45.6007 112.9958 -19.0659 2.0830 5.8082
# 4 -9.9659 -14.2984 -19.0659 53.8712 12.6764 0.5611
# 5 7.3655 1.4439 2.0830 12.6764 51.3442 -3.2308
# 6 10.8539 40.1726 5.8082 0.5611 -3.2308 39.5583
#
#
#
# Elastic Compliance Matrix: (Units=1/GPa)
#
#
# Indices 1 2 3 4 5 6 
#
# 1 0.012595 0.001825 0.001670 0.004254 -0.003347 -0.005888
# 2 0.001825 0.032162 -0.009913 0.006749 -0.004454 -0.032167
# 3 0.001670 -0.009913 0.013043 0.002354 -0.000592 0.007612
# 4 0.004254 0.006749 0.002354 0.023802 -0.007358 -0.009305
# 5 -0.003347 -0.004454 -0.000592 -0.007358 0.022392 0.007462
# 6 -0.005888 -0.032167 0.007612 -0.009305 0.007462 0.059185
#
#
# Mechanical properties :
#
#
# Convention : Reuss Voigt Hill
#
# Bulk Modulus (GPa) = 22.24026 41.06853 31.65439
# Shear Modulus (GPa) = 26.17738 45.81885 35.99811
#
# Velocity S-wave (km/s) = 3.21175 4.24913 3.76633
# Velocity P-wave (km/s) = 4.74528 6.34482 5.60243
#
# Compressibility (1/GPa) = 0.04496351
#
# Stress axis : x y z
#
# Youngs Moduli (GPa) = 79.39421 31.09220 76.67028
#
# Poissons Ratio (x) = -0.05674 -0.12803
# Poissons Ratio (y) = -0.14489 0.76006
# Poissons Ratio (z) = -0.13257 0.30823
#
# Static dielectric constant tensor:
#      x y z
#    x 2.108690 -0.013030 -0.063750 
#    y -0.013030 2.133140 0.000870 
#    z -0.063750 0.000870 1.960990 
# 
# From -- ./inp_files/44359.got.cif
#   From: 2010.05.17/outbox.cif.g08.bks.cpg/sg2_23_cif.got.tgz:44359.got - 2010.06.03 11:33:40.
