data_PCOD9063220
_publ_section_title
;
Structure prediction by ZEFSAII (Michael W. Deem and Ramdas Pophale) SiO2 
 PCOD9063220
Probable space group: P -1
;
_chemical_formula_sum "Si O2"
_cell_formula_units_Z 16
_cell_length_a 9.576118
_cell_length_b 5.392712
_cell_length_c 22.923312
_cell_angle_alpha 120.852488
_cell_angle_beta 141.405609
_cell_angle_gamma 73.805071
_cell_volume 617.307660
_symmetry_space_group_name_H-M "P -1"
_symmetry_group_IT_number 2
_symmetry_cell_setting 'triclinic'
loop_
_space_group_symop_operation_xyz
x,y,z
-x,-y,-z
loop_
_atom_site_type_symbol
_atom_site_label
_atom_site_fract_x
_atom_site_fract_y
_atom_site_fract_z
Si Si1 0.600660 0.363980 0.459936
Si Si2 0.089088 0.711961 0.274783
Si Si3 0.366596 0.532274 0.018970
Si Si4 0.177115 0.087225 0.998991
Si Si5 0.600701 0.788892 0.425075
Si Si6 0.552393 0.487025 0.252498
Si Si7 0.120547 0.057127 0.209690
Si Si8 0.248317 0.071067 0.727290
O O1 0.500000 0.500000 0.500000
O O2 0.730172 0.608718 0.487485
O O3 0.385228 0.183992 0.329396
O O4 0.731980 0.117238 0.491715
O O5 0.970594 0.866316 0.303483
O O6 0.364384 0.809909 0.382921
O O7 0.022549 0.356079 0.217044
O O8 0.030904 0.828064 0.205832
O O9 0.296397 0.221545 0.993322
O O10 0.195491 0.756915 0.982030
O O11 0.500000 0.500000 0.000000
O O12 0.550908 0.728986 0.144762
O O13 0.319049 0.312402 0.120858
O O14 0.919963 0.064436 0.885077
O O15 0.504417 0.604733 0.314044
O O16 0.693003 0.771600 0.296988
O O17 0.710854 0.255498 0.289215
#
# Coordination Sequence:
#
# PCOD9063220 Si02
#       8
#     2   2   2   2   2   2   2   2
#     4  10  21  38  61  87 108 138 188 241 283 329
#     4  10  20  34  53  80 112 147 192 237 272 321
#     4  10  18  27  44  70 105 146 191 229 259 306
#     4  10  19  30  46  73 111 148 181 218 269 328
#     4  10  21  39  60  86 115 147 183 230 284 335
#     4  10  21  35  53  82 118 155 187 220 271 334
#     4  10  19  33  53  81 111 144 182 235 285 325
#     4  10  19  32  52  79 112 155 193 226 268 324
#
# _framework density 25.919003
#
# number of rings (size 3 to 8) (size 9 to 14) (size 15 to 20)
#    0.000    2.000    0.000    4.500    0.000    2.000 
#    0.000    5.000    0.000    0.000    0.000   70.000 
#    0.000    0.000    0.000    0.000    0.000    0.000 
#
# Total GULP energy -89386.173389 kJ/mol
# GULP energy per Si atom -5586.635837 kJ/mol
# Density = 2.586001 g / cm^3
# Si number density = 25.919003 Si / 1000 Ang^3
#
#
#
# Elastic Constant Matrix: (Units=GPa)
#
#
# Indices 1 2 3 4 5 6 
#
# 1 74.3835 39.5344 23.0508 -16.2829 -23.3198 14.0294
# 2 39.5344 183.2236 44.9192 -7.9116 -26.9038 36.2550
# 3 23.0508 44.9192 115.1594 -20.0295 -12.8914 4.5293
# 4 -16.2829 -7.9116 -20.0295 25.5718 2.6782 -6.8168
# 5 -23.3198 -26.9038 -12.8914 2.6782 27.5419 -11.9699
# 6 14.0294 36.2550 4.5293 -6.8168 -11.9699 44.2461
#
#
#
# Elastic Compliance Matrix: (Units=1/GPa)
#
#
# Indices 1 2 3 4 5 6 
#
# 1 0.021936 -0.002136 0.000287 0.012117 0.015842 0.000918
# 2 -0.002136 0.007856 -0.002591 -0.002618 0.002656 -0.005179
# 3 0.000287 -0.002591 0.011449 0.008823 0.003601 0.003193
# 4 0.012117 -0.002618 0.008823 0.054116 0.010271 0.008516
# 5 0.015842 0.002656 0.003601 0.010271 0.057117 0.009466
# 6 0.000918 -0.005179 0.003193 0.008516 0.009466 0.030100
#
#
# Mechanical properties :
#
#
# Convention : Reuss Voigt Hill
#
# Bulk Modulus (GPa) = 30.90103 65.30838 48.10470
# Shear Modulus (GPa) = 24.72308 37.15609 30.93959
#
# Velocity S-wave (km/s) = 3.09181 3.79033 3.45875
# Velocity P-wave (km/s) = 4.96928 6.66388 5.87797
#
# Compressibility (1/GPa) = 0.03236138
#
# Stress axis : x y z
#
# Youngs Moduli (GPa) = 45.58706 127.29677 87.34532
#
# Poissons Ratio (x) = 0.27188 -0.02508
# Poissons Ratio (y) = 0.09736 0.22631
# Poissons Ratio (z) = -0.01309 0.32982
#
# Static dielectric constant tensor:
#      x y z
#    x 1.141880 0.013290 -0.354570 
#    y 0.013290 2.190420 -0.012550 
#    z -0.354570 -0.012550 1.936460 
# 
# From -- ./inp_files/585887.got.cif
#   From: 2010.05.17/outbox.cif.g08.bks.cpg/sg2_293_cif.got.tgz:585887.got - 2010.06.03 11:33:40.
