data_PCOD9063179
_publ_section_title
;
Structure prediction by ZEFSAII (Michael W. Deem and Ramdas Pophale) SiO2 
 PCOD9063179
Probable space group: P -1
;
_chemical_formula_sum "Si O2"
_cell_formula_units_Z 12
_cell_length_a 8.297306
_cell_length_b 9.468097
_cell_length_c 12.207780
_cell_angle_alpha 36.991842
_cell_angle_beta 113.391769
_cell_angle_gamma 94.264349
_cell_volume 475.718718
_symmetry_space_group_name_H-M "P -1"
_symmetry_group_IT_number 2
_symmetry_cell_setting 'triclinic'
loop_
_space_group_symop_operation_xyz
x,y,z
-x,-y,-z
loop_
_atom_site_type_symbol
_atom_site_label
_atom_site_fract_x
_atom_site_fract_y
_atom_site_fract_z
Si Si1 0.836584 0.007002 0.312505
Si Si2 0.243605 0.401830 0.040802
Si Si3 0.772234 0.216654 0.799162
Si Si4 0.163720 0.591699 0.528647
Si Si5 0.555565 0.861967 0.958637
Si Si6 0.810839 0.611168 0.726339
O O1 0.818757 0.836425 0.513726
O O2 0.046597 0.847461 0.412917
O O3 0.792771 0.297657 0.153845
O O4 0.675723 0.028250 0.165411
O O5 0.394821 0.241078 0.088922
O O6 0.034902 0.416897 0.939899
O O7 0.295359 0.299208 0.241801
O O8 0.747180 0.341031 0.595333
O O9 0.736328 0.440111 0.739662
O O10 0.633916 0.076402 0.863169
O O11 0.000000 0.000000 0.000000
O O12 0.321730 0.375100 0.781839
O O13 0.000000 0.500000 0.500000
#
# Coordination Sequence:
#
# PCOD9063179 Si02
#       6
#     2   2   2   2   2   2
#     4  12  26  45  71 105 141 179 233 286 344 410
#     4  11  24  45  71 101 141 182 233 280 343 415
#     4  12  22  46  72 100 141 178 232 285 342 409
#     4  12  24  46  71 103 140 183 229 283 349 406
#     4  12  28  45  72 107 137 183 232 285 346 410
#     4  11  24  43  72 101 133 191 228 279 350 402
#
# _framework density 25.224989000000001
#
# number of rings (size 3 to 8) (size 9 to 14) (size 15 to 20)
#    0.000    0.333    6.667    2.000    2.333    3.333 
#    0.000    0.000    0.000    0.000    0.000    0.000 
#    0.000    0.000    0.000    0.000    0.000    0.000 
#
# Total GULP energy -67430.357295 kJ/mol
# GULP energy per Si atom -5619.196441 kJ/mol
# Density = 2.516758 g / cm^3
# Si number density = 25.224989 Si / 1000 Ang^3
#
#
#
# Elastic Constant Matrix: (Units=GPa)
#
#
# Indices 1 2 3 4 5 6 
#
# 1 71.4683 57.4744 65.0531 6.0142 -4.6069 -2.7240
# 2 57.4744 144.6629 35.0697 10.0104 -22.0022 -10.1176
# 3 65.0531 35.0697 118.6368 38.2617 -13.8830 -12.1072
# 4 6.0142 10.0104 38.2617 37.2113 -3.9985 -11.0313
# 5 -4.6069 -22.0022 -13.8830 -3.9985 41.9597 3.6588
# 6 -2.7240 -10.1176 -12.1072 -11.0313 3.6588 49.1677
#
#
#
# Elastic Compliance Matrix: (Units=1/GPa)
#
#
# Indices 1 2 3 4 5 6 
#
# 1 0.068991 -0.021347 -0.046415 0.040150 -0.014986 -0.001876
# 2 -0.021347 0.014570 0.012310 -0.011782 0.008107 0.001600
# 3 -0.046415 0.012310 0.044742 -0.040188 0.012241 0.001052
# 4 0.040150 -0.011782 -0.040188 0.065443 -0.009290 0.005278
# 5 -0.014986 0.008107 0.012241 -0.009290 0.029641 -0.000438
# 6 -0.001876 0.001600 0.001052 0.005278 -0.000438 0.022040
#
#
# Mechanical properties :
#
#
# Convention : Reuss Voigt Hill
#
# Bulk Modulus (GPa) = 57.47060 72.21806 64.84433
# Shear Modulus (GPa) = 13.80723 37.47910 25.64316
#
# Velocity S-wave (km/s) = 2.34212 3.85878 3.19184
# Velocity P-wave (km/s) = 5.49060 6.96745 6.27264
#
# Compressibility (1/GPa) = 0.01740020
#
# Stress axis : x y z
#
# Youngs Moduli (GPa) = 14.49455 68.63570 22.35044
#
# Poissons Ratio (x) = 1.46517 1.03739
# Poissons Ratio (y) = 0.30942 -0.27514
# Poissons Ratio (z) = 0.67276 -0.84492
#
# Static dielectric constant tensor:
#      x y z
#    x 1.986840 -0.012180 0.019430 
#    y -0.012180 1.977280 0.014280 
#    z 0.019430 0.014280 1.957410 
# 
# From -- ./inp_files/172976.got.cif
#   From: 2010.05.17/outbox.cif.g08.bks.cpg/sg2_87_cif.got.tgz:172976.got - 2010.06.03 11:33:40.
