data_PCOD9063966
_publ_section_title
;
Structure prediction by ZEFSAII (Michael W. Deem and Ramdas Pophale) SiO2 
 PCOD9063966
Probable space group: P -1
;
_chemical_formula_sum "Si O2"
_cell_formula_units_Z 16
_cell_length_a 9.104712
_cell_length_b 12.359504
_cell_length_c 8.956828
_cell_angle_alpha 94.288967
_cell_angle_beta 73.945075
_cell_angle_gamma 131.397593
_cell_volume 718.367878
_symmetry_space_group_name_H-M "P -1"
_symmetry_group_IT_number 2
_symmetry_cell_setting 'triclinic'
loop_
_space_group_symop_operation_xyz
x,y,z
-x,-y,-z
loop_
_atom_site_type_symbol
_atom_site_label
_atom_site_fract_x
_atom_site_fract_y
_atom_site_fract_z
Si Si1 0.060162 0.447528 0.842101
Si Si2 0.954246 0.701997 0.704248
Si Si3 0.423713 0.587045 0.551164
Si Si4 0.805653 0.846325 0.603802
Si Si5 0.345154 0.866488 0.413113
Si Si6 0.387941 0.060778 0.164060
Si Si7 0.814144 0.166364 0.047172
Si Si8 0.254305 0.603840 0.305340
O O1 0.293467 0.546011 0.733562
O O2 0.928398 0.421797 0.733076
O O3 0.000000 0.500000 0.000000
O O4 0.981395 0.293530 0.901409
O O5 0.860503 0.754935 0.641639
O O6 0.782808 0.531495 0.781763
O O7 0.138496 0.741206 0.552698
O O8 0.074457 0.802468 0.826077
O O9 0.500000 0.500000 0.500000
O O10 0.630702 0.754656 0.518799
O O11 0.282223 0.562121 0.454900
O O12 0.707010 0.869973 0.764710
O O13 0.000000 0.000000 0.500000
O O14 0.404927 0.780641 0.307262
O O15 0.500000 0.000000 0.500000
O O16 0.312573 0.939017 0.298805
O O17 0.634368 0.171272 0.117783
O O18 0.308730 0.985859 0.017642
#
# Coordination Sequence:
#
# PCOD9063966 Si02
#       8
#     2   2   2   2   2   2   2   2
#     4  12  24  45  76 104 143 189 238 299 365 426
#     4  12  24  44  68 106 139 188 236 295 356 428
#     4  12  27  47  72 107 144 188 242 299 359 433
#     4  12  27  46  72 101 145 186 236 294 361 424
#     4  12  22  40  72 103 135 183 249 291 343 417
#     4  11  24  45  68 103 142 188 236 300 355 422
#     4  11  25  43  72 104 142 184 242 297 359 425
#     4  12  26  44  74 104 143 189 245 298 354 428
#
# _framework density 22.272711000000001
#
# number of rings (size 3 to 8) (size 9 to 14) (size 15 to 20)
#    0.000    0.250    6.250    3.750    1.750    0.500 
#    0.000    3.750    0.000    0.000    0.000    0.000 
#    0.000    0.000    0.000    0.000    0.000    0.000 
#
# Total GULP energy -89164.177295 kJ/mol
# GULP energy per Si atom -5572.761081 kJ/mol
# Density = 2.222202 g / cm^3
# Si number density = 22.272711 Si / 1000 Ang^3
#
#
#
# Elastic Constant Matrix: (Units=GPa)
#
#
# Indices 1 2 3 4 5 6 
#
# 1 57.7143 28.0280 40.1696 9.4462 7.9838 6.4809
# 2 28.0280 107.0382 25.7461 15.1208 -0.8541 6.5618
# 3 40.1696 25.7461 76.1515 16.6314 11.5350 15.0576
# 4 9.4462 15.1208 16.6314 35.9678 1.1628 6.7552
# 5 7.9838 -0.8541 11.5350 1.1628 38.6875 4.1550
# 6 6.4809 6.5618 15.0576 6.7552 4.1550 37.9213
#
#
#
# Elastic Compliance Matrix: (Units=1/GPa)
#
#
# Indices 1 2 3 4 5 6 
#
# 1 0.029311 -0.004476 -0.014017 0.000456 -0.002142 0.001484
# 2 -0.004476 0.011208 -0.000907 -0.003086 0.001581 -0.000438
# 3 -0.014017 -0.000907 0.023687 -0.005755 -0.003431 -0.005452
# 4 0.000456 -0.003086 -0.005755 0.032193 0.000919 -0.003094
# 5 -0.002142 0.001581 -0.003431 0.000919 0.027505 -0.001722
# 6 0.001484 -0.000438 -0.005452 -0.003094 -0.001722 0.029097
#
#
# Mechanical properties :
#
#
# Convention : Reuss Voigt Hill
#
# Bulk Modulus (GPa) = 39.36098 47.64349 43.50224
# Shear Modulus (GPa) = 24.96615 32.31267 28.63941
#
# Velocity S-wave (km/s) = 3.35166 3.81303 3.58977
# Velocity P-wave (km/s) = 5.71741 6.38929 6.06267
#
# Compressibility (1/GPa) = 0.02540587
#
# Stress axis : x y z
#
# Youngs Moduli (GPa) = 34.11649 89.22093 42.21724
#
# Poissons Ratio (x) = 0.39936 0.59175
# Poissons Ratio (y) = 0.15271 0.03830
# Poissons Ratio (z) = 0.47821 0.08095
#
# Static dielectric constant tensor:
#      x y z
#    x 1.800830 0.001570 -0.058380 
#    y 0.001570 1.902500 0.017070 
#    z -0.058380 0.017070 1.852100 
# 
# From -- ./inp_files/187525.got.cif
#   From: 2010.05.17/outbox.cif.g08.bks.cpg/sg2_94_cif.got.tgz:187525.got - 2010.06.03 11:33:40.
