data_PCOD9063139
_publ_section_title
;
Structure prediction by ZEFSAII (Michael W. Deem and Ramdas Pophale) SiO2 
 PCOD9063139
Probable space group: P -1
;
_chemical_formula_sum "Si O2"
_cell_formula_units_Z 14
_cell_length_a 7.089664
_cell_length_b 8.278649
_cell_length_c 21.001618
_cell_angle_alpha 127.621288
_cell_angle_beta 38.801309
_cell_angle_gamma 121.542400
_cell_volume 608.994469
_symmetry_space_group_name_H-M "P -1"
_symmetry_group_IT_number 2
_symmetry_cell_setting 'triclinic'
loop_
_space_group_symop_operation_xyz
x,y,z
-x,-y,-z
loop_
_atom_site_type_symbol
_atom_site_label
_atom_site_fract_x
_atom_site_fract_y
_atom_site_fract_z
Si Si1 0.315422 0.078499 0.308477
Si Si2 0.341616 0.973251 0.922847
Si Si3 0.313841 0.394574 0.081333
Si Si4 0.745960 0.453925 0.318523
Si Si5 0.697600 0.473102 0.114625
Si Si6 0.705879 0.208275 0.512776
Si Si7 0.773232 0.296270 0.662339
O O1 0.459609 0.002579 0.187079
O O2 0.562084 0.231080 0.317572
O O3 0.028986 0.196630 0.391073
O O4 0.217988 0.889412 0.334781
O O5 0.348343 0.750873 0.897331
O O6 0.400304 0.161646 0.001247
O O7 0.000000 0.000000 0.000000
O O8 0.452469 0.499421 0.131902
O O9 0.963263 0.425954 0.192208
O O10 0.500000 0.500000 0.000000
O O11 0.497238 0.611353 0.409092
O O12 0.957274 0.534451 0.342397
O O13 0.574022 0.635870 0.233775
O O14 0.000000 0.500000 0.000000
O O15 0.812730 0.228635 0.563157
O O16 0.500000 0.000000 0.500000
#
# Coordination Sequence:
#
# PCOD9063139 Si02
#       7
#     2   2   2   2   2   2   2
#     4  12  25  47  76 105 144 194 241 301 363 428
#     4  12  23  44  70 103 144 180 237 292 358 430
#     4  11  24  43  71 104 147 186 234 297 360 430
#     4  11  25  48  71 108 144 188 246 293 364 431
#     4  11  25  42  70 104 143 189 233 293 364 431
#     4  12  27  49  75 104 145 192 242 300 368 434
#     4  11  26  49  71 105 149 187 243 303 364 429
#
# _framework density 22.988716
#
# number of rings (size 3 to 8) (size 9 to 14) (size 15 to 20)
#    0.000    0.571    2.857    5.571    2.000    0.571 
#    7.714    0.000    0.000    0.000    0.000    0.000 
#    0.000    0.000    0.000    0.000    0.000    0.000 
#
# Total GULP energy -78145.446867 kJ/mol
# GULP energy per Si atom -5581.817633 kJ/mol
# Density = 2.293639 g / cm^3
# Si number density = 22.988716 Si / 1000 Ang^3
#
#
#
# Elastic Constant Matrix: (Units=GPa)
#
#
# Indices 1 2 3 4 5 6 
#
# 1 69.4231 -2.9951 18.1508 -2.1875 -4.9588 10.6241
# 2 -2.9951 63.4478 -1.8941 15.1360 -6.2340 11.2501
# 3 18.1508 -1.8941 138.8050 18.4333 -24.5553 1.0131
# 4 -2.1875 15.1360 18.4333 32.2729 1.1432 -6.3521
# 5 -4.9588 -6.2340 -24.5553 1.1432 37.7246 6.6678
# 6 10.6241 11.2501 1.0131 -6.3521 6.6678 46.6767
#
#
#
# Elastic Compliance Matrix: (Units=1/GPa)
#
#
# Indices 1 2 3 4 5 6 
#
# 1 0.015699 0.001487 -0.001732 0.000482 0.001892 -0.004099
# 2 0.001487 0.021575 0.003421 -0.013955 0.007938 -0.008646
# 3 -0.001732 0.003421 0.009925 -0.008217 0.007549 -0.002842
# 4 0.000482 -0.013955 -0.008217 0.044826 -0.010910 0.011091
# 5 0.001892 0.007938 0.007549 -0.010910 0.034900 -0.008978
# 6 -0.004099 -0.008646 -0.002842 0.011091 -0.008978 0.027294
#
#
# Mechanical properties :
#
#
# Convention : Reuss Voigt Hill
#
# Bulk Modulus (GPa) = 18.67408 33.13325 25.90366
# Shear Modulus (GPa) = 30.17163 40.56246 35.36705
#
# Velocity S-wave (km/s) = 3.62671 4.20509 3.92657
# Velocity P-wave (km/s) = 5.06736 6.16613 5.64355
#
# Compressibility (1/GPa) = 0.05355017
#
# Stress axis : x y z
#
# Youngs Moduli (GPa) = 63.69844 46.34930 100.75521
#
# Poissons Ratio (x) = -0.06892 0.17452
# Poissons Ratio (y) = -0.09471 -0.34464
# Poissons Ratio (z) = 0.11033 -0.15854
#
# Static dielectric constant tensor:
#      x y z
#    x 1.864500 0.048070 0.074260 
#    y 0.048070 1.874450 0.108070 
#    z 0.074260 0.108070 2.867410 
# 
# From -- ./inp_files/327234.got.cif
#   From: 2010.05.17/outbox.cif.g08.bks.cpg/sg2_164_cif.got.tgz:327234.got - 2010.06.03 11:33:40.
