data_PCOD9063330
_publ_section_title
;
Structure prediction by ZEFSAII (Michael W. Deem and Ramdas Pophale) SiO2 
 PCOD9063330
Probable space group: P -1
;
_chemical_formula_sum "Si O2"
_cell_formula_units_Z 14
_cell_length_a 8.084312
_cell_length_b 13.847360
_cell_length_c 15.017420
_cell_angle_alpha 29.823068
_cell_angle_beta 105.448743
_cell_angle_gamma 125.164104
_cell_volume 559.796139
_symmetry_space_group_name_H-M "P -1"
_symmetry_group_IT_number 2
_symmetry_cell_setting 'triclinic'
loop_
_space_group_symop_operation_xyz
x,y,z
-x,-y,-z
loop_
_atom_site_type_symbol
_atom_site_label
_atom_site_fract_x
_atom_site_fract_y
_atom_site_fract_z
Si Si1 0.850906 0.328178 0.301312
Si Si2 0.255692 0.939427 0.315149
Si Si3 0.485445 0.470656 0.674540
Si Si4 0.436042 0.857345 0.960792
Si Si5 0.247113 0.510670 0.464230
Si Si6 0.750127 0.647004 0.968406
Si Si7 0.143631 0.970479 0.610630
O O1 0.750119 0.123445 0.533042
O O2 0.810452 0.179048 0.323593
O O3 0.728195 0.437834 0.190564
O O4 0.145126 0.598622 0.141413
O O5 0.029782 0.646736 0.469114
O O6 0.505179 0.099612 0.170403
O O7 0.193971 0.116469 0.156519
O O8 0.273848 0.412558 0.637928
O O9 0.673605 0.562431 0.548540
O O10 0.623559 0.726632 0.557511
O O11 0.432759 0.224613 0.912338
O O12 0.556923 0.153426 0.776234
O O13 0.962551 0.781646 0.818505
O O14 0.500000 0.500000 0.000000
O O15 0.000000 0.000000 0.500000
#
# Coordination Sequence:
#
# PCOD9063330 Si02
#       7
#     2   2   2   2   2   2   2
#     4  12  27  49  76 107 150 193 240 304 372 435
#     4  12  27  48  71 114 148 187 247 308 355 442
#     4  11  24  43  77 105 143 200 236 305 364 426
#     4  12  25  45  78 106 142 198 244 292 375 433
#     4  11  24  46  71 109 149 185 251 299 359 436
#     4  12  27  46  72 108 147 191 243 298 369 438
#     4  12  21  49  75 105 151 189 244 301 365 437
#
# _framework density 25.009105999999999
#
# number of rings (size 3 to 8) (size 9 to 14) (size 15 to 20)
#    0.000    0.286    5.714    3.000    2.000    3.429 
#    2.571    0.000    0.000    0.000    0.000    0.000 
#    0.000    0.000    0.000    0.000    0.000    0.000 
#
# Total GULP energy -78558.688571 kJ/mol
# GULP energy per Si atom -5611.334898 kJ/mol
# Density = 2.495218 g / cm^3
# Si number density = 25.009106 Si / 1000 Ang^3
#
#
#
# Elastic Constant Matrix: (Units=GPa)
#
#
# Indices 1 2 3 4 5 6 
#
# 1 88.1587 30.0771 45.9604 -0.5977 14.1155 -7.2007
# 2 30.0771 110.1131 30.0044 -2.5885 11.6017 -11.5142
# 3 45.9604 30.0044 81.8337 -2.7720 16.8574 2.3118
# 4 -0.5977 -2.5885 -2.7720 39.7778 -2.5678 9.3664
# 5 14.1155 11.6017 16.8574 -2.5678 53.0883 -2.6747
# 6 -7.2007 -11.5142 2.3118 9.3664 -2.6747 41.0020
#
#
#
# Elastic Compliance Matrix: (Units=1/GPa)
#
#
# Indices 1 2 3 4 5 6 
#
# 1 0.016972 -0.001821 -0.008742 -0.001301 -0.001241 0.003178
# 2 -0.001821 0.010730 -0.002830 -0.000253 -0.000831 0.002857
# 3 -0.008742 -0.002830 0.019001 0.001746 -0.003208 -0.004009
# 4 -0.001301 -0.000253 0.001746 0.026801 0.000817 -0.006467
# 5 -0.001241 -0.000831 -0.003208 0.000817 0.020451 0.000877
# 6 0.003178 0.002857 -0.004009 -0.006467 0.000877 0.027510
#
#
# Mechanical properties :
#
#
# Convention : Reuss Voigt Hill
#
# Bulk Modulus (GPa) = 50.20949 54.68770 52.44860
# Shear Modulus (GPa) = 32.28125 38.37788 35.32956
#
# Velocity S-wave (km/s) = 3.59664 3.92159 3.76263
# Velocity P-wave (km/s) = 6.11292 6.51304 6.31615
#
# Compressibility (1/GPa) = 0.01991655
#
# Stress axis : x y z
#
# Youngs Moduli (GPa) = 58.92173 93.19397 52.62998
#
# Poissons Ratio (x) = 0.16971 0.46011
# Poissons Ratio (y) = 0.10730 0.14893
# Poissons Ratio (z) = 0.51511 0.26371
#
# Static dielectric constant tensor:
#      x y z
#    x 1.986460 0.001050 0.009170 
#    y 0.001050 1.968400 -0.013980 
#    z 0.009170 -0.013980 1.969830 
# 
# From -- ./inp_files/505112.got.cif
#   From: 2010.05.17/outbox.cif.g08.bks.cpg/sg2_253_cif.got.tgz:505112.got - 2010.06.03 11:33:40.
