data_PCOD9063930
_publ_section_title
;
Structure prediction by ZEFSAII (Michael W. Deem and Ramdas Pophale) SiO2 
 PCOD9063930
Probable space group: P -1
;
_chemical_formula_sum "Si O2"
_cell_formula_units_Z 14
_cell_length_a 7.053707
_cell_length_b 29.729298
_cell_length_c 5.234816
_cell_angle_alpha 109.612315
_cell_angle_beta 87.318996
_cell_angle_gamma 43.497455
_cell_volume 636.465951
_symmetry_space_group_name_H-M "P -1"
_symmetry_group_IT_number 2
_symmetry_cell_setting 'triclinic'
loop_
_space_group_symop_operation_xyz
x,y,z
-x,-y,-z
loop_
_atom_site_type_symbol
_atom_site_label
_atom_site_fract_x
_atom_site_fract_y
_atom_site_fract_z
Si Si1 0.943111 0.294687 0.367732
Si Si2 0.134492 0.837362 0.372821
Si Si3 0.174870 0.143918 0.074486
Si Si4 0.765040 0.571245 0.346359
Si Si5 0.139500 0.313580 0.890701
Si Si6 0.824128 0.461374 0.384315
Si Si7 0.899400 0.990866 0.738321
O O1 0.587869 0.350253 0.556021
O O2 0.137882 0.207846 0.156957
O O3 0.062289 0.301000 0.613278
O O4 0.981899 0.318038 0.151620
O O5 0.498221 0.757344 0.215639
O O6 0.969788 0.840359 0.613242
O O7 0.056565 0.908081 0.561825
O O8 0.004760 0.847043 0.124979
O O9 0.530927 0.058592 0.887868
O O10 0.736630 0.533337 0.476787
O O11 0.937382 0.581921 0.479561
O O12 0.000000 0.500000 0.000000
O O13 0.008351 0.393417 0.038275
O O14 0.500000 0.500000 0.500000
O O15 0.000000 0.000000 0.500000
O O16 0.000000 0.000000 0.000000
#
# Coordination Sequence:
#
# PCOD9063930 Si02
#       7
#     2   2   2   2   2   2   2
#     4  12  26  45  67 100 134 179 224 281 337 406
#     4  12  25  44  69 101 134 179 222 277 341 400
#     4  12  25  44  69  99 139 173 226 279 335 404
#     4  11  26  41  70  96 136 177 231 282 345 407
#     4  12  26  44  70  96 137 177 227 276 343 405
#     4  11  24  45  66  99 133 180 227 285 342 409
#     4  12  24  44  70 100 136 177 225 274 337 406
#
# _framework density 21.996462999999999
#
# number of rings (size 3 to 8) (size 9 to 14) (size 15 to 20)
#    0.000    0.286    1.429    7.714    6.000    1.143 
#    0.000    0.000    0.000    0.000    0.000    0.000 
#    0.000    0.000    0.000    0.000    0.000    0.000 
#
# Total GULP energy -78353.343565 kJ/mol
# GULP energy per Si atom -5596.667398 kJ/mol
# Density = 2.194640 g / cm^3
# Si number density = 21.996463 Si / 1000 Ang^3
#
#
#
# Elastic Constant Matrix: (Units=GPa)
#
#
# Indices 1 2 3 4 5 6 
#
# 1 83.5147 16.7071 14.3530 5.6328 4.8778 -26.7597
# 2 16.7071 73.9661 15.0410 17.1822 -0.5854 -13.5424
# 3 14.3530 15.0410 79.1052 7.1542 4.9343 -15.0819
# 4 5.6328 17.1822 7.1542 58.6107 -2.1699 -7.1595
# 5 4.8778 -0.5854 4.9343 -2.1699 66.5101 6.6635
# 6 -26.7597 -13.5424 -15.0819 -7.1595 6.6635 57.3372
#
#
#
# Elastic Compliance Matrix: (Units=1/GPa)
#
#
# Indices 1 2 3 4 5 6 
#
# 1 0.014654 -0.001968 -0.000979 -0.000002 -0.001652 0.006308
# 2 -0.001968 0.015590 -0.001925 -0.003928 0.000121 0.001753
# 3 -0.000979 -0.001925 0.013864 -0.000740 -0.001278 0.002791
# 4 -0.000002 -0.003928 -0.000740 0.018460 0.000510 0.001122
# 5 -0.001652 0.000121 -0.001278 0.000510 0.015552 -0.002822
# 6 0.006308 0.001753 0.002791 0.001122 -0.002822 0.022001
#
#
# Mechanical properties :
#
#
# Convention : Reuss Voigt Hill
#
# Bulk Modulus (GPa) = 29.10102 36.53201 32.81651
# Shear Modulus (GPa) = 41.21360 49.19061 45.20211
#
# Velocity S-wave (km/s) = 4.33326 4.73408 4.53810
# Velocity P-wave (km/s) = 6.18828 6.82101 6.51233
#
# Compressibility (1/GPa) = 0.03436306
#
# Stress axis : x y z
#
# Youngs Moduli (GPa) = 68.24144 64.14346 72.13014
#
# Poissons Ratio (x) = 0.12626 0.07059
# Poissons Ratio (y) = 0.13433 0.13887
# Poissons Ratio (z) = 0.06678 0.12349
#
# Static dielectric constant tensor:
#      x y z
#    x 1.813280 0.047210 -0.024550 
#    y 0.047210 1.872220 -0.033380 
#    z -0.024550 -0.033380 1.787000 
# 
# From -- ./inp_files/7638.got.cif
#   From: 2010.05.17/outbox.cif.g08.bks.cpg/sg2_4_cif.got.tgz:7638.got - 2010.06.03 11:33:40.
