data_PCOD9063914
_publ_section_title
;
Structure prediction by ZEFSAII (Michael W. Deem and Ramdas Pophale) SiO2 
 PCOD9063914
Probable space group: P -1
;
_chemical_formula_sum "Si O2"
_cell_formula_units_Z 16
_cell_length_a 6.711314
_cell_length_b 9.728546
_cell_length_c 20.896577
_cell_angle_alpha 62.126701
_cell_angle_beta 98.691716
_cell_angle_gamma 133.158391
_cell_volume 849.159831
_symmetry_space_group_name_H-M "P -1"
_symmetry_group_IT_number 2
_symmetry_cell_setting 'triclinic'
loop_
_space_group_symop_operation_xyz
x,y,z
-x,-y,-z
loop_
_atom_site_type_symbol
_atom_site_label
_atom_site_fract_x
_atom_site_fract_y
_atom_site_fract_z
Si Si1 0.756522 0.835604 0.291450
Si Si2 0.221542 0.957313 0.196698
Si Si3 0.758552 0.582389 0.452572
Si Si4 0.856625 0.573828 0.945625
Si Si5 0.884458 0.469231 0.709447
Si Si6 0.167648 0.766204 0.783170
Si Si7 0.762069 0.258601 0.459350
Si Si8 0.211220 0.161044 0.031104
O O1 0.829299 0.753177 0.368009
O O2 0.433567 0.641048 0.294591
O O3 0.977625 0.922643 0.227042
O O4 0.784819 0.026841 0.275544
O O5 0.140243 0.731556 0.245040
O O6 0.523933 0.138487 0.207107
O O7 0.249131 0.039423 0.108968
O O8 0.500000 0.500000 0.500000
O O9 0.676784 0.381993 0.454348
O O10 0.015756 0.685298 0.490081
O O11 0.900452 0.750155 0.953547
O O12 0.987251 0.663041 0.862197
O O13 0.518499 0.368473 0.972428
O O14 0.000000 0.500000 0.000000
O O15 0.012517 0.599120 0.753677
O O16 0.080713 0.630235 0.624916
O O17 0.500000 0.000000 0.500000
O O18 0.000000 0.000000 0.000000
#
# Coordination Sequence:
#
# PCOD9063914 Si02
#       8
#     2   2   2   2   2   2   2   2
#     4  11  24  45  65  93 132 172 218 260 322 381
#     4  11  24  45  63  94 131 171 213 264 320 380
#     4  11  24  45  66  90 135 171 206 271 319 374
#     4  11  24  45  62  97 132 166 213 266 318 382
#     4  11  26  42  65  98 127 169 218 262 317 389
#     4  11  26  42  68  94 133 169 213 269 322 374
#     4  11  26  42  65  99 130 167 219 262 320 383
#     4  11  26  42  68  95 130 171 218 259 320 384
#
# _framework density 18.842155000000002
#
# number of rings (size 3 to 8) (size 9 to 14) (size 15 to 20)
#    0.000    1.000    5.000    0.000    7.000    3.000 
#    0.000    0.000    0.000    0.000    0.000    0.000 
#    0.000    0.000    0.000    0.000    0.000    0.000 
#
# Total GULP energy -89444.867339 kJ/mol
# GULP energy per Si atom -5590.304209 kJ/mol
# Density = 1.879927 g / cm^3
# Si number density = 18.842155 Si / 1000 Ang^3
#
#
#
# Elastic Constant Matrix: (Units=GPa)
#
#
# Indices 1 2 3 4 5 6 
#
# 1 103.3932 44.1309 32.2168 2.8384 -11.5433 -0.5227
# 2 44.1309 124.2831 52.1267 12.2835 -11.7936 -2.3743
# 3 32.2168 52.1267 102.6044 -3.3154 1.8826 -0.6547
# 4 2.8384 12.2835 -3.3154 27.2139 1.0216 -3.3524
# 5 -11.5433 -11.7936 1.8826 1.0216 44.7217 -4.4238
# 6 -0.5227 -2.3743 -0.6547 -3.3524 -4.4238 11.4273
#
#
#
# Elastic Compliance Matrix: (Units=1/GPa)
#
#
# Indices 1 2 3 4 5 6 
#
# 1 0.011952 -0.003037 -0.002256 -0.000158 0.002451 0.000689
# 2 -0.003037 0.012345 -0.005553 -0.005854 0.002993 0.001549
# 3 -0.002256 -0.005553 0.013468 0.004456 -0.002739 -0.000238
# 4 -0.000158 -0.005854 0.004456 0.041304 -0.001677 0.010500
# 5 0.002451 0.002993 -0.002739 -0.001677 0.024898 0.009724
# 6 0.000689 0.001549 -0.000238 0.010500 0.009724 0.094694
#
#
# Mechanical properties :
#
#
# Convention : Reuss Voigt Hill
#
# Bulk Modulus (GPa) = 62.20578 65.24772 63.72675
# Shear Modulus (GPa) = 22.15231 30.12632 26.13932
#
# Velocity S-wave (km/s) = 3.43254 4.00294 3.72866
# Velocity P-wave (km/s) = 6.98538 7.48789 7.24099
#
# Compressibility (1/GPa) = 0.01607568
#
# Stress axis : x y z
#
# Youngs Moduli (GPa) = 83.66601 81.00231 74.24927
#
# Poissons Ratio (x) = 0.24596 0.16750
# Poissons Ratio (y) = 0.25405 0.41228
# Poissons Ratio (z) = 0.18874 0.44977
#
# Static dielectric constant tensor:
#      x y z
#    x 1.647900 -0.003310 -0.008990 
#    y -0.003310 1.611290 -0.018770 
#    z -0.008990 -0.018770 1.644670 
# 
# From -- ./inp_files/11362.got.cif
#   From: 2010.05.17/outbox.cif.g08.bks.cpg/sg2_6_cif.got.tgz:11362.got - 2010.06.03 11:33:40.
