data_PCOD9063704
_publ_section_title
;
Structure prediction by ZEFSAII (Michael W. Deem and Ramdas Pophale) SiO2 
 PCOD9063704
Probable space group: P -1
;
_chemical_formula_sum "Si O2"
_cell_formula_units_Z 12
_cell_length_a 6.361568
_cell_length_b 5.052363
_cell_length_c 19.132984
_cell_angle_alpha 53.754161
_cell_angle_beta 89.163776
_cell_angle_gamma 83.306149
_cell_volume 491.436392
_symmetry_space_group_name_H-M "P -1"
_symmetry_group_IT_number 2
_symmetry_cell_setting 'triclinic'
loop_
_space_group_symop_operation_xyz
x,y,z
-x,-y,-z
loop_
_atom_site_type_symbol
_atom_site_label
_atom_site_fract_x
_atom_site_fract_y
_atom_site_fract_z
Si Si1 0.754854 0.809665 0.280111
Si Si2 0.612053 0.309126 0.596186
Si Si3 0.511875 0.134658 0.092689
Si Si4 0.083294 0.222139 0.404099
Si Si5 0.044978 0.042194 0.155346
Si Si6 0.876408 0.737148 0.080108
O O1 0.577024 0.823551 0.338136
O O2 0.869744 0.431593 0.340950
O O3 0.632160 0.000597 0.185190
O O4 0.973337 0.977446 0.244872
O O5 0.500000 0.500000 0.500000
O O6 0.746778 0.554778 0.599240
O O7 0.781683 0.012462 0.614572
O O8 0.277344 0.084906 0.123918
O O9 0.500000 0.500000 0.000000
O O10 0.635395 0.878502 0.076319
O O11 0.000000 0.000000 0.500000
O O12 0.913536 0.405183 0.087848
O O13 0.986512 0.740212 0.155250
O O14 0.000000 0.000000 0.000000
#
# Coordination Sequence:
#
# PCOD9063704 Si02
#       6
#     2   2   2   2   2   2
#     4  11  28  46  76 112 154 197 257 309 380 450
#     4  12  27  50  82 114 154 200 251 311 387 458
#     4  11  25  47  75 105 149 201 252 311 371 443
#     4  12  27  50  81 114 156 198 250 315 382 456
#     4  11  26  46  68 105 143 191 248 312 368 440
#     4  11  24  44  72  99 140 191 251 308 374 434
#
# _framework density 24.418215
#
# number of rings (size 3 to 8) (size 9 to 14) (size 15 to 20)
#    0.000    0.667    3.333    2.500    2.333   12.667 
#    0.000    0.000    0.000    0.000    0.000    0.000 
#    0.000    0.000    0.000    0.000    0.000    0.000 
#
# Total GULP energy -66871.672748 kJ/mol
# GULP energy per Si atom -5572.639396 kJ/mol
# Density = 2.436264 g / cm^3
# Si number density = 24.418215 Si / 1000 Ang^3
#
#
#
# Elastic Constant Matrix: (Units=GPa)
#
#
# Indices 1 2 3 4 5 6 
#
# 1 168.8793 56.9577 87.6987 12.3668 -27.2435 -43.2391
# 2 56.9577 127.1715 36.4516 3.3030 -4.6487 -26.7993
# 3 87.6987 36.4516 184.5088 4.1120 -20.4453 -14.2382
# 4 12.3668 3.3030 4.1120 32.6408 -13.7947 -1.7128
# 5 -27.2435 -4.6487 -20.4453 -13.7947 78.9360 14.2728
# 6 -43.2391 -26.7993 -14.2382 -1.7128 14.2728 58.9917
#
#
#
# Elastic Compliance Matrix: (Units=1/GPa)
#
#
# Indices 1 2 3 4 5 6 
#
# 1 0.010470 -0.002334 -0.003931 -0.002510 0.001054 0.005337
# 2 -0.002334 0.009653 -0.000687 -0.000266 -0.000956 0.002732
# 3 -0.003931 -0.000687 0.007386 0.000956 0.000976 -0.001619
# 4 -0.002510 -0.000266 0.000956 0.033771 0.005650 -0.002116
# 5 0.001054 -0.000956 0.000976 0.005650 0.014727 -0.002825
# 6 0.005337 0.002732 -0.001619 -0.002116 -0.002825 0.022336
#
#
# Mechanical properties :
#
#
# Convention : Reuss Voigt Hill
#
# Bulk Modulus (GPa) = 73.49807 93.64174 83.56991
# Shear Modulus (GPa) = 42.81460 54.07713 48.44586
#
# Velocity S-wave (km/s) = 4.19189 4.71108 4.45905
# Velocity P-wave (km/s) = 7.32081 8.24771 7.79805
#
# Compressibility (1/GPa) = 0.01360580
#
# Stress axis : x y z
#
# Youngs Moduli (GPa) = 95.50741 103.58951 135.39630
#
# Poissons Ratio (x) = 0.24181 0.53222
# Poissons Ratio (y) = 0.22294 0.09298
# Poissons Ratio (z) = 0.37543 0.07114
#
# Static dielectric constant tensor:
#      x y z
#    x 2.130860 0.090890 0.069210 
#    y 0.090890 1.995330 0.026230 
#    z 0.069210 0.026230 2.025210 
# 
# From -- ./inp_files/580568.got.cif
#   From: 2010.05.17/outbox.cif.g08.bks.cpg/sg2_291_cif.got.tgz:580568.got - 2010.06.03 11:33:40.
