data_PCOD9063078
_publ_section_title
;
Structure prediction by ZEFSAII (Michael W. Deem and Ramdas Pophale) SiO2 
 PCOD9063078
Probable space group: P -1
;
_chemical_formula_sum "Si O2"
_cell_formula_units_Z 15
_cell_length_a 10.164537
_cell_length_b 11.024398
_cell_length_c 19.778505
_cell_angle_alpha 146.665711
_cell_angle_beta 27.630991
_cell_angle_gamma 137.060748
_cell_volume 564.558463
_symmetry_space_group_name_H-M "P -1"
_symmetry_group_IT_number 2
_symmetry_cell_setting 'triclinic'
loop_
_space_group_symop_operation_xyz
x,y,z
-x,-y,-z
loop_
_atom_site_type_symbol
_atom_site_label
_atom_site_fract_x
_atom_site_fract_y
_atom_site_fract_z
Si Si1 0.986053 0.352533 0.823026
Si Si2 0.367943 0.603475 0.429314
Si Si3 0.790998 0.568473 0.433591
Si Si4 0.530429 0.247005 0.079110
Si Si5 0.849563 0.815890 0.902624
Si Si6 0.670623 0.071713 0.723487
Si Si7 0.706262 0.830191 0.181941
Si Si8 0.500000 0.000000 0.500000
O O1 0.847581 0.222462 0.763718
O O2 0.321326 0.293628 0.646598
O O3 0.844685 0.278667 0.922867
O O4 0.903700 0.611159 0.979582
O O5 0.233080 0.503560 0.510553
O O6 0.438849 0.408737 0.255270
O O7 0.241026 0.818576 0.550376
O O8 0.500000 0.500000 0.500000
O O9 0.025498 0.400402 0.217217
O O10 0.814492 0.829381 0.536906
O O11 0.330744 0.280960 0.121359
O O12 0.500000 0.000000 0.000000
O O13 0.628236 0.958508 0.114273
O O14 0.101754 0.964327 0.830779
O O15 0.557931 0.171680 0.750788
O O16 0.588026 0.859685 0.324864
#
# Coordination Sequence:
#
# PCOD9063078 Si02
#       8
#     2   2   2   2   2   2   2   1
#     4  11  25  43  73 102 140 190 237 294 362 432
#     4  12  25  45  68  99 146 185 235 298 356 432
#     4  12  25  47  72 107 143 191 245 298 361 425
#     4  11  24  43  70 104 137 189 245 291 358 434
#     4  11  25  44  77 104 142 190 243 305 356 428
#     4  11  25  48  74 109 141 188 245 299 360 428
#     4  12  23  48  70 101 144 187 237 293 365 428
#     4  12  26  42  68 102 148 184 236 288 366 428
#
# _framework density 26.569437000000001
#
# number of rings (size 3 to 8) (size 9 to 14) (size 15 to 20)
#    0.000    0.533    4.000    4.400    3.733    1.600 
#    0.000    1.333    0.000    0.000    0.000    0.000 
#    0.000    0.000    0.000    0.000    0.000    0.000 
#
# Total GULP energy -83982.056780 kJ/mol
# GULP energy per Si atom -5598.803785 kJ/mol
# Density = 2.650896 g / cm^3
# Si number density = 26.569437 Si / 1000 Ang^3
#
#
#
# Elastic Constant Matrix: (Units=GPa)
#
#
# Indices 1 2 3 4 5 6 
#
# 1 74.0866 -7.3447 17.4553 -17.7490 18.7347 21.9441
# 2 -7.3447 89.8590 14.7081 18.4833 14.4904 -9.6909
# 3 17.4553 14.7081 114.9139 8.1204 17.7927 0.8341
# 4 -17.7490 18.4833 8.1204 55.3679 -2.4197 8.2979
# 5 18.7347 14.4904 17.7927 -2.4197 58.8192 -9.8123
# 6 21.9441 -9.6909 0.8341 8.2979 -9.8123 40.4412
#
#
#
# Elastic Compliance Matrix: (Units=1/GPa)
#
#
# Indices 1 2 3 4 5 6 
#
# 1 0.024181 -0.000084 -0.002829 0.010407 -0.009313 -0.017478
# 2 -0.000084 0.013078 -0.000952 -0.004902 -0.002509 0.003596
# 3 -0.002829 -0.000952 0.009666 -0.002254 -0.001687 0.001161
# 4 0.010407 -0.004902 -0.002254 0.025134 -0.002482 -0.012535
# 5 -0.009313 -0.002509 -0.001687 -0.002482 0.022748 0.010516
# 6 -0.017478 0.003596 0.001161 -0.012535 0.010516 0.040172
#
#
# Mechanical properties :
#
#
# Convention : Reuss Voigt Hill
#
# Bulk Modulus (GPa) = 25.51406 36.49965 31.00686
# Shear Modulus (GPa) = 32.09749 47.86169 39.97959
#
# Velocity S-wave (km/s) = 3.47949 4.24887 3.88328
# Velocity P-wave (km/s) = 5.07603 6.15125 5.63932
#
# Compressibility (1/GPa) = 0.03919408
#
# Stress axis : x y z
#
# Youngs Moduli (GPa) = 41.35481 76.46307 103.45639
#
# Poissons Ratio (x) = 0.00644 0.29266
# Poissons Ratio (y) = 0.00348 0.09853
# Poissons Ratio (z) = 0.11699 0.07282
#
# Static dielectric constant tensor:
#      x y z
#    x 1.726650 0.195060 0.091950 
#    y 0.195060 1.971720 -0.125420 
#    z 0.091950 -0.125420 1.974140 
# 
# From -- ./inp_files/595147.got.cif
#   From: 2010.05.17/outbox.cif.g08.bks.cpg/sg2_298_cif.got.tgz:595147.got - 2010.06.03 11:33:40.
