data_PCOD9063874
_publ_section_title
;
Structure prediction by ZEFSAII (Michael W. Deem and Ramdas Pophale) SiO2 
 PCOD9063874
Probable space group: P -1
;
_chemical_formula_sum "Si O2"
_cell_formula_units_Z 12
_cell_length_a 15.777261
_cell_length_b 9.264077
_cell_length_c 9.399473
_cell_angle_alpha 125.228582
_cell_angle_beta 55.467961
_cell_angle_gamma 149.317736
_cell_volume 564.333680
_symmetry_space_group_name_H-M "P -1"
_symmetry_group_IT_number 2
_symmetry_cell_setting 'triclinic'
loop_
_space_group_symop_operation_xyz
x,y,z
-x,-y,-z
loop_
_atom_site_type_symbol
_atom_site_label
_atom_site_fract_x
_atom_site_fract_y
_atom_site_fract_z
Si Si1 0.922743 0.913367 0.677057
Si Si2 0.860455 0.906603 0.171818
Si Si3 0.103344 0.658196 0.746054
Si Si4 0.659075 0.281982 0.601855
Si Si5 0.808302 0.147707 0.919692
Si Si6 0.555781 0.245401 0.996813
O O1 0.736296 0.577709 0.660583
O O2 0.899379 0.086916 0.833856
O O3 0.000000 0.000000 0.500000
O O4 0.053774 0.989801 0.697169
O O5 0.849798 0.088187 0.220332
O O6 0.696254 0.561564 0.113616
O O7 0.000000 0.000000 0.000000
O O8 0.185238 0.633170 0.543186
O O9 0.907154 0.366895 0.814733
O O10 0.182166 0.734713 0.872523
O O11 0.615413 0.246254 0.788921
O O12 0.500000 0.000000 0.500000
O O13 0.611694 0.863923 0.918414
O O14 0.500000 0.000000 0.000000
#
# Coordination Sequence:
#
# PCOD9063874 Si02
#       6
#     2   2   2   2   2   2
#     4  12  27  48  74 104 145 192 238 293 358 430
#     4  12  25  47  72 103 143 189 239 291 356 423
#     4  11  24  44  76 104 143 190 240 292 360 426
#     4  12  26  44  73 108 144 182 241 297 351 419
#     4  11  24  45  75 104 143 194 236 288 366 427
#     4  12  28  46  73 107 149 186 240 297 355 423
#
# _framework density 21.264016000000002
#
# number of rings (size 3 to 8) (size 9 to 14) (size 15 to 20)
#    0.000    0.333    6.667    1.000    7.000    3.333 
#    0.000    1.667    0.000    0.000    0.000    0.000 
#    0.000    0.000    0.000    0.000    0.000    0.000 
#
# Total GULP energy -66968.491409 kJ/mol
# GULP energy per Si atom -5580.707617 kJ/mol
# Density = 2.121562 g / cm^3
# Si number density = 21.264016 Si / 1000 Ang^3
#
#
#
# Elastic Constant Matrix: (Units=GPa)
#
#
# Indices 1 2 3 4 5 6 
#
# 1 74.4183 52.9599 35.6882 0.5975 5.4243 -9.7365
# 2 52.9599 176.8044 51.3654 7.2815 17.1621 -1.3001
# 3 35.6882 51.3654 117.0421 -18.4793 15.4808 -9.2946
# 4 0.5975 7.2815 -18.4793 44.4742 -4.1241 2.8771
# 5 5.4243 17.1621 15.4808 -4.1241 39.2885 1.2294
# 6 -9.7365 -1.3001 -9.2946 2.8771 1.2294 46.9563
#
#
#
# Elastic Compliance Matrix: (Units=1/GPa)
#
#
# Indices 1 2 3 4 5 6 
#
# 1 0.018850 -0.004534 -0.003791 -0.001226 0.000647 0.003091
# 2 -0.004534 0.007975 -0.002274 -0.002329 -0.002176 -0.000970
# 3 -0.003791 -0.002274 0.011956 0.005058 -0.002703 0.001278
# 4 -0.001226 -0.002329 0.005058 0.025216 0.001869 -0.000912
# 5 0.000647 -0.002176 -0.002703 0.001869 0.027616 -0.001299
# 6 0.003091 -0.000970 0.001278 -0.000912 -0.001299 0.022253
#
#
# Mechanical properties :
#
#
# Convention : Reuss Voigt Hill
#
# Bulk Modulus (GPa) = 56.88159 72.03241 64.45700
# Shear Modulus (GPa) = 35.47978 41.36056 38.42017
#
# Velocity S-wave (km/s) = 4.08920 4.41511 4.25528
# Velocity P-wave (km/s) = 7.00740 7.74207 7.38388
#
# Compressibility (1/GPa) = 0.01758038
#
# Stress axis : x y z
#
# Youngs Moduli (GPa) = 53.05131 125.39471 83.64283
#
# Poissons Ratio (x) = 0.56858 0.31712
# Poissons Ratio (y) = 0.24055 0.19022
# Poissons Ratio (z) = 0.20114 0.28517
#
# Static dielectric constant tensor:
#      x y z
#    x 1.762590 -0.014020 -0.034330 
#    y -0.014020 1.812330 0.047050 
#    z -0.034330 0.047050 1.791020 
# 
# From -- ./inp_files/148833.got.cif
#   From: 2010.05.17/outbox.cif.g08.bks.cpg/sg2_75_cif.got.tgz:148833.got - 2010.06.03 11:33:40.
