data_PCOD9063144
_publ_section_title
;
Structure prediction by ZEFSAII (Michael W. Deem and Ramdas Pophale) SiO2 
 PCOD9063144
Probable space group: P -1
;
_chemical_formula_sum "Si O2"
_cell_formula_units_Z 16
_cell_length_a 17.588200
_cell_length_b 11.566596
_cell_length_c 5.430575
_cell_angle_alpha 90.702434
_cell_angle_beta 64.754790
_cell_angle_gamma 47.771764
_cell_volume 662.150583
_symmetry_space_group_name_H-M "P -1"
_symmetry_group_IT_number 2
_symmetry_cell_setting 'triclinic'
loop_
_space_group_symop_operation_xyz
x,y,z
-x,-y,-z
loop_
_atom_site_type_symbol
_atom_site_label
_atom_site_fract_x
_atom_site_fract_y
_atom_site_fract_z
Si Si1 0.540532 0.062667 0.772307
Si Si2 0.895982 0.479336 0.916169
Si Si3 0.248029 0.146435 0.865559
Si Si4 0.926131 0.115912 0.352827
Si Si5 0.644086 0.367640 0.909555
Si Si6 0.572723 0.204155 0.110039
Si Si7 0.649670 0.592265 0.233832
Si Si8 0.998973 0.699511 0.736536
O O1 0.422699 0.218921 0.766289
O O2 0.674581 0.887412 0.473449
O O3 0.569205 0.162521 0.837332
O O4 0.500000 0.000000 0.000000
O O5 0.993182 0.347905 0.560363
O O6 0.830268 0.664999 0.924511
O O7 0.792585 0.484028 0.065850
O O8 0.940670 0.442686 0.136465
O O9 0.357485 0.976145 0.868453
O O10 0.146411 0.149789 0.971781
O O11 0.776704 0.232819 0.569790
O O12 0.934576 0.245760 0.343157
O O13 0.000000 0.000000 0.500000
O O14 0.000000 0.000000 0.000000
O O15 0.500000 0.500000 0.000000
O O16 0.646554 0.245557 0.056813
O O17 0.645583 0.482824 0.068147
O O18 0.429705 0.357004 0.411505
#
# Coordination Sequence:
#
# PCOD9063144 Si02
#       8
#     2   2   2   2   2   2   2   2
#     4  11  24  43  71 105 145 191 240 312 379 446
#     4  12  27  47  77 108 150 196 254 306 373 448
#     4  11  27  45  73 106 147 196 250 308 374 460
#     4  12  29  51  79 113 159 205 254 319 389 458
#     4  12  26  47  79 112 148 202 260 323 382 461
#     4  11  25  43  73 102 148 187 250 310 380 446
#     4  11  25  46  71 110 141 197 246 312 379 450
#     4  12  28  49  76 111 147 200 256 306 377 452
#
# _framework density 24.163689999999999
#
# number of rings (size 3 to 8) (size 9 to 14) (size 15 to 20)
#    0.000    0.500    2.500    4.125   10.500    3.000 
#    0.000    0.000    0.000    0.000    0.000    0.000 
#    0.000    0.000    0.000    0.000    0.000    0.000 
#
# Total GULP energy -89329.630058 kJ/mol
# GULP energy per Si atom -5583.101879 kJ/mol
# Density = 2.410869 g / cm^3
# Si number density = 24.163690 Si / 1000 Ang^3
#
#
#
# Elastic Constant Matrix: (Units=GPa)
#
#
# Indices 1 2 3 4 5 6 
#
# 1 76.9909 10.9178 28.4642 -2.9083 -29.4490 1.8603
# 2 10.9178 88.0168 22.5462 -6.6339 -3.6759 7.5879
# 3 28.4642 22.5462 130.1433 1.3188 -24.9402 -3.4645
# 4 -2.9083 -6.6339 1.3188 31.2317 6.4408 -8.1138
# 5 -29.4490 -3.6759 -24.9402 6.4408 46.9953 -1.9328
# 6 1.8603 7.5879 -3.4645 -8.1138 -1.9328 43.1818
#
#
#
# Elastic Compliance Matrix: (Units=1/GPa)
#
#
# Indices 1 2 3 4 5 6 
#
# 1 0.017671 -0.001364 -0.001682 -0.000759 0.010164 -0.000344
# 2 -0.001364 0.012379 -0.002202 0.002401 -0.001462 -0.001907
# 3 -0.001682 -0.002202 0.009231 -0.001542 0.003928 0.001086
# 4 -0.000759 0.002401 -0.001542 0.035217 -0.005692 0.005849
# 5 0.010164 -0.001462 0.003928 -0.005692 0.030416 0.000426
# 6 -0.000344 -0.001907 0.001086 0.005849 0.000426 0.024713
#
#
# Mechanical properties :
#
#
# Convention : Reuss Voigt Hill
#
# Bulk Modulus (GPa) = 34.74065 46.55638 40.64852
# Shear Modulus (GPa) = 33.39628 39.82994 36.61311
#
# Velocity S-wave (km/s) = 3.72167 4.06438 3.89680
# Velocity P-wave (km/s) = 5.73378 6.42919 6.09142
#
# Compressibility (1/GPa) = 0.02878472
#
# Stress axis : x y z
#
# Youngs Moduli (GPa) = 56.58903 80.78219 108.33635
#
# Poissons Ratio (x) = 0.11019 0.18226
# Poissons Ratio (y) = 0.07719 0.23851
# Poissons Ratio (z) = 0.09520 0.17785
#
# Static dielectric constant tensor:
#      x y z
#    x 2.037310 -0.078110 0.078850 
#    y -0.078110 2.018120 -0.064820 
#    z 0.078850 -0.064820 1.974410 
# 
# From -- ./inp_files/109713.got.cif
#   From: 2010.05.17/outbox.cif.g08.bks.cpg/sg2_55_cif.got.tgz:109713.got - 2010.06.03 11:33:40.
