data_PCOD9063050
_publ_section_title
;
Structure prediction by ZEFSAII (Michael W. Deem and Ramdas Pophale) SiO2 
 PCOD9063050
Probable space group: P -1
;
_chemical_formula_sum "Si O2"
_cell_formula_units_Z 12
_cell_length_a 8.700518
_cell_length_b 9.498092
_cell_length_c 12.134984
_cell_angle_alpha 45.288773
_cell_angle_beta 106.737265
_cell_angle_gamma 133.749025
_cell_volume 474.763416
_symmetry_space_group_name_H-M "P -1"
_symmetry_group_IT_number 2
_symmetry_cell_setting 'triclinic'
loop_
_space_group_symop_operation_xyz
x,y,z
-x,-y,-z
loop_
_atom_site_type_symbol
_atom_site_label
_atom_site_fract_x
_atom_site_fract_y
_atom_site_fract_z
Si Si1 0.146121 0.140934 0.267284
Si Si2 0.827218 0.035581 0.948956
Si Si3 0.632738 0.015232 0.689333
Si Si4 0.300041 0.518775 0.506672
Si Si5 0.872620 0.494214 0.077707
Si Si6 0.398960 0.532255 0.289505
O O1 0.191537 0.344371 0.071217
O O2 0.174225 0.283814 0.308429
O O3 0.331093 0.126850 0.312630
O O4 0.907519 0.819785 0.367983
O O5 0.748880 0.028552 0.815774
O O6 0.960182 0.322842 0.885925
O O7 0.597661 0.781706 0.111155
O O8 0.000000 0.000000 0.000000
O O9 0.748784 0.329128 0.516863
O O10 0.364202 0.816095 0.764782
O O11 0.363926 0.640714 0.328072
O O12 0.504677 0.581326 0.571515
O O13 0.000000 0.500000 0.000000
#
# Coordination Sequence:
#
# PCOD9063050 Si02
#       6
#     2   2   2   2   2   2
#     4  12  24  46  70  98 137 179 224 278 336 401
#     4  12  23  44  71 100 137 180 220 282 337 397
#     4  12  26  44  72 103 135 175 230 279 335 399
#     4  11  26  44  67 100 137 179 222 275 339 402
#     4  12  26  41  70 104 135 174 229 276 335 399
#     4  11  24  43  69  95 140 178 222 276 337 396
#
# _framework density 25.275745000000001
#
# number of rings (size 3 to 8) (size 9 to 14) (size 15 to 20)
#    0.000    0.333    5.000    3.500    4.667    3.333 
#    0.000    0.000    0.000    0.000    0.000    0.000 
#    0.000    0.000    0.000    0.000    0.000    0.000 
#
# Total GULP energy -67260.471626 kJ/mol
# GULP energy per Si atom -5605.039302 kJ/mol
# Density = 2.521822 g / cm^3
# Si number density = 25.275745 Si / 1000 Ang^3
#
#
#
# Elastic Constant Matrix: (Units=GPa)
#
#
# Indices 1 2 3 4 5 6 
#
# 1 64.3375 3.9041 -11.8413 -16.4584 1.8244 -9.9057
# 2 3.9041 137.1190 17.4998 -2.8265 3.1085 -3.8136
# 3 -11.8413 17.4998 49.8194 -11.8247 -2.3751 10.1983
# 4 -16.4584 -2.8265 -11.8247 44.3251 2.4833 -2.2555
# 5 1.8244 3.1085 -2.3751 2.4833 39.9387 -4.6096
# 6 -9.9057 -3.8136 10.1983 -2.2555 -4.6096 40.4323
#
#
#
# Elastic Compliance Matrix: (Units=1/GPa)
#
#
# Indices 1 2 3 4 5 6 
#
# 1 0.019720 -0.001090 0.006502 0.009201 -0.000594 0.003534
# 2 -0.001090 0.007797 -0.003452 -0.000733 -0.000574 0.001233
# 3 0.006502 -0.003452 0.025917 0.008844 0.000417 -0.004729
# 4 0.009201 -0.000733 0.008844 0.028441 -0.001447 0.001376
# 5 -0.000594 -0.000574 0.000417 -0.001447 0.025516 0.002524
# 6 0.003534 0.001233 -0.004729 0.001376 0.002524 0.027272
#
#
# Mechanical properties :
#
#
# Convention : Reuss Voigt Hill
#
# Bulk Modulus (GPa) = 17.43497 30.04457 23.73977
# Shear Modulus (GPa) = 33.36434 41.05345 37.20889
#
# Velocity S-wave (km/s) = 3.63714 4.03454 3.84098
# Velocity P-wave (km/s) = 4.95492 5.79792 5.39292
#
# Compressibility (1/GPa) = 0.05735600
#
# Stress axis : x y z
#
# Youngs Moduli (GPa) = 50.70871 128.26016 38.58403
#
# Poissons Ratio (x) = 0.13979 -0.25088
# Poissons Ratio (y) = 0.05527 0.13317
# Poissons Ratio (z) = -0.32971 0.44269
#
# Static dielectric constant tensor:
#      x y z
#    x 2.016130 -0.018700 -0.039600 
#    y -0.018700 1.929740 -0.000580 
#    z -0.039600 -0.000580 1.970680 
# 
# From -- ./inp_files/33870.got.cif
#   From: 2010.05.17/outbox.cif.g08.bks.cpg/sg2_17_cif.got.tgz:33870.got - 2010.06.03 11:33:40.
