data_PCOD9063102
_publ_section_title
;
Structure prediction by ZEFSAII (Michael W. Deem and Ramdas Pophale) SiO2 
 PCOD9063102
Probable space group: P -1
;
_chemical_formula_sum "Si O2"
_cell_formula_units_Z 12
_cell_length_a 9.823144
_cell_length_b 10.308154
_cell_length_c 5.930512
_cell_angle_alpha 78.250164
_cell_angle_beta 79.482784
_cell_angle_gamma 123.232906
_cell_volume 458.959672
_symmetry_space_group_name_H-M "P -1"
_symmetry_group_IT_number 2
_symmetry_cell_setting 'triclinic'
loop_
_space_group_symop_operation_xyz
x,y,z
-x,-y,-z
loop_
_atom_site_type_symbol
_atom_site_label
_atom_site_fract_x
_atom_site_fract_y
_atom_site_fract_z
Si Si1 0.611277 0.126068 0.215844
Si Si2 0.013452 0.723317 0.461385
Si Si3 0.775706 0.390614 0.391310
Si Si4 0.708338 0.941672 0.948111
Si Si5 0.491322 0.381940 0.363948
Si Si6 0.763893 0.694790 0.887865
O O1 0.768357 0.315809 0.176007
O O2 0.471448 0.130024 0.110050
O O3 0.500000 0.000000 0.500000
O O4 0.695580 0.046614 0.104907
O O5 0.153121 0.685386 0.450461
O O6 0.875073 0.580889 0.374514
O O7 0.926763 0.709994 0.732366
O O8 0.119721 0.912352 0.289516
O O9 0.570395 0.304235 0.499913
O O10 0.748768 0.809746 0.024871
O O11 0.500000 0.500000 0.500000
O O12 0.311368 0.277443 0.325657
O O13 0.632374 0.506992 0.086785
#
# Coordination Sequence:
#
# PCOD9063102 Si02
#       6
#     2   2   2   2   2   2
#     4  11  24  43  70  99 131 186 223 273 336 400
#     4  11  25  44  70 106 133 179 224 284 340 393
#     4  11  24  45  72  95 141 172 236 275 335 403
#     4  11  25  43  69 101 139 173 227 277 335 408
#     4  11  24  43  70  99 131 186 223 273 336 400
#     4  11  25  43  69 101 139 173 227 277 335 408
#
# _framework density 26.146090999999998
#
# number of rings (size 3 to 8) (size 9 to 14) (size 15 to 20)
#    0.000    1.000    5.000    0.500    2.333    5.333 
#    0.000    1.667    0.000    0.000    0.000    0.000 
#    0.000    0.000    0.000    0.000    0.000    0.000 
#
# Total GULP energy -66967.850297 kJ/mol
# GULP energy per Si atom -5580.654191 kJ/mol
# Density = 2.608658 g / cm^3
# Si number density = 26.146091 Si / 1000 Ang^3
#
#
#
# Elastic Constant Matrix: (Units=GPa)
#
#
# Indices 1 2 3 4 5 6 
#
# 1 116.0598 28.7009 3.4737 8.6973 -2.1388 -19.3457
# 2 28.7009 155.8075 11.5142 9.2905 -1.7074 -22.9418
# 3 3.4737 11.5142 74.7295 2.1685 -26.0558 -8.6552
# 4 8.6973 9.2905 2.1685 45.2231 -3.9514 1.8743
# 5 -2.1388 -1.7074 -26.0558 -3.9514 31.6260 13.0926
# 6 -19.3457 -22.9418 -8.6552 1.8743 13.0926 45.8996
#
#
#
# Elastic Compliance Matrix: (Units=1/GPa)
#
#
# Indices 1 2 3 4 5 6 
#
# 1 0.009674 -0.001072 -0.000307 -0.001928 -0.001556 0.004007
# 2 -0.001072 0.007352 -0.001545 -0.001624 -0.002713 0.003772
# 3 -0.000307 -0.001545 0.019182 0.001001 0.016688 -0.002086
# 4 -0.001928 -0.001624 0.001001 0.023376 0.005122 -0.003851
# 5 -0.001556 -0.002713 0.016688 0.005122 0.051448 -0.013750
# 6 0.004007 0.003772 -0.002086 -0.003851 -0.013750 0.029047
#
#
# Mechanical properties :
#
#
# Convention : Reuss Voigt Hill
#
# Bulk Modulus (GPa) = 32.93718 48.21940 40.57829
# Shear Modulus (GPa) = 32.04174 44.74360 38.39267
#
# Velocity S-wave (km/s) = 3.50450 4.14126 3.83612
# Velocity P-wave (km/s) = 5.38517 6.43033 5.93081
#
# Compressibility (1/GPa) = 0.03036083
#
# Stress axis : x y z
#
# Youngs Moduli (GPa) = 103.36955 136.01348 52.13292
#
# Poissons Ratio (x) = 0.14574 0.01602
# Poissons Ratio (y) = 0.11076 0.08054
# Poissons Ratio (z) = 0.03176 0.21012
#
# Static dielectric constant tensor:
#      x y z
#    x 2.102660 -0.003040 0.030080 
#    y -0.003040 2.139220 0.080830 
#    z 0.030080 0.080830 2.116040 
# 
# From -- ./inp_files/62184.got.cif
#   From: 2010.05.17/outbox.cif.g08.bks.cpg/sg2_32_cif.got.tgz:62184.got - 2010.06.03 11:33:40.
