data_PCOD9063021
_publ_section_title
;
Structure prediction by ZEFSAII (Michael W. Deem and Ramdas Pophale) SiO2 
 PCOD9063021
Probable space group: P -1
;
_chemical_formula_sum "Si O2"
_cell_formula_units_Z 14
_cell_length_a 5.803977
_cell_length_b 9.087258
_cell_length_c 17.005386
_cell_angle_alpha 41.779680
_cell_angle_beta 82.662935
_cell_angle_gamma 82.412381
_cell_volume 591.764007
_symmetry_space_group_name_H-M "P -1"
_symmetry_group_IT_number 2
_symmetry_cell_setting 'triclinic'
loop_
_space_group_symop_operation_xyz
x,y,z
-x,-y,-z
loop_
_atom_site_type_symbol
_atom_site_label
_atom_site_fract_x
_atom_site_fract_y
_atom_site_fract_z
Si Si1 0.769445 0.572728 0.526037
Si Si2 0.677754 0.497997 0.735159
Si Si3 0.916511 0.011001 0.910162
Si Si4 0.438753 0.864502 0.346641
Si Si5 0.369186 0.422834 0.913134
Si Si6 0.255506 0.044850 0.438128
Si Si7 0.319970 0.791509 0.887701
O O1 0.741294 0.605334 0.606310
O O2 0.689871 0.802782 0.397548
O O3 0.615871 0.358488 0.606600
O O4 0.000000 0.500000 0.500000
O O5 0.431581 0.470158 0.800662
O O6 0.759257 0.706729 0.697842
O O7 0.786582 0.251479 0.817456
O O8 0.125697 0.971101 0.855271
O O9 0.766665 0.798736 0.990280
O O10 0.000000 0.000000 0.000000
O O11 0.285382 0.891671 0.420329
O O12 0.463757 0.074382 0.207250
O O13 0.253203 0.628713 0.884825
O O14 0.602298 0.356099 0.980850
O O15 0.500000 0.000000 0.500000
O O16 0.000000 0.000000 0.500000
#
# Coordination Sequence:
#
# PCOD9063021 Si02
#       7
#     2   2   2   2   2   2   2
#     4  11  24  43  69 102 143 186 245 310 375 445
#     4  12  24  47  73 106 143 195 244 309 376 444
#     4  12  26  43  70 106 142 191 246 308 369 452
#     4  11  24  43  70 102 140 193 242 305 378 450
#     4  11  25  46  69 102 144 188 244 305 374 447
#     4  12  27  51  75 110 153 197 256 314 377 458
#     4  11  24  47  69 100 145 188 245 298 381 439
#
# _framework density 23.658078
#
# number of rings (size 3 to 8) (size 9 to 14) (size 15 to 20)
#    0.000    0.571    4.286    3.429    2.000    2.286 
#    0.000    0.000    0.000    0.000    0.000    0.000 
#    0.000    0.000    0.000    0.000    0.000    0.000 
#
# Total GULP energy -77971.167515 kJ/mol
# GULP energy per Si atom -5569.369108 kJ/mol
# Density = 2.360423 g / cm^3
# Si number density = 23.658078 Si / 1000 Ang^3
#
#
#
# Elastic Constant Matrix: (Units=GPa)
#
#
# Indices 1 2 3 4 5 6 
#
# 1 53.3158 29.2302 16.7822 12.4095 -15.8802 -13.6498
# 2 29.2302 113.7717 7.7510 -1.9913 9.4933 -27.7435
# 3 16.7822 7.7510 89.7207 7.3458 -19.8507 1.4375
# 4 12.4095 -1.9913 7.3458 53.7891 1.7361 -12.6824
# 5 -15.8802 9.4933 -19.8507 1.7361 17.4376 3.4772
# 6 -13.6498 -27.7435 1.4375 -12.6824 3.4772 42.7112
#
#
#
# Elastic Compliance Matrix: (Units=1/GPa)
#
#
# Indices 1 2 3 4 5 6 
#
# 1 0.054411 -0.024706 0.011655 -0.020415 0.080630 -0.011678
# 2 -0.024706 0.024565 -0.010518 0.013693 -0.052551 0.016759
# 3 0.011655 -0.010518 0.020169 -0.009571 0.042261 -0.010068
# 4 -0.020415 0.013693 -0.009571 0.030065 -0.042949 0.015116
# 5 0.080630 -0.052551 0.042261 -0.042949 0.219835 -0.040440
# 6 -0.011678 0.016759 -0.010068 0.015116 -0.040440 0.038687
#
#
# Mechanical properties :
#
#
# Convention : Reuss Voigt Hill
#
# Bulk Modulus (GPa) = 19.22796 40.48166 29.85481
# Shear Modulus (GPa) = 11.05692 36.32390 23.69041
#
# Velocity S-wave (km/s) = 2.16420 3.92263 3.16787
# Velocity P-wave (km/s) = 3.79343 6.13713 5.10169
#
# Compressibility (1/GPa) = 0.05200760
#
# Stress axis : x y z
#
# Youngs Moduli (GPa) = 18.37880 40.70853 49.57999
#
# Poissons Ratio (x) = 1.00575 -0.57785
# Poissons Ratio (y) = 0.45407 0.52146
# Poissons Ratio (z) = -0.21420 0.42815
#
# Static dielectric constant tensor:
#      x y z
#    x 2.014610 0.022770 0.109030 
#    y 0.022770 1.951480 0.049710 
#    z 0.109030 0.049710 1.821450 
# 
# From -- ./inp_files/28208.got.cif
#   From: 2010.05.17/outbox.cif.g08.bks.cpg/sg2_15_cif.got.tgz:28208.got - 2010.06.03 11:33:40.
