data_PCOD9063765
_publ_section_title
;
Structure prediction by ZEFSAII (Michael W. Deem and Ramdas Pophale) SiO2 
 PCOD9063765
Probable space group: P -1
;
_chemical_formula_sum "Si O2"
_cell_formula_units_Z 16
_cell_length_a 5.757077
_cell_length_b 21.457077
_cell_length_c 5.024540
_cell_angle_alpha 89.598422
_cell_angle_beta 85.844675
_cell_angle_gamma 92.721710
_cell_volume 618.317719
_symmetry_space_group_name_H-M "P -1"
_symmetry_group_IT_number 2
_symmetry_cell_setting 'triclinic'
loop_
_space_group_symop_operation_xyz
x,y,z
-x,-y,-z
loop_
_atom_site_type_symbol
_atom_site_label
_atom_site_fract_x
_atom_site_fract_y
_atom_site_fract_z
Si Si1 0.589321 0.216346 0.165921
Si Si2 0.930383 0.605887 0.975938
Si Si3 0.783766 0.847864 0.196904
Si Si4 0.329697 0.658914 0.616503
Si Si5 0.581570 0.094077 0.453275
Si Si6 0.166753 0.944887 0.050458
Si Si7 0.336932 0.438220 0.528236
Si Si8 0.997620 0.271471 0.752024
O O1 0.401094 0.177995 0.004369
O O2 0.518058 0.281963 0.289132
O O3 0.799620 0.239393 0.957479
O O4 0.657198 0.167055 0.388468
O O5 0.780029 0.580348 0.742034
O O6 0.197217 0.616489 0.853510
O O7 0.864675 0.561814 0.232711
O O8 0.873403 0.675229 0.081443
O O9 0.672045 0.897773 0.400807
O O10 0.999771 0.882820 0.034250
O O11 0.855019 0.786113 0.346519
O O12 0.485374 0.616234 0.427697
O O13 0.125186 0.690845 0.469858
O O14 0.734430 0.061146 0.661690
O O15 0.621974 0.058597 0.176537
O O16 0.000000 0.000000 0.000000
O O17 0.500000 0.500000 0.500000
#
# Coordination Sequence:
#
# PCOD9063765 Si02
#       8
#     2   2   2   2   2   2   2   2
#     4  11  24  44  73 110 147 184 244 304 376 438
#     4  11  26  47  73 107 141 193 245 298 379 422
#     4  12  25  45  77 104 152 189 239 306 376 426
#     4  11  26  46  74 107 152 186 247 307 369 446
#     4  12  26  50  72 112 141 190 249 296 365 435
#     4  12  29  52  75 107 152 197 249 298 355 438
#     4  12  28  49  74 107 148 199 252 300 360 440
#     4  11  24  47  72 111 147 189 240 309 377 443
#
# _framework density 25.876662
#
# number of rings (size 3 to 8) (size 9 to 14) (size 15 to 20)
#    0.000    0.500    3.750    3.000    8.750    4.000 
#    0.000    0.000    0.000    0.000    0.000    0.000 
#    0.000    0.000    0.000    0.000    0.000    0.000 
#
# Total GULP energy -89672.884480 kJ/mol
# GULP energy per Si atom -5604.555280 kJ/mol
# Density = 2.581777 g / cm^3
# Si number density = 25.876662 Si / 1000 Ang^3
#
#
#
# Elastic Constant Matrix: (Units=GPa)
#
#
# Indices 1 2 3 4 5 6 
#
# 1 41.5262 12.5727 32.3129 2.2565 -18.1963 7.6436
# 2 12.5727 73.1648 22.4196 3.3145 -15.0383 17.1759
# 3 32.3129 22.4196 124.0995 -10.1306 4.4969 11.5699
# 4 2.2565 3.3145 -10.1306 26.3988 13.6417 -8.2671
# 5 -18.1963 -15.0383 4.4969 13.6417 36.9359 -3.5717
# 6 7.6436 17.1759 11.5699 -8.2671 -3.5717 50.1796
#
#
#
# Elastic Compliance Matrix: (Units=1/GPa)
#
#
# Indices 1 2 3 4 5 6 
#
# 1 0.080089 0.016776 -0.030063 -0.062495 0.071459 -0.016220
# 2 0.016776 0.023411 -0.010762 -0.026098 0.027739 -0.010413
# 3 -0.030063 -0.010762 0.020934 0.030669 -0.032471 0.006178
# 4 -0.062495 -0.026098 0.030669 0.108439 -0.082940 0.023343
# 5 0.071459 0.027739 -0.032471 -0.082940 0.106321 -0.018990
# 6 -0.016220 -0.010413 0.006178 0.023343 -0.018990 0.027033
#
#
# Mechanical properties :
#
#
# Convention : Reuss Voigt Hill
#
# Bulk Modulus (GPa) = 13.10004 41.48897 27.29451
# Shear Modulus (GPa) = 11.36956 34.13522 22.75239
#
# Velocity S-wave (km/s) = 2.09840 3.63595 2.96845
# Velocity P-wave (km/s) = 3.30825 5.80474 4.72438
#
# Compressibility (1/GPa) = 0.07633566
#
# Stress axis : x y z
#
# Youngs Moduli (GPa) = 12.48613 42.71496 47.76843
#
# Poissons Ratio (x) = -0.71659 1.43606
# Poissons Ratio (y) = -0.20947 0.51410
# Poissons Ratio (z) = 0.37537 0.45972
#
# Static dielectric constant tensor:
#      x y z
#    x 2.022020 -0.029760 0.007610 
#    y -0.029760 2.024310 0.004700 
#    z 0.007610 0.004700 2.034300 
# 
# From -- ./inp_files/10607.got.cif
#   From: 2010.05.17/outbox.cif.g08.bks.cpg/sg2_6_cif.got.tgz:10607.got - 2010.06.03 11:33:40.
