data_PCOD9063932
_publ_section_title
;
Structure prediction by ZEFSAII (Michael W. Deem and Ramdas Pophale) SiO2 
 PCOD9063932
Probable space group: P -1
;
_chemical_formula_sum "Si O2"
_cell_formula_units_Z 16
_cell_length_a 9.213782
_cell_length_b 14.699497
_cell_length_c 12.038028
_cell_angle_alpha 135.420197
_cell_angle_beta 67.371637
_cell_angle_gamma 78.025574
_cell_volume 706.681958
_symmetry_space_group_name_H-M "P -1"
_symmetry_group_IT_number 2
_symmetry_cell_setting 'triclinic'
loop_
_space_group_symop_operation_xyz
x,y,z
-x,-y,-z
loop_
_atom_site_type_symbol
_atom_site_label
_atom_site_fract_x
_atom_site_fract_y
_atom_site_fract_z
Si Si1 0.370046 0.704423 0.170089
Si Si2 0.234109 0.174276 0.547436
Si Si3 0.808058 0.511498 0.604591
Si Si4 0.385283 0.960323 0.080363
Si Si5 0.826450 0.570035 0.896777
Si Si6 0.048748 0.114737 0.125134
Si Si7 0.996638 0.896117 0.280753
Si Si8 0.749008 0.915323 0.179060
O O1 0.263265 0.747137 0.115553
O O2 0.140883 0.886707 0.464634
O O3 0.500000 0.500000 0.000000
O O4 0.561881 0.698901 0.122252
O O5 0.122084 0.141149 0.637273
O O6 0.029296 0.400400 0.772232
O O7 0.315004 0.056290 0.305751
O O8 0.475949 0.089277 0.447215
O O9 0.848300 0.476870 0.694613
O O10 0.846205 0.348991 0.394899
O O11 0.000000 0.500000 0.500000
O O12 0.566161 0.731935 0.843051
O O13 0.163128 0.045276 0.151948
O O14 0.500000 0.000000 0.000000
O O15 0.835075 0.715808 0.995468
O O16 0.231703 0.058343 0.931840
O O17 0.000000 0.000000 0.000000
O O18 0.928082 0.893800 0.176849
#
# Coordination Sequence:
#
# PCOD9063932 Si02
#       8
#     2   2   2   2   2   2   2   2
#     4  11  24  45  67 101 134 186 231 278 348 417
#     4  12  22  41  73 103 130 185 239 283 339 413
#     4  12  21  42  73 100 130 178 236 282 339 425
#     4  12  21  42  75 100 133 183 238 282 342 424
#     4  12  23  40  76  99 130 183 240 278 342 418
#     4  12  28  44  68 108 145 176 229 300 359 402
#     4  11  26  44  69  98 147 179 224 289 353 407
#     4  12  26  45  66 105 140 179 233 288 347 420
#
# _framework density 22.641019
#
# number of rings (size 3 to 8) (size 9 to 14) (size 15 to 20)
#    0.000    0.250    8.750    0.375    0.000    6.000 
#    0.000    0.000    0.000    0.000    0.000    0.000 
#    0.000    0.000    0.000    0.000    0.000    0.000 
#
# Total GULP energy -89522.266110 kJ/mol
# GULP energy per Si atom -5595.141632 kJ/mol
# Density = 2.258949 g / cm^3
# Si number density = 22.641019 Si / 1000 Ang^3
#
#
#
# Elastic Constant Matrix: (Units=GPa)
#
#
# Indices 1 2 3 4 5 6 
#
# 1 100.2104 21.4281 31.8678 20.8817 15.8537 -11.6481
# 2 21.4281 84.9749 34.5836 21.2891 -0.3602 -4.3835
# 3 31.8678 34.5836 72.4040 32.1937 -10.0138 -2.6970
# 4 20.8817 21.2891 32.1937 49.8090 -4.7876 -0.2217
# 5 15.8537 -0.3602 -10.0138 -4.7876 26.6367 -0.1499
# 6 -11.6481 -4.3835 -2.6970 -0.2217 -0.1499 41.7142
#
#
#
# Elastic Compliance Matrix: (Units=1/GPa)
#
#
# Indices 1 2 3 4 5 6 
#
# 1 0.015145 -0.000160 -0.006765 -0.003054 -0.012087 0.003715
# 2 -0.000160 0.015054 -0.006301 -0.002531 -0.002519 0.001107
# 3 -0.006765 -0.006301 0.025879 -0.010062 0.011857 -0.000889
# 4 -0.003054 -0.002531 -0.010062 0.029247 0.003248 -0.001602
# 5 -0.012087 -0.002519 0.011857 0.003248 0.049728 -0.002677
# 6 0.003715 0.001107 -0.000889 -0.001602 -0.002677 0.025051
#
#
# Mechanical properties :
#
#
# Convention : Reuss Voigt Hill
#
# Bulk Modulus (GPa) = 33.75556 48.14981 40.95268
# Shear Modulus (GPa) = 25.45398 34.94597 30.19998
#
# Velocity S-wave (km/s) = 3.35661 3.93298 3.65617
# Velocity P-wave (km/s) = 5.47392 6.47589 5.99588
#
# Compressibility (1/GPa) = 0.02962475
#
# Stress axis : x y z
#
# Youngs Moduli (GPa) = 66.02848 66.42828 38.64083
#
# Poissons Ratio (x) = 0.01066 0.26140
# Poissons Ratio (y) = 0.01060 0.24349
# Poissons Ratio (z) = 0.44667 0.41859
#
# Static dielectric constant tensor:
#      x y z
#    x 1.916280 0.035700 -0.039720 
#    y 0.035700 1.856720 -0.038310 
#    z -0.039720 -0.038310 1.895050 
# 
# From -- ./inp_files/399587.got.cif
#   From: 2010.05.17/outbox.cif.g08.bks.cpg/sg2_200_cif.got.tgz:399587.got - 2010.06.03 11:33:40.
