data_PCOD9063314
_publ_section_title
;
Structure prediction by ZEFSAII (Michael W. Deem and Ramdas Pophale) SiO2 
 PCOD9063314
Probable space group: P -1
;
_chemical_formula_sum "Si O2"
_cell_formula_units_Z 15
_cell_length_a 17.532830
_cell_length_b 21.354219
_cell_length_c 9.605432
_cell_angle_alpha 27.915511
_cell_angle_beta 41.397930
_cell_angle_gamma 21.481838
_cell_volume 559.361685
_symmetry_space_group_name_H-M "P -1"
_symmetry_group_IT_number 2
_symmetry_cell_setting 'triclinic'
loop_
_space_group_symop_operation_xyz
x,y,z
-x,-y,-z
loop_
_atom_site_type_symbol
_atom_site_label
_atom_site_fract_x
_atom_site_fract_y
_atom_site_fract_z
Si Si1 0.187052 0.609172 0.748100
Si Si2 0.735070 0.428619 0.825806
Si Si3 0.629116 0.295903 0.426091
Si Si4 0.093885 0.617988 0.558243
Si Si5 0.525787 0.991114 0.145232
Si Si6 0.600985 0.026348 0.389636
Si Si7 0.500000 0.500000 0.500000
Si Si8 0.964671 0.723678 0.105986
O O1 0.069204 0.680949 0.628237
O O2 0.233267 0.719021 0.475419
O O3 0.066243 0.653776 0.951900
O O4 0.463797 0.292213 0.997457
O O5 0.487806 0.660425 0.635044
O O6 0.885399 0.276676 0.778523
O O7 0.735909 0.319453 0.161091
O O8 0.827468 0.472575 0.683721
O O9 0.464071 0.499054 0.381301
O O10 0.809042 0.007646 0.799239
O O11 0.328622 0.297343 0.856579
O O12 0.872089 0.760630 0.529530
O O13 0.459116 0.933035 0.446752
O O14 0.500000 0.000000 0.000000
O O15 0.780015 0.789760 0.232377
O O16 0.500000 0.000000 0.500000
#
# Coordination Sequence:
#
# PCOD9063314 Si02
#       8
#     2   2   2   2   2   2   1   2
#     4  12  28  47  74 109 147 197 241 303 364 440
#     4  11  24  43  76 105 142 195 234 294 365 437
#     4  11  25  48  72 109 152 189 241 299 362 440
#     4  12  26  50  71 106 148 188 244 308 365 431
#     4  12  27  47  74 106 145 191 245 310 363 432
#     4  12  28  49  75 103 142 195 247 299 367 433
#     4  12  24  50  72 110 150 188 244 294 362 432
#     4  12  26  48  73 106 152 190 243 300 372 433
#
# _framework density 26.816281
#
# number of rings (size 3 to 8) (size 9 to 14) (size 15 to 20)
#    0.000    0.267    5.333    2.400    5.600    1.600 
#    0.000    2.000    0.000    0.000    0.000    0.000 
#    0.000    0.000    0.000    0.000    0.000    0.000 
#
# Total GULP energy -83750.608241 kJ/mol
# GULP energy per Si atom -5583.373883 kJ/mol
# Density = 2.675525 g / cm^3
# Si number density = 26.816281 Si / 1000 Ang^3
#
#
#
# Elastic Constant Matrix: (Units=GPa)
#
#
# Indices 1 2 3 4 5 6 
#
# 1 137.3712 30.8619 5.8837 -0.5066 32.4572 -15.0549
# 2 30.8619 140.5344 19.4686 27.1796 18.4402 -18.1750
# 3 5.8837 19.4686 91.5891 5.6708 20.7382 5.7383
# 4 -0.5066 27.1796 5.6708 55.3804 10.5158 14.2497
# 5 32.4572 18.4402 20.7382 10.5158 32.1451 6.1233
# 6 -15.0549 -18.1750 5.7383 14.2497 6.1233 62.2813
#
#
#
# Elastic Compliance Matrix: (Units=1/GPa)
#
#
# Indices 1 2 3 4 5 6 
#
# 1 0.010798 -0.000991 0.002137 0.002073 -0.012948 0.002923
# 2 -0.000991 0.009342 -0.001258 -0.004987 -0.002678 0.004007
# 3 0.002137 -0.001258 0.013347 0.001342 -0.010417 -0.000363
# 4 0.002073 -0.004987 0.001342 0.023105 -0.006567 -0.005719
# 5 -0.012948 -0.002678 -0.010417 -0.006567 0.055911 -0.006946
# 6 0.002923 0.004007 -0.000363 -0.005719 -0.006946 0.019957
#
#
# Mechanical properties :
#
#
# Convention : Reuss Voigt Hill
#
# Bulk Modulus (GPa) = 30.06371 53.54701 41.80536
# Shear Modulus (GPa) = 34.77786 50.84672 42.81229
#
# Velocity S-wave (km/s) = 3.60515 4.35916 3.99996
# Velocity P-wave (km/s) = 5.34460 6.73408 6.07917
#
# Compressibility (1/GPa) = 0.03326269
#
# Stress axis : x y z
#
# Youngs Moduli (GPa) = 92.61061 107.04505 74.92467
#
# Poissons Ratio (x) = 0.10612 -0.16014
# Poissons Ratio (y) = 0.09181 0.09425
# Poissons Ratio (z) = -0.19794 0.13465
#
# Static dielectric constant tensor:
#      x y z
#    x 2.042390 0.005790 0.148750 
#    y 0.005790 2.096920 -0.052480 
#    z 0.148750 -0.052480 1.825780 
# 
# From -- ./inp_files/337451.got.cif
#   From: 2010.05.17/outbox.cif.g08.bks.cpg/sg2_169_cif.got.tgz:337451.got - 2010.06.03 11:33:40.
