data_PCOD9063384
_publ_section_title
;
Structure prediction by ZEFSAII (Michael W. Deem and Ramdas Pophale) SiO2 
 PCOD9063384
Probable space group: P -1
;
_chemical_formula_sum "Si O2"
_cell_formula_units_Z 16
_cell_length_a 5.042772
_cell_length_b 25.116125
_cell_length_c 5.713060
_cell_angle_alpha 55.332291
_cell_angle_beta 86.260459
_cell_angle_gamma 84.559393
_cell_volume 592.387450
_symmetry_space_group_name_H-M "P -1"
_symmetry_group_IT_number 2
_symmetry_cell_setting 'triclinic'
loop_
_space_group_symop_operation_xyz
x,y,z
-x,-y,-z
loop_
_atom_site_type_symbol
_atom_site_label
_atom_site_fract_x
_atom_site_fract_y
_atom_site_fract_z
Si Si1 0.255159 0.460453 0.693992
Si Si2 0.523964 0.776741 0.787333
Si Si3 0.162617 0.895344 0.491007
Si Si4 0.623751 0.979882 0.793338
Si Si5 0.945162 0.263571 0.361204
Si Si6 0.467360 0.649711 0.346786
Si Si7 0.045249 0.387366 0.279210
Si Si8 0.923955 0.855638 0.097501
O O1 0.500000 0.500000 0.500000
O O2 0.368518 0.389497 0.770061
O O3 0.000000 0.500000 0.500000
O O4 0.156952 0.449256 0.991424
O O5 0.450272 0.853790 0.608034
O O6 0.836273 0.758500 0.791634
O O7 0.349181 0.756169 0.626552
O O8 0.412457 0.725765 0.104508
O O9 0.057368 0.878725 0.278454
O O10 0.133153 0.973018 0.325209
O O11 0.036244 0.870612 0.799613
O O12 0.500000 0.000000 0.500000
O O13 0.657673 0.902485 0.991924
O O14 0.500000 0.000000 0.000000
O O15 0.939140 0.339607 0.208936
O O16 0.066509 0.220981 0.676702
O O17 0.685317 0.644787 0.548604
O O18 0.200842 0.613944 0.520649
#
# Coordination Sequence:
#
# PCOD9063384 Si02
#       8
#     2   2   2   2   2   2   2   2
#     4  12  28  48  72 104 148 189 236 299 366 444
#     4  11  24  45  74 106 144 188 240 302 369 439
#     4  11  24  44  67 101 142 196 248 309 374 448
#     4  12  24  40  66 100 142 196 247 310 373 446
#     4  11  24  45  74 106 144 188 240 302 369 439
#     4  12  26  45  75 107 141 190 244 302 364 439
#     4  12  26  45  75 107 141 190 244 302 364 439
#     4  11  24  44  67 101 142 196 248 309 374 448
#
# _framework density 27.009352
#
# number of rings (size 3 to 8) (size 9 to 14) (size 15 to 20)
#    0.000    0.500    1.250    6.750    1.750    8.000 
#    0.000    0.000    0.000    0.000    0.000    0.000 
#    0.000    0.000    0.000    0.000    0.000    0.000 
#
# Total GULP energy -89307.771550 kJ/mol
# GULP energy per Si atom -5581.735722 kJ/mol
# Density = 2.694788 g / cm^3
# Si number density = 27.009352 Si / 1000 Ang^3
#
#
#
# Elastic Constant Matrix: (Units=GPa)
#
#
# Indices 1 2 3 4 5 6 
#
# 1 124.7879 26.6829 53.0861 9.0777 -7.9858 -16.3701
# 2 26.6829 83.1423 13.8818 22.5122 -5.2857 -12.4368
# 3 53.0861 13.8818 187.2045 5.4952 -11.2796 -7.9390
# 4 9.0777 22.5122 5.4952 39.8165 -1.0627 -2.4550
# 5 -7.9858 -5.2857 -11.2796 -1.0627 54.9474 -0.4323
# 6 -16.3701 -12.4368 -7.9390 -2.4550 -0.4323 49.3436
#
#
#
# Elastic Compliance Matrix: (Units=1/GPa)
#
#
# Indices 1 2 3 4 5 6 
#
# 1 0.009942 -0.002250 -0.002496 -0.000488 0.000725 0.002312
# 2 -0.002250 0.015400 -0.000093 -0.007986 0.001002 0.002731
# 3 -0.002496 -0.000093 0.006121 -0.000191 0.000882 0.000131
# 4 -0.000488 -0.007986 -0.000191 0.029715 -0.000309 -0.000730
# 5 0.000725 0.001002 0.000882 -0.000309 0.018582 0.000782
# 6 0.002312 0.002731 0.000131 -0.000730 0.000782 0.021713
#
#
# Mechanical properties :
#
#
# Convention : Reuss Voigt Hill
#
# Bulk Modulus (GPa) = 45.90607 64.71514 55.31061
# Shear Modulus (GPa) = 42.22516 48.92043 45.57280
#
# Velocity S-wave (km/s) = 3.95822 4.26048 4.11213
# Velocity P-wave (km/s) = 6.15818 6.94367 6.56269
#
# Compressibility (1/GPa) = 0.02178361
#
# Stress axis : x y z
#
# Youngs Moduli (GPa) = 100.58560 64.93575 163.37467
#
# Poissons Ratio (x) = 0.14609 0.40784
# Poissons Ratio (y) = 0.22629 0.01525
# Poissons Ratio (z) = 0.25110 0.00606
#
# Static dielectric constant tensor:
#      x y z
#    x 2.165130 0.070540 -0.055670 
#    y 0.070540 2.286880 -0.052560 
#    z -0.055670 -0.052560 2.177410 
# 
# From -- ./inp_files/14277.got.cif
#   From: 2010.05.17/outbox.cif.g08.bks.cpg/sg2_8_cif.got.tgz:14277.got - 2010.06.03 11:33:40.
