data_PCOD9063705
_publ_section_title
;
Structure prediction by ZEFSAII (Michael W. Deem and Ramdas Pophale) SiO2 
 PCOD9063705
Probable space group: P -1
;
_chemical_formula_sum "Si O2"
_cell_formula_units_Z 14
_cell_length_a 12.451232
_cell_length_b 8.815674
_cell_length_c 8.968873
_cell_angle_alpha 64.996616
_cell_angle_beta 49.209083
_cell_angle_gamma 62.884589
_cell_volume 651.929610
_symmetry_space_group_name_H-M "P -1"
_symmetry_group_IT_number 2
_symmetry_cell_setting 'triclinic'
loop_
_space_group_symop_operation_xyz
x,y,z
-x,-y,-z
loop_
_atom_site_type_symbol
_atom_site_label
_atom_site_fract_x
_atom_site_fract_y
_atom_site_fract_z
Si Si1 0.446617 0.405181 0.915299
Si Si2 0.270833 0.033592 0.439376
Si Si3 0.955912 0.077515 0.844095
Si Si4 0.849300 0.460309 0.703149
Si Si5 0.359552 0.354295 0.388227
Si Si6 0.544289 0.756188 0.330201
Si Si7 0.320628 0.964924 0.074082
O O1 0.499686 0.580426 0.820016
O O2 0.440102 0.387372 0.750418
O O3 0.566382 0.226944 0.930770
O O4 0.285702 0.424415 0.123634
O O5 0.104320 0.045399 0.627351
O O6 0.322611 0.188345 0.411639
O O7 0.375575 0.852564 0.477845
O O8 0.286260 0.031717 0.246950
O O9 0.894035 0.283411 0.824187
O O10 0.827007 0.026105 0.889486
O O11 0.000000 0.000000 0.000000
O O12 0.768338 0.475188 0.610259
O O13 0.000000 0.500000 0.500000
O O14 0.372519 0.312383 0.566790
O O15 0.601328 0.909225 0.137374
#
# Coordination Sequence:
#
# PCOD9063705 Si02
#       7
#     2   2   2   2   2   2   2
#     4  11  25  46  70 101 136 179 228 278 337 398
#     4  11  24  44  72  99 143 176 226 275 340 403
#     4  12  27  44  69 102 135 179 228 277 337 406
#     4  12  26  44  69  96 139 176 225 278 342 399
#     4  12  23  44  72 103 131 180 226 281 333 398
#     4  11  25  43  71 104 136 174 230 280 332 397
#     4  11  24  46  70 100 136 184 222 278 337 401
#
# _framework density 21.474712
#
# number of rings (size 3 to 8) (size 9 to 14) (size 15 to 20)
#    0.000    0.571    2.857    6.000    4.000    0.000 
#    0.000    0.714    0.000    0.000    0.000    0.000 
#    0.000    0.000    0.000    0.000    0.000    0.000 
#
# Total GULP energy -78146.662481 kJ/mol
# GULP energy per Si atom -5581.904463 kJ/mol
# Density = 2.142583 g / cm^3
# Si number density = 21.474712 Si / 1000 Ang^3
#
#
#
# Elastic Constant Matrix: (Units=GPa)
#
#
# Indices 1 2 3 4 5 6 
#
# 1 166.5397 65.9140 73.7023 7.6030 17.0233 -8.8929
# 2 65.9140 91.5298 53.6195 8.5680 3.7615 -12.7974
# 3 73.7023 53.6195 112.2798 11.0410 7.9920 -11.1470
# 4 7.6030 8.5680 11.0410 32.0677 -17.6441 -0.3367
# 5 17.0233 3.7615 7.9920 -17.6441 54.0255 -13.6934
# 6 -8.8929 -12.7974 -11.1470 -0.3367 -13.6934 42.2189
#
#
#
# Elastic Compliance Matrix: (Units=1/GPa)
#
#
# Indices 1 2 3 4 5 6 
#
# 1 0.009982 -0.004744 -0.004077 -0.001368 -0.003014 -0.001400
# 2 -0.004744 0.017836 -0.005064 -0.000986 0.001587 0.003577
# 3 -0.004077 -0.005064 0.014534 -0.003440 -0.001392 0.000965
# 4 -0.001368 -0.000986 -0.003440 0.041563 0.015567 0.003885
# 5 -0.003014 0.001587 -0.001392 0.015567 0.026736 0.008274
# 6 -0.001400 0.003577 0.000965 0.003885 0.008274 0.027445
#
#
# Mechanical properties :
#
#
# Convention : Reuss Voigt Hill
#
# Bulk Modulus (GPa) = 68.57980 84.09122 76.33551
# Shear Modulus (GPa) = 29.28664 37.46999 33.37831
#
# Velocity S-wave (km/s) = 3.69694 4.18166 3.94675
# Velocity P-wave (km/s) = 7.08714 7.90938 7.50952
#
# Compressibility (1/GPa) = 0.01458155
#
# Stress axis : x y z
#
# Youngs Moduli (GPa) = 100.17834 56.06730 68.80428
#
# Poissons Ratio (x) = 0.26599 0.28051
# Poissons Ratio (y) = 0.47526 0.34844
# Poissons Ratio (z) = 0.40841 0.28394
#
# Static dielectric constant tensor:
#      x y z
#    x 1.842540 0.011740 -0.034280 
#    y 0.011740 1.843280 -0.006230 
#    z -0.034280 -0.006230 1.807880 
# 
# From -- ./inp_files/242363.got.cif
#   From: 2010.05.17/outbox.cif.g08.bks.cpg/sg2_122_cif.got.tgz:242363.got - 2010.06.03 11:33:40.
