data_PCOD9063381
_publ_section_title
;
Structure prediction by ZEFSAII (Michael W. Deem and Ramdas Pophale) SiO2 
 PCOD9063381
Probable space group: P -1
;
_chemical_formula_sum "Si O2"
_cell_formula_units_Z 16
_cell_length_a 17.242173
_cell_length_b 10.137981
_cell_length_c 10.017562
_cell_angle_alpha 29.844539
_cell_angle_beta 43.475730
_cell_angle_gamma 58.039865
_cell_volume 573.386356
_symmetry_space_group_name_H-M "P -1"
_symmetry_group_IT_number 2
_symmetry_cell_setting 'triclinic'
loop_
_space_group_symop_operation_xyz
x,y,z
-x,-y,-z
loop_
_atom_site_type_symbol
_atom_site_label
_atom_site_fract_x
_atom_site_fract_y
_atom_site_fract_z
Si Si1 0.362910 0.372704 0.747442
Si Si2 0.786517 0.813750 0.409904
Si Si3 0.235160 0.770928 0.443063
Si Si4 0.296571 0.778788 0.976999
Si Si5 0.922619 0.238673 0.090334
Si Si6 0.406695 0.356576 0.981766
Si Si7 0.035971 0.870287 0.430040
Si Si8 0.492788 0.939862 0.357878
O O1 0.500000 0.500000 0.500000
O O2 0.288638 0.519139 0.621454
O O3 0.320912 0.388078 0.942451
O O4 0.337612 0.049458 0.040861
O O5 0.762582 0.972744 0.170642
O O6 0.868020 0.047890 0.198757
O O7 0.804859 0.513578 0.630924
O O8 0.662657 0.689694 0.753126
O O9 0.170145 0.804672 0.632714
O O10 0.146400 0.775763 0.430344
O O11 0.376480 0.845186 0.683286
O O12 0.399325 0.829630 0.913505
O O13 0.023435 0.105911 0.135545
O O14 0.956486 0.570604 0.737969
O O15 0.515176 0.638580 0.598257
O O16 0.449119 0.081516 0.162240
O O17 0.000000 0.000000 0.500000
#
# Coordination Sequence:
#
# PCOD9063381 Si02
#       8
#     2   2   2   2   2   2   2   2
#     4  12  24  36  51  71  94 130 175 217 250 274
#     4  10  18  27  45  68  99 127 155 195 232 282
#     4  11  21  36  51  66  96 129 165 213 246 287
#     4   9  17  27  41  67  92 125 160 190 229 280
#     4  11  19  31  51  74  98 129 165 198 241 297
#     4  10  19  31  46  63  89 130 165 203 239 274
#     4  10  20  33  49  73  93 126 167 203 243 296
#     4   9  17  29  45  61  89 125 166 194 227 288
#
# _framework density 27.904396999999999
#
# number of rings (size 3 to 8) (size 9 to 14) (size 15 to 20)
#    0.000    1.750    1.250    6.375    3.500    3.000 
#    0.000    0.000    0.000    0.000    0.000    0.000 
#    0.000    0.000    0.000   78.750    0.000    0.000 
#
# Total GULP energy -89341.639448 kJ/mol
# GULP energy per Si atom -5583.852466 kJ/mol
# Density = 2.784089 g / cm^3
# Si number density = 27.904397 Si / 1000 Ang^3
#
#
#
# Elastic Constant Matrix: (Units=GPa)
#
#
# Indices 1 2 3 4 5 6 
#
# 1 135.1240 20.3488 39.2269 -29.0053 14.6845 -26.1504
# 2 20.3488 110.9148 32.3183 -15.4421 3.4114 -32.0849
# 3 39.2269 32.3183 122.7592 -55.1667 6.2888 -10.2399
# 4 -29.0053 -15.4421 -55.1667 45.0122 -7.4572 5.2532
# 5 14.6845 3.4114 6.2888 -7.4572 45.8689 -18.3316
# 6 -26.1504 -32.0849 -10.2399 5.2532 -18.3316 48.4119
#
#
#
# Elastic Compliance Matrix: (Units=1/GPa)
#
#
# Indices 1 2 3 4 5 6 
#
# 1 0.009501 0.000461 -0.000440 0.005144 -0.000314 0.004667
# 2 0.000461 0.012229 -0.002233 0.001215 0.002997 0.008885
# 3 -0.000440 -0.002233 0.018812 0.022206 0.001507 0.000422
# 4 0.005144 0.001215 0.022206 0.053579 0.005791 0.004660
# 5 -0.000314 0.002997 0.001507 0.005791 0.027120 0.011777
# 6 0.004667 0.008885 0.000422 0.004660 0.011777 0.033109
#
#
# Mechanical properties :
#
#
# Convention : Reuss Voigt Hill
#
# Bulk Modulus (GPa) = 27.68750 61.39846 44.54298
# Shear Modulus (GPa) = 29.27171 46.31889 37.79530
#
# Velocity S-wave (km/s) = 3.24234 4.07862 3.68429
# Velocity P-wave (km/s) = 4.89498 6.65065 5.83918
#
# Compressibility (1/GPa) = 0.03611738
#
# Stress axis : x y z
#
# Youngs Moduli (GPa) = 105.25735 81.77165 53.15774
#
# Poissons Ratio (x) = -0.03772 0.02340
# Poissons Ratio (y) = -0.04855 0.11871
# Poissons Ratio (z) = 0.04633 0.18262
#
# Static dielectric constant tensor:
#      x y z
#    x 2.126650 0.200870 0.045750 
#    y 0.200870 2.685250 0.122320 
#    z 0.045750 0.122320 2.246130 
# 
# From -- ./inp_files/538791.got.cif
#   From: 2010.05.17/outbox.cif.g08.bks.cpg/sg2_270_cif.got.tgz:538791.got - 2010.06.03 11:33:40.
