data_PCOD9063020
_publ_section_title
;
Structure prediction by ZEFSAII (Michael W. Deem and Ramdas Pophale) SiO2 
 PCOD9063020
Probable space group: P -1
;
_chemical_formula_sum "Si O2"
_cell_formula_units_Z 16
_cell_length_a 11.887191
_cell_length_b 8.878781
_cell_length_c 15.484620
_cell_angle_alpha 47.247911
_cell_angle_beta 67.694318
_cell_angle_gamma 103.337665
_cell_volume 771.845164
_symmetry_space_group_name_H-M "P -1"
_symmetry_group_IT_number 2
_symmetry_cell_setting 'triclinic'
loop_
_space_group_symop_operation_xyz
x,y,z
-x,-y,-z
loop_
_atom_site_type_symbol
_atom_site_label
_atom_site_fract_x
_atom_site_fract_y
_atom_site_fract_z
Si Si1 0.480286 0.621892 0.040827
Si Si2 0.721486 0.889290 0.572369
Si Si3 0.884991 0.578076 0.747720
Si Si4 0.320026 0.733291 0.613378
Si Si5 0.357053 0.455799 0.435343
Si Si6 0.995904 0.420469 0.934012
Si Si7 0.285616 0.246389 0.733158
Si Si8 0.183355 0.663642 0.331946
O O1 0.434830 0.413202 0.214154
O O2 0.297022 0.527444 0.134826
O O3 0.500000 0.500000 0.000000
O O4 0.656528 0.975019 0.854671
O O5 0.690491 0.780053 0.526169
O O6 0.713578 0.123192 0.500095
O O7 0.924939 0.081093 0.454723
O O8 0.922770 0.489010 0.856930
O O9 0.854106 0.427154 0.723366
O O10 0.301649 0.486943 0.677294
O O11 0.189673 0.608240 0.777641
O O12 0.500000 0.000000 0.500000
O O13 0.307103 0.315449 0.598675
O O14 0.566833 0.722011 0.280222
O O15 0.263383 0.551381 0.394857
O O16 0.000000 0.500000 0.000000
O O17 0.893946 0.087332 0.077311
O O18 0.000000 0.500000 0.500000
#
# Coordination Sequence:
#
# PCOD9063020 Si02
#       8
#     2   2   2   2   2   2   2   2
#     4  12  27  44  70 105 137 189 238 289 362 427
#     4  11  24  46  69 102 141 186 233 294 357 424
#     4  11  25  47  75  99 147 185 235 299 360 421
#     4  11  24  43  69 102 141 181 235 294 346 421
#     4  11  25  44  76  97 146 181 237 290 363 412
#     4  11  26  46  70 106 143 184 241 289 357 428
#     4  11  24  45  73 104 140 193 234 293 358 421
#     4  12  28  48  72 107 144 186 242 300 359 430
#
# _framework density 20.729545000000002
#
# number of rings (size 3 to 8) (size 9 to 14) (size 15 to 20)
#    0.000    0.750    2.500    4.125   10.500    1.000 
#    2.250    0.000    0.000    0.000    0.000    0.000 
#    0.000    0.000    0.000    0.000    0.000    0.000 
#
# Total GULP energy -89197.893791 kJ/mol
# GULP energy per Si atom -5574.868362 kJ/mol
# Density = 2.068236 g / cm^3
# Si number density = 20.729545 Si / 1000 Ang^3
#
#
#
# Elastic Constant Matrix: (Units=GPa)
#
#
# Indices 1 2 3 4 5 6 
#
# 1 121.5057 52.5906 56.4767 4.3581 -9.6326 0.0239
# 2 52.5906 126.1109 50.5034 16.7024 -13.2336 13.6475
# 3 56.4767 50.5034 149.5770 -17.1635 -32.3261 -2.1767
# 4 4.3581 16.7024 -17.1635 38.7670 -1.7332 -3.2857
# 5 -9.6326 -13.2336 -32.3261 -1.7332 33.7579 0.6049
# 6 0.0239 13.6475 -2.1767 -3.2857 0.6049 28.6664
#
#
#
# Elastic Compliance Matrix: (Units=1/GPa)
#
#
# Indices 1 2 3 4 5 6 
#
# 1 0.011296 -0.003378 -0.003627 -0.001393 -0.001668 0.001199
# 2 -0.003378 0.012696 -0.003985 -0.007467 -0.000058 -0.007199
# 3 -0.003627 -0.003985 0.012530 0.008415 0.009769 0.003610
# 4 -0.001393 -0.007467 0.008415 0.033851 0.006329 0.007942
# 5 -0.001668 -0.000058 0.009769 0.006329 0.038791 0.000677
# 6 0.001199 -0.007199 0.003610 0.007942 0.000677 0.039480
#
#
# Mechanical properties :
#
#
# Convention : Reuss Voigt Hill
#
# Bulk Modulus (GPa) = 68.77294 79.59279 74.18287
# Shear Modulus (GPa) = 28.49444 36.07978 32.28711
#
# Velocity S-wave (km/s) = 3.71156 4.17646 3.95085
# Velocity P-wave (km/s) = 7.18442 7.85724 7.52835
#
# Compressibility (1/GPa) = 0.01454060
#
# Stress axis : x y z
#
# Youngs Moduli (GPa) = 88.52928 78.76299 79.80864
#
# Poissons Ratio (x) = 0.26607 0.28948
# Poissons Ratio (y) = 0.29907 0.31807
# Poissons Ratio (z) = 0.32111 0.31390
#
# Static dielectric constant tensor:
#      x y z
#    x 1.795740 -0.022400 0.013020 
#    y -0.022400 1.702990 0.035870 
#    z 0.013020 0.035870 1.712710 
# 
# From -- ./inp_files/306935.got.cif
#   From: 2010.05.17/outbox.cif.g08.bks.cpg/sg2_154_cif.got.tgz:306935.got - 2010.06.03 11:33:40.
