data_PCOD9063296
_publ_section_title
;
Structure prediction by ZEFSAII (Michael W. Deem and Ramdas Pophale) SiO2 
 PCOD9063296
Probable space group: P -1
;
_chemical_formula_sum "Si O2"
_cell_formula_units_Z 15
_cell_length_a 11.480365
_cell_length_b 13.461017
_cell_length_c 11.177717
_cell_angle_alpha 147.214436
_cell_angle_beta 101.374480
_cell_angle_gamma 60.140158
_cell_volume 715.431356
_symmetry_space_group_name_H-M "P -1"
_symmetry_group_IT_number 2
_symmetry_cell_setting 'triclinic'
loop_
_space_group_symop_operation_xyz
x,y,z
-x,-y,-z
loop_
_atom_site_type_symbol
_atom_site_label
_atom_site_fract_x
_atom_site_fract_y
_atom_site_fract_z
Si Si1 0.422777 0.091989 0.768633
Si Si2 0.935269 0.551237 0.905500
Si Si3 0.235477 0.469975 0.489018
Si Si4 0.669708 0.994294 0.903526
Si Si5 0.555146 0.653659 0.190661
Si Si6 0.131259 0.655341 0.920451
Si Si7 0.500000 0.500000 0.500000
Si Si8 0.048757 0.147144 0.341200
O O1 0.455545 0.214131 0.797305
O O2 0.531105 0.035400 0.843844
O O3 0.462034 0.856940 0.478917
O O4 0.246568 0.275418 0.952533
O O5 0.998925 0.658374 0.949859
O O6 0.006066 0.303862 0.607869
O O7 0.000000 0.500000 0.000000
O O8 0.264952 0.227393 0.221829
O O9 0.195443 0.515916 0.667739
O O10 0.380074 0.453474 0.471119
O O11 0.091235 0.686976 0.608824
O O12 0.799715 0.924643 0.764352
O O13 0.614470 0.230165 0.195797
O O14 0.728687 0.479459 0.094868
O O15 0.500000 0.500000 0.000000
O O16 0.073207 0.914089 0.144197
#
# Coordination Sequence:
#
# PCOD9063296 Si02
#       8
#     2   2   2   2   2   2   1   2
#     4  11  25  46  69 107 144 185 246 300 363 434
#     4  12  27  47  73 107 149 192 247 304 363 439
#     4  12  26  49  73 110 145 197 244 302 375 437
#     4  12  25  48  77 104 150 191 245 307 368 440
#     4  11  24  43  75 103 140 191 242 301 366 428
#     4  12  25  47  75 105 146 195 243 301 370 438
#     4  12  28  44  76 110 144 182 258 298 362 442
#     4  12  27  47  75 104 150 196 247 299 369 438
#
# _framework density 20.966373000000001
#
# number of rings (size 3 to 8) (size 9 to 14) (size 15 to 20)
#    0.000    0.267    5.333    2.800    3.733    2.667 
#    0.000    0.000    0.000    0.000    0.000    0.000 
#    0.000    0.000    0.000    0.000    0.000    0.000 
#
# Total GULP energy -83761.132503 kJ/mol
# GULP energy per Si atom -5584.075500 kJ/mol
# Density = 2.091865 g / cm^3
# Si number density = 20.966373 Si / 1000 Ang^3
#
#
#
# Elastic Constant Matrix: (Units=GPa)
#
#
# Indices 1 2 3 4 5 6 
#
# 1 154.8308 -11.9309 69.3733 17.2453 -8.6341 21.3321
# 2 -11.9309 56.5842 -0.0673 12.9139 -1.6962 -4.2392
# 3 69.3733 -0.0673 163.6534 31.6310 12.1704 17.0395
# 4 17.2453 12.9139 31.6310 34.2911 7.3536 3.0944
# 5 -8.6341 -1.6962 12.1704 7.3536 52.8399 9.7939
# 6 21.3321 -4.2392 17.0395 3.0944 9.7939 15.5462
#
#
#
# Elastic Compliance Matrix: (Units=1/GPa)
#
#
# Indices 1 2 3 4 5 6 
#
# 1 0.010365 0.002127 -0.002740 -0.003429 0.005339 -0.013321
# 2 0.002127 0.020694 0.000616 -0.010068 0.001721 0.002969
# 3 -0.002740 0.000616 0.009052 -0.006653 -0.000817 -0.004154
# 4 -0.003429 -0.010068 -0.006653 0.041679 -0.006033 0.004757
# 5 0.005339 0.001721 -0.000817 -0.006033 0.024640 -0.020284
# 6 -0.013321 0.002969 -0.004154 0.004757 -0.020284 0.099797
#
#
# Mechanical properties :
#
#
# Convention : Reuss Voigt Hill
#
# Bulk Modulus (GPa) = 24.92833 54.42430 39.67632
# Shear Modulus (GPa) = 22.76917 41.71498 32.24207
#
# Velocity S-wave (km/s) = 3.29900 4.46535 3.92573
# Velocity P-wave (km/s) = 5.14069 7.25259 6.28597
#
# Compressibility (1/GPa) = 0.04011500
#
# Stress axis : x y z
#
# Youngs Moduli (GPa) = 96.47474 48.32385 110.47823
#
# Poissons Ratio (x) = -0.10278 0.30276
# Poissons Ratio (y) = -0.20520 -0.06801
# Poissons Ratio (z) = 0.26438 -0.02975
#
# Static dielectric constant tensor:
#      x y z
#    x 1.713650 -0.014180 0.005050 
#    y -0.014180 1.774110 -0.011700 
#    z 0.005050 -0.011700 1.742530 
# 
# From -- ./inp_files/434377.got.cif
#   From: 2010.05.17/outbox.cif.g08.bks.cpg/sg2_218_cif.got.tgz:434377.got - 2010.06.03 11:33:40.
