data_PCOD9063350
_publ_section_title
;
Structure prediction by ZEFSAII (Michael W. Deem and Ramdas Pophale) SiO2 
 PCOD9063350
Probable space group: P -1
;
_chemical_formula_sum "Si O2"
_cell_formula_units_Z 16
_cell_length_a 27.389401
_cell_length_b 8.497717
_cell_length_c 5.378601
_cell_angle_alpha 80.825499
_cell_angle_beta 122.447381
_cell_angle_gamma 137.906413
_cell_volume 642.040268
_symmetry_space_group_name_H-M "P -1"
_symmetry_group_IT_number 2
_symmetry_cell_setting 'triclinic'
loop_
_space_group_symop_operation_xyz
x,y,z
-x,-y,-z
loop_
_atom_site_type_symbol
_atom_site_label
_atom_site_fract_x
_atom_site_fract_y
_atom_site_fract_z
Si Si1 0.584601 0.895946 0.754289
Si Si2 0.869440 0.831188 0.794663
Si Si3 0.898751 0.367806 0.246330
Si Si4 0.752100 0.802717 0.180534
Si Si5 0.911744 0.603326 0.722043
Si Si6 0.265142 0.556182 0.067969
Si Si7 0.435255 0.475644 0.053676
Si Si8 0.444833 0.792228 0.687507
O O1 0.531734 0.722129 0.404088
O O2 0.572028 0.727152 0.960358
O O3 0.521847 0.909370 0.662673
O O4 0.693000 0.184559 0.971277
O O5 0.812508 0.868956 0.564157
O O6 0.863624 0.673129 0.615914
O O7 0.828880 0.664661 0.975542
O O8 0.977260 0.115185 0.042337
O O9 0.891886 0.467594 0.445618
O O10 0.000000 0.500000 0.500000
O O11 0.820639 0.060973 0.140146
O O12 0.890562 0.448326 0.945941
O O13 0.726875 0.576257 0.057989
O O14 0.655108 0.684243 0.979155
O O15 0.351651 0.695020 0.448417
O O16 0.414754 0.551950 0.758562
O O17 0.500000 0.000000 0.000000
#
# Coordination Sequence:
#
# PCOD9063350 Si02
#       8
#     2   2   2   2   2   2   2   2
#     4  11  25  43  66  94 141 182 232 293 359 426
#     4  11  27  46  73 107 142 190 245 297 363 441
#     4  12  26  49  78 109 151 193 241 305 377 437
#     4  12  26  43  71 103 140 188 247 301 365 444
#     4  11  28  50  77 109 151 197 242 302 370 445
#     4  12  25  43  69 101 141 183 244 299 359 436
#     4  11  24  44  64  99 134 185 232 291 358 426
#     4  12  22  42  68  97 134 190 235 290 362 434
#
# _framework density 24.920556000000001
#
# number of rings (size 3 to 8) (size 9 to 14) (size 15 to 20)
#    0.000    0.500    5.000    2.625    5.250    1.000 
#    0.000    0.000    0.000    0.000    0.000    0.000 
#    0.000    0.000    0.000    0.000    0.000    0.000 
#
# Total GULP energy -89452.292520 kJ/mol
# GULP energy per Si atom -5590.768282 kJ/mol
# Density = 2.486384 g / cm^3
# Si number density = 24.920556 Si / 1000 Ang^3
#
#
#
# Elastic Constant Matrix: (Units=GPa)
#
#
# Indices 1 2 3 4 5 6 
#
# 1 76.8136 4.6724 -1.1172 -4.0605 -6.4705 -18.0624
# 2 4.6724 152.4408 -3.5955 5.8101 2.3848 0.8847
# 3 -1.1172 -3.5955 29.8461 0.4954 -6.4879 -12.3648
# 4 -4.0605 5.8101 0.4954 37.5779 1.9767 3.3379
# 5 -6.4705 2.3848 -6.4879 1.9767 34.7878 -5.2430
# 6 -18.0624 0.8847 -12.3648 3.3379 -5.2430 41.8579
#
#
#
# Elastic Compliance Matrix: (Units=1/GPa)
#
#
# Indices 1 2 3 4 5 6 
#
# 1 0.015723 -0.000514 0.005395 0.000630 0.005287 0.009001
# 2 -0.000514 0.006638 0.000660 -0.001059 -0.000387 -0.000131
# 3 0.005395 0.000660 0.043298 -0.002191 0.011681 0.016742
# 4 0.000630 -0.001059 -0.002191 0.027236 -0.002188 -0.002799
# 5 0.005287 -0.000387 0.011681 -0.002188 0.033584 0.010121
# 6 0.009001 -0.000131 0.016742 -0.002799 0.010121 0.034214
#
#
# Mechanical properties :
#
#
# Convention : Reuss Voigt Hill
#
# Bulk Modulus (GPa) = 13.03090 28.78000 20.90545
# Shear Modulus (GPa) = 28.54000 40.12078 34.33039
#
# Velocity S-wave (km/s) = 3.38781 4.01677 3.71562
# Velocity P-wave (km/s) = 4.53248 5.75207 5.17830
#
# Compressibility (1/GPa) = 0.07674065
#
# Stress axis : x y z
#
# Youngs Moduli (GPa) = 63.59927 150.63896 23.09572
#
# Poissons Ratio (x) = 0.07737 -0.12459
# Poissons Ratio (y) = 0.03267 -0.01523
# Poissons Ratio (z) = -0.34309 -0.09935
#
# Static dielectric constant tensor:
#      x y z
#    x 1.996060 0.012630 -0.005530 
#    y 0.012630 2.037850 -0.147660 
#    z -0.005530 -0.147660 1.858760 
# 
# From -- ./inp_files/128262.got.cif
#   From: 2010.05.17/outbox.cif.g08.bks.cpg/sg2_65_cif.got.tgz:128262.got - 2010.06.03 11:33:40.
