data_PCOD9063607
_publ_section_title
;
Structure prediction by ZEFSAII (Michael W. Deem and Ramdas Pophale) SiO2 
 PCOD9063607
Probable space group: P -1
;
_chemical_formula_sum "Si O2"
_cell_formula_units_Z 12
_cell_length_a 5.039209
_cell_length_b 9.622565
_cell_length_c 16.691577
_cell_angle_alpha 36.668094
_cell_angle_beta 94.131197
_cell_angle_gamma 92.846809
_cell_volume 482.041658
_symmetry_space_group_name_H-M "P -1"
_symmetry_group_IT_number 2
_symmetry_cell_setting 'triclinic'
loop_
_space_group_symop_operation_xyz
x,y,z
-x,-y,-z
loop_
_atom_site_type_symbol
_atom_site_label
_atom_site_fract_x
_atom_site_fract_y
_atom_site_fract_z
Si Si1 0.759161 0.081307 0.012320
Si Si2 0.667929 0.231733 0.418622
Si Si3 0.213055 0.287630 0.096920
Si Si4 0.537879 0.507763 0.135836
Si Si5 0.195185 0.359685 0.459707
Si Si6 0.914116 0.833031 0.289192
O O1 0.765981 0.954761 0.156354
O O2 0.718322 0.357600 0.895935
O O3 0.500000 0.000000 0.000000
O O4 0.000000 0.000000 0.000000
O O5 0.690428 0.378213 0.269460
O O6 0.958615 0.221273 0.471520
O O7 0.465130 0.363236 0.413785
O O8 0.500000 0.000000 0.500000
O O9 0.443975 0.335532 0.143567
O O10 0.306684 0.301282 0.000698
O O11 0.099610 0.038983 0.228569
O O12 0.000000 0.500000 0.000000
O O13 0.076024 0.614809 0.357562
O O14 0.247719 0.248659 0.599447
#
# Coordination Sequence:
#
# PCOD9063607 Si02
#       6
#     2   2   2   2   2   2
#     4  12  25  42  70 102 140 182 226 295 358 416
#     4  12  27  48  75 105 148 189 244 294 357 432
#     4  11  24  44  71 105 141 192 238 300 364 419
#     4  11  26  43  71 108 142 186 248 297 364 430
#     4  11  28  47  74 108 141 199 237 292 361 428
#     4  11  25  48  74 102 151 184 246 295 356 434
#
# _framework density 24.894114999999999
#
# number of rings (size 3 to 8) (size 9 to 14) (size 15 to 20)
#    0.000    0.667    1.667    4.500    4.667    6.667 
#    0.000    0.000    0.000    0.000    0.000    0.000 
#    0.000    0.000    0.000    0.000    0.000    0.000 
#
# Total GULP energy -67269.238946 kJ/mol
# GULP energy per Si atom -5605.769912 kJ/mol
# Density = 2.483746 g / cm^3
# Si number density = 24.894115 Si / 1000 Ang^3
#
#
#
# Elastic Constant Matrix: (Units=GPa)
#
#
# Indices 1 2 3 4 5 6 
#
# 1 93.5544 7.6360 0.1628 19.1769 3.2083 -6.5029
# 2 7.6360 82.2481 17.7969 9.3673 2.0320 -0.9966
# 3 0.1628 17.7969 113.0951 25.6088 5.9038 2.5933
# 4 19.1769 9.3673 25.6088 57.3608 9.7107 2.0426
# 5 3.2083 2.0320 5.9038 9.7107 30.1156 7.4021
# 6 -6.5029 -0.9966 2.5933 2.0426 7.4021 37.6938
#
#
#
# Elastic Compliance Matrix: (Units=1/GPa)
#
#
# Indices 1 2 3 4 5 6 
#
# 1 0.011807 -0.000795 0.001053 -0.004268 -0.000598 0.002292
# 2 -0.000795 0.012741 -0.001776 -0.001002 -0.000206 0.000417
# 3 0.001053 -0.001776 0.010172 -0.004515 -0.000475 -0.000227
# 4 -0.004268 -0.001002 -0.004515 0.021999 -0.005550 -0.000554
# 5 -0.000598 -0.000206 -0.000475 -0.005550 0.036891 -0.007020
# 6 0.002292 0.000417 -0.000227 -0.000554 -0.007020 0.028360
#
#
# Mechanical properties :
#
#
# Convention : Reuss Voigt Hill
#
# Bulk Modulus (GPa) = 31.56159 37.78766 34.67463
# Shear Modulus (GPa) = 36.88214 42.58750 39.73482
#
# Velocity S-wave (km/s) = 3.85328 4.14060 3.99952
# Velocity P-wave (km/s) = 5.70113 6.17023 5.94031
#
# Compressibility (1/GPa) = 0.03168408
#
# Stress axis : x y z
#
# Youngs Moduli (GPa) = 84.69750 78.48896 98.30502
#
# Poissons Ratio (x) = 0.06243 -0.10354
# Poissons Ratio (y) = 0.06737 0.17456
# Poissons Ratio (z) = -0.08921 0.13937
#
# Static dielectric constant tensor:
#      x y z
#    x 2.056570 0.084160 -0.158790 
#    y 0.084160 2.083910 -0.136370 
#    z -0.158790 -0.136370 2.155670 
# 
# From -- ./inp_files/28731.got.cif
#   From: 2010.05.17/outbox.cif.g08.bks.cpg/sg2_15_cif.got.tgz:28731.got - 2010.06.03 11:33:40.
