data_PCOD9063910
_publ_section_title
;
Structure prediction by ZEFSAII (Michael W. Deem and Ramdas Pophale) SiO2 
 PCOD9063910
Probable space group: P -1
;
_chemical_formula_sum "Si O2"
_cell_formula_units_Z 16
_cell_length_a 11.845607
_cell_length_b 7.156446
_cell_length_c 10.529675
_cell_angle_alpha 121.814885
_cell_angle_beta 79.394309
_cell_angle_gamma 66.906599
_cell_volume 604.257284
_symmetry_space_group_name_H-M "P -1"
_symmetry_group_IT_number 2
_symmetry_cell_setting 'triclinic'
loop_
_space_group_symop_operation_xyz
x,y,z
-x,-y,-z
loop_
_atom_site_type_symbol
_atom_site_label
_atom_site_fract_x
_atom_site_fract_y
_atom_site_fract_z
Si Si1 0.181201 0.674855 0.061806
Si Si2 0.062332 0.817638 0.793468
Si Si3 0.519465 0.428689 0.815595
Si Si4 0.843126 0.727818 0.175688
Si Si5 0.291886 0.020734 0.241333
Si Si6 0.747755 0.535635 0.759613
Si Si7 0.642579 0.326017 0.322377
Si Si8 0.048554 0.334397 0.601428
O O1 0.210159 0.466723 0.870667
O O2 0.228366 0.474944 0.099019
O O3 0.256137 0.828291 0.109039
O O4 0.019583 0.933620 0.198564
O O5 0.229494 0.642961 0.669797
O O6 0.003763 0.637834 0.740272
O O7 0.000000 0.000000 0.000000
O O8 0.321598 0.177046 0.190133
O O9 0.648011 0.437013 0.740003
O O10 0.500000 0.500000 0.000000
O O11 0.588460 0.115976 0.721051
O O12 0.864939 0.806085 0.338171
O O13 0.732845 0.001537 0.217720
O O14 0.000000 0.500000 0.000000
O O15 0.150021 0.219179 0.420225
O O16 0.589905 0.418322 0.221372
O O17 0.909768 0.343464 0.610472
O O18 0.500000 0.500000 0.500000
#
# Coordination Sequence:
#
# PCOD9063910 Si02
#       8
#     2   2   2   2   2   2   2   2
#     4  11  24  44  79 119 150 208 274 349 393 483
#     4  12  25  46  83 117 163 206 285 347 406 489
#     4  11  30  52  75 110 165 225 268 326 417 512
#     4  12  23  48  82 118 159 213 283 336 406 489
#     4  11  27  49  73 116 166 206 271 336 418 482
#     4  11  25  46  78 109 159 206 271 325 410 482
#     4  12  29  52  81 123 173 219 273 348 429 494
#     4  12  24  45  82 121 154 209 276 351 411 475
#
# _framework density 26.478787000000001
#
# number of rings (size 3 to 8) (size 9 to 14) (size 15 to 20)
#    0.000    0.500    5.000    1.125    7.000    2.500 
#    4.500    1.250    0.000    0.000    0.000    0.000 
#    0.000    0.000    0.000    0.000    0.000    0.000 
#
# Total GULP energy -89229.908086 kJ/mol
# GULP energy per Si atom -5576.869255 kJ/mol
# Density = 2.641852 g / cm^3
# Si number density = 26.478787 Si / 1000 Ang^3
#
#
#
# Elastic Constant Matrix: (Units=GPa)
#
#
# Indices 1 2 3 4 5 6 
#
# 1 80.3135 61.0791 49.4580 10.6509 -16.3439 -20.7269
# 2 61.0791 229.4393 45.7745 20.7290 -11.0571 -13.2671
# 3 49.4580 45.7745 109.8210 -8.2429 -16.5724 -8.3609
# 4 10.6509 20.7290 -8.2429 46.4816 -6.3254 -10.7633
# 5 -16.3439 -11.0571 -16.5724 -6.3254 44.8638 8.2971
# 6 -20.7269 -13.2671 -8.3609 -10.7633 8.2971 44.6690
#
#
#
# Elastic Compliance Matrix: (Units=1/GPa)
#
#
# Indices 1 2 3 4 5 6 
#
# 1 0.022981 -0.003693 -0.008108 -0.003108 0.002774 0.006785
# 2 -0.003693 0.005663 -0.000972 -0.002061 -0.000485 -0.000620
# 3 -0.008108 -0.000972 0.013895 0.004955 0.002781 -0.000773
# 4 -0.003108 -0.002061 0.004955 0.025459 0.002955 0.004459
# 5 0.002774 -0.000485 0.002781 0.002955 0.025045 -0.002277
# 6 0.006785 -0.000620 -0.000773 0.004459 -0.002277 0.026703
#
#
# Mechanical properties :
#
#
# Convention : Reuss Voigt Hill
#
# Bulk Modulus (GPa) = 58.85344 81.35523 70.10434
# Shear Modulus (GPa) = 33.12216 44.75369 38.93793
#
# Velocity S-wave (km/s) = 3.54064 4.11563 3.83891
# Velocity P-wave (km/s) = 6.24417 7.30588 6.79579
#
# Compressibility (1/GPa) = 0.01699136
#
# Stress axis : x y z
#
# Youngs Moduli (GPa) = 43.51489 176.59962 71.96765
#
# Poissons Ratio (x) = 0.65223 0.58353
# Poissons Ratio (y) = 0.16071 0.06995
# Poissons Ratio (z) = 0.35283 0.17166
#
# Static dielectric constant tensor:
#      x y z
#    x 2.238770 0.018810 -0.037090 
#    y 0.018810 1.994350 -0.153620 
#    z -0.037090 -0.153620 1.999960 
# 
# From -- ./inp_files/572044.got.cif
#   From: 2010.05.17/outbox.cif.g08.bks.cpg/sg2_287_cif.got.tgz:572044.got - 2010.06.03 11:33:40.
