data_PCOD9063632
_publ_section_title
;
Structure prediction by ZEFSAII (Michael W. Deem and Ramdas Pophale) SiO2 
 PCOD9063632
Probable space group: P -1
;
_chemical_formula_sum "Si O2"
_cell_formula_units_Z 16
_cell_length_a 13.870042
_cell_length_b 11.314924
_cell_length_c 14.660983
_cell_angle_alpha 28.930312
_cell_angle_beta 39.469378
_cell_angle_gamma 55.333970
_cell_volume 663.442247
_symmetry_space_group_name_H-M "P -1"
_symmetry_group_IT_number 2
_symmetry_cell_setting 'triclinic'
loop_
_space_group_symop_operation_xyz
x,y,z
-x,-y,-z
loop_
_atom_site_type_symbol
_atom_site_label
_atom_site_fract_x
_atom_site_fract_y
_atom_site_fract_z
Si Si1 0.677499 0.138923 0.421665
Si Si2 0.619812 0.669786 0.680299
Si Si3 0.779367 0.697588 0.905993
Si Si4 0.160158 0.430780 0.257112
Si Si5 0.651679 0.763378 0.228559
Si Si6 0.556164 0.912940 0.857661
Si Si7 0.026747 0.107011 0.199930
Si Si8 0.186301 0.026256 0.839058
O O1 0.668864 0.413491 0.214699
O O2 0.862284 0.150568 0.260612
O O3 0.562249 0.897681 0.609247
O O4 0.637636 0.074577 0.599390
O O5 0.702304 0.594890 0.759301
O O6 0.737101 0.807880 0.418383
O O7 0.506987 0.391557 0.916051
O O8 0.824422 0.662022 0.793607
O O9 0.692724 0.913204 0.829865
O O10 0.933297 0.785411 0.799891
O O11 0.005786 0.202998 0.565886
O O12 0.173626 0.726468 0.045630
O O13 0.500000 0.500000 0.500000
O O14 0.705652 0.839424 0.242566
O O15 0.589178 0.986467 0.081960
O O16 0.813752 0.754901 0.068109
O O17 0.000000 0.000000 0.000000
#
# Coordination Sequence:
#
# PCOD9063632 Si02
#       8
#     2   2   2   2   2   2   2   2
#     4  11  24  46  74 110 152 194 254 315 374 453
#     4  11  24  44  71 109 145 191 248 314 376 441
#     4  12  25  44  76 110 149 196 250 310 386 439
#     4  11  24  46  75 114 143 191 261 317 366 450
#     4  12  30  53  74 113 160 200 253 320 387 460
#     4  12  27  44  73 109 153 193 249 312 381 454
#     4  11  26  49  75 106 155 204 255 311 376 459
#     4  12  27  48  80 110 151 210 256 311 386 457
#
# _framework density 24.116643
#
# number of rings (size 3 to 8) (size 9 to 14) (size 15 to 20)
#    0.000    0.500    5.000    3.375    5.250    3.000 
#    0.000    0.000    0.000    0.000    0.000    0.000 
#    0.000    0.000    0.000    0.000    0.000    0.000 
#
# Total GULP energy -89548.235349 kJ/mol
# GULP energy per Si atom -5596.764709 kJ/mol
# Density = 2.406175 g / cm^3
# Si number density = 24.116643 Si / 1000 Ang^3
#
#
#
# Elastic Constant Matrix: (Units=GPa)
#
#
# Indices 1 2 3 4 5 6 
#
# 1 117.0320 45.0840 20.4893 -8.1666 9.5777 0.2335
# 2 45.0840 79.9474 31.5696 0.0776 0.4637 -3.5812
# 3 20.4893 31.5696 135.2602 -3.0494 9.2687 -3.9371
# 4 -8.1666 0.0776 -3.0494 41.7963 -0.0227 -1.0980
# 5 9.5777 0.4637 9.2687 -0.0227 45.6450 -5.8229
# 6 0.2335 -3.5812 -3.9371 -1.0980 -5.8229 41.8425
#
#
#
# Elastic Compliance Matrix: (Units=1/GPa)
#
#
# Indices 1 2 3 4 5 6 
#
# 1 0.011384 -0.006435 -0.000032 0.002209 -0.002430 -0.000898
# 2 -0.006435 0.017469 -0.003231 -0.001486 0.002016 0.001469
# 3 -0.000032 -0.003231 0.008285 0.000611 -0.001605 0.000296
# 4 0.002209 -0.001486 0.000611 0.024417 -0.000498 0.000489
# 5 -0.002430 0.002016 -0.001605 -0.000498 0.023137 0.003242
# 6 -0.000898 0.001469 0.000296 0.000489 0.003242 0.024522
#
#
# Mechanical properties :
#
#
# Convention : Reuss Voigt Hill
#
# Bulk Modulus (GPa) = 56.37029 58.50283 57.43656
# Shear Modulus (GPa) = 37.16812 41.52990 39.34901
#
# Velocity S-wave (km/s) = 3.93005 4.15425 4.04370
# Velocity P-wave (km/s) = 6.63464 6.87905 6.75795
#
# Compressibility (1/GPa) = 0.01773984
#
# Stress axis : x y z
#
# Youngs Moduli (GPa) = 87.84099 57.24526 120.70657
#
# Poissons Ratio (x) = 0.36839 0.00390
# Poissons Ratio (y) = 0.56528 0.39003
# Poissons Ratio (z) = 0.00284 0.18497
#
# Static dielectric constant tensor:
#      x y z
#    x 1.960540 0.012820 -0.067310 
#    y 0.012820 1.944410 -0.005190 
#    z -0.067310 -0.005190 1.980060 
# 
# From -- ./inp_files/532251.got.cif
#   From: 2010.05.17/outbox.cif.g08.bks.cpg/sg2_267_cif.got.tgz:532251.got - 2010.06.03 11:33:40.
