data_PCOD9063675
_publ_section_title
;
Structure prediction by ZEFSAII (Michael W. Deem and Ramdas Pophale) SiO2 
 PCOD9063675
Probable space group: P -1
;
_chemical_formula_sum "Si O2"
_cell_formula_units_Z 14
_cell_length_a 16.917074
_cell_length_b 11.086921
_cell_length_c 11.307412
_cell_angle_alpha 46.589604
_cell_angle_beta 147.151500
_cell_angle_gamma 150.010254
_cell_volume 568.580264
_symmetry_space_group_name_H-M "P -1"
_symmetry_group_IT_number 2
_symmetry_cell_setting 'triclinic'
loop_
_space_group_symop_operation_xyz
x,y,z
-x,-y,-z
loop_
_atom_site_type_symbol
_atom_site_label
_atom_site_fract_x
_atom_site_fract_y
_atom_site_fract_z
Si Si1 0.364243 0.253723 0.066706
Si Si2 0.249900 0.617490 0.871428
Si Si3 0.357350 0.219168 0.607268
Si Si4 0.062715 0.743040 0.709427
Si Si5 0.381874 0.580334 0.505823
Si Si6 0.580879 0.028080 0.816618
Si Si7 0.984134 0.088367 0.799144
O O1 0.430253 0.323566 0.238142
O O2 0.420432 0.120156 0.180156
O O3 0.500000 0.500000 0.000000
O O4 0.117053 0.096918 0.861356
O O5 0.414461 0.670687 0.138648
O O6 0.096779 0.621588 0.741173
O O7 0.402160 0.837924 0.819496
O O8 0.106566 0.362351 0.795754
O O9 0.356615 0.416870 0.486707
O O10 0.193294 0.006001 0.641934
O O11 0.247742 0.083199 0.436006
O O12 0.824871 0.584788 0.556629
O O13 0.191558 0.794991 0.951787
O O14 0.426719 0.800882 0.368061
O O15 0.000000 0.000000 0.000000
#
# Coordination Sequence:
#
# PCOD9063675 Si02
#       7
#     2   2   2   2   2   2   2
#     4  12  23  48  71 105 149 190 243 296 355 435
#     4  11  26  52  72 106 151 190 237 303 367 425
#     4  11  24  50  76 103 143 200 238 290 370 432
#     4  11  25  46  72 108 143 190 242 297 363 431
#     4  12  25  44  77 108 142 195 244 297 361 429
#     4  11  24  44  72 105 146 191 238 302 361 427
#     4  12  28  45  77 110 143 189 248 300 354 435
#
# _framework density 24.622734000000001
#
# number of rings (size 3 to 8) (size 9 to 14) (size 15 to 20)
#    0.000    0.571    2.857    5.571    4.000    3.429 
#    2.571    0.000    0.000    0.000    0.000    0.000 
#    0.000    0.000    0.000    0.000    0.000    0.000 
#
# Total GULP energy -78508.976418 kJ/mol
# GULP energy per Si atom -5607.784030 kJ/mol
# Density = 2.456669 g / cm^3
# Si number density = 24.622734 Si / 1000 Ang^3
#
#
#
# Elastic Constant Matrix: (Units=GPa)
#
#
# Indices 1 2 3 4 5 6 
#
# 1 94.5952 44.0222 27.4402 12.5561 20.8354 -4.0511
# 2 44.0222 127.5669 62.2944 -20.4658 14.3964 -19.0477
# 3 27.4402 62.2944 90.6655 -0.9241 -6.6805 -9.9157
# 4 12.5561 -20.4658 -0.9241 48.7327 2.6284 1.0030
# 5 20.8354 14.3964 -6.6805 2.6284 51.3577 6.7821
# 6 -4.0511 -19.0477 -9.9157 1.0030 6.7821 44.0125
#
#
#
# Elastic Compliance Matrix: (Units=1/GPa)
#
#
# Indices 1 2 3 4 5 6 
#
# 1 0.015061 -0.004782 -0.001698 -0.005665 -0.004672 -0.000217
# 2 -0.004782 0.017147 -0.010056 0.008419 -0.005311 0.005342
# 3 -0.001698 -0.010056 0.018750 -0.003745 0.006293 -0.001168
# 4 -0.005665 0.008419 -0.003745 0.025517 -0.002122 0.002024
# 5 -0.004672 -0.005311 0.006293 -0.002122 0.024447 -0.005030
# 6 -0.000217 0.005342 -0.001168 0.002024 -0.005030 0.025478
#
#
# Mechanical properties :
#
#
# Convention : Reuss Voigt Hill
#
# Bulk Modulus (GPa) = 55.90711 64.48236 60.19474
# Shear Modulus (GPa) = 30.22330 40.75863 35.49097
#
# Velocity S-wave (km/s) = 3.50731 4.07298 3.80068
# Velocity P-wave (km/s) = 6.25751 6.95442 6.61514
#
# Compressibility (1/GPa) = 0.01788681
#
# Stress axis : x y z
#
# Youngs Moduli (GPa) = 66.39618 58.31807 53.33249
#
# Poissons Ratio (x) = 0.27887 0.09058
# Poissons Ratio (y) = 0.31750 0.53629
# Poissons Ratio (z) = 0.11277 0.58642
#
# Static dielectric constant tensor:
#      x y z
#    x 1.959470 0.003850 -0.000410 
#    y 0.003850 1.949260 -0.018060 
#    z -0.000410 -0.018060 1.940430 
# 
# From -- ./inp_files/465041.got.cif
#   From: 2010.05.17/outbox.cif.g08.bks.cpg/sg2_233_cif.got.tgz:465041.got - 2010.06.03 11:33:40.
