data_PCOD9063193
_publ_section_title
;
Structure prediction by ZEFSAII (Michael W. Deem and Ramdas Pophale) SiO2 
 PCOD9063193
Probable space group: P -1
;
_chemical_formula_sum "Si O2"
_cell_formula_units_Z 15
_cell_length_a 19.043185
_cell_length_b 9.118603
_cell_length_c 5.959677
_cell_angle_alpha 77.725713
_cell_angle_beta 78.492369
_cell_angle_gamma 37.794883
_cell_volume 618.857375
_symmetry_space_group_name_H-M "P -1"
_symmetry_group_IT_number 2
_symmetry_cell_setting 'triclinic'
loop_
_space_group_symop_operation_xyz
x,y,z
-x,-y,-z
loop_
_atom_site_type_symbol
_atom_site_label
_atom_site_fract_x
_atom_site_fract_y
_atom_site_fract_z
Si Si1 0.253850 0.960665 0.332730
Si Si2 0.268731 0.513983 0.151380
Si Si3 0.500000 0.500000 0.500000
Si Si4 0.502646 0.170647 0.352522
Si Si5 0.057407 0.265500 0.656156
Si Si6 0.262754 0.232448 0.935131
Si Si7 0.101013 0.667548 0.574070
Si Si8 0.097389 0.018082 0.107924
O O1 0.386326 0.711390 0.354984
O O2 0.184102 0.946109 0.255279
O O3 0.191898 0.061775 0.580031
O O4 0.232486 0.146694 0.147758
O O5 0.393791 0.364356 0.191765
O O6 0.199891 0.592144 0.401667
O O7 0.182723 0.770152 0.998781
O O8 0.278607 0.351877 0.044208
O O9 0.500236 0.311474 0.487119
O O10 0.500000 0.000000 0.500000
O O11 0.619990 0.994506 0.195772
O O12 0.000000 0.500000 0.500000
O O13 0.985083 0.254465 0.583418
O O14 0.049566 0.235841 0.927675
O O15 0.167619 0.429318 0.746841
O O16 0.011845 0.881759 0.741523
#
# Coordination Sequence:
#
# PCOD9063193 Si02
#       8
#     2   2   1   2   2   2   2   2
#     4  11  26  46  72 109 148 197 254 319 386 461
#     4  12  25  48  74 112 154 200 257 324 389 467
#     4  12  28  50  82 112 158 200 264 330 382 468
#     4  12  27  52  80 114 155 206 260 322 397 464
#     4  11  24  43  72 104 153 198 251 317 382 463
#     4  12  27  46  79 108 153 207 258 315 397 468
#     4  11  24  44  73 110 151 202 259 314 393 463
#     4  11  25  45  73 113 152 200 257 318 390 463
#
# _framework density 24.238218
#
# number of rings (size 3 to 8) (size 9 to 14) (size 15 to 20)
#    0.000    0.533    2.667    4.800    3.733    9.067 
#    0.000    0.000    0.000    0.000    0.000    0.000 
#    0.000    0.000    0.000    0.000    0.000    0.000 
#
# Total GULP energy -83617.681815 kJ/mol
# GULP energy per Si atom -5574.512121 kJ/mol
# Density = 2.418305 g / cm^3
# Si number density = 24.238218 Si / 1000 Ang^3
#
#
#
# Elastic Constant Matrix: (Units=GPa)
#
#
# Indices 1 2 3 4 5 6 
#
# 1 111.9909 32.4637 20.9630 2.0096 17.0060 6.6110
# 2 32.4637 105.1252 12.1019 -15.6208 11.0176 -1.1123
# 3 20.9630 12.1019 59.5495 -11.5061 -4.8105 -7.1401
# 4 2.0096 -15.6208 -11.5061 29.0696 -3.9395 7.4987
# 5 17.0060 11.0176 -4.8105 -3.9395 38.0459 -8.7043
# 6 6.6110 -1.1123 -7.1401 7.4987 -8.7043 51.7167
#
#
#
# Elastic Compliance Matrix: (Units=1/GPa)
#
#
# Indices 1 2 3 4 5 6 
#
# 1 0.012054 -0.003195 -0.005355 -0.004821 -0.006257 -0.002703
# 2 -0.003195 0.011604 -0.000189 0.006324 -0.001421 -0.000524
# 3 -0.005355 -0.000189 0.021384 0.008755 0.006864 0.003519
# 4 -0.004821 0.006324 0.008755 0.043177 0.005114 -0.003439
# 5 -0.006257 -0.001421 0.006864 0.005114 0.032359 0.006422
# 6 -0.002703 -0.000524 0.003519 -0.003439 0.006422 0.021736
#
#
# Mechanical properties :
#
#
# Convention : Reuss Voigt Hill
#
# Bulk Modulus (GPa) = 36.27938 45.30253 40.79096
# Shear Modulus (GPa) = 29.58907 37.84225 33.71566
#
# Velocity S-wave (km/s) = 3.49773 3.95557 3.73367
# Velocity P-wave (km/s) = 5.59576 6.29231 5.95423
#
# Compressibility (1/GPa) = 0.02756387
#
# Stress axis : x y z
#
# Youngs Moduli (GPa) = 82.95912 86.17690 46.76321
#
# Poissons Ratio (x) = 0.27534 0.25042
# Poissons Ratio (y) = 0.26506 0.00885
# Poissons Ratio (z) = 0.44425 0.01631
#
# Static dielectric constant tensor:
#      x y z
#    x 1.916700 0.093240 -0.007270 
#    y 0.093240 2.016170 0.035010 
#    z -0.007270 0.035010 1.959440 
# 
# From -- ./inp_files/106683.got.cif
#   From: 2010.05.17/outbox.cif.g08.bks.cpg/sg2_54_cif.got.tgz:106683.got - 2010.06.03 11:33:40.
