data_PCOD9063827
_publ_section_title
;
Structure prediction by ZEFSAII (Michael W. Deem and Ramdas Pophale) SiO2 
 PCOD9063827
Probable space group: P -1
;
_chemical_formula_sum "Si O2"
_cell_formula_units_Z 16
_cell_length_a 11.969384
_cell_length_b 8.262511
_cell_length_c 13.320826
_cell_angle_alpha 49.545540
_cell_angle_beta 100.728191
_cell_angle_gamma 129.442025
_cell_volume 714.572052
_symmetry_space_group_name_H-M "P -1"
_symmetry_group_IT_number 2
_symmetry_cell_setting 'triclinic'
loop_
_space_group_symop_operation_xyz
x,y,z
-x,-y,-z
loop_
_atom_site_type_symbol
_atom_site_label
_atom_site_fract_x
_atom_site_fract_y
_atom_site_fract_z
Si Si1 0.873560 0.654870 0.144879
Si Si2 0.811455 0.995211 0.674021
Si Si3 0.700018 0.752993 0.369964
Si Si4 0.398753 0.489754 0.336785
Si Si5 0.999696 0.589454 0.853778
Si Si6 0.676295 0.727838 0.974541
Si Si7 0.341640 0.837290 0.104110
Si Si8 0.167341 0.486908 0.569125
O O1 0.853330 0.585407 0.286873
O O2 0.934666 0.514057 0.164370
O O3 0.721039 0.569294 0.104241
O O4 0.000000 0.000000 0.000000
O O5 0.784294 0.211301 0.567671
O O6 0.998806 0.220061 0.596159
O O7 0.693418 0.720278 0.690221
O O8 0.779780 0.885910 0.827465
O O9 0.587100 0.716914 0.284169
O O10 0.649413 0.711064 0.493784
O O11 0.702309 0.507359 0.447906
O O12 0.874851 0.062651 0.267256
O O13 0.356673 0.684755 0.257334
O O14 0.823220 0.433091 0.865675
O O15 0.000000 0.500000 0.000000
O O16 0.684015 0.952157 0.952170
O O17 0.500000 0.500000 0.000000
O O18 0.500000 0.000000 0.000000
#
# Coordination Sequence:
#
# PCOD9063827 Si02
#       8
#     2   2   2   2   2   2   2   2
#     4  12  24  46  70 104 139 182 233 282 348 411
#     4  11  24  46  70 102 134 181 235 284 347 407
#     4  11  26  45  68 101 138 184 228 283 348 410
#     4  11  26  45  67 100 143 178 230 285 345 415
#     4  12  26  43  72 100 138 183 231 284 341 413
#     4  12  28  44  70 103 143 184 226 288 346 412
#     4  12  26  45  69 102 141 180 228 285 347 410
#     4  11  24  44  74  99 135 181 236 286 340 416
#
# _framework density 22.391024999999999
#
# number of rings (size 3 to 8) (size 9 to 14) (size 15 to 20)
#    0.000    0.500    2.500    4.500    8.750    4.500 
#    0.000    0.000    0.000    0.000    0.000    0.000 
#    0.000    0.000    0.000    0.000    0.000    0.000 
#
# Total GULP energy -89441.293891 kJ/mol
# GULP energy per Si atom -5590.080868 kJ/mol
# Density = 2.234006 g / cm^3
# Si number density = 22.391025 Si / 1000 Ang^3
#
#
#
# Elastic Constant Matrix: (Units=GPa)
#
#
# Indices 1 2 3 4 5 6 
#
# 1 106.8163 43.6001 6.4346 7.9273 26.7497 17.0048
# 2 43.6001 97.7010 26.9687 13.6156 1.6162 19.1357
# 3 6.4346 26.9687 70.9272 6.8671 14.0683 4.5888
# 4 7.9273 13.6156 6.8671 35.1580 2.8942 -0.5805
# 5 26.7497 1.6162 14.0683 2.8942 42.7611 5.2868
# 6 17.0048 19.1357 4.5888 -0.5805 5.2868 46.9155
#
#
#
# Elastic Compliance Matrix: (Units=1/GPa)
#
#
# Indices 1 2 3 4 5 6 
#
# 1 0.014786 -0.006966 0.003427 -0.000523 -0.009862 -0.001748
# 2 -0.006966 0.016385 -0.006223 -0.004175 0.006605 -0.004346
# 3 0.003427 -0.006223 0.017776 -0.001192 -0.007727 0.000413
# 4 -0.000523 -0.004175 -0.001192 0.030577 -0.001509 0.002557
# 5 -0.009862 0.006605 -0.007727 -0.001509 0.032198 -0.002011
# 6 -0.001748 -0.004346 0.000413 0.002557 -0.002011 0.023939
#
#
# Mechanical properties :
#
#
# Convention : Reuss Voigt Hill
#
# Bulk Modulus (GPa) = 33.98727 47.71683 40.85205
# Shear Modulus (GPa) = 30.30454 38.19634 34.25044
#
# Velocity S-wave (km/s) = 3.68288 4.13471 3.91532
# Velocity P-wave (km/s) = 5.77033 6.64465 6.22287
#
# Compressibility (1/GPa) = 0.02942278
#
# Stress axis : x y z
#
# Youngs Moduli (GPa) = 67.63382 61.03017 56.25694
#
# Poissons Ratio (x) = 0.42512 -0.19280
# Poissons Ratio (y) = 0.47112 0.35009
# Poissons Ratio (z) = -0.23178 0.37980
#
# Static dielectric constant tensor:
#      x y z
#    x 2.025760 -0.009270 -0.018790 
#    y -0.009270 1.851610 -0.020860 
#    z -0.018790 -0.020860 1.822990 
# 
# From -- ./inp_files/405611.got.cif
#   From: 2010.05.17/outbox.cif.g08.bks.cpg/sg2_203_cif.got.tgz:405611.got - 2010.06.03 11:33:40.
