data_PCOD9063315
_publ_section_title
;
Structure prediction by ZEFSAII (Michael W. Deem and Ramdas Pophale) SiO2 
 PCOD9063315
Probable space group: P -1
;
_chemical_formula_sum "Si O2"
_cell_formula_units_Z 16
_cell_length_a 25.703091
_cell_length_b 11.089457
_cell_length_c 5.588779
_cell_angle_alpha 54.601647
_cell_angle_beta 49.618917
_cell_angle_gamma 33.834037
_cell_volume 672.462507
_symmetry_space_group_name_H-M "P -1"
_symmetry_group_IT_number 2
_symmetry_cell_setting 'triclinic'
loop_
_space_group_symop_operation_xyz
x,y,z
-x,-y,-z
loop_
_atom_site_type_symbol
_atom_site_label
_atom_site_fract_x
_atom_site_fract_y
_atom_site_fract_z
Si Si1 0.609290 0.565287 0.094096
Si Si2 0.195400 0.930011 0.896894
Si Si3 0.995944 0.169402 0.919636
Si Si4 0.326082 0.992062 0.238480
Si Si5 0.502769 0.713407 0.728102
Si Si6 0.814786 0.616728 0.092003
Si Si7 0.620625 0.891726 0.651077
Si Si8 0.062808 0.301133 0.226136
O O1 0.723923 0.326913 0.027377
O O2 0.557720 0.576091 0.476519
O O3 0.569814 0.598813 0.900157
O O4 0.606401 0.746234 0.932839
O O5 0.098418 0.040645 0.902748
O O6 0.255844 0.974865 0.563773
O O7 0.146501 0.063521 0.134201
O O8 0.991403 0.304217 0.577142
O O9 0.894203 0.358672 0.153182
O O10 0.000000 0.000000 0.000000
O O11 0.395323 0.956050 0.277022
O O12 0.259728 0.238648 0.072817
O O13 0.395679 0.816419 0.019167
O O14 0.455947 0.946982 0.521140
O O15 0.735886 0.730618 0.410812
O O16 0.877885 0.668112 0.843769
O O17 0.000000 0.500000 0.000000
#
# Coordination Sequence:
#
# PCOD9063315 Si02
#       8
#     2   2   2   2   2   2   2   2
#     4  12  29  45  77 111 160 197 248 324 394 450
#     4  12  28  47  72 111 148 197 252 319 383 458
#     4  12  29  46  72 110 157 196 249 325 398 458
#     4  11  24  46  75 108 142 197 264 306 371 461
#     4  11  26  50  75 110 152 203 254 314 385 463
#     4  11  24  43  76 105 144 202 255 311 371 463
#     4  11  25  45  78 110 144 200 262 310 376 465
#     4  12  24  47  75 101 146 204 264 308 376 467
#
# _framework density 23.793149
#
# number of rings (size 3 to 8) (size 9 to 14) (size 15 to 20)
#    0.000    0.500    5.000    1.875    8.750    1.500 
#    0.000    0.000    0.000    0.000    0.000    0.000 
#    0.000    0.000    0.000    0.000    0.000    0.000 
#
# Total GULP energy -89365.698127 kJ/mol
# GULP energy per Si atom -5585.356133 kJ/mol
# Density = 2.373899 g / cm^3
# Si number density = 23.793149 Si / 1000 Ang^3
#
#
#
# Elastic Constant Matrix: (Units=GPa)
#
#
# Indices 1 2 3 4 5 6 
#
# 1 104.7180 30.3204 15.2789 -0.6757 15.1356 -5.5284
# 2 30.3204 140.6882 32.8579 7.9851 21.4906 -8.2696
# 3 15.2789 32.8579 95.6358 1.7917 5.8399 7.5734
# 4 -0.6757 7.9851 1.7917 48.5073 7.2609 1.0505
# 5 15.1356 21.4906 5.8399 7.2609 37.3753 -9.0439
# 6 -5.5284 -8.2696 7.5734 1.0505 -9.0439 40.4334
#
#
#
# Elastic Compliance Matrix: (Units=1/GPa)
#
#
# Indices 1 2 3 4 5 6 
#
# 1 0.010667 -0.001576 -0.001024 0.000927 -0.003297 0.000567
# 2 -0.001576 0.008716 -0.002617 -0.000867 -0.003481 0.001301
# 3 -0.001024 -0.002617 0.011799 0.000150 -0.000690 -0.003044
# 4 0.000927 -0.000867 0.000150 0.021470 -0.004467 -0.001636
# 5 -0.003297 -0.003481 -0.000690 -0.004467 0.032611 0.006377
# 6 0.000567 0.001301 -0.003044 -0.001636 0.006377 0.027114
#
#
# Mechanical properties :
#
#
# Convention : Reuss Voigt Hill
#
# Bulk Modulus (GPa) = 48.19275 55.32849 51.76062
# Shear Modulus (GPa) = 38.54211 42.76884 40.65547
#
# Velocity S-wave (km/s) = 4.02914 4.24433 4.13813
# Velocity P-wave (km/s) = 6.47643 6.87921 6.68086
#
# Compressibility (1/GPa) = 0.02075001
#
# Stress axis : x y z
#
# Youngs Moduli (GPa) = 93.74297 114.72847 84.74995
#
# Poissons Ratio (x) = 0.18076 0.08677
# Poissons Ratio (y) = 0.14770 0.22180
# Poissons Ratio (z) = 0.09598 0.30026
#
# Static dielectric constant tensor:
#      x y z
#    x 1.934710 -0.057730 0.057590 
#    y -0.057730 1.959070 -0.004620 
#    z 0.057590 -0.004620 1.953790 
# 
# From -- ./inp_files/126803.got.cif
#   From: 2010.05.17/outbox.cif.g08.bks.cpg/sg2_64_cif.got.tgz:126803.got - 2010.06.03 11:33:40.
