data_PCOD9063293
_publ_section_title
;
Structure prediction by ZEFSAII (Michael W. Deem and Ramdas Pophale) SiO2 
 PCOD9063293
Probable space group: P -1
;
_chemical_formula_sum "Si O2"
_cell_formula_units_Z 16
_cell_length_a 8.411314
_cell_length_b 9.264625
_cell_length_c 11.417646
_cell_angle_alpha 126.449197
_cell_angle_beta 100.276473
_cell_angle_gamma 89.883111
_cell_volume 698.120265
_symmetry_space_group_name_H-M "P -1"
_symmetry_group_IT_number 2
_symmetry_cell_setting 'triclinic'
loop_
_space_group_symop_operation_xyz
x,y,z
-x,-y,-z
loop_
_atom_site_type_symbol
_atom_site_label
_atom_site_fract_x
_atom_site_fract_y
_atom_site_fract_z
Si Si1 0.212132 0.873883 0.662181
Si Si2 0.079791 0.544687 0.319948
Si Si3 0.001007 0.118807 0.879271
Si Si4 0.467675 0.122494 0.664702
Si Si5 0.288683 0.464048 0.818091
Si Si6 0.791568 0.803528 0.823328
Si Si7 0.557653 0.205034 0.148176
Si Si8 0.782862 0.385239 0.883855
O O1 0.140224 0.714644 0.490195
O O2 0.282419 0.796393 0.752214
O O3 0.080142 0.007646 0.736866
O O4 0.365809 0.993807 0.681786
O O5 0.118934 0.358813 0.293591
O O6 0.180760 0.558862 0.217907
O O7 0.891287 0.538452 0.259636
O O8 0.937332 0.299824 0.914242
O O9 0.134014 0.158949 0.018598
O O10 0.849931 0.986802 0.850161
O O11 0.365257 0.287813 0.703435
O O12 0.637402 0.220518 0.781695
O O13 0.500000 0.000000 0.500000
O O14 0.397576 0.646737 0.875367
O O15 0.272126 0.473610 0.961672
O O16 0.598870 0.748291 0.777712
O O17 0.500000 0.000000 0.000000
#
# Coordination Sequence:
#
# PCOD9063293 Si02
#       8
#     2   2   2   2   2   2   2   2
#     4  12  27  46  72 106 145 194 230 294 361 419
#     4  12  27  46  69 107 148 184 241 290 354 426
#     4  11  24  43  75 102 139 186 238 293 352 417
#     4  12  27  48  70 106 150 186 237 292 360 423
#     4  12  27  46  76 105 140 195 240 292 356 423
#     4  11  24  45  70 104 141 180 239 298 347 422
#     4  12  25  47  76 106 143 184 242 294 357 427
#     4  12  25  47  73 105 142 188 238 296 350 425
#
# _framework density 22.918686999999998
#
# number of rings (size 3 to 8) (size 9 to 14) (size 15 to 20)
#    0.000    0.250    3.750    5.250    3.500    3.500 
#    0.000    0.000    0.000    0.000    0.000    0.000 
#    0.000    0.000    0.000    0.000    0.000    0.000 
#
# Total GULP energy -89688.969604 kJ/mol
# GULP energy per Si atom -5605.560600 kJ/mol
# Density = 2.286652 g / cm^3
# Si number density = 22.918687 Si / 1000 Ang^3
#
#
#
# Elastic Constant Matrix: (Units=GPa)
#
#
# Indices 1 2 3 4 5 6 
#
# 1 93.0857 14.3291 43.2305 4.4290 -7.5765 -5.9053
# 2 14.3291 88.9824 21.8695 15.5178 -14.9565 1.9066
# 3 43.2305 21.8695 128.0484 26.8492 -12.0216 0.3030
# 4 4.4290 15.5178 26.8492 28.2099 -2.3549 -4.4152
# 5 -7.5765 -14.9565 -12.0216 -2.3549 42.5875 9.2788
# 6 -5.9053 1.9066 0.3030 -4.4152 9.2788 42.5415
#
#
#
# Elastic Compliance Matrix: (Units=1/GPa)
#
#
# Indices 1 2 3 4 5 6 
#
# 1 0.013304 -0.001635 -0.005047 0.003989 0.000076 0.002354
# 2 -0.001635 0.013594 0.000247 -0.007476 0.004715 -0.002642
# 3 -0.005047 0.000247 0.012010 -0.010953 0.002514 -0.002482
# 4 0.003989 -0.007476 -0.010953 0.050139 -0.003758 0.006990
# 5 0.000076 0.004715 0.002514 -0.003758 0.027071 -0.006513
# 6 0.002354 -0.002642 -0.002482 0.006990 -0.006513 0.026115
#
#
# Mechanical properties :
#
#
# Convention : Reuss Voigt Hill
#
# Bulk Modulus (GPa) = 38.40795 52.10830 45.25812
# Shear Modulus (GPa) = 30.52802 38.04695 34.28748
#
# Velocity S-wave (km/s) = 3.65364 4.07883 3.87208
# Velocity P-wave (km/s) = 5.88162 6.70582 6.30720
#
# Compressibility (1/GPa) = 0.02603628
#
# Stress axis : x y z
#
# Youngs Moduli (GPa) = 75.16415 73.56339 83.26511
#
# Poissons Ratio (x) = 0.12030 0.42026
# Poissons Ratio (y) = 0.12292 -0.02056
# Poissons Ratio (z) = 0.37937 -0.01816
#
# Static dielectric constant tensor:
#      x y z
#    x 1.856620 0.002790 -0.014610 
#    y 0.002790 1.870260 0.000050 
#    z -0.014610 0.000050 1.819290 
# 
# From -- ./inp_files/188551.got.cif
#   From: 2010.05.17/outbox.cif.g08.bks.cpg/sg2_95_cif.got.tgz:188551.got - 2010.06.03 11:33:40.
