data_PCOD9063131
_publ_section_title
;
Structure prediction by ZEFSAII (Michael W. Deem and Ramdas Pophale) SiO2 
 PCOD9063131
Probable space group: P -1
;
_chemical_formula_sum "Si O2"
_cell_formula_units_Z 10
_cell_length_a 14.365605
_cell_length_b 14.113258
_cell_length_c 8.385630
_cell_angle_alpha 137.143655
_cell_angle_beta 137.269970
_cell_angle_gamma 19.395368
_cell_volume 376.959691
_symmetry_space_group_name_H-M "P -1"
_symmetry_group_IT_number 2
_symmetry_cell_setting 'triclinic'
loop_
_space_group_symop_operation_xyz
x,y,z
-x,-y,-z
loop_
_atom_site_type_symbol
_atom_site_label
_atom_site_fract_x
_atom_site_fract_y
_atom_site_fract_z
Si Si1 0.839773 0.061648 0.633067
Si Si2 0.358189 0.182736 0.883590
Si Si3 0.191742 0.374886 0.438589
Si Si4 0.324630 0.520650 0.364438
Si Si5 0.758205 0.369183 0.108505
O O1 0.022904 0.842324 0.445639
O O2 0.982707 0.877779 0.746186
O O3 0.516316 0.307634 0.497485
O O4 0.853691 0.216651 0.872274
O O5 0.043062 0.401123 0.723298
O O6 0.571634 0.941946 0.716802
O O7 0.322201 0.382121 0.089642
O O8 0.500000 0.000000 0.000000
O O9 0.329105 0.394733 0.699789
O O10 0.000000 0.500000 0.500000
O O11 0.500000 0.500000 0.500000
O O12 0.500000 0.500000 0.000000
#
# Coordination Sequence:
#
# PCOD9063131 Si02
#       5
#     2   2   2   2   2
#     4  11  24  43  71 104 138 183 246 288 353 425
#     4  12  27  50  74 106 152 198 243 297 372 448
#     4  12  29  47  76 111 151 189 244 310 374 423
#     4  12  26  43  73 102 144 186 242 295 357 428
#     4  11  25  45  78 102 144 189 243 294 357 443
#
# _framework density 26.528036
#
# number of rings (size 3 to 8) (size 9 to 14) (size 15 to 20)
#    0.000    0.400    2.000    5.400   11.200    0.000 
#    0.000    0.000    0.000    0.000    0.000    0.000 
#    0.000    0.000    0.000    0.000    0.000    0.000 
#
# Total GULP energy -56061.337611 kJ/mol
# GULP energy per Si atom -5606.133761 kJ/mol
# Density = 2.646766 g / cm^3
# Si number density = 26.528036 Si / 1000 Ang^3
#
#
#
# Elastic Constant Matrix: (Units=GPa)
#
#
# Indices 1 2 3 4 5 6 
#
# 1 82.6563 20.8730 56.3639 33.5640 16.7720 -11.5042
# 2 20.8730 151.9549 67.5971 23.9691 1.3226 -16.1188
# 3 56.3639 67.5971 249.4543 65.7792 30.7931 -10.8156
# 4 33.5640 23.9691 65.7792 80.0447 0.4155 -15.2082
# 5 16.7720 1.3226 30.7931 0.4155 46.6405 -1.5965
# 6 -11.5042 -16.1188 -10.8156 -15.2082 -1.5965 40.5449
#
#
#
# Elastic Compliance Matrix: (Units=1/GPa)
#
#
# Indices 1 2 3 4 5 6 
#
# 1 0.016642 -0.000519 -0.001592 -0.005113 -0.004805 0.001984
# 2 -0.000519 0.007822 -0.002085 0.000053 0.001426 0.002482
# 3 -0.001592 -0.002085 0.006440 -0.004226 -0.003626 -0.001291
# 4 -0.005113 0.000053 -0.004226 0.018971 0.004621 0.004741
# 5 -0.004805 0.001426 -0.003626 0.004621 0.025514 0.000974
# 6 0.001984 0.002482 -0.001291 0.004741 0.000974 0.027686
#
#
# Mechanical properties :
#
#
# Convention : Reuss Voigt Hill
#
# Bulk Modulus (GPa) = 44.42030 85.97039 65.19534
# Shear Modulus (GPa) = 42.02683 56.06145 49.04414
#
# Velocity S-wave (km/s) = 3.98457 4.60204 4.30439
# Velocity P-wave (km/s) = 6.16036 7.79205 7.02375
#
# Compressibility (1/GPa) = 0.02251223
#
# Stress axis : x y z
#
# Youngs Moduli (GPa) = 60.08740 127.84246 155.28942
#
# Poissons Ratio (x) = 0.06634 0.24728
# Poissons Ratio (y) = 0.03118 0.32372
# Poissons Ratio (z) = 0.09568 0.26650
#
# Static dielectric constant tensor:
#      x y z
#    x 2.201860 0.119210 -0.017270 
#    y 0.119210 2.070630 0.038050 
#    z -0.017270 0.038050 2.112400 
# 
# From -- ./inp_files/129274.got.cif
#   From: 2010.05.17/outbox.cif.g08.bks.cpg/sg2_65_cif.got.tgz:129274.got - 2010.06.03 11:33:40.
