data_PCOD9063257
_publ_section_title
;
Structure prediction by ZEFSAII (Michael W. Deem and Ramdas Pophale) SiO2 
 PCOD9063257
Probable space group: P -1
;
_chemical_formula_sum "Si O2"
_cell_formula_units_Z 14
_cell_length_a 28.747417
_cell_length_b 5.344419
_cell_length_c 26.749393
_cell_angle_alpha 114.250232
_cell_angle_beta 170.600401
_cell_angle_gamma 65.010152
_cell_volume 607.851002
_symmetry_space_group_name_H-M "P -1"
_symmetry_group_IT_number 2
_symmetry_cell_setting 'triclinic'
loop_
_space_group_symop_operation_xyz
x,y,z
-x,-y,-z
loop_
_atom_site_type_symbol
_atom_site_label
_atom_site_fract_x
_atom_site_fract_y
_atom_site_fract_z
Si Si1 0.445038 0.647858 0.648755
Si Si2 0.781988 0.129601 0.669377
Si Si3 0.895647 0.715042 0.511882
Si Si4 0.196943 0.917856 0.654868
Si Si5 0.409558 0.193484 0.372860
Si Si6 0.513658 0.808106 0.205629
Si Si7 0.964045 0.619524 0.747026
O O1 0.139189 0.621388 0.347716
O O2 0.397720 0.653022 0.539809
O O3 0.552806 0.918955 0.808961
O O4 0.702726 0.412778 0.915389
O O5 0.880891 0.883081 0.715646
O O6 0.578457 0.061795 0.492811
O O7 0.070380 0.219997 0.005719
O O8 0.804302 0.409097 0.382116
O O9 0.666691 0.864948 0.320438
O O10 0.895646 0.899875 0.477222
O O11 0.218946 0.683779 0.873493
O O12 0.000000 0.000000 0.500000
O O13 0.500000 0.000000 0.000000
O O14 0.500000 0.500000 0.500000
O O15 0.500000 0.000000 0.500000
O O16 0.760605 0.626827 0.483895
#
# Coordination Sequence:
#
# PCOD9063257 Si02
#       7
#     2   2   2   2   2   2   2
#     4  11  24  43  73  98 145 183 230 287 344 445
#     4  11  26  46  70 105 136 189 236 285 362 418
#     4  12  26  44  76 103 146 184 232 301 350 414
#     4  12  26  48  72 103 140 189 244 290 348 414
#     4  12  28  47  74 103 142 183 240 303 352 414
#     4  11  26  43  66 114 138 183 234 285 362 418
#     4  11  24  43  73  98 145 183 230 287 344 445
#
# _framework density 23.031960999999999
#
# number of rings (size 3 to 8) (size 9 to 14) (size 15 to 20)
#    0.000    0.571    0.000    6.857   12.000    4.571 
#    0.000    0.000    0.000    0.000    0.000    0.000 
#    0.000    0.000    0.000    0.000    0.000    0.000 
#
# Total GULP energy -78387.357898 kJ/mol
# GULP energy per Si atom -5599.096993 kJ/mol
# Density = 2.297954 g / cm^3
# Si number density = 23.031961 Si / 1000 Ang^3
#
#
#
# Elastic Constant Matrix: (Units=GPa)
#
#
# Indices 1 2 3 4 5 6 
#
# 1 136.7616 24.8975 37.8342 -5.7802 -0.6818 15.6326
# 2 24.8975 89.2099 22.3849 4.5606 -15.9955 13.2831
# 3 37.8342 22.3849 144.7662 4.8177 3.1140 -1.2035
# 4 -5.7802 4.5606 4.8177 30.6697 -0.5444 4.7788
# 5 -0.6818 -15.9955 3.1140 -0.5444 42.8420 -5.7478
# 6 15.6326 13.2831 -1.2035 4.7788 -5.7478 30.2976
#
#
#
# Elastic Compliance Matrix: (Units=1/GPa)
#
#
# Indices 1 2 3 4 5 6 
#
# 1 0.008844 -0.001537 -0.002192 0.002942 -0.000854 -0.004603
# 2 -0.001537 0.013600 -0.001792 -0.001300 0.004609 -0.004162
# 3 -0.002192 -0.001792 0.007857 -0.001760 -0.000986 0.002319
# 4 0.002942 -0.001300 -0.001760 0.034649 -0.000759 -0.006627
# 5 -0.000854 0.004609 -0.000986 -0.000759 0.025560 0.003350
# 6 -0.004603 -0.004162 0.002319 -0.006627 0.003350 0.038978
#
#
# Mechanical properties :
#
#
# Convention : Reuss Voigt Hill
#
# Bulk Modulus (GPa) = 51.91790 60.10786 56.01288
# Shear Modulus (GPa) = 34.02549 39.80327 36.91438
#
# Velocity S-wave (km/s) = 3.84776 4.16164 4.00777
# Velocity P-wave (km/s) = 6.50622 7.01759 6.76674
#
# Compressibility (1/GPa) = 0.01926118
#
# Stress axis : x y z
#
# Youngs Moduli (GPa) = 113.06852 73.52681 127.28175
#
# Poissons Ratio (x) = 0.11298 0.27895
# Poissons Ratio (y) = 0.17373 0.22808
# Poissons Ratio (z) = 0.24780 0.13175
#
# Static dielectric constant tensor:
#      x y z
#    x 1.852770 0.027560 -0.019750 
#    y 0.027560 1.934010 -0.010360 
#    z -0.019750 -0.010360 1.797180 
# 
# From -- ./inp_files/13068.got.cif
#   From: 2010.05.17/outbox.cif.g08.bks.cpg/sg2_7_cif.got.tgz:13068.got - 2010.06.03 11:33:40.
