data_PCOD9063371
_publ_section_title
;
Structure prediction by ZEFSAII (Michael W. Deem and Ramdas Pophale) SiO2 
 PCOD9063371
Probable space group: P -1
;
_chemical_formula_sum "Si O2"
_cell_formula_units_Z 13
_cell_length_a 13.910359
_cell_length_b 9.794570
_cell_length_c 9.756647
_cell_angle_alpha 103.110421
_cell_angle_beta 133.150187
_cell_angle_gamma 45.529002
_cell_volume 605.377122
_symmetry_space_group_name_H-M "P -1"
_symmetry_group_IT_number 2
_symmetry_cell_setting 'triclinic'
loop_
_space_group_symop_operation_xyz
x,y,z
-x,-y,-z
loop_
_atom_site_type_symbol
_atom_site_label
_atom_site_fract_x
_atom_site_fract_y
_atom_site_fract_z
Si Si1 0.826962 0.819489 0.250596
Si Si2 0.291737 0.399248 0.624457
Si Si3 0.807277 0.199804 0.767028
Si Si4 0.600760 0.642492 0.591299
Si Si5 0.498700 0.935718 0.796223
Si Si6 0.500000 0.500000 0.000000
Si Si7 0.069849 0.977453 0.716436
O O1 0.670693 0.000594 0.257570
O O2 0.050621 0.597092 0.472766
O O3 0.863228 0.914771 0.199701
O O4 0.705342 0.793148 0.052500
O O5 0.303905 0.395419 0.469965
O O6 0.402103 0.166930 0.725640
O O7 0.401748 0.443941 0.807593
O O8 0.744255 0.414067 0.759244
O O9 0.609413 0.269676 0.624499
O O10 0.880521 0.112292 0.663360
O O11 0.000000 0.000000 0.000000
O O12 0.547966 0.813121 0.678596
O O13 0.730505 0.275357 0.112446
O O14 0.000000 0.000000 0.500000
#
# Coordination Sequence:
#
# PCOD9063371 Si02
#       7
#     2   2   2   2   2   1   2
#     4  11  24  44  66  97 137 180 237 277 343 404
#     4  12  24  45  69 103 137 184 228 284 348 408
#     4  11  25  44  70 102 137 179 231 283 353 408
#     4  11  25  46  69 102 142 176 231 284 343 418
#     4  11  26  44  68  99 140 182 231 283 338 417
#     4  12  24  38  74 100 134 176 236 278 344 404
#     4  12  22  43  70  97 136 181 229 293 339 403
#
# _framework density 21.474216999999999
#
# number of rings (size 3 to 8) (size 9 to 14) (size 15 to 20)
#    0.000    0.615    4.615    2.769    0.000    5.538 
#    0.000    0.000    0.000    0.000    0.000    0.000 
#    0.000    0.000    0.000    0.000    0.000    0.000 
#
# Total GULP energy -72449.286490 kJ/mol
# GULP energy per Si atom -5573.022038 kJ/mol
# Density = 2.142534 g / cm^3
# Si number density = 21.474217 Si / 1000 Ang^3
#
#
#
# Elastic Constant Matrix: (Units=GPa)
#
#
# Indices 1 2 3 4 5 6 
#
# 1 63.2287 -5.6087 11.3143 4.3374 5.8674 -15.0284
# 2 -5.6087 94.6584 28.4378 4.1098 2.5645 -4.6690
# 3 11.3143 28.4378 88.3333 -9.0734 10.6269 3.8019
# 4 4.3374 4.1098 -9.0734 40.1390 -9.2591 -0.4297
# 5 5.8674 2.5645 10.6269 -9.2591 26.9215 -7.4937
# 6 -15.0284 -4.6690 3.8019 -0.4297 -7.4937 27.7993
#
#
#
# Elastic Compliance Matrix: (Units=1/GPa)
#
#
# Indices 1 2 3 4 5 6 
#
# 1 0.019981 0.003248 -0.004360 -0.003567 -0.000931 0.011638
# 2 0.003248 0.012586 -0.004990 -0.002613 0.000454 0.004634
# 3 -0.004360 -0.004990 0.014700 0.003047 -0.005152 -0.006547
# 4 -0.003567 -0.002613 0.003047 0.028496 0.009700 0.000271
# 5 -0.000931 0.000454 -0.005152 0.009700 0.046265 0.012899
# 6 0.011638 0.004634 -0.006547 0.000271 0.012899 0.047419
#
#
# Mechanical properties :
#
#
# Convention : Reuss Voigt Hill
#
# Bulk Modulus (GPa) = 28.52107 34.94524 31.73315
# Shear Modulus (GPa) = 25.86131 33.11042 29.48586
#
# Velocity S-wave (km/s) = 3.47406 3.93092 3.70953
# Velocity P-wave (km/s) = 5.42241 6.07547 5.75820
#
# Compressibility (1/GPa) = 0.03506180
#
# Stress axis : x y z
#
# Youngs Moduli (GPa) = 50.04721 79.45500 68.02540
#
# Poissons Ratio (x) = -0.25807 0.29662
# Poissons Ratio (y) = -0.16255 0.33947
# Poissons Ratio (z) = 0.21822 0.39651
#
# Static dielectric constant tensor:
#      x y z
#    x 1.814840 0.028120 -0.017470 
#    y 0.028120 1.767240 -0.017970 
#    z -0.017470 -0.017970 1.774480 
# 
# From -- ./inp_files/159191.got.cif
#   From: 2010.05.17/outbox.cif.g08.bks.cpg/sg2_80_cif.got.tgz:159191.got - 2010.06.03 11:33:40.
