data_PCOD9063889
_publ_section_title
;
Structure prediction by ZEFSAII (Michael W. Deem and Ramdas Pophale) SiO2 
 PCOD9063889
Probable space group: P -1
;
_chemical_formula_sum "Si O2"
_cell_formula_units_Z 12
_cell_length_a 23.210395
_cell_length_b 23.040037
_cell_length_c 5.988983
_cell_angle_alpha 130.551092
_cell_angle_beta 128.381332
_cell_angle_gamma 12.365166
_cell_volume 519.140696
_symmetry_space_group_name_H-M "P -1"
_symmetry_group_IT_number 2
_symmetry_cell_setting 'triclinic'
loop_
_space_group_symop_operation_xyz
x,y,z
-x,-y,-z
loop_
_atom_site_type_symbol
_atom_site_label
_atom_site_fract_x
_atom_site_fract_y
_atom_site_fract_z
Si Si1 0.031215 0.155877 0.309509
Si Si2 0.014864 0.572144 0.803294
Si Si3 0.249977 0.806584 0.641316
Si Si4 0.532494 0.280490 0.374737
Si Si5 0.514947 0.898049 0.868124
Si Si6 0.250122 0.058575 0.271579
O O1 0.048600 0.204563 0.289545
O O2 0.748903 0.426809 0.438340
O O3 0.248525 0.963826 0.531448
O O4 0.156169 0.955774 0.990597
O O5 0.953886 0.686287 0.728659
O O6 0.000000 0.500000 0.500000
O O7 0.249998 0.348011 0.995060
O O8 0.749980 0.850955 0.002472
O O9 0.500000 0.500000 0.500000
O O10 0.343647 0.768184 0.568520
O O11 0.000000 0.000000 0.500000
O O12 0.548400 0.198509 0.024298
O O13 0.454162 0.905620 0.527483
O O14 0.500000 0.000000 0.000000
#
# Coordination Sequence:
#
# PCOD9063889 Si02
#       6
#     2   2   2   2   2   2
#     4  11  26  48  72 107 152 201 246 301 373 446
#     4  12  27  48  74 106 142 190 250 321 391 448
#     4  11  24  44  76 114 150 192 244 304 360 438
#     4  11  26  48  72 107 152 201 246 301 373 446
#     4  12  27  48  74 106 142 190 250 321 391 448
#     4  11  28  48  74 106 152 196 260 316 378 458
#
# _framework density 23.115119
#
# number of rings (size 3 to 8) (size 9 to 14) (size 15 to 20)
#    0.000    0.667    1.667    4.000    0.000   16.000 
#    0.000    0.000    0.000    0.000    0.000    0.000 
#    0.000    0.000    0.000    0.000    0.000    0.000 
#
# Total GULP energy -67060.156211 kJ/mol
# GULP energy per Si atom -5588.346351 kJ/mol
# Density = 2.306251 g / cm^3
# Si number density = 23.115119 Si / 1000 Ang^3
#
#
#
# Elastic Constant Matrix: (Units=GPa)
#
#
# Indices 1 2 3 4 5 6 
#
# 1 190.1550 76.3231 75.5939 6.8468 3.0480 11.1082
# 2 76.3231 219.5605 76.0030 -5.3135 -9.8696 -9.6439
# 3 75.5939 76.0030 190.8414 -2.4550 13.2273 -4.2503
# 4 6.8468 -5.3135 -2.4550 47.2109 -1.9119 -9.5525
# 5 3.0480 -9.8696 13.2273 -1.9119 38.2557 2.6640
# 6 11.1082 -9.6439 -4.2503 -9.5525 2.6640 47.4291
#
#
#
# Elastic Compliance Matrix: (Units=1/GPa)
#
#
# Indices 1 2 3 4 5 6 
#
# 1 0.007087 -0.001902 -0.002116 -0.001888 -0.000237 -0.002603
# 2 -0.001902 0.006027 -0.001750 0.001288 0.002261 0.001646
# 3 -0.002116 -0.001750 0.006996 0.000572 -0.002745 0.001036
# 4 -0.001888 0.001288 0.000572 0.022740 0.001054 0.005276
# 5 -0.000237 0.002261 -0.002745 0.001054 0.027819 -0.001081
# 6 -0.002603 0.001646 0.001036 0.005276 -0.001081 0.023245
#
#
# Mechanical properties :
#
#
# Convention : Reuss Voigt Hill
#
# Bulk Modulus (GPa) = 116.63377 117.37742 117.00560
# Shear Modulus (GPa) = 46.16476 51.42162 48.79319
#
# Velocity S-wave (km/s) = 4.47382 4.72167 4.59941
# Velocity P-wave (km/s) = 8.78943 8.97860 8.88452
#
# Compressibility (1/GPa) = 0.00857385
#
# Stress axis : x y z
#
# Youngs Moduli (GPa) = 141.09991 165.92830 142.94391
#
# Poissons Ratio (x) = 0.31559 0.30242
# Poissons Ratio (y) = 0.26837 0.25019
# Poissons Ratio (z) = 0.29852 0.29042
#
# Static dielectric constant tensor:
#      x y z
#    x 1.824960 0.002200 0.013040 
#    y 0.002200 1.813270 0.002110 
#    z 0.013040 0.002110 1.821350 
# 
# From -- ./inp_files/125199.got.cif
#   From: 2010.05.17/outbox.cif.g08.bks.cpg/sg2_63_cif.got.tgz:125199.got - 2010.06.03 11:33:40.
