data_PCOD9063511
_publ_section_title
;
Structure prediction by ZEFSAII (Michael W. Deem and Ramdas Pophale) SiO2 
 PCOD9063511
Probable space group: P -1
;
_chemical_formula_sum "Si O2"
_cell_formula_units_Z 16
_cell_length_a 5.696695
_cell_length_b 9.323033
_cell_length_c 20.227317
_cell_angle_alpha 57.522182
_cell_angle_beta 53.325845
_cell_angle_gamma 54.534965
_cell_volume 671.283082
_symmetry_space_group_name_H-M "P -1"
_symmetry_group_IT_number 2
_symmetry_cell_setting 'triclinic'
loop_
_space_group_symop_operation_xyz
x,y,z
-x,-y,-z
loop_
_atom_site_type_symbol
_atom_site_label
_atom_site_fract_x
_atom_site_fract_y
_atom_site_fract_z
Si Si1 0.191765 0.894247 0.732164
Si Si2 0.236581 0.605806 0.700708
Si Si3 0.636755 0.008385 0.550577
Si Si4 0.249117 0.549850 0.140118
Si Si5 0.917838 0.321115 0.071788
Si Si6 0.644268 0.589871 0.508769
Si Si7 0.684599 0.242243 0.794844
Si Si8 0.829438 0.864373 0.046179
O O1 0.092805 0.811190 0.704283
O O2 0.128337 0.755881 0.829927
O O3 0.538757 0.880392 0.650265
O O4 0.999525 0.098413 0.742941
O O5 0.410490 0.614872 0.602983
O O6 0.503224 0.436771 0.739361
O O7 0.952594 0.536922 0.762118
O O8 0.410508 0.212009 0.558976
O O9 0.500000 0.000000 0.500000
O O10 0.000000 0.000000 0.500000
O O11 0.550379 0.393334 0.096106
O O12 0.302834 0.691453 0.148158
O O13 0.056331 0.663489 0.083274
O O14 0.000000 0.500000 0.000000
O O15 0.167997 0.160073 0.026701
O O16 0.500000 0.500000 0.500000
O O17 0.000000 0.500000 0.500000
O O18 0.473557 0.117801 0.864963
O O19 0.000000 0.000000 0.000000
#
# Coordination Sequence:
#
# PCOD9063511 Si02
#       8
#     2   2   2   2   2   2   2   2
#     4  12  27  47  79 109 150 203 253 327 390 471
#     4  11  26  48  74 106 149 196 252 319 387 471
#     4  12  28  53  80 118 161 206 268 333 403 481
#     4  11  24  44  69  99 147 193 250 312 377 470
#     4  12  24  44  73 103 147 202 250 310 392 458
#     4  12  28  50  84 115 158 209 262 332 408 479
#     4  11  25  48  71 108 150 192 264 311 392 469
#     4  11  25  42  65 103 143 194 250 317 379 457
#
# _framework density 23.834952000000001
#
# number of rings (size 3 to 8) (size 9 to 14) (size 15 to 20)
#    0.000    0.500    3.750    3.375    8.750    1.000 
#    2.250    0.000    0.000    0.000    0.000    0.000 
#    0.000    0.000    0.000    0.000    0.000    0.000 
#
# Total GULP energy -89128.224288 kJ/mol
# GULP energy per Si atom -5570.514018 kJ/mol
# Density = 2.378070 g / cm^3
# Si number density = 23.834952 Si / 1000 Ang^3
#
#
#
# Elastic Constant Matrix: (Units=GPa)
#
#
# Indices 1 2 3 4 5 6 
#
# 1 71.5663 7.1241 25.4049 2.8058 -6.4571 1.7426
# 2 7.1241 72.4330 10.1802 3.5749 1.8190 7.7271
# 3 25.4049 10.1802 178.4550 10.8249 -17.7225 6.6329
# 4 2.8058 3.5749 10.8249 41.9838 0.8779 -2.5116
# 5 -6.4571 1.8190 -17.7225 0.8779 48.2185 -1.5292
# 6 1.7426 7.7271 6.6329 -2.5116 -1.5292 47.2798
#
#
#
# Elastic Compliance Matrix: (Units=1/GPa)
#
#
# Indices 1 2 3 4 5 6 
#
# 1 0.014905 -0.001206 -0.001890 -0.000439 0.001353 -0.000067
# 2 -0.001206 0.014332 -0.000590 -0.001105 -0.000972 -0.002305
# 3 -0.001890 -0.000590 0.006230 -0.001516 0.002064 -0.000722
# 4 -0.000439 -0.001105 -0.001516 0.024454 -0.000966 0.001677
# 5 0.001353 -0.000972 0.002064 -0.000966 0.021748 0.000472
# 6 -0.000067 -0.002305 -0.000722 0.001677 0.000472 0.021736
#
#
# Mechanical properties :
#
#
# Convention : Reuss Voigt Hill
#
# Bulk Modulus (GPa) = 35.59091 45.31918 40.45505
# Shear Modulus (GPa) = 41.61827 46.14610 43.88218
#
# Velocity S-wave (km/s) = 4.18317 4.40485 4.29544
# Velocity P-wave (km/s) = 6.18842 6.70263 6.45065
#
# Compressibility (1/GPa) = 0.02809706
#
# Stress axis : x y z
#
# Youngs Moduli (GPa) = 67.09277 69.77288 160.51226
#
# Poissons Ratio (x) = 0.08412 0.30331
# Poissons Ratio (y) = 0.08089 0.09466
# Poissons Ratio (z) = 0.12678 0.04115
#
# Static dielectric constant tensor:
#      x y z
#    x 1.940160 -0.057160 -0.016050 
#    y -0.057160 1.909000 -0.030960 
#    z -0.016050 -0.030960 2.033270 
# 
# From -- ./inp_files/52267.got.cif
#   From: 2010.05.17/outbox.cif.g08.bks.cpg/sg2_27_cif.got.tgz:52267.got - 2010.06.03 11:33:40.
