data_PCOD9063287
_publ_section_title
;
Structure prediction by ZEFSAII (Michael W. Deem and Ramdas Pophale) SiO2 
 PCOD9063287
Probable space group: P -1
;
_chemical_formula_sum "Si O2"
_cell_formula_units_Z 16
_cell_length_a 5.216861
_cell_length_b 9.260746
_cell_length_c 15.514422
_cell_angle_alpha 96.170305
_cell_angle_beta 64.748449
_cell_angle_gamma 90.319128
_cell_volume 673.306557
_symmetry_space_group_name_H-M "P -1"
_symmetry_group_IT_number 2
_symmetry_cell_setting 'triclinic'
loop_
_space_group_symop_operation_xyz
x,y,z
-x,-y,-z
loop_
_atom_site_type_symbol
_atom_site_label
_atom_site_fract_x
_atom_site_fract_y
_atom_site_fract_z
Si Si1 0.602110 0.479695 0.385904
Si Si2 0.256932 0.686816 0.345324
Si Si3 0.162650 0.141160 0.464192
Si Si4 0.965007 0.387259 0.786045
Si Si5 0.794992 0.580869 0.965928
Si Si6 0.299224 0.077267 0.961566
Si Si7 0.193663 0.842041 0.649932
Si Si8 0.701728 0.890864 0.231717
O O1 0.500000 0.500000 0.500000
O O2 0.340700 0.533297 0.367966
O O3 0.733101 0.320525 0.338440
O O4 0.827830 0.588990 0.322874
O O5 0.990365 0.742044 0.443914
O O6 0.301629 0.653055 0.234430
O O7 0.461820 0.826265 0.324581
O O8 0.067363 0.166931 0.379811
O O9 0.496301 0.129797 0.434260
O O10 0.000000 0.000000 0.500000
O O11 0.935841 0.533170 0.852326
O O12 0.070079 0.246348 0.815409
O O13 0.500000 0.500000 0.000000
O O14 0.746866 0.751525 0.998583
O O15 0.000000 0.500000 0.000000
O O16 0.401766 0.066083 0.846335
O O17 0.500000 0.000000 0.000000
O O18 0.000000 0.000000 0.000000
O O19 0.161927 0.971787 0.732096
#
# Coordination Sequence:
#
# PCOD9063287 Si02
#       8
#     2   2   2   2   2   2   2   2
#     4  11  25  45  65 106 151 191 242 303 364 429
#     4  11  24  43  74  99 144 195 247 298 353 442
#     4  12  24  43  67 102 141 190 245 288 359 426
#     4  11  26  45  78 105 146 197 255 299 367 453
#     4  12  26  52  82 111 152 202 259 314 386 468
#     4  12  29  50  78 113 157 190 242 324 396 446
#     4  12  27  42  71 101 147 190 239 302 361 429
#     4  11  26  47  71 107 143 189 249 299 370 451
#
# _framework density 23.763321999999999
#
# number of rings (size 3 to 8) (size 9 to 14) (size 15 to 20)
#    0.000    0.500    3.750    3.375    8.750    2.000 
#    0.000    0.000    0.000    0.000    0.000    0.000 
#    0.000    0.000    0.000    0.000    0.000    0.000 
#
# Total GULP energy -89293.346001 kJ/mol
# GULP energy per Si atom -5580.834125 kJ/mol
# Density = 2.370924 g / cm^3
# Si number density = 23.763322 Si / 1000 Ang^3
#
#
#
# Elastic Constant Matrix: (Units=GPa)
#
#
# Indices 1 2 3 4 5 6 
#
# 1 86.2149 27.2161 33.8089 -4.6231 22.4771 -6.3668
# 2 27.2161 158.3650 48.3873 14.9656 24.0492 -5.4136
# 3 33.8089 48.3873 122.9032 9.4416 27.2441 -3.4471
# 4 -4.6231 14.9656 9.4416 50.3695 3.9018 4.9019
# 5 22.4771 24.0492 27.2441 3.9018 27.2696 -0.0608
# 6 -6.3668 -5.4136 -3.4471 4.9019 -0.0608 36.7862
#
#
#
# Elastic Compliance Matrix: (Units=1/GPa)
#
#
# Indices 1 2 3 4 5 6 
#
# 1 0.015638 -0.000668 -0.001763 0.002607 -0.010908 0.002078
# 2 -0.000668 0.007839 -0.001771 -0.001831 -0.004329 0.001109
# 3 -0.001763 -0.001771 0.011201 -0.001176 -0.008006 0.000627
# 4 0.002607 -0.001831 -0.001176 0.021314 -0.002415 -0.002773
# 5 -0.010908 -0.004329 -0.008006 -0.002415 0.057817 -0.002858
# 6 0.002078 0.001109 0.000627 -0.002773 -0.002858 0.028130
#
#
# Mechanical properties :
#
#
# Convention : Reuss Voigt Hill
#
# Bulk Modulus (GPa) = 38.05943 65.14531 51.60237
# Shear Modulus (GPa) = 31.42642 40.08975 35.75809
#
# Velocity S-wave (km/s) = 3.64053 4.11182 3.88333
# Velocity P-wave (km/s) = 5.80707 7.07223 6.47065
#
# Compressibility (1/GPa) = 0.02627469
#
# Stress axis : x y z
#
# Youngs Moduli (GPa) = 63.94633 127.57183 89.27420
#
# Poissons Ratio (x) = 0.08518 0.15739
# Poissons Ratio (y) = 0.04270 0.15812
# Poissons Ratio (z) = 0.11273 0.22595
#
# Static dielectric constant tensor:
#      x y z
#    x 3.151100 0.108300 0.330300 
#    y 0.108300 1.902570 -0.004390 
#    z 0.330300 -0.004390 2.130510 
# 
# From -- ./inp_files/106947.got.cif
#   From: 2010.05.17/outbox.cif.g08.bks.cpg/sg2_54_cif.got.tgz:106947.got - 2010.06.03 11:33:40.
