data_PCOD9063617
_publ_section_title
;
Structure prediction by ZEFSAII (Michael W. Deem and Ramdas Pophale) SiO2 
 PCOD9063617
Probable space group: P -1
;
_chemical_formula_sum "Si O2"
_cell_formula_units_Z 14
_cell_length_a 11.751171
_cell_length_b 6.401023
_cell_length_c 8.919343
_cell_angle_alpha 106.777409
_cell_angle_beta 75.310806
_cell_angle_gamma 79.516784
_cell_volume 597.311351
_symmetry_space_group_name_H-M "P -1"
_symmetry_group_IT_number 2
_symmetry_cell_setting 'triclinic'
loop_
_space_group_symop_operation_xyz
x,y,z
-x,-y,-z
loop_
_atom_site_type_symbol
_atom_site_label
_atom_site_fract_x
_atom_site_fract_y
_atom_site_fract_z
Si Si1 0.420247 0.256207 0.064029
Si Si2 0.253970 0.937098 0.378304
Si Si3 0.176735 0.157228 0.179162
Si Si4 0.741756 0.616143 0.369226
Si Si5 0.924416 0.179888 0.359879
Si Si6 0.908641 0.750533 0.102002
Si Si7 0.486052 0.384340 0.736741
O O1 0.277761 0.293431 0.157565
O O2 0.479064 0.386744 0.192275
O O3 0.433322 0.328575 0.903206
O O4 0.500000 0.000000 0.000000
O O5 0.144068 0.858364 0.473830
O O6 0.383385 0.795626 0.368782
O O7 0.244984 0.929323 0.199874
O O8 0.250505 0.196481 0.471667
O O9 0.050607 0.250465 0.333677
O O10 0.133807 0.138922 0.021114
O O11 0.826554 0.371543 0.339153
O O12 0.797371 0.707461 0.224113
O O13 0.607689 0.607395 0.364128
O O14 0.956023 0.934022 0.217263
O O15 0.000000 0.500000 0.000000
#
# Coordination Sequence:
#
# PCOD9063617 Si02
#       7
#     2   2   2   2   2   2   2
#     4  11  25  42  70 107 132 180 232 291 346 394
#     4  11  27  46  67 107 140 189 228 279 353 413
#     4  12  24  46  75  99 146 174 233 293 343 413
#     4  11  25  46  71 101 142 184 234 284 344 415
#     4  11  27  45  69 105 141 184 228 282 359 409
#     4  11  24  44  71 106 133 181 234 286 348 409
#     4  11  25  45  72 100 141 181 238 284 341 410
#
# _framework density 23.438362000000001
#
# number of rings (size 3 to 8) (size 9 to 14) (size 15 to 20)
#    0.000    0.857    4.286    1.286    4.000    2.286 
#    0.000    0.000    0.000    0.000    0.000    0.000 
#    0.000    0.000    0.000    0.000    0.000    0.000 
#
# Total GULP energy -78306.965785 kJ/mol
# GULP energy per Si atom -5593.354699 kJ/mol
# Density = 2.338502 g / cm^3
# Si number density = 23.438362 Si / 1000 Ang^3
#
#
#
# Elastic Constant Matrix: (Units=GPa)
#
#
# Indices 1 2 3 4 5 6 
#
# 1 157.4148 38.2988 34.9478 -1.3628 -8.5907 0.7780
# 2 38.2988 91.3906 28.2772 16.9459 3.0772 -0.7646
# 3 34.9478 28.2772 72.8988 -8.8096 -4.3205 10.1446
# 4 -1.3628 16.9459 -8.8096 43.8948 1.2709 -8.5863
# 5 -8.5907 3.0772 -4.3205 1.2709 36.4239 -13.3348
# 6 0.7780 -0.7646 10.1446 -8.5863 -13.3348 36.3374
#
#
#
# Elastic Compliance Matrix: (Units=1/GPa)
#
#
# Indices 1 2 3 4 5 6 
#
# 1 0.007709 -0.002663 -0.002629 0.000983 0.002276 0.001580
# 2 -0.002663 0.015164 -0.005519 -0.007109 -0.002575 -0.000708
# 3 -0.002629 -0.005519 0.018277 0.004955 0.000439 -0.003830
# 4 0.000983 -0.007109 0.004955 0.027637 0.002631 0.005942
# 5 0.002276 -0.002575 0.000439 0.002631 0.032708 0.012399
# 6 0.001580 -0.000708 -0.003830 0.005942 0.012399 0.034495
#
#
# Mechanical properties :
#
#
# Convention : Reuss Voigt Hill
#
# Bulk Modulus (GPa) = 51.20685 58.30574 54.75629
# Shear Modulus (GPa) = 30.46526 38.00991 34.23758
#
# Velocity S-wave (km/s) = 3.60919 4.03140 3.82612
# Velocity P-wave (km/s) = 6.26604 6.82640 6.55221
#
# Compressibility (1/GPa) = 0.01952864
#
# Stress axis : x y z
#
# Youngs Moduli (GPa) = 129.71722 65.94407 54.71468
#
# Poissons Ratio (x) = 0.17560 0.14385
# Poissons Ratio (y) = 0.34541 0.30196
# Poissons Ratio (z) = 0.34104 0.36393
#
# Static dielectric constant tensor:
#      x y z
#    x 1.902350 0.015080 -0.003380 
#    y 0.015080 1.877540 0.006080 
#    z -0.003380 0.006080 1.935770 
# 
# From -- ./inp_files/69668.got.cif
#   From: 2010.05.17/outbox.cif.g08.bks.cpg/sg2_35_cif.got.tgz:69668.got - 2010.06.03 11:33:40.
