data_PCOD9063836
_publ_section_title
;
Structure prediction by ZEFSAII (Michael W. Deem and Ramdas Pophale) SiO2 
 PCOD9063836
Probable space group: P -1
;
_chemical_formula_sum "Si O2"
_cell_formula_units_Z 12
_cell_length_a 8.185378
_cell_length_b 14.795037
_cell_length_c 9.723862
_cell_angle_alpha 47.486586
_cell_angle_beta 114.603092
_cell_angle_gamma 142.721866
_cell_volume 505.946127
_symmetry_space_group_name_H-M "P -1"
_symmetry_group_IT_number 2
_symmetry_cell_setting 'triclinic'
loop_
_space_group_symop_operation_xyz
x,y,z
-x,-y,-z
loop_
_atom_site_type_symbol
_atom_site_label
_atom_site_fract_x
_atom_site_fract_y
_atom_site_fract_z
Si Si1 0.891447 0.880994 0.947591
Si Si2 0.450853 0.947536 0.374562
Si Si3 0.653726 0.515321 0.166963
Si Si4 0.999390 0.460970 0.379939
Si Si5 0.250632 0.135998 0.553998
Si Si6 0.703339 0.329980 0.989149
O O1 0.562693 0.743854 0.956713
O O2 0.879162 0.727883 0.088073
O O3 0.099894 0.041395 0.741703
O O4 0.000000 0.000000 0.000000
O O5 0.124269 0.740848 0.465141
O O6 0.572136 0.889281 0.404654
O O7 0.500000 0.000000 0.500000
O O8 0.598379 0.135251 0.155063
O O9 0.809740 0.469654 0.234369
O O10 0.425980 0.351237 0.367747
O O11 0.500000 0.500000 0.000000
O O12 0.000000 0.500000 0.500000
O O13 0.264882 0.606755 0.221951
O O14 0.000000 0.000000 0.500000
O O15 0.000000 0.500000 0.000000
#
# Coordination Sequence:
#
# PCOD9063836 Si02
#       6
#     2   2   2   2   2   2
#     4  12  29  46  72 113 151 192 245 310 379 432
#     4  11  24  45  76 106 143 192 255 301 361 446
#     4  11  24  48  76 104 146 199 251 299 371 453
#     4  11  27  47  74 108 146 193 246 314 375 426
#     4  11  24  44  75 104 146 195 247 304 364 444
#     4  12  26  46  75 106 147 196 251 299 365 456
#
# _framework density 23.717938
#
# number of rings (size 3 to 8) (size 9 to 14) (size 15 to 20)
#    0.000    0.667    3.333    3.000    9.333    2.667 
#    0.000    0.000    0.000    0.000    0.000    0.000 
#    0.000    0.000    0.000    0.000    0.000    0.000 
#
# Total GULP energy -67011.839100 kJ/mol
# GULP energy per Si atom -5584.319925 kJ/mol
# Density = 2.366395 g / cm^3
# Si number density = 23.717938 Si / 1000 Ang^3
#
#
#
# Elastic Constant Matrix: (Units=GPa)
#
#
# Indices 1 2 3 4 5 6 
#
# 1 69.0710 11.9951 41.9959 5.7969 -19.5598 1.8530
# 2 11.9951 130.1367 78.1263 -15.3324 -13.6785 -29.0127
# 3 41.9959 78.1263 211.8658 -30.7819 -43.8175 -25.1609
# 4 5.7969 -15.3324 -30.7819 53.7828 -8.2133 -3.0782
# 5 -19.5598 -13.6785 -43.8175 -8.2133 50.7263 5.4082
# 6 1.8530 -29.0127 -25.1609 -3.0782 5.4082 40.1884
#
#
#
# Elastic Compliance Matrix: (Units=1/GPa)
#
#
# Indices 1 2 3 4 5 6 
#
# 1 0.018331 -0.000462 -0.003863 -0.004046 0.003417 -0.004367
# 2 -0.000462 0.011164 -0.003044 0.001826 -0.000177 0.006339
# 3 -0.003863 -0.003044 0.009143 0.005917 0.006191 0.003325
# 4 -0.004046 0.001826 0.005917 0.024407 0.007346 0.006090
# 5 0.003417 -0.000177 0.006191 0.007346 0.027472 0.000457
# 6 -0.004367 0.006339 0.003325 0.006090 0.000457 0.032147
#
#
# Mechanical properties :
#
#
# Convention : Reuss Voigt Hill
#
# Bulk Modulus (GPa) = 41.83850 75.03423 58.43636
# Shear Modulus (GPa) = 34.39529 47.53659 40.96594
#
# Velocity S-wave (km/s) = 3.81225 4.48174 4.16048
# Velocity P-wave (km/s) = 6.08737 7.64762 6.91166
#
# Compressibility (1/GPa) = 0.02390143
#
# Stress axis : x y z
#
# Youngs Moduli (GPa) = 54.55134 89.57605 109.37122
#
# Poissons Ratio (x) = 0.04134 0.42252
# Poissons Ratio (y) = 0.02518 0.33289
# Poissons Ratio (z) = 0.21074 0.27264
#
# Static dielectric constant tensor:
#      x y z
#    x 1.983180 0.053520 0.042380 
#    y 0.053520 1.967980 -0.012890 
#    z 0.042380 -0.012890 1.931860 
# 
# From -- ./inp_files/199828.got.cif
#   From: 2010.05.17/outbox.cif.g08.bks.cpg/sg2_100_cif.got.tgz:199828.got - 2010.06.03 11:33:40.
