data_PCOD9063128
_publ_section_title
;
Structure prediction by ZEFSAII (Michael W. Deem and Ramdas Pophale) SiO2 
 PCOD9063128
Probable space group: P -1
;
_chemical_formula_sum "Si O2"
_cell_formula_units_Z 13
_cell_length_a 11.661374
_cell_length_b 10.125776
_cell_length_c 10.308835
_cell_angle_alpha 77.745617
_cell_angle_beta 62.276751
_cell_angle_gamma 128.619358
_cell_volume 578.332872
_symmetry_space_group_name_H-M "P -1"
_symmetry_group_IT_number 2
_symmetry_cell_setting 'triclinic'
loop_
_space_group_symop_operation_xyz
x,y,z
-x,-y,-z
loop_
_atom_site_type_symbol
_atom_site_label
_atom_site_fract_x
_atom_site_fract_y
_atom_site_fract_z
Si Si1 0.830238 0.765282 0.310128
Si Si2 0.732273 0.731803 0.663563
Si Si3 0.438815 0.219923 0.617463
Si Si4 0.591472 0.357888 0.996547
Si Si5 0.982212 0.498721 0.852634
Si Si6 0.292256 0.000402 0.007891
Si Si7 0.500000 0.000000 0.500000
O O1 0.728117 0.695521 0.522683
O O2 0.664966 0.503380 0.393689
O O3 0.778887 0.863427 0.250175
O O4 0.096878 0.947875 0.139135
O O5 0.657995 0.537684 0.827496
O O6 0.565871 0.711482 0.794508
O O7 0.000000 0.000000 0.500000
O O8 0.388006 0.049675 0.588145
O O9 0.458645 0.183262 0.761388
O O10 0.819319 0.483878 0.907467
O O11 0.436727 0.120192 0.040302
O O12 0.847891 0.254699 0.910194
O O13 0.250259 0.739446 0.614968
O O14 0.000000 0.500000 0.000000
#
# Coordination Sequence:
#
# PCOD9063128 Si02
#       7
#     2   2   2   2   2   2   1
#     4  11  24  43  71 104 140 190 228 290 354 423
#     4  11  24  43  71 103 139 182 231 285 359 421
#     4  11  25  42  71 103 144 181 240 289 349 423
#     4  11  27  45  70 107 143 180 237 296 353 421
#     4  12  28  45  71 100 143 188 237 293 354 422
#     4  12  23  48  70 106 140 183 237 296 354 420
#     4  12  26  48  66 106 138 190 242 282 358 420
#
# _framework density 22.478401999999999
#
# number of rings (size 3 to 8) (size 9 to 14) (size 15 to 20)
#    0.000    0.615    6.154    0.923    4.308    0.000 
#    0.000    1.538    0.000    0.000    0.000    0.000 
#    0.000    0.000    0.000    0.000    0.000    0.000 
#
# Total GULP energy -72488.999150 kJ/mol
# GULP energy per Si atom -5576.076858 kJ/mol
# Density = 2.242724 g / cm^3
# Si number density = 22.478402 Si / 1000 Ang^3
#
#
#
# Elastic Constant Matrix: (Units=GPa)
#
#
# Indices 1 2 3 4 5 6 
#
# 1 98.8703 21.9288 24.9481 7.6904 -26.5025 6.3488
# 2 21.9288 131.9307 18.3105 -4.3235 4.7738 -6.8565
# 3 24.9481 18.3105 67.9436 1.6714 -18.2128 0.1741
# 4 7.6904 -4.3235 1.6714 34.2365 11.1290 -9.4327
# 5 -26.5025 4.7738 -18.2128 11.1290 38.4571 2.2589
# 6 6.3488 -6.8565 0.1741 -9.4327 2.2589 31.6392
#
#
#
# Elastic Compliance Matrix: (Units=1/GPa)
#
#
# Indices 1 2 3 4 5 6 
#
# 1 0.016965 -0.004191 -0.000499 -0.011996 0.015977 -0.009027
# 2 -0.004191 0.009494 -0.003265 0.006291 -0.007747 0.005345
# 3 -0.000499 -0.003265 0.018815 -0.005588 0.010774 -0.003146
# 4 -0.011996 0.006291 -0.005588 0.046997 -0.026452 0.019701
# 5 0.015977 -0.007747 0.010774 -0.026452 0.051703 -0.016522
# 6 -0.009027 0.005345 -0.003146 0.019701 -0.016522 0.041646
#
#
# Mechanical properties :
#
#
# Convention : Reuss Voigt Hill
#
# Bulk Modulus (GPa) = 34.05513 47.67993 40.86753
# Shear Modulus (GPa) = 23.66111 36.43705 30.04908
#
# Velocity S-wave (km/s) = 3.24792 4.03051 3.66019
# Velocity P-wave (km/s) = 5.40818 6.55114 6.00691
#
# Compressibility (1/GPa) = 0.02936415
#
# Stress axis : x y z
#
# Youngs Moduli (GPa) = 58.94408 105.33277 53.15028
#
# Poissons Ratio (x) = 0.44145 0.02652
# Poissons Ratio (y) = 0.24704 0.17352
# Poissons Ratio (z) = 0.02941 0.34389
#
# Static dielectric constant tensor:
#      x y z
#    x 1.813450 0.009730 0.035480 
#    y 0.009730 1.907090 0.009690 
#    z 0.035480 0.009690 1.866320 
# 
# From -- ./inp_files/389074.got.cif
#   From: 2010.05.17/outbox.cif.g08.bks.cpg/sg2_195_cif.got.tgz:389074.got - 2010.06.03 11:33:40.
