data_PCOD9063273
_publ_section_title
;
Structure prediction by ZEFSAII (Michael W. Deem and Ramdas Pophale) SiO2 
 PCOD9063273
Probable space group: P -1
;
_chemical_formula_sum "Si O2"
_cell_formula_units_Z 16
_cell_length_a 12.044964
_cell_length_b 8.189650
_cell_length_c 14.019278
_cell_angle_alpha 101.799699
_cell_angle_beta 118.357166
_cell_angle_gamma 127.367112
_cell_volume 686.383135
_symmetry_space_group_name_H-M "P -1"
_symmetry_group_IT_number 2
_symmetry_cell_setting 'triclinic'
loop_
_space_group_symop_operation_xyz
x,y,z
-x,-y,-z
loop_
_atom_site_type_symbol
_atom_site_label
_atom_site_fract_x
_atom_site_fract_y
_atom_site_fract_z
Si Si1 0.169170 0.851534 0.634651
Si Si2 0.065905 0.874245 0.277891
Si Si3 0.460491 0.755966 0.459587
Si Si4 0.405270 0.156320 0.130016
Si Si5 0.240547 0.767335 0.864252
Si Si6 0.316611 0.338496 0.825583
Si Si7 0.194834 0.192836 0.176454
Si Si8 0.311755 0.689572 0.593411
O O1 0.186540 0.778673 0.737708
O O2 0.254933 0.824454 0.583143
O O3 0.914495 0.619983 0.490076
O O4 0.306786 0.164742 0.737132
O O5 0.914283 0.548729 0.199348
O O6 0.923335 0.873809 0.260523
O O7 0.308492 0.089841 0.437886
O O8 0.109422 0.979600 0.200202
O O9 0.293526 0.472388 0.290705
O O10 0.363968 0.645686 0.514560
O O11 0.500000 0.000000 0.500000
O O12 0.602845 0.421035 0.174423
O O13 0.365325 0.270636 0.193874
O O14 0.483523 0.099200 0.227069
O O15 0.220762 0.893626 0.950571
O O16 0.500000 0.000000 0.000000
O O17 0.500000 0.500000 0.000000
O O18 0.000000 0.000000 0.000000
#
# Coordination Sequence:
#
# PCOD9063273 Si02
#       8
#     2   2   2   2   2   2   2   2
#     4  11  24  43  74 106 150 194 259 309 387 453
#     4  12  26  47  81 108 155 210 251 320 397 457
#     4  12  29  52  77 109 160 207 260 322 392 465
#     4  12  26  45  73 107 152 194 255 319 373 460
#     4  12  23  47  73 109 151 194 258 319 382 453
#     4  12  24  44  76 111 146 201 252 322 381 452
#     4  12  30  51  76 114 155 204 258 316 389 469
#     4  11  25  46  69 106 147 200 249 320 377 462
#
# _framework density 23.310596
#
# number of rings (size 3 to 8) (size 9 to 14) (size 15 to 20)
#    0.000    0.250    5.000    2.625    7.000    3.000 
#    0.000    0.000    0.000    0.000    0.000    0.000 
#    0.000    0.000    0.000    0.000    0.000    0.000 
#
# Total GULP energy -89356.748033 kJ/mol
# GULP energy per Si atom -5584.796752 kJ/mol
# Density = 2.325754 g / cm^3
# Si number density = 23.310596 Si / 1000 Ang^3
#
#
#
# Elastic Constant Matrix: (Units=GPa)
#
#
# Indices 1 2 3 4 5 6 
#
# 1 126.4778 13.0224 52.5846 6.9674 -10.2875 16.5614
# 2 13.0224 89.8925 42.1185 4.3466 -3.4293 -3.7452
# 3 52.5846 42.1185 124.1996 4.7725 -11.3462 -7.6076
# 4 6.9674 4.3466 4.7725 36.7892 -7.4226 -3.5780
# 5 -10.2875 -3.4293 -11.3462 -7.4226 53.6146 5.4197
# 6 16.5614 -3.7452 -7.6076 -3.5780 5.4197 33.8097
#
#
#
# Elastic Compliance Matrix: (Units=1/GPa)
#
#
# Indices 1 2 3 4 5 6 
#
# 1 0.011121 0.000660 -0.005147 -0.001886 0.001531 -0.006977
# 2 0.000660 0.013309 -0.004767 -0.001117 -0.000185 -0.000010
# 3 -0.005147 -0.004767 0.012192 0.000590 0.000899 0.004655
# 4 -0.001886 -0.001117 0.000590 0.028595 0.003304 0.003430
# 5 0.001531 -0.000185 0.000899 0.003304 0.019926 -0.003413
# 6 -0.006977 -0.000010 0.004655 0.003430 -0.003413 0.034952
#
#
# Mechanical properties :
#
#
# Convention : Reuss Voigt Hill
#
# Bulk Modulus (GPa) = 55.21129 61.78011 58.49570
# Shear Modulus (GPa) = 34.56843 40.36564 37.46704
#
# Velocity S-wave (km/s) = 3.85509 4.16582 4.01346
# Velocity P-wave (km/s) = 6.59940 7.04977 6.82830
#
# Compressibility (1/GPa) = 0.01811224
#
# Stress axis : x y z
#
# Youngs Moduli (GPa) = 89.92285 75.13697 82.02144
#
# Poissons Ratio (x) = -0.04955 0.42217
# Poissons Ratio (y) = -0.05930 0.39101
# Poissons Ratio (z) = 0.46284 0.35819
#
# Static dielectric constant tensor:
#      x y z
#    x 1.886350 -0.025440 -0.103500 
#    y -0.025440 1.887790 -0.009700 
#    z -0.103500 -0.009700 1.788220 
# 
# From -- ./inp_files/515950.got.cif
#   From: 2010.05.17/outbox.cif.g08.bks.cpg/sg2_258_cif.got.tgz:515950.got - 2010.06.03 11:33:40.
