data_PCOD9063648
_publ_section_title
;
Structure prediction by ZEFSAII (Michael W. Deem and Ramdas Pophale) SiO2 
 PCOD9063648
Probable space group: P -1
;
_chemical_formula_sum "Si O2"
_cell_formula_units_Z 16
_cell_length_a 9.340992
_cell_length_b 23.121197
_cell_length_c 7.777507
_cell_angle_alpha 147.739523
_cell_angle_beta 50.254543
_cell_angle_gamma 123.260478
_cell_volume 689.263085
_symmetry_space_group_name_H-M "P -1"
_symmetry_group_IT_number 2
_symmetry_cell_setting 'triclinic'
loop_
_space_group_symop_operation_xyz
x,y,z
-x,-y,-z
loop_
_atom_site_type_symbol
_atom_site_label
_atom_site_fract_x
_atom_site_fract_y
_atom_site_fract_z
Si Si1 0.604500 0.334193 0.887077
Si Si2 0.653961 0.080853 0.157851
Si Si3 0.931759 0.171945 0.906412
Si Si4 0.145509 0.072209 0.169754
Si Si5 0.180364 0.356578 0.358117
Si Si6 0.869648 0.423932 0.212253
Si Si7 0.649180 0.356368 0.523029
Si Si8 0.231697 0.309570 0.598300
O O1 0.597173 0.204033 0.542820
O O2 0.663742 0.384549 0.784381
O O3 0.395008 0.368420 0.167259
O O4 0.743522 0.363784 0.010600
O O5 0.828113 0.093335 0.924543
O O6 0.500000 0.000000 0.000000
O O7 0.703329 0.016808 0.129457
O O8 0.049005 0.115634 0.526970
O O9 0.763985 0.244227 0.139366
O O10 0.072015 0.252230 0.104104
O O11 0.217536 0.179339 0.288214
O O12 0.000000 0.000000 0.000000
O O13 0.081814 0.461066 0.620106
O O14 0.194552 0.348856 0.532306
O O15 0.746422 0.433551 0.502581
O O16 0.053419 0.358105 0.953600
O O17 0.432557 0.342247 0.602394
#
# Coordination Sequence:
#
# PCOD9063648 Si02
#       8
#     2   2   2   2   2   2   2   2
#     4  11  25  48  73 110 153 186 251 305 360 442
#     4  11  24  44  72 100 142 193 238 294 375 429
#     4  11  24  48  67 106 147 187 244 302 358 445
#     4  12  24  42  71 104 139 188 240 301 364 427
#     4  12  26  48  77 102 150 202 235 306 374 427
#     4  12  26  51  73 108 150 198 247 297 372 434
#     4  11  25  47  74 105 151 190 241 306 358 426
#     4  12  25  46  73 108 150 186 252 304 358 438
#
# _framework density 23.213198999999999
#
# number of rings (size 3 to 8) (size 9 to 14) (size 15 to 20)
#    0.000    0.500    2.500    7.125    0.000    2.000 
#    2.250    1.875    0.000    0.000    0.000    0.000 
#    0.000    0.000    0.000    0.000    0.000    0.000 
#
# Total GULP energy -89605.530986 kJ/mol
# GULP energy per Si atom -5600.345687 kJ/mol
# Density = 2.316037 g / cm^3
# Si number density = 23.213199 Si / 1000 Ang^3
#
#
#
# Elastic Constant Matrix: (Units=GPa)
#
#
# Indices 1 2 3 4 5 6 
#
# 1 138.3009 29.7388 20.0629 14.7533 -0.9369 17.7363
# 2 29.7388 125.3194 22.4744 11.6302 3.3351 -6.5950
# 3 20.0629 22.4744 52.5134 6.4842 9.7592 -2.5832
# 4 14.7533 11.6302 6.4842 34.1591 4.8228 -8.2666
# 5 -0.9369 3.3351 9.7592 4.8228 40.7039 12.0403
# 6 17.7363 -6.5950 -2.5832 -8.2666 12.0403 41.3644
#
#
#
# Elastic Compliance Matrix: (Units=1/GPa)
#
#
# Indices 1 2 3 4 5 6 
#
# 1 0.009471 -0.001633 -0.003311 -0.005027 0.003696 -0.006609
# 2 -0.001633 0.009128 -0.002940 -0.001332 -0.000467 0.001842
# 3 -0.003311 -0.002940 0.023007 0.000049 -0.006638 0.004329
# 4 -0.005027 -0.001332 0.000049 0.035693 -0.007586 0.011288
# 5 0.003696 -0.000467 -0.006638 -0.007586 0.030904 -0.012585
# 6 -0.006609 0.001842 0.004329 0.011288 -0.012585 0.033492
#
#
# Mechanical properties :
#
#
# Convention : Reuss Voigt Hill
#
# Bulk Modulus (GPa) = 38.70515 51.18731 44.94623
# Shear Modulus (GPa) = 30.10684 39.50264 34.80474
#
# Velocity S-wave (km/s) = 3.60525 4.12968 3.87635
# Velocity P-wave (km/s) = 5.83442 6.69611 6.28006
#
# Compressibility (1/GPa) = 0.02583635
#
# Stress axis : x y z
#
# Youngs Moduli (GPa) = 105.58639 109.55844 43.46596
#
# Poissons Ratio (x) = 0.17895 0.14390
# Poissons Ratio (y) = 0.17246 0.12780
# Poissons Ratio (z) = 0.34955 0.32214
#
# Static dielectric constant tensor:
#      x y z
#    x 1.791230 -0.014340 -0.016550 
#    y -0.014340 1.867090 -0.030660 
#    z -0.016550 -0.030660 1.860860 
# 
# From -- ./inp_files/226740.got.cif
#   From: 2010.05.17/outbox.cif.g08.bks.cpg/sg2_114_cif.got.tgz:226740.got - 2010.06.03 11:33:40.
