data_PCOD9063053
_publ_section_title
;
Structure prediction by ZEFSAII (Michael W. Deem and Ramdas Pophale) SiO2 
 PCOD9063053
Probable space group: P -1
;
_chemical_formula_sum "Si O2"
_cell_formula_units_Z 14
_cell_length_a 16.691790
_cell_length_b 19.844877
_cell_length_c 9.385081
_cell_angle_alpha 144.368243
_cell_angle_beta 47.090929
_cell_angle_gamma 159.450336
_cell_volume 584.766456
_symmetry_space_group_name_H-M "P -1"
_symmetry_group_IT_number 2
_symmetry_cell_setting 'triclinic'
loop_
_space_group_symop_operation_xyz
x,y,z
-x,-y,-z
loop_
_atom_site_type_symbol
_atom_site_label
_atom_site_fract_x
_atom_site_fract_y
_atom_site_fract_z
Si Si1 0.036616 0.933386 0.728262
Si Si2 0.273697 0.251121 0.449035
Si Si3 0.180585 0.520296 0.380258
Si Si4 0.399974 0.008893 0.539012
Si Si5 0.342102 0.046866 0.973810
Si Si6 0.846407 0.504513 0.300499
Si Si7 0.583805 0.485033 0.983823
O O1 0.956581 0.911338 0.635872
O O2 0.878081 0.672372 0.518687
O O3 0.324358 0.173300 0.791512
O O4 0.000000 0.000000 0.000000
O O5 0.500000 0.500000 0.500000
O O6 0.288709 0.126593 0.230981
O O7 0.310658 0.353021 0.726574
O O8 0.384818 0.762939 0.443145
O O9 0.203958 0.576066 0.612621
O O10 0.229913 0.429117 0.160785
O O11 0.894582 0.258564 0.228341
O O12 0.500000 0.000000 0.500000
O O13 0.359639 0.065854 0.812846
O O14 0.128521 0.728410 0.316759
O O15 0.599406 0.242535 0.060679
O O16 0.500000 0.500000 0.000000
#
# Coordination Sequence:
#
# PCOD9063053 Si02
#       7
#     2   2   2   2   2   2   2
#     4  12  21  37  62  91 138 183 224 267 323 393
#     4  12  22  36  63  95 140 188 221 262 329 396
#     4  11  25  43  67 100 137 173 227 279 335 404
#     4  11  26  50  73  96 129 174 228 291 351 399
#     4  11  24  44  67 100 138 175 225 280 332 403
#     4  11  24  43  69  97 137 178 220 278 340 397
#     4  12  24  39  62 100 142 184 226 269 325 402
#
# _framework density 23.941179999999999
#
# number of rings (size 3 to 8) (size 9 to 14) (size 15 to 20)
#    0.000    0.571    4.286    5.143    0.000    7.429 
#    0.000    1.429    0.000    0.000    0.000    0.000 
#    0.000    0.000    0.000    0.000    0.000    0.000 
#
# Total GULP energy -78352.422635 kJ/mol
# GULP energy per Si atom -5596.601617 kJ/mol
# Density = 2.388669 g / cm^3
# Si number density = 23.941180 Si / 1000 Ang^3
#
#
#
# Elastic Constant Matrix: (Units=GPa)
#
#
# Indices 1 2 3 4 5 6 
#
# 1 118.4954 48.3205 29.6582 20.4124 26.9497 9.4122
# 2 48.3205 170.8463 37.7466 40.1586 24.4000 -0.3020
# 3 29.6582 37.7466 77.9737 22.1707 37.7071 9.7101
# 4 20.4124 40.1586 22.1707 38.3789 15.2946 7.4008
# 5 26.9497 24.4000 37.7071 15.2946 45.5588 1.6038
# 6 9.4122 -0.3020 9.7101 7.4008 1.6038 56.5135
#
#
#
# Elastic Compliance Matrix: (Units=1/GPa)
#
#
# Indices 1 2 3 4 5 6 
#
# 1 0.010704 -0.001994 -0.000409 -0.001331 -0.004429 -0.001423
# 2 -0.001994 0.008440 -0.001659 -0.007290 0.000424 0.001605
# 3 -0.000409 -0.001659 0.023486 -0.004381 -0.016735 -0.002928
# 4 -0.001331 -0.007290 -0.004381 0.039649 -0.004848 -0.004119
# 5 -0.004429 0.000424 -0.016735 -0.004848 0.039711 0.003123
# 6 -0.001423 0.001605 -0.002928 -0.004119 0.003123 0.018894
#
#
# Mechanical properties :
#
#
# Convention : Reuss Voigt Hill
#
# Bulk Modulus (GPa) = 28.98021 66.52956 47.75488
# Shear Modulus (GPa) = 31.15060 44.86290 38.00675
#
# Velocity S-wave (km/s) = 3.61103 4.33353 3.98867
# Velocity P-wave (km/s) = 5.43296 7.27244 6.41894
#
# Compressibility (1/GPa) = 0.03450631
#
# Stress axis : x y z
#
# Youngs Moduli (GPa) = 93.42082 118.48625 42.57833
#
# Poissons Ratio (x) = 0.23630 0.01740
# Poissons Ratio (y) = 0.18632 0.07063
# Poissons Ratio (z) = 0.03818 0.19655
#
# Static dielectric constant tensor:
#      x y z
#    x 1.974130 0.010520 -0.037560 
#    y 0.010520 1.969260 0.060820 
#    z -0.037560 0.060820 1.925270 
# 
# From -- ./inp_files/337901.got.cif
#   From: 2010.05.17/outbox.cif.g08.bks.cpg/sg2_169_cif.got.tgz:337901.got - 2010.06.03 11:33:40.
