data_PCOD9063925
_publ_section_title
;
Structure prediction by ZEFSAII (Michael W. Deem and Ramdas Pophale) SiO2 
 PCOD9063925
Probable space group: P -1
;
_chemical_formula_sum "Si O2"
_cell_formula_units_Z 14
_cell_length_a 12.237061
_cell_length_b 11.714027
_cell_length_c 9.597498
_cell_angle_alpha 105.529409
_cell_angle_beta 73.246195
_cell_angle_gamma 155.951754
_cell_volume 536.795406
_symmetry_space_group_name_H-M "P -1"
_symmetry_group_IT_number 2
_symmetry_cell_setting 'triclinic'
loop_
_space_group_symop_operation_xyz
x,y,z
-x,-y,-z
loop_
_atom_site_type_symbol
_atom_site_label
_atom_site_fract_x
_atom_site_fract_y
_atom_site_fract_z
Si Si1 0.534748 0.600941 0.259191
Si Si2 0.067353 0.230732 0.775431
Si Si3 0.648094 0.881419 0.057127
Si Si4 0.987469 0.133193 0.451655
Si Si5 0.254632 0.652670 0.931033
Si Si6 0.569953 0.026105 0.252628
Si Si7 0.217825 0.606394 0.476071
O O1 0.574195 0.707801 0.134578
O O2 0.227511 0.301621 0.325129
O O3 0.686939 0.618866 0.210848
O O4 0.699997 0.831970 0.391312
O O5 0.998290 0.120432 0.608997
O O6 0.149341 0.445570 0.805701
O O7 0.836562 0.012000 0.906473
O O8 0.786775 0.127024 0.163564
O O9 0.396890 0.713345 0.022268
O O10 0.067045 0.344639 0.476482
O O11 0.473091 0.936261 0.857350
O O12 0.000000 0.500000 0.000000
O O13 0.611205 0.173891 0.392173
O O14 0.377258 0.758456 0.323190
O O15 0.000000 0.500000 0.500000
#
# Coordination Sequence:
#
# PCOD9063925 Si02
#       7
#     2   2   2   2   2   2   2
#     4  12  30  55  80 118 160 217 275 329 396 480
#     4  12  29  49  83 115 159 215 266 338 398 478
#     4  12  28  48  79 114 165 207 268 334 402 478
#     4  12  28  52  82 116 163 210 275 331 398 473
#     4  12  28  46  77 114 162 202 263 326 413 474
#     4  11  24  45  66 117 147 199 252 323 392 476
#     4  11  25  40  77 105 156 199 260 317 403 466
#
# _framework density 26.080701000000001
#
# number of rings (size 3 to 8) (size 9 to 14) (size 15 to 20)
#    0.000    0.286    4.286    2.571   12.000    0.571 
#    0.000    0.000    0.000    0.000    0.000    0.000 
#    0.000    0.000    0.000    0.000    0.000    0.000 
#
# Total GULP energy -78316.639851 kJ/mol
# GULP energy per Si atom -5594.045704 kJ/mol
# Density = 2.602134 g / cm^3
# Si number density = 26.080701 Si / 1000 Ang^3
#
#
#
# Elastic Constant Matrix: (Units=GPa)
#
#
# Indices 1 2 3 4 5 6 
#
# 1 148.7378 8.9704 38.3003 -23.3058 -3.0825 -15.3427
# 2 8.9704 53.8346 8.1103 -8.3536 8.8466 -15.1695
# 3 38.3003 8.1103 156.4539 -22.7002 14.6365 -4.2283
# 4 -23.3058 -8.3536 -22.7002 37.5910 -9.4466 2.2251
# 5 -3.0825 8.8466 14.6365 -9.4466 58.6069 -2.5621
# 6 -15.3427 -15.1695 -4.2283 2.2251 -2.5621 51.5729
#
#
#
# Elastic Compliance Matrix: (Units=1/GPa)
#
#
# Indices 1 2 3 4 5 6 
#
# 1 0.008033 -0.000107 -0.001418 0.004374 0.001591 0.002132
# 2 -0.000107 0.021232 -0.000173 0.003612 -0.002326 0.005928
# 3 -0.001418 -0.000173 0.007334 0.003171 -0.001372 -0.000076
# 4 0.004374 0.003612 0.003171 0.033023 0.004277 0.001412
# 5 0.001591 -0.002326 -0.001372 0.004277 0.018548 0.000414
# 6 0.002132 0.005928 -0.000076 0.001412 0.000414 0.021721
#
#
# Mechanical properties :
#
#
# Convention : Reuss Voigt Hill
#
# Bulk Modulus (GPa) = 30.11525 52.19868 41.15696
# Shear Modulus (GPa) = 40.20772 49.79719 45.00245
#
# Velocity S-wave (km/s) = 3.93066 4.37435 4.15843
# Velocity P-wave (km/s) = 5.67205 6.75063 6.23471
#
# Compressibility (1/GPa) = 0.03320577
#
# Stress axis : x y z
#
# Youngs Moduli (GPa) = 124.48602 47.09798 136.34999
#
# Poissons Ratio (x) = 0.00503 0.19328
# Poissons Ratio (y) = 0.01329 0.02353
# Poissons Ratio (z) = 0.17646 0.00813
#
# Static dielectric constant tensor:
#      x y z
#    x 1.995660 -0.052910 -0.065940 
#    y -0.052910 2.045550 0.133610 
#    z -0.065940 0.133610 2.208270 
# 
# From -- ./inp_files/262687.got.cif
#   From: 2010.05.17/outbox.cif.g08.bks.cpg/sg2_132_cif.got.tgz:262687.got - 2010.06.03 11:33:40.
