data_PCOD9063442
_publ_section_title
;
Structure prediction by ZEFSAII (Michael W. Deem and Ramdas Pophale) SiO2 
 PCOD9063442
Probable space group: P -1
;
_chemical_formula_sum "Si O2"
_cell_formula_units_Z 16
_cell_length_a 9.533690
_cell_length_b 18.984224
_cell_length_c 11.700243
_cell_angle_alpha 47.406143
_cell_angle_beta 47.004442
_cell_angle_gamma 30.219710
_cell_volume 757.203182
_symmetry_space_group_name_H-M "P -1"
_symmetry_group_IT_number 2
_symmetry_cell_setting 'triclinic'
loop_
_space_group_symop_operation_xyz
x,y,z
-x,-y,-z
loop_
_atom_site_type_symbol
_atom_site_label
_atom_site_fract_x
_atom_site_fract_y
_atom_site_fract_z
Si Si1 0.772683 0.341630 0.471819
Si Si2 0.229333 0.109844 0.661798
Si Si3 0.350739 0.368763 0.550868
Si Si4 0.737828 0.688226 0.567270
Si Si5 0.770077 0.771853 0.076582
Si Si6 0.109906 0.351710 0.094687
Si Si7 0.140862 0.073490 0.007814
Si Si8 0.418150 0.838966 0.798767
O O1 0.500000 0.500000 0.500000
O O2 0.634846 0.305634 0.518384
O O3 0.969395 0.230862 0.587327
O O4 0.952196 0.342853 0.284975
O O5 0.356720 0.166591 0.558739
O O6 0.145857 0.099363 0.843200
O O7 0.411524 0.956678 0.671084
O O8 0.394726 0.329172 0.436961
O O9 0.256520 0.306379 0.735003
O O10 0.080871 0.542435 0.524494
O O11 0.631826 0.710557 0.729614
O O12 0.913533 0.809632 0.016909
O O13 0.926565 0.678356 0.977443
O O14 0.448317 0.921411 0.049650
O O15 0.447588 0.232466 0.073655
O O16 0.000000 0.500000 0.000000
O O17 0.893491 0.086234 0.138982
#
# Coordination Sequence:
#
# PCOD9063442 Si02
#       8
#     2   2   2   2   2   2   2   2
#     4  12  25  43  70 100 132 179 224 275 335 396
#     4  12  23  46  67  98 132 180 226 278 333 400
#     4  11  24  46  69  95 139 180 223 277 339 401
#     4  11  24  44  68  97 135 178 225 281 337 400
#     4  11  24  48  66  99 138 175 228 272 343 402
#     4  12  27  43  68 102 139 174 224 281 330 406
#     4  11  26  44  71  96 135 184 217 283 340 400
#     4  12  25  43  69 101 134 177 229 278 339 392
#
# _framework density 21.130392000000001
#
# number of rings (size 3 to 8) (size 9 to 14) (size 15 to 20)
#    0.000    0.500    5.000    3.000    5.250    0.000 
#    0.000    2.500    0.000    0.000    0.000    0.000 
#    0.000    0.000    0.000    0.000    0.000    0.000 
#
# Total GULP energy -89411.341230 kJ/mol
# GULP energy per Si atom -5588.208827 kJ/mol
# Density = 2.108230 g / cm^3
# Si number density = 21.130392 Si / 1000 Ang^3
#
#
#
# Elastic Constant Matrix: (Units=GPa)
#
#
# Indices 1 2 3 4 5 6 
#
# 1 127.8720 33.5878 19.1676 2.1223 7.7650 20.1251
# 2 33.5878 80.8321 9.5503 -16.3778 5.3987 24.3907
# 3 19.1676 9.5503 52.4495 -9.6482 5.2229 14.6023
# 4 2.1223 -16.3778 -9.6482 35.2627 5.8056 5.0167
# 5 7.7650 5.3987 5.2229 5.8056 38.8138 5.4931
# 6 20.1251 24.3907 14.6023 5.0167 5.4931 38.7687
#
#
#
# Elastic Compliance Matrix: (Units=1/GPa)
#
#
# Indices 1 2 3 4 5 6 
#
# 1 0.009518 -0.003920 -0.003041 -0.003039 -0.000370 -0.000884
# 2 -0.003920 0.020568 0.004276 0.013374 -0.002690 -0.013865
# 3 -0.003041 0.004276 0.024998 0.011204 -0.003399 -0.011495
# 4 -0.003039 0.013374 0.011204 0.041120 -0.006728 -0.015424
# 5 -0.000370 -0.002690 -0.003399 -0.006728 0.027659 0.000116
# 6 -0.000884 -0.013865 -0.011495 -0.015424 0.000116 0.041285
#
#
# Mechanical properties :
#
#
# Convention : Reuss Voigt Hill
#
# Bulk Modulus (GPa) = 20.11486 42.86279 31.48883
# Shear Modulus (GPa) = 26.72503 35.82557 31.27530
#
# Velocity S-wave (km/s) = 3.56021 4.12205 3.85139
# Velocity P-wave (km/s) = 5.14201 6.55622 5.89170
#
# Compressibility (1/GPa) = 0.04971449
#
# Stress axis : x y z
#
# Youngs Moduli (GPa) = 105.06722 48.61872 40.00255
#
# Poissons Ratio (x) = 0.19058 0.12163
# Poissons Ratio (y) = 0.41186 -0.17103
# Poissons Ratio (z) = 0.31946 -0.20787
#
# Static dielectric constant tensor:
#      x y z
#    x 1.751500 0.017130 -0.001230 
#    y 0.017130 1.762280 0.014730 
#    z -0.001230 0.014730 1.775820 
# 
# From -- ./inp_files/187523.got.cif
#   From: 2010.05.17/outbox.cif.g08.bks.cpg/sg2_94_cif.got.tgz:187523.got - 2010.06.03 11:33:40.
