data_PCOD9063088
_publ_section_title
;
Structure prediction by ZEFSAII (Michael W. Deem and Ramdas Pophale) SiO2 
 PCOD9063088
Probable space group: P -1
;
_chemical_formula_sum "Si O2"
_cell_formula_units_Z 16
_cell_length_a 12.602850
_cell_length_b 8.510333
_cell_length_c 16.514775
_cell_angle_alpha 91.389088
_cell_angle_beta 24.844327
_cell_angle_gamma 100.731548
_cell_volume 684.781693
_symmetry_space_group_name_H-M "P -1"
_symmetry_group_IT_number 2
_symmetry_cell_setting 'triclinic'
loop_
_space_group_symop_operation_xyz
x,y,z
-x,-y,-z
loop_
_atom_site_type_symbol
_atom_site_label
_atom_site_fract_x
_atom_site_fract_y
_atom_site_fract_z
Si Si1 0.978826 0.183011 0.019488
Si Si2 0.631800 0.508705 0.694041
Si Si3 0.126506 0.760264 0.451562
Si Si4 0.576418 0.751988 0.597963
Si Si5 0.065494 0.363052 0.131641
Si Si6 0.903811 0.677894 0.234790
Si Si7 0.417659 0.987629 0.961582
Si Si8 0.016785 0.125553 0.291784
O O1 0.680747 0.194005 0.221845
O O2 0.084141 0.273733 0.033115
O O3 0.119578 0.276240 0.841190
O O4 0.000000 0.000000 0.000000
O O5 0.692710 0.338295 0.637419
O O6 0.551856 0.604690 0.676977
O O7 0.925218 0.644164 0.522045
O O8 0.388684 0.469419 0.927630
O O9 0.937616 0.781752 0.653630
O O10 0.323832 0.936897 0.275877
O O11 0.655609 0.690273 0.457821
O O12 0.830408 0.931017 0.438977
O O13 0.928576 0.497878 0.218949
O O14 0.900321 0.223501 0.310680
O O15 0.187634 0.814632 0.081888
O O16 0.271781 0.121503 0.065310
O O17 0.500000 0.000000 0.000000
#
# Coordination Sequence:
#
# PCOD9063088 Si02
#       8
#     2   2   2   2   2   2   2   2
#     4  12  27  47  76 101 142 189 237 293 357 414
#     4  11  25  45  70 103 146 178 242 288 351 421
#     4  11  24  44  71 103 141 193 227 289 353 420
#     4  11  25  47  71 106 137 185 237 290 347 429
#     4  12  26  48  70 106 142 187 237 300 349 411
#     4  11  25  46  72 104 143 184 235 295 352 419
#     4  11  24  43  70 105 145 184 235 286 350 422
#     4  11  25  42  72 100 139 184 235 287 352 418
#
# _framework density 23.365112
#
# number of rings (size 3 to 8) (size 9 to 14) (size 15 to 20)
#    0.000    0.750    2.500    4.875    3.500    5.000 
#    0.000    0.000    0.000    0.000    0.000    0.000 
#    0.000    0.000    0.000    0.000    0.000    0.000 
#
# Total GULP energy -89412.517999 kJ/mol
# GULP energy per Si atom -5588.282375 kJ/mol
# Density = 2.331193 g / cm^3
# Si number density = 23.365112 Si / 1000 Ang^3
#
#
#
# Elastic Constant Matrix: (Units=GPa)
#
#
# Indices 1 2 3 4 5 6 
#
# 1 83.3169 40.8041 13.7470 -8.6160 14.1102 -0.4681
# 2 40.8041 124.5462 26.8820 10.4910 18.2701 -15.2092
# 3 13.7470 26.8820 67.7528 9.6125 9.4750 5.8924
# 4 -8.6160 10.4910 9.6125 43.0572 -2.8926 3.7734
# 5 14.1102 18.2701 9.4750 -2.8926 42.3978 3.9773
# 6 -0.4681 -15.2092 5.8924 3.7734 3.9773 31.8404
#
#
#
# Elastic Compliance Matrix: (Units=1/GPa)
#
#
# Indices 1 2 3 4 5 6 
#
# 1 0.015598 -0.005206 -0.001272 0.004734 -0.002123 -0.002318
# 2 -0.005206 0.012259 -0.003325 -0.004186 -0.003783 0.007363
# 3 -0.001272 -0.003325 0.017400 -0.003082 -0.001846 -0.004231
# 4 0.004734 -0.004186 -0.003082 0.026524 0.003186 -0.004901
# 5 -0.002123 -0.003783 -0.001846 0.003186 0.027046 -0.005253
# 6 -0.002318 0.007363 -0.004231 -0.004901 -0.005253 0.036910
#
#
# Mechanical properties :
#
#
# Convention : Reuss Voigt Hill
#
# Bulk Modulus (GPa) = 38.98579 48.72022 43.85301
# Shear Modulus (GPa) = 30.50741 36.40460 33.45601
#
# Velocity S-wave (km/s) = 3.61734 3.95153 3.78812
# Velocity P-wave (km/s) = 5.84539 6.45882 6.15975
#
# Compressibility (1/GPa) = 0.02565037
#
# Stress axis : x y z
#
# Youngs Moduli (GPa) = 64.11056 81.57099 57.46984
#
# Poissons Ratio (x) = 0.42466 0.07313
# Poissons Ratio (y) = 0.33376 0.19110
# Poissons Ratio (z) = 0.08158 0.27124
#
# Static dielectric constant tensor:
#      x y z
#    x 1.968910 -0.003300 -0.103470 
#    y -0.003300 1.867490 -0.012740 
#    z -0.103470 -0.012740 1.918010 
# 
# From -- ./inp_files/515619.got.cif
#   From: 2010.05.17/outbox.cif.g08.bks.cpg/sg2_258_cif.got.tgz:515619.got - 2010.06.03 11:33:40.
