data_PCOD9063965
_publ_section_title
;
Structure prediction by ZEFSAII (Michael W. Deem and Ramdas Pophale) SiO2 
 PCOD9063965
Probable space group: P -1
;
_chemical_formula_sum "Si O2"
_cell_formula_units_Z 16
_cell_length_a 5.696592
_cell_length_b 16.205083
_cell_length_c 14.921542
_cell_angle_alpha 36.618088
_cell_angle_beta 56.647696
_cell_angle_gamma 56.878752
_cell_volume 670.855455
_symmetry_space_group_name_H-M "P -1"
_symmetry_group_IT_number 2
_symmetry_cell_setting 'triclinic'
loop_
_space_group_symop_operation_xyz
x,y,z
-x,-y,-z
loop_
_atom_site_type_symbol
_atom_site_label
_atom_site_fract_x
_atom_site_fract_y
_atom_site_fract_z
Si Si1 0.703753 0.133974 0.528320
Si Si2 0.242293 0.921097 0.637248
Si Si3 0.344173 0.428637 0.404076
Si Si4 0.765212 0.883057 0.074528
Si Si5 0.670593 0.368196 0.021355
Si Si6 0.237949 0.424157 0.629033
Si Si7 0.319540 0.970943 0.848947
Si Si8 0.647157 0.661442 0.076221
O O1 0.809068 0.134338 0.403895
O O2 0.580148 0.294819 0.441036
O O3 0.449653 0.049258 0.674194
O O4 0.962381 0.042456 0.612210
O O5 0.323750 0.785246 0.801320
O O6 0.500000 0.000000 0.500000
O O7 0.215166 0.388050 0.559789
O O8 0.488515 0.565542 0.256774
O O9 0.056217 0.474488 0.365144
O O10 0.720723 0.727146 0.202867
O O11 0.784724 0.917197 0.146646
O O12 0.041635 0.907998 0.942076
O O13 0.500000 0.000000 0.000000
O O14 0.500000 0.500000 0.000000
O O15 0.489651 0.371227 0.963604
O O16 0.009261 0.378310 0.946517
O O17 0.500000 0.500000 0.500000
O O18 0.545956 0.831646 0.956257
#
# Coordination Sequence:
#
# PCOD9063965 Si02
#       8
#     2   2   2   2   2   2   2   2
#     4  11  24  46  69 101 139 191 238 302 365 440
#     4  11  26  44  71 102 142 183 244 301 365 434
#     4  11  26  45  68 100 146 190 244 293 376 435
#     4  11  26  42  70 102 144 191 245 306 369 440
#     4  12  28  49  75 108 148 193 244 310 372 438
#     4  11  26  44  67 102 147 189 242 306 370 443
#     4  11  24  45  68 103 141 189 247 296 369 433
#     4  12  27  47  78 106 146 195 249 304 368 444
#
# _framework density 23.850147
#
# number of rings (size 3 to 8) (size 9 to 14) (size 15 to 20)
#    0.000    0.750    3.750    1.875   10.500    2.000 
#    0.000    0.000    0.000    0.000    0.000    0.000 
#    0.000    0.000    0.000    0.000    0.000    0.000 
#
# Total GULP energy -89439.740460 kJ/mol
# GULP energy per Si atom -5589.983779 kJ/mol
# Density = 2.379586 g / cm^3
# Si number density = 23.850147 Si / 1000 Ang^3
#
#
#
# Elastic Constant Matrix: (Units=GPa)
#
#
# Indices 1 2 3 4 5 6 
#
# 1 110.1978 33.8522 49.9188 -1.3904 -11.4218 -22.7453
# 2 33.8522 112.5256 25.6668 -22.9153 1.8574 -17.5933
# 3 49.9188 25.6668 158.0364 -11.6088 -8.0609 -9.2438
# 4 -1.3904 -22.9153 -11.6088 44.1112 0.0263 0.2876
# 5 -11.4218 1.8574 -8.0609 0.0263 47.0984 10.5544
# 6 -22.7453 -17.5933 -9.2438 0.2876 10.5544 45.9440
#
#
#
# Elastic Compliance Matrix: (Units=1/GPa)
#
#
# Indices 1 2 3 4 5 6 
#
# 1 0.012396 -0.002769 -0.003288 -0.001940 0.001646 0.004049
# 2 -0.002769 0.011566 -0.000483 0.005773 -0.001970 0.003378
# 3 -0.003288 -0.000483 0.007571 0.001640 0.000615 -0.000441
# 4 -0.001940 0.005773 0.001640 0.026030 -0.000790 0.001599
# 5 0.001646 -0.001970 0.000615 -0.000790 0.022954 -0.005084
# 6 0.004049 0.003378 -0.000441 0.001599 -0.005084 0.026133
#
#
# Mechanical properties :
#
#
# Convention : Reuss Voigt Hill
#
# Bulk Modulus (GPa) = 54.18549 66.62617 60.40583
# Shear Modulus (GPa) = 39.72044 45.51885 42.61965
#
# Velocity S-wave (km/s) = 4.08538 4.37342 4.23185
# Velocity P-wave (km/s) = 6.70986 7.31426 7.01857
#
# Compressibility (1/GPa) = 0.01845512
#
# Stress axis : x y z
#
# Youngs Moduli (GPa) = 80.66907 86.45846 132.08928
#
# Poissons Ratio (x) = 0.23937 0.43426
# Poissons Ratio (y) = 0.22334 0.06377
# Poissons Ratio (z) = 0.26521 0.04174
#
# Static dielectric constant tensor:
#      x y z
#    x 2.081760 0.098750 0.082590 
#    y 0.098750 1.866290 0.020810 
#    z 0.082590 0.020810 1.881840 
# 
# From -- ./inp_files/77726.got.cif
#   From: 2010.05.17/outbox.cif.g08.bks.cpg/sg2_39_cif.got.tgz:77726.got - 2010.06.03 11:33:40.
