data_PCOD9063748
_publ_section_title
;
Structure prediction by ZEFSAII (Michael W. Deem and Ramdas Pophale) SiO2 
 PCOD9063748
Probable space group: P -1
;
_chemical_formula_sum "Si O2"
_cell_formula_units_Z 16
_cell_length_a 17.148201
_cell_length_b 19.970234
_cell_length_c 12.872389
_cell_angle_alpha 24.863935
_cell_angle_beta 43.717094
_cell_angle_gamma 26.383869
_cell_volume 721.717238
_symmetry_space_group_name_H-M "P -1"
_symmetry_group_IT_number 2
_symmetry_cell_setting 'triclinic'
loop_
_space_group_symop_operation_xyz
x,y,z
-x,-y,-z
loop_
_atom_site_type_symbol
_atom_site_label
_atom_site_fract_x
_atom_site_fract_y
_atom_site_fract_z
Si Si1 0.208302 0.890820 0.756146
Si Si2 0.919177 0.581989 0.284957
Si Si3 0.112391 0.462690 0.853079
Si Si4 0.002400 0.125144 0.914797
Si Si5 0.455097 0.627852 0.252057
Si Si6 0.530826 0.049239 0.133399
Si Si7 0.412986 0.538991 0.860901
Si Si8 0.336718 0.274028 0.346662
O O1 0.369391 0.744714 0.895742
O O2 0.144588 0.783306 0.989440
O O3 0.305761 0.783779 0.698996
O O4 0.016893 0.226156 0.475946
O O5 0.890656 0.627528 0.125118
O O6 0.939997 0.370924 0.590298
O O7 0.124649 0.430259 0.329941
O O8 0.725477 0.863525 0.138825
O O9 0.337793 0.239590 0.982558
O O10 0.000000 0.500000 0.000000
O O11 0.000000 0.000000 0.000000
O O12 0.221611 0.882219 0.093805
O O13 0.500000 0.500000 0.500000
O O14 0.507653 0.752590 0.036486
O O15 0.565294 0.431305 0.320351
O O16 0.576080 0.849787 0.447106
O O17 0.311263 0.484788 0.038889
O O18 0.500000 0.000000 0.500000
#
# Coordination Sequence:
#
# PCOD9063748 Si02
#       8
#     2   2   2   2   2   2   2   2
#     4  11  24  44  74 104 137 184 237 288 345 417
#     4  12  26  45  73 101 137 186 238 287 340 421
#     4  12  26  46  67 101 144 187 229 289 355 412
#     4  12  22  45  72  97 136 180 233 284 343 412
#     4  12  26  44  65 102 145 181 222 286 354 414
#     4  12  26  44  69 102 139 180 234 287 353 410
#     4  11  24  44  73 107 136 183 238 287 347 419
#     4  12  22  45  74 101 138 178 234 295 340 411
#
# _framework density 22.169346999999998
#
# number of rings (size 3 to 8) (size 9 to 14) (size 15 to 20)
#    0.000    0.250    5.000    4.500    1.750    2.000 
#    0.000    2.500    0.000    0.000    0.000    0.000 
#    0.000    0.000    0.000    0.000    0.000    0.000 
#
# Total GULP energy -89589.365735 kJ/mol
# GULP energy per Si atom -5599.335358 kJ/mol
# Density = 2.211889 g / cm^3
# Si number density = 22.169347 Si / 1000 Ang^3
#
#
#
# Elastic Constant Matrix: (Units=GPa)
#
#
# Indices 1 2 3 4 5 6 
#
# 1 64.1351 10.8520 20.7590 -4.5992 19.2766 12.6358
# 2 10.8520 109.8340 19.0181 2.6862 16.0499 21.4672
# 3 20.7590 19.0181 49.2290 8.4122 15.3415 5.6290
# 4 -4.5992 2.6862 8.4122 41.2711 -3.3550 6.0977
# 5 19.2766 16.0499 15.3415 -3.3550 34.9191 11.6779
# 6 12.6358 21.4672 5.6290 6.0977 11.6779 52.1589
#
#
#
# Elastic Compliance Matrix: (Units=1/GPa)
#
#
# Indices 1 2 3 4 5 6 
#
# 1 0.020869 0.000807 -0.007067 0.003625 -0.007296 -0.003415
# 2 0.000807 0.010694 -0.003294 0.000397 -0.002639 -0.003697
# 3 -0.007067 -0.003294 0.028206 -0.007442 -0.008638 0.002828
# 4 0.003625 0.000397 -0.007442 0.027230 0.005239 -0.004595
# 5 -0.007296 -0.002639 -0.008638 0.005239 0.040119 -0.005809
# 6 -0.003415 -0.003697 0.002828 -0.004595 -0.005809 0.023054
#
#
# Mechanical properties :
#
#
# Convention : Reuss Voigt Hill
#
# Bulk Modulus (GPa) = 24.59438 36.05072 30.32255
# Shear Modulus (GPa) = 27.34740 37.17441 32.26091
#
# Velocity S-wave (km/s) = 3.51603 4.09936 3.81885
# Velocity P-wave (km/s) = 5.25369 6.22119 5.75780
#
# Compressibility (1/GPa) = 0.04065969
#
# Stress axis : x y z
#
# Youngs Moduli (GPa) = 47.91883 93.51235 35.45348
#
# Poissons Ratio (x) = -0.07544 0.25055
# Poissons Ratio (y) = -0.03866 0.11679
# Poissons Ratio (z) = 0.33864 0.30805
#
# Static dielectric constant tensor:
#      x y z
#    x 1.801810 0.032760 -0.024340 
#    y 0.032760 1.850540 0.018410 
#    z -0.024340 0.018410 1.824870 
# 
# From -- ./inp_files/381270.got.cif
#   From: 2010.05.17/outbox.cif.g08.bks.cpg/sg2_191_cif.got.tgz:381270.got - 2010.06.03 11:33:40.
