data_PCOD9063116
_publ_section_title
;
Structure prediction by ZEFSAII (Michael W. Deem and Ramdas Pophale) SiO2 
 PCOD9063116
Probable space group: P -1
;
_chemical_formula_sum "Si O2"
_cell_formula_units_Z 16
_cell_length_a 8.855583
_cell_length_b 11.056577
_cell_length_c 16.677599
_cell_angle_alpha 122.092382
_cell_angle_beta 32.560658
_cell_angle_gamma 109.948260
_cell_volume 723.907117
_symmetry_space_group_name_H-M "P -1"
_symmetry_group_IT_number 2
_symmetry_cell_setting 'triclinic'
loop_
_space_group_symop_operation_xyz
x,y,z
-x,-y,-z
loop_
_atom_site_type_symbol
_atom_site_label
_atom_site_fract_x
_atom_site_fract_y
_atom_site_fract_z
Si Si1 0.686753 0.506300 0.498276
Si Si2 0.810516 0.562785 0.218134
Si Si3 0.238638 0.214773 0.337885
Si Si4 0.768537 0.142068 0.622192
Si Si5 0.178084 0.988415 0.999031
Si Si6 0.249804 0.267453 0.161791
Si Si7 0.711015 0.346364 0.872349
Si Si8 0.123600 0.252915 0.904232
O O1 0.500000 0.500000 0.500000
O O2 0.519420 0.429613 0.611453
O O3 0.692315 0.661990 0.589978
O O4 0.009156 0.416044 0.306802
O O5 0.839336 0.655668 0.159106
O O6 0.979277 0.632063 0.233323
O O7 0.976565 0.389549 0.076394
O O8 0.261637 0.249286 0.245934
O O9 0.925294 0.194886 0.494555
O O10 0.484456 0.067891 0.191463
O O11 0.741668 0.252466 0.746464
O O12 0.435534 0.152371 0.753414
O O13 0.000000 0.000000 0.500000
O O14 0.083676 0.859176 0.045498
O O15 0.145010 0.135989 0.117226
O O16 0.000000 0.000000 0.000000
O O17 0.551810 0.279254 0.991419
O O18 0.500000 0.500000 0.000000
#
# Coordination Sequence:
#
# PCOD9063116 Si02
#       8
#     2   2   2   2   2   2   2   2
#     4  12  25  43  69 105 136 181 236 286 345 406
#     4  11  24  43  71 101 136 179 233 288 339 409
#     4  12  25  46  68 101 141 182 234 286 343 415
#     4  12  26  45  69 103 141 184 230 287 354 415
#     4  12  25  46  71 102 143 186 230 283 352 423
#     4  12  27  44  71 104 140 185 229 290 350 414
#     4  12  24  44  71 102 139 184 237 282 344 422
#     4  11  24  44  70 100 137 183 228 283 350 409
#
# _framework density 22.102283
#
# number of rings (size 3 to 8) (size 9 to 14) (size 15 to 20)
#    0.000    0.250    2.500    7.500    1.750    2.000 
#    0.000    1.875    0.000    0.000    0.000    0.000 
#    0.000    0.000    0.000    0.000    0.000    0.000 
#
# Total GULP energy -89500.401791 kJ/mol
# GULP energy per Si atom -5593.775112 kJ/mol
# Density = 2.205198 g / cm^3
# Si number density = 22.102283 Si / 1000 Ang^3
#
#
#
# Elastic Constant Matrix: (Units=GPa)
#
#
# Indices 1 2 3 4 5 6 
#
# 1 76.4552 3.5641 16.2221 21.4142 4.1232 -3.9674
# 2 3.5641 74.7818 21.5614 -3.2082 14.3636 -5.3991
# 3 16.2221 21.5614 111.9729 3.2085 1.3240 -1.0875
# 4 21.4142 -3.2082 3.2085 54.3337 1.8338 2.9891
# 5 4.1232 14.3636 1.3240 1.8338 42.2184 -0.4665
# 6 -3.9674 -5.3991 -1.0875 2.9891 -0.4665 32.4948
#
#
#
# Elastic Compliance Matrix: (Units=1/GPa)
#
#
# Indices 1 2 3 4 5 6 
#
# 1 0.015382 -0.000022 -0.002015 -0.006035 -0.001144 0.002346
# 2 -0.000022 0.015422 -0.002916 0.001141 -0.005178 0.002283
# 3 -0.002015 -0.002916 0.009769 0.000037 0.000876 -0.000394
# 4 -0.006035 0.001141 0.000037 0.021010 -0.000740 -0.002489
# 5 -0.001144 -0.005178 0.000876 -0.000740 0.025558 -0.000536
# 6 0.002346 0.002283 -0.000394 -0.002489 -0.000536 0.031648
#
#
# Mechanical properties :
#
#
# Convention : Reuss Voigt Hill
#
# Bulk Modulus (GPa) = 32.60800 38.43391 35.52095
# Shear Modulus (GPa) = 35.99252 40.60020 38.29636
#
# Velocity S-wave (km/s) = 4.03979 4.29058 4.16707
# Velocity P-wave (km/s) = 6.04525 6.47861 6.26568
#
# Compressibility (1/GPa) = 0.03066732
#
# Stress axis : x y z
#
# Youngs Moduli (GPa) = 65.01163 64.84149 102.36623
#
# Poissons Ratio (x) = 0.00143 0.20626
# Poissons Ratio (y) = 0.00143 0.29848
# Poissons Ratio (z) = 0.13100 0.18906
#
# Static dielectric constant tensor:
#      x y z
#    x 3.283030 0.234380 0.234140 
#    y 0.234380 1.867380 0.013160 
#    z 0.234140 0.013160 1.804250 
# 
# From -- ./inp_files/298025.got.cif
#   From: 2010.05.17/outbox.cif.g08.bks.cpg/sg2_150_cif.got.tgz:298025.got - 2010.06.03 11:33:40.
