data_PCOD9063190
_publ_section_title
;
Structure prediction by ZEFSAII (Michael W. Deem and Ramdas Pophale) SiO2 
 PCOD9063190
Probable space group: P -1
;
_chemical_formula_sum "Si O2"
_cell_formula_units_Z 16
_cell_length_a 20.618654
_cell_length_b 8.673343
_cell_length_c 12.019646
_cell_angle_alpha 106.335618
_cell_angle_beta 39.926307
_cell_angle_gamma 139.157439
_cell_volume 633.432789
_symmetry_space_group_name_H-M "P -1"
_symmetry_group_IT_number 2
_symmetry_cell_setting 'triclinic'
loop_
_space_group_symop_operation_xyz
x,y,z
-x,-y,-z
loop_
_atom_site_type_symbol
_atom_site_label
_atom_site_fract_x
_atom_site_fract_y
_atom_site_fract_z
Si Si1 0.994672 0.201424 0.857832
Si Si2 0.816137 0.126855 0.711778
Si Si3 0.965472 0.206212 0.143939
Si Si4 0.590680 0.067603 0.279457
Si Si5 0.477684 0.716211 0.916361
Si Si6 0.016883 0.137495 0.311904
Si Si7 0.321386 0.915357 0.483448
Si Si8 0.635361 0.797477 0.110300
O O1 0.158907 0.569515 0.686320
O O2 0.027413 0.109753 0.704109
O O3 0.003521 0.166360 0.969313
O O4 0.758363 0.931649 0.088869
O O5 0.000000 0.500000 0.500000
O O6 0.863024 0.022050 0.570335
O O7 0.584916 0.870458 0.927197
O O8 0.800590 0.078210 0.853175
O O9 0.987012 0.163047 0.230126
O O10 0.749355 0.004274 0.376836
O O11 0.159894 0.603140 0.969483
O O12 0.500000 0.000000 0.500000
O O13 0.543074 0.151566 0.279609
O O14 0.498887 0.767505 0.302958
O O15 0.466265 0.511223 0.856944
O O16 0.652935 0.045786 0.674698
O O17 0.247659 0.464423 0.135942
#
# Coordination Sequence:
#
# PCOD9063190 Si02
#       8
#     2   2   2   2   2   2   2   2
#     4  11  24  43  72 104 142 189 233 286 348 421
#     4  12  26  50  77  98 138 189 233 298 354 415
#     4  12  22  45  69 106 151 185 233 286 347 420
#     4  12  24  42  71 106 142 187 235 285 352 417
#     4  11  26  46  71 107 140 180 239 292 351 420
#     4  11  26  47  70 106 141 182 239 288 355 412
#     4  12  23  41  71 100 141 190 231 281 347 416
#     4  11  26  49  69 107 145 180 238 295 349 413
#
# _framework density 25.259191000000001
#
# number of rings (size 3 to 8) (size 9 to 14) (size 15 to 20)
#    0.000    0.500    5.000    3.375    1.750    2.500 
#    4.500    1.875    0.000    0.000    0.000    0.000 
#    0.000    0.000    0.000    0.000    0.000    0.000 
#
# Total GULP energy -89380.342173 kJ/mol
# GULP energy per Si atom -5586.271386 kJ/mol
# Density = 2.520170 g / cm^3
# Si number density = 25.259191 Si / 1000 Ang^3
#
#
#
# Elastic Constant Matrix: (Units=GPa)
#
#
# Indices 1 2 3 4 5 6 
#
# 1 122.6163 35.7928 36.3945 1.6958 -5.4930 14.6713
# 2 35.7928 40.7781 19.8482 9.5423 -8.7369 10.9429
# 3 36.3945 19.8482 71.4164 12.7901 -10.1471 4.3435
# 4 1.6958 9.5423 12.7901 39.8215 4.8934 -2.9341
# 5 -5.4930 -8.7369 -10.1471 4.8934 41.7543 -0.1407
# 6 14.6713 10.9429 4.3435 -2.9341 -0.1407 39.2709
#
#
#
# Elastic Compliance Matrix: (Units=1/GPa)
#
#
# Indices 1 2 3 4 5 6 
#
# 1 0.012228 -0.009430 -0.004382 0.003280 -0.001818 -0.001217
# 2 -0.009430 0.040402 -0.003095 -0.009814 0.007584 -0.008099
# 3 -0.004382 -0.003095 0.018649 -0.005545 0.003958 0.000037
# 4 0.003280 -0.009814 -0.005545 0.030225 -0.006497 0.004358
# 5 -0.001818 0.007584 0.003958 -0.006497 0.027013 -0.002260
# 6 -0.001217 -0.008099 0.000037 0.004358 -0.002260 0.028489
#
#
# Mechanical properties :
#
#
# Convention : Reuss Voigt Hill
#
# Bulk Modulus (GPa) = 26.69281 46.54242 36.61762
# Shear Modulus (GPa) = 24.59318 33.68770 29.14044
#
# Velocity S-wave (km/s) = 3.12369 3.65592 3.40024
# Velocity P-wave (km/s) = 4.85803 6.02387 5.47208
#
# Compressibility (1/GPa) = 0.03746327
#
# Stress axis : x y z
#
# Youngs Moduli (GPa) = 81.78001 24.75143 53.62212
#
# Poissons Ratio (x) = 0.23342 0.23499
# Poissons Ratio (y) = 0.77123 0.16595
# Poissons Ratio (z) = 0.35839 0.07660
#
# Static dielectric constant tensor:
#      x y z
#    x 2.141130 -0.021950 -0.060890 
#    y -0.021950 1.979030 -0.030540 
#    z -0.060890 -0.030540 1.974440 
# 
# From -- ./inp_files/470057.got.cif
#   From: 2010.05.17/outbox.cif.g08.bks.cpg/sg2_236_cif.got.tgz:470057.got - 2010.06.03 11:33:40.
