data_PCOD9063987
_publ_section_title
;
Structure prediction by ZEFSAII (Michael W. Deem and Ramdas Pophale) SiO2 
 PCOD9063987
Probable space group: P -1
;
_chemical_formula_sum "Si O2"
_cell_formula_units_Z 16
_cell_length_a 5.462781
_cell_length_b 19.161228
_cell_length_c 17.520517
_cell_angle_alpha 28.999671
_cell_angle_beta 127.918928
_cell_angle_gamma 130.174303
_cell_volume 673.053054
_symmetry_space_group_name_H-M "P -1"
_symmetry_group_IT_number 2
_symmetry_cell_setting 'triclinic'
loop_
_space_group_symop_operation_xyz
x,y,z
-x,-y,-z
loop_
_atom_site_type_symbol
_atom_site_label
_atom_site_fract_x
_atom_site_fract_y
_atom_site_fract_z
Si Si1 0.792676 0.648330 0.426376
Si Si2 0.257360 0.119744 0.523390
Si Si3 0.563637 0.154774 0.908238
Si Si4 0.393900 0.911635 0.641177
Si Si5 0.657932 0.624354 0.974143
Si Si6 0.688852 0.143749 0.120122
Si Si7 0.507579 0.620225 0.563665
Si Si8 0.727070 0.662727 0.122400
O O1 0.500000 0.500000 0.500000
O O2 0.721242 0.776640 0.237506
O O3 0.732051 0.673143 0.481607
O O4 0.135303 0.628795 0.483329
O O5 0.356990 0.272023 0.442448
O O6 0.996478 0.135626 0.395765
O O7 0.499073 0.044147 0.596992
O O8 0.174273 0.989918 0.696525
O O9 0.901059 0.280973 0.834675
O O10 0.605409 0.124567 0.033890
O O11 0.500000 0.000000 0.000000
O O12 0.492058 0.759783 0.810617
O O13 0.500000 0.000000 0.500000
O O14 0.030620 0.706126 0.949200
O O15 0.500000 0.500000 0.000000
O O16 0.668541 0.579666 0.108337
O O17 0.376178 0.184417 0.054252
O O18 0.474697 0.448738 0.745562
#
# Coordination Sequence:
#
# PCOD9063987 Si02
#       8
#     2   2   2   2   2   2   2   2
#     4  12  26  50  72 105 146 189 243 302 363 432
#     4  11  26  44  71 103 138 194 239 301 361 433
#     4  11  26  44  73 100 138 187 233 296 364 428
#     4  11  24  45  68  99 146 182 242 297 357 432
#     4  11  26  43  72 102 141 190 234 301 363 438
#     4  11  24  46  66 102 142 180 238 296 359 429
#     4  12  29  45  78 106 144 195 244 300 366 433
#     4  11  26  45  66 103 146 182 237 296 356 433
#
# _framework density 23.772269999999999
#
# number of rings (size 3 to 8) (size 9 to 14) (size 15 to 20)
#    0.000    0.750    3.750    1.875   10.500    1.000 
#    0.000    0.000    0.000    0.000    0.000    0.000 
#    0.000    0.000    0.000    0.000    0.000    0.000 
#
# Total GULP energy -89296.176797 kJ/mol
# GULP energy per Si atom -5581.011050 kJ/mol
# Density = 2.371816 g / cm^3
# Si number density = 23.772270 Si / 1000 Ang^3
#
#
#
# Elastic Constant Matrix: (Units=GPa)
#
#
# Indices 1 2 3 4 5 6 
#
# 1 46.5543 9.4118 16.9986 6.6610 10.0869 -11.2552
# 2 9.4118 129.6338 7.7931 -11.5133 -1.3425 -32.8116
# 3 16.9986 7.7931 107.5522 12.1792 13.0456 -3.0553
# 4 6.6610 -11.5133 12.1792 26.7160 -1.0459 11.0441
# 5 10.0869 -1.3425 13.0456 -1.0459 42.7246 9.0521
# 6 -11.2552 -32.8116 -3.0553 11.0441 9.0521 29.2150
#
#
#
# Elastic Compliance Matrix: (Units=1/GPa)
#
#
# Indices 1 2 3 4 5 6 
#
# 1 0.033418 0.002686 -0.000963 -0.018432 -0.013683 0.026998
# 2 0.002686 0.011245 -0.000077 -0.002421 -0.003643 0.015700
# 3 -0.000963 -0.000077 0.010867 -0.006797 -0.004225 0.004557
# 4 -0.018432 -0.002421 -0.006797 0.060570 0.015964 -0.038375
# 5 -0.013683 -0.003643 -0.004225 0.015964 0.033776 -0.026305
# 6 0.026998 0.015700 0.004557 -0.038375 -0.026305 0.085396
#
#
# Mechanical properties :
#
#
# Convention : Reuss Voigt Hill
#
# Bulk Modulus (GPa) = 17.00029 39.12748 28.06389
# Shear Modulus (GPa) = 19.87393 36.36691 28.12042
#
# Velocity S-wave (km/s) = 2.89453 3.91551 3.44307
# Velocity P-wave (km/s) = 4.28227 6.07756 5.25712
#
# Compressibility (1/GPa) = 0.05882253
#
# Stress axis : x y z
#
# Youngs Moduli (GPa) = 29.92442 88.93108 92.01998
#
# Poissons Ratio (x) = -0.23890 0.08857
# Poissons Ratio (y) = -0.08039 0.00711
# Poissons Ratio (z) = 0.02880 0.00687
#
# Static dielectric constant tensor:
#      x y z
#    x 2.067560 0.024120 -0.037620 
#    y 0.024120 1.905910 0.070840 
#    z -0.037620 0.070840 1.955200 
# 
# From -- ./inp_files/40018.got.cif
#   From: 2010.05.17/outbox.cif.g08.bks.cpg/sg2_21_cif.got.tgz:40018.got - 2010.06.03 11:33:40.
