data_PCOD9063555
_publ_section_title
;
Structure prediction by ZEFSAII (Michael W. Deem and Ramdas Pophale) SiO2 
 PCOD9063555
Probable space group: P -1
;
_chemical_formula_sum "Si O2"
_cell_formula_units_Z 14
_cell_length_a 13.174468
_cell_length_b 12.309722
_cell_length_c 6.345930
_cell_angle_alpha 111.521583
_cell_angle_beta 114.824815
_cell_angle_gamma 42.092967
_cell_volume 623.533298
_symmetry_space_group_name_H-M "P -1"
_symmetry_group_IT_number 2
_symmetry_cell_setting 'triclinic'
loop_
_space_group_symop_operation_xyz
x,y,z
-x,-y,-z
loop_
_atom_site_type_symbol
_atom_site_label
_atom_site_fract_x
_atom_site_fract_y
_atom_site_fract_z
Si Si1 0.582309 0.507303 0.269981
Si Si2 0.840330 0.923569 0.356939
Si Si3 0.421445 0.975709 0.088322
Si Si4 0.092952 0.662940 0.078400
Si Si5 0.726941 0.250703 0.584872
Si Si6 0.819453 0.771820 0.616676
Si Si7 0.282023 0.380738 0.776730
O O1 0.676934 0.351928 0.396504
O O2 0.437312 0.664604 0.390565
O O3 0.692894 0.526499 0.285318
O O4 0.500000 0.500000 0.000000
O O5 0.790328 0.881250 0.478414
O O6 0.996040 0.753935 0.272338
O O7 0.839827 0.058861 0.515958
O O8 0.707969 0.009743 0.125662
O O9 0.552397 0.800745 0.179302
O O10 0.327106 0.119533 0.277213
O O11 0.500000 0.000000 0.000000
O O12 0.185069 0.717208 0.172892
O O13 0.220610 0.469323 0.014720
O O14 0.966358 0.717047 0.832044
O O15 0.828566 0.636071 0.433036
#
# Coordination Sequence:
#
# PCOD9063555 Si02
#       7
#     2   2   2   2   2   2   2
#     4  11  24  44  70 107 135 177 236 291 345 398
#     4  11  25  46  70 101 144 183 231 284 347 416
#     4  11  24  44  70 106 135 176 233 285 347 408
#     4  11  27  46  66 107 140 190 230 280 347 413
#     4  11  25  45  71 101 139 185 235 283 344 408
#     4  11  26  47  69 106 139 186 230 279 358 410
#     4  12  24  46  75 101 144 178 233 294 343 413
#
# _framework density 22.452688999999999
#
# number of rings (size 3 to 8) (size 9 to 14) (size 15 to 20)
#    0.000    0.857    2.857    3.000    6.000    2.286 
#    0.000    0.000    0.000    0.000    0.000    0.000 
#    0.000    0.000    0.000    0.000    0.000    0.000 
#
# Total GULP energy -78289.103052 kJ/mol
# GULP energy per Si atom -5592.078789 kJ/mol
# Density = 2.240159 g / cm^3
# Si number density = 22.452689 Si / 1000 Ang^3
#
#
#
# Elastic Constant Matrix: (Units=GPa)
#
#
# Indices 1 2 3 4 5 6 
#
# 1 100.0289 50.8377 39.6560 10.3089 -0.4917 5.0492
# 2 50.8377 69.0009 44.7857 23.3694 -0.8485 7.4657
# 3 39.6560 44.7857 91.2079 25.0402 14.3005 13.7065
# 4 10.3089 23.3694 25.0402 42.2226 1.7067 3.0873
# 5 -0.4917 -0.8485 14.3005 1.7067 45.3228 1.5232
# 6 5.0492 7.4657 13.7065 3.0873 1.5232 34.8359
#
#
#
# Elastic Compliance Matrix: (Units=1/GPa)
#
#
# Indices 1 2 3 4 5 6 
#
# 1 0.016727 -0.012034 -0.002713 0.004099 0.000630 0.000831
# 2 -0.012034 0.032286 -0.008210 -0.010116 0.003486 -0.001201
# 3 -0.002713 -0.008210 0.019376 -0.005701 -0.005924 -0.004707
# 4 0.004099 -0.010116 -0.005701 0.031572 0.000431 0.001000
# 5 0.000630 0.003486 -0.005924 0.000431 0.023975 0.000406
# 6 0.000831 -0.001201 -0.004707 0.001000 0.000406 0.030588
#
#
# Mechanical properties :
#
#
# Convention : Reuss Voigt Hill
#
# Bulk Modulus (GPa) = 44.49194 58.97738 51.73466
# Shear Modulus (GPa) = 24.04630 32.80681 28.42656
#
# Velocity S-wave (km/s) = 3.27613 3.82665 3.56204
# Velocity P-wave (km/s) = 5.84547 6.77117 6.32528
#
# Compressibility (1/GPa) = 0.02247598
#
# Stress axis : x y z
#
# Youngs Moduli (GPa) = 59.78276 30.97271 51.60950
#
# Poissons Ratio (x) = 0.37272 0.14001
# Poissons Ratio (y) = 0.71941 0.42374
# Poissons Ratio (z) = 0.16218 0.25430
#
# Static dielectric constant tensor:
#      x y z
#    x 1.835440 -0.045250 0.007300 
#    y -0.045250 1.816860 0.017050 
#    z 0.007300 0.017050 1.825840 
# 
# From -- ./inp_files/68933.got.cif
#   From: 2010.05.17/outbox.cif.g08.bks.cpg/sg2_35_cif.got.tgz:68933.got - 2010.06.03 11:33:40.
