data_PCOD9063243
_publ_section_title
;
Structure prediction by ZEFSAII (Michael W. Deem and Ramdas Pophale) SiO2 
 PCOD9063243
Probable space group: P -1
;
_chemical_formula_sum "Si O2"
_cell_formula_units_Z 13
_cell_length_a 8.723573
_cell_length_b 8.450811
_cell_length_c 11.500142
_cell_angle_alpha 52.495397
_cell_angle_beta 54.234351
_cell_angle_gamma 66.766931
_cell_volume 544.747243
_symmetry_space_group_name_H-M "P -1"
_symmetry_group_IT_number 2
_symmetry_cell_setting 'triclinic'
loop_
_space_group_symop_operation_xyz
x,y,z
-x,-y,-z
loop_
_atom_site_type_symbol
_atom_site_label
_atom_site_fract_x
_atom_site_fract_y
_atom_site_fract_z
Si Si1 0.568541 0.291824 0.007323
Si Si2 0.059490 0.888331 0.138701
Si Si3 0.758315 0.734814 0.012856
Si Si4 0.859289 0.691685 0.504250
Si Si5 0.000000 0.000000 0.500000
Si Si6 0.463229 0.817579 0.682350
Si Si7 0.859082 0.349193 0.244557
O O1 0.438876 0.252049 0.972476
O O2 0.538760 0.141894 0.196642
O O3 0.500000 0.500000 0.000000
O O4 0.788220 0.288461 0.881053
O O5 0.884388 0.820599 0.318764
O O6 0.178662 0.045544 0.086092
O O7 0.000000 0.000000 0.000000
O O8 0.920027 0.652768 0.887075
O O9 0.779398 0.581050 0.181144
O O10 0.640828 0.661872 0.641617
O O11 0.000000 0.500000 0.500000
O O12 0.928668 0.833825 0.512630
O O13 0.859338 0.182667 0.418719
O O14 0.266812 0.729119 0.770990
O O15 0.500000 0.000000 0.500000
#
# Coordination Sequence:
#
# PCOD9063243 Si02
#       7
#     2   2   2   2   1   2   2
#     4  12  25  45  76 107 145 196 249 307 375 443
#     4  12  27  48  72 112 150 196 251 312 369 446
#     4  11  24  45  71 103 149 187 252 307 368 444
#     4  12  28  48  76 108 155 194 248 308 380 447
#     4  12  24  50  74 108 150 198 242 306 388 444
#     4  12  23  46  72 108 145 195 245 307 379 446
#     4  11  24  43  73 106 140 197 245 305 378 446
#
# _framework density 23.864280999999998
#
# number of rings (size 3 to 8) (size 9 to 14) (size 15 to 20)
#    0.000    0.308    4.615    4.154    4.308    0.000 
#    0.000    0.769    0.000    0.000    0.000    0.000 
#    0.000    0.000    0.000    0.000    0.000    0.000 
#
# Total GULP energy -72415.570112 kJ/mol
# GULP energy per Si atom -5570.428470 kJ/mol
# Density = 2.380996 g / cm^3
# Si number density = 23.864281 Si / 1000 Ang^3
#
#
#
# Elastic Constant Matrix: (Units=GPa)
#
#
# Indices 1 2 3 4 5 6 
#
# 1 96.0426 -11.4697 32.3828 12.5938 8.6068 -24.6564
# 2 -11.4697 60.7680 10.4270 -6.2529 -0.8547 -20.9175
# 3 32.3828 10.4270 84.6454 -0.4630 3.7860 -9.3212
# 4 12.5938 -6.2529 -0.4630 36.4975 -11.2045 -5.2768
# 5 8.6068 -0.8547 3.7860 -11.2045 34.1379 -4.2106
# 6 -24.6564 -20.9175 -9.3212 -5.2768 -4.2106 38.1743
#
#
#
# Elastic Compliance Matrix: (Units=1/GPa)
#
#
# Indices 1 2 3 4 5 6 
#
# 1 0.017981 0.008915 -0.006306 -0.003660 -0.003071 0.014114
# 2 0.008915 0.026473 -0.004556 0.005295 0.003154 0.020231
# 3 -0.006306 -0.004556 0.014481 0.001125 -0.000118 -0.002891
# 4 -0.003660 0.005295 0.001125 0.034647 0.013172 0.007054
# 5 -0.003071 0.003154 -0.000118 0.013172 0.035150 0.005414
# 6 0.014114 0.020231 -0.002891 0.007054 0.005414 0.047264
#
#
# Mechanical properties :
#
#
# Convention : Reuss Voigt Hill
#
# Bulk Modulus (GPa) = 18.16804 33.79291 25.98047
# Shear Modulus (GPa) = 25.22226 35.76967 30.49596
#
# Velocity S-wave (km/s) = 3.25453 3.87574 3.57864
# Velocity P-wave (km/s) = 4.66393 5.84975 5.29017
#
# Compressibility (1/GPa) = 0.05504171
#
# Stress axis : x y z
#
# Youngs Moduli (GPa) = 55.61338 37.77364 69.05782
#
# Poissons Ratio (x) = -0.33673 0.43545
# Poissons Ratio (y) = -0.49577 0.31461
# Poissons Ratio (z) = 0.35068 0.17209
#
# Static dielectric constant tensor:
#      x y z
#    x 1.876500 -0.035660 0.049580 
#    y -0.035660 2.067960 -0.095510 
#    z 0.049580 -0.095510 2.021870 
# 
# From -- ./inp_files/147254.got.cif
#   From: 2010.05.17/outbox.cif.g08.bks.cpg/sg2_74_cif.got.tgz:147254.got - 2010.06.03 11:33:40.
