data_PCOD9063303
_publ_section_title
;
Structure prediction by ZEFSAII (Michael W. Deem and Ramdas Pophale) SiO2 
 PCOD9063303
Probable space group: P -1
;
_chemical_formula_sum "Si O2"
_cell_formula_units_Z 14
_cell_length_a 12.117012
_cell_length_b 6.208016
_cell_length_c 11.474612
_cell_angle_alpha 117.573389
_cell_angle_beta 70.078665
_cell_angle_gamma 129.143178
_cell_volume 591.918683
_symmetry_space_group_name_H-M "P -1"
_symmetry_group_IT_number 2
_symmetry_cell_setting 'triclinic'
loop_
_space_group_symop_operation_xyz
x,y,z
-x,-y,-z
loop_
_atom_site_type_symbol
_atom_site_label
_atom_site_fract_x
_atom_site_fract_y
_atom_site_fract_z
Si Si1 0.721654 0.390438 0.007584
Si Si2 0.165998 0.213591 0.136956
Si Si3 0.240707 0.203095 0.538082
Si Si4 0.533647 0.312177 0.540637
Si Si5 0.576497 0.738189 0.840512
Si Si6 0.082627 0.362844 0.794138
Si Si7 0.052730 0.573701 0.364499
O O1 0.579938 0.371370 0.088049
O O2 0.800902 0.396976 0.097926
O O3 0.832698 0.687780 0.971150
O O4 0.663261 0.092520 0.879785
O O5 0.324893 0.297477 0.116787
O O6 0.138090 0.426477 0.274163
O O7 0.055997 0.885658 0.145086
O O8 0.385828 0.227459 0.515118
O O9 0.313196 0.523299 0.536739
O O10 0.150922 0.193108 0.676234
O O11 0.145070 0.929834 0.420622
O O12 0.558928 0.539791 0.688566
O O13 0.500000 0.000000 0.500000
O O14 0.047718 0.496540 0.730300
O O15 0.000000 0.500000 0.500000
#
# Coordination Sequence:
#
# PCOD9063303 Si02
#       7
#     2   2   2   2   2   2   2
#     4  11  26  50  74 108 151 201 251 298 370 439
#     4  12  25  45  76 108 150 198 246 302 373 439
#     4  11  24  44  67 110 143 189 248 302 375 441
#     4  11  24  43  75 107 147 189 244 311 379 435
#     4  11  25  49  74 108 150 196 251 312 357 447
#     4  12  26  46  74 106 152 190 252 304 362 453
#     4  12  27  46  76 109 150 197 242 312 379 438
#
# _framework density 23.651897999999999
#
# number of rings (size 3 to 8) (size 9 to 14) (size 15 to 20)
#    0.000    0.571    2.857    4.714    4.000    4.571 
#    2.571    0.000    0.000    0.000    0.000    0.000 
#    0.000    0.000    0.000    0.000    0.000    0.000 
#
# Total GULP energy -78191.557004 kJ/mol
# GULP energy per Si atom -5585.111215 kJ/mol
# Density = 2.359807 g / cm^3
# Si number density = 23.651898 Si / 1000 Ang^3
#
#
#
# Elastic Constant Matrix: (Units=GPa)
#
#
# Indices 1 2 3 4 5 6 
#
# 1 104.9440 42.6773 59.0683 -5.4812 3.1447 7.5350
# 2 42.6773 109.2737 32.5697 -13.1303 -2.2582 7.4230
# 3 59.0683 32.5697 98.2916 -1.7124 4.3438 6.4975
# 4 -5.4812 -13.1303 -1.7124 34.0979 -4.0575 -0.9664
# 5 3.1447 -2.2582 4.3438 -4.0575 38.0896 -3.2852
# 6 7.5350 7.4230 6.4975 -0.9664 -3.2852 28.6098
#
#
#
# Elastic Compliance Matrix: (Units=1/GPa)
#
#
# Indices 1 2 3 4 5 6 
#
# 1 0.015700 -0.003551 -0.008126 0.000633 -0.000635 -0.001420
# 2 -0.003551 0.011623 -0.001620 0.003958 0.001467 -0.001410
# 3 -0.008126 -0.001620 0.015716 -0.001350 -0.001467 -0.001223
# 4 0.000633 0.003958 -0.001350 0.031346 0.003727 0.000600
# 5 -0.000635 0.001467 -0.001467 0.003727 0.027249 0.003375
# 6 -0.001420 -0.001410 -0.001223 0.000600 0.003375 0.036378
#
#
# Mechanical properties :
#
#
# Convention : Reuss Voigt Hill
#
# Bulk Modulus (GPa) = 60.80470 64.57110 62.68790
# Shear Modulus (GPa) = 29.39672 32.03904 30.71788
#
# Velocity S-wave (km/s) = 3.52929 3.68449 3.60773
# Velocity P-wave (km/s) = 6.50936 6.74244 6.62693
#
# Compressibility (1/GPa) = 0.01644610
#
# Stress axis : x y z
#
# Youngs Moduli (GPa) = 63.69255 86.03874 63.62976
#
# Poissons Ratio (x) = 0.30549 0.51703
# Poissons Ratio (y) = 0.22615 0.10309
# Poissons Ratio (z) = 0.51755 0.13940
#
# Static dielectric constant tensor:
#      x y z
#    x 1.913470 -0.085360 0.052390 
#    y -0.085360 1.996920 -0.112600 
#    z 0.052390 -0.112600 1.917110 
# 
# From -- ./inp_files/411062.got.cif
#   From: 2010.05.17/outbox.cif.g08.bks.cpg/sg2_206_cif.got.tgz:411062.got - 2010.06.03 11:33:40.
