data_PCOD9063505
_publ_section_title
;
Structure prediction by ZEFSAII (Michael W. Deem and Ramdas Pophale) SiO2 
 PCOD9063505
Probable space group: P -1
;
_chemical_formula_sum "Si O2"
_cell_formula_units_Z 11
_cell_length_a 7.335509
_cell_length_b 9.484356
_cell_length_c 13.608484
_cell_angle_alpha 34.209684
_cell_angle_beta 54.601606
_cell_angle_gamma 56.142799
_cell_volume 427.556518
_symmetry_space_group_name_H-M "P -1"
_symmetry_group_IT_number 2
_symmetry_cell_setting 'triclinic'
loop_
_space_group_symop_operation_xyz
x,y,z
-x,-y,-z
loop_
_atom_site_type_symbol
_atom_site_label
_atom_site_fract_x
_atom_site_fract_y
_atom_site_fract_z
Si Si1 0.930671 0.527888 0.672696
Si Si2 0.466025 0.092973 0.345322
Si Si3 0.245628 0.346134 0.990580
Si Si4 0.163010 0.793595 0.292823
Si Si5 0.623518 0.438337 0.371412
Si Si6 0.500000 0.500000 0.000000
O O1 0.720686 0.637288 0.747653
O O2 0.889020 0.302321 0.744327
O O3 0.963450 0.748475 0.456038
O O4 0.156769 0.483376 0.691939
O O5 0.655428 0.225494 0.159378
O O6 0.500000 0.000000 0.500000
O O7 0.382938 0.862013 0.448218
O O8 0.399023 0.324319 0.050796
O O9 0.222998 0.069461 0.117485
O O10 0.356701 0.495907 0.786679
O O11 0.000000 0.500000 0.000000
O O12 0.380643 0.600603 0.380139
#
# Coordination Sequence:
#
# PCOD9063505 Si02
#       6
#     2   2   2   2   2   1
#     4  11  24  44  69  99 138 184 229 287 347 408
#     4  12  23  46  73 101 141 183 233 283 347 409
#     4  12  26  43  69 102 139 181 238 285 346 418
#     4  11  25  43  67 101 139 185 233 283 350 414
#     4  12  24  44  70 100 141 185 229 290 344 412
#     4  12  26  44  72 102 136 180 232 290 342 406
#
# _framework density 25.727592000000001
#
# number of rings (size 3 to 8) (size 9 to 14) (size 15 to 20)
#    0.000    0.364    3.636    4.909    0.000    2.182 
#    0.000    0.000    0.000    0.000    0.000    0.000 
#    0.000    0.000    0.000    0.000    0.000    0.000 
#
# Total GULP energy -61450.222587 kJ/mol
# GULP energy per Si atom -5586.383872 kJ/mol
# Density = 2.566903 g / cm^3
# Si number density = 25.727592 Si / 1000 Ang^3
#
#
#
# Elastic Constant Matrix: (Units=GPa)
#
#
# Indices 1 2 3 4 5 6 
#
# 1 127.9364 64.0326 -2.6851 -18.4357 1.8354 28.1394
# 2 64.0326 126.2223 42.8723 -29.2546 -2.9860 31.6746
# 3 -2.6851 42.8723 135.9564 -40.1205 4.2942 20.5527
# 4 -18.4357 -29.2546 -40.1205 60.1835 10.8927 -16.6927
# 5 1.8354 -2.9860 4.2942 10.8927 35.2310 8.4252
# 6 28.1394 31.6746 20.5527 -16.6927 8.4252 59.3207
#
#
#
# Elastic Compliance Matrix: (Units=1/GPa)
#
#
# Indices 1 2 3 4 5 6 
#
# 1 0.011805 -0.005898 0.003285 0.002504 -0.001656 -0.002648
# 2 -0.005898 0.013177 -0.003609 0.000928 0.002308 -0.003054
# 3 0.003285 -0.003609 0.010852 0.006903 -0.003714 -0.000921
# 4 0.002504 0.000928 0.006903 0.025460 -0.009838 0.004487
# 5 -0.001656 0.002308 -0.003714 -0.009838 0.033768 -0.006724
# 6 -0.002648 -0.003054 -0.000921 0.004487 -0.006724 0.022281
#
#
# Mechanical properties :
#
#
# Convention : Reuss Voigt Hill
#
# Bulk Modulus (GPa) = 42.75843 66.50609 54.63226
# Shear Modulus (GPa) = 36.34129 50.00672 43.17400
#
# Velocity S-wave (km/s) = 3.76246 4.41352 4.10093
# Velocity P-wave (km/s) = 5.96075 7.20267 6.61094
#
# Compressibility (1/GPa) = 0.02338720
#
# Stress axis : x y z
#
# Youngs Moduli (GPa) = 84.71324 75.89220 92.15110
#
# Poissons Ratio (x) = 0.44764 -0.30268
# Poissons Ratio (y) = 0.49967 0.33258
# Poissons Ratio (z) = -0.27825 0.27390
#
# Static dielectric constant tensor:
#      x y z
#    x 1.934610 0.041500 0.274630 
#    y 0.041500 1.960540 -0.223740 
#    z 0.274630 -0.223740 1.230510 
# 
# From -- ./inp_files/373299.got.cif
#   From: 2010.05.17/outbox.cif.g08.bks.cpg/sg2_187_cif.got.tgz:373299.got - 2010.06.03 11:33:40.
