data_PCOD9063000
_publ_section_title
;
Structure prediction by ZEFSAII (Michael W. Deem and Ramdas Pophale) SiO2 
 PCOD9063000
Probable space group: P -1
;
_chemical_formula_sum "Si O2"
_cell_formula_units_Z 14
_cell_length_a 5.249735
_cell_length_b 16.724631
_cell_length_c 7.764902
_cell_angle_alpha 105.008193
_cell_angle_beta 119.805555
_cell_angle_gamma 62.556124
_cell_volume 524.603552
_symmetry_space_group_name_H-M "P -1"
_symmetry_group_IT_number 2
_symmetry_cell_setting 'triclinic'
loop_
_space_group_symop_operation_xyz
x,y,z
-x,-y,-z
loop_
_atom_site_type_symbol
_atom_site_label
_atom_site_fract_x
_atom_site_fract_y
_atom_site_fract_z
Si Si1 0.934093 0.946491 0.756373
Si Si2 0.202350 0.590084 0.415596
Si Si3 0.553757 0.704282 0.291500
Si Si4 0.222593 0.595815 0.009741
Si Si5 0.691657 0.872597 0.321800
Si Si6 0.440833 0.300519 0.311651
Si Si7 0.655811 0.873572 0.934448
O O1 0.900135 0.897957 0.543716
O O2 0.845642 0.892938 0.851576
O O3 0.287502 0.945531 0.872269
O O4 0.658034 0.046426 0.728148
O O5 0.500000 0.500000 0.500000
O O6 0.175924 0.599825 0.204101
O O7 0.283791 0.662121 0.600130
O O8 0.847767 0.606390 0.357578
O O9 0.325438 0.680742 0.071902
O O10 0.661295 0.778783 0.291590
O O11 0.481415 0.729013 0.479392
O O12 0.500000 0.500000 0.000000
O O13 0.895900 0.618447 0.808027
O O14 0.819732 0.868504 0.170078
O O15 0.413026 0.216516 0.161424
#
# Coordination Sequence:
#
# PCOD9063000 Si02
#       7
#     2   2   2   2   2   2   2
#     4  11  27  49  71 111 147 196 242 312 360 443
#     4  11  24  43  68  99 139 185 234 301 366 431
#     4  11  24  45  67 102 142 183 240 300 362 434
#     4  11  25  43  68 102 136 185 237 295 367 438
#     4  11  25  45  75 103 147 193 245 301 370 435
#     4  11  25  43  69 101 142 186 239 303 360 438
#     4  12  26  47  75 107 148 194 249 297 373 435
#
# _framework density 26.686817000000001
#
# number of rings (size 3 to 8) (size 9 to 14) (size 15 to 20)
#    0.000    0.857    1.429    4.286    2.000   11.429 
#    5.143    0.000    0.000    0.000    0.000    0.000 
#    0.000    0.000    0.000    0.000    0.000    0.000 
#
# Total GULP energy -78422.996979 kJ/mol
# GULP energy per Si atom -5601.642641 kJ/mol
# Density = 2.662608 g / cm^3
# Si number density = 26.686817 Si / 1000 Ang^3
#
#
#
# Elastic Constant Matrix: (Units=GPa)
#
#
# Indices 1 2 3 4 5 6 
#
# 1 64.8643 -0.7389 50.1825 -1.5330 5.6308 -3.9687
# 2 -0.7389 101.3091 22.4856 7.1284 -1.4228 -11.0137
# 3 50.1825 22.4856 199.1503 17.4907 -5.4620 4.8871
# 4 -1.5330 7.1284 17.4907 50.8611 -8.8843 1.5679
# 5 5.6308 -1.4228 -5.4620 -8.8843 42.5762 2.5865
# 6 -3.9687 -11.0137 4.8871 1.5679 2.5865 36.0057
#
#
#
# Elastic Compliance Matrix: (Units=1/GPa)
#
#
# Indices 1 2 3 4 5 6 
#
# 1 0.020337 0.001636 -0.005632 0.001642 -0.003238 0.003668
# 2 0.001636 0.010725 -0.001634 -0.001100 -0.000526 0.003768
# 3 -0.005632 -0.001634 0.006888 -0.002023 0.001277 -0.002059
# 4 0.001642 -0.001100 -0.002023 0.021293 0.003996 -0.001095
# 5 -0.003238 -0.000526 0.001277 0.003996 0.025058 -0.002665
# 6 0.003668 0.003768 -0.002059 -0.001095 -0.002665 0.029849
#
#
# Mechanical properties :
#
#
# Convention : Reuss Voigt Hill
#
# Bulk Modulus (GPa) = 37.46575 56.57579 47.02077
# Shear Modulus (GPa) = 37.22841 45.44823 41.33832
#
# Velocity S-wave (km/s) = 3.73904 4.13125 3.94002
# Velocity P-wave (km/s) = 5.71927 6.63341 6.19323
#
# Compressibility (1/GPa) = 0.02669104
#
# Stress axis : x y z
#
# Youngs Moduli (GPa) = 49.17088 93.24039 145.17430
#
# Poissons Ratio (x) = -0.15256 0.81768
# Poissons Ratio (y) = -0.08045 0.23714
# Poissons Ratio (z) = 0.27695 0.15231
#
# Static dielectric constant tensor:
#      x y z
#    x 2.112570 -0.015340 -0.008090 
#    y -0.015340 2.199040 -0.036300 
#    z -0.008090 -0.036300 2.020070 
# 
# From -- ./inp_files/107746.got.cif
#   From: 2010.05.17/outbox.cif.g08.bks.cpg/sg2_54_cif.got.tgz:107746.got - 2010.06.03 11:33:40.
