data_PCOD9063912
_publ_section_title
;
Structure prediction by ZEFSAII (Michael W. Deem and Ramdas Pophale) SiO2 
 PCOD9063912
Probable space group: P -1
;
_chemical_formula_sum "Si O2"
_cell_formula_units_Z 16
_cell_length_a 11.651086
_cell_length_b 24.597657
_cell_length_c 5.777614
_cell_angle_alpha 63.368525
_cell_angle_beta 119.085366
_cell_angle_gamma 150.458946
_cell_volume 712.205246
_symmetry_space_group_name_H-M "P -1"
_symmetry_group_IT_number 2
_symmetry_cell_setting 'triclinic'
loop_
_space_group_symop_operation_xyz
x,y,z
-x,-y,-z
loop_
_atom_site_type_symbol
_atom_site_label
_atom_site_fract_x
_atom_site_fract_y
_atom_site_fract_z
Si Si1 0.690122 0.787729 0.461618
Si Si2 0.281190 0.605286 0.023497
Si Si3 0.747935 0.680038 0.795622
Si Si4 0.772593 0.186551 0.907104
Si Si5 0.460738 0.417901 0.724652
Si Si6 0.134439 0.991568 0.219680
Si Si7 0.656354 0.032205 0.796285
Si Si8 0.552029 0.216463 0.451193
O O1 0.718403 0.738822 0.737883
O O2 0.634520 0.828452 0.462808
O O3 0.953969 0.893647 0.412691
O O4 0.463894 0.693219 0.245312
O O5 0.337868 0.680913 0.751469
O O6 0.340478 0.558666 0.094676
O O7 0.000000 0.500000 0.000000
O O8 0.667248 0.657694 0.489908
O O9 0.639224 0.608271 0.062437
O O10 0.987926 0.735006 0.874158
O O11 0.743278 0.244461 0.693092
O O12 0.794987 0.144174 0.811355
O O13 0.530757 0.071595 0.015091
O O14 0.500000 0.500000 0.500000
O O15 0.169750 0.953666 0.137478
O O16 0.395421 0.113104 0.326915
O O17 0.000000 0.000000 0.000000
O O18 0.500000 0.000000 0.500000
#
# Coordination Sequence:
#
# PCOD9063912 Si02
#       8
#     2   2   2   2   2   2   2   2
#     4  11  25  46  71 108 144 190 244 304 372 443
#     4  11  27  49  72 103 140 192 242 312 375 438
#     4  11  26  46  77 108 144 192 247 309 370 444
#     4  11  27  40  68 105 145 197 238 302 366 440
#     4  11  26  51  77 107 141 189 253 314 375 440
#     4  12  24  41  75 100 147 196 242 301 360 450
#     4  11  24  45  62 100 149 189 244 292 362 434
#     4  12  25  46  67 108 147 186 248 292 381 441
#
# _framework density 22.465434999999999
#
# number of rings (size 3 to 8) (size 9 to 14) (size 15 to 20)
#    0.000    0.750    3.750    2.250   10.500    1.500 
#    0.000    0.000    0.000    0.000    0.000    0.000 
#    0.000    0.000    0.000    0.000    0.000    0.000 
#
# Total GULP energy -89097.092847 kJ/mol
# GULP energy per Si atom -5568.568303 kJ/mol
# Density = 2.241430 g / cm^3
# Si number density = 22.465435 Si / 1000 Ang^3
#
#
#
# Elastic Constant Matrix: (Units=GPa)
#
#
# Indices 1 2 3 4 5 6 
#
# 1 143.4380 20.9391 30.4137 -10.2433 31.5868 1.3722
# 2 20.9391 46.9859 15.3516 -15.5157 9.6238 7.9401
# 3 30.4137 15.3516 91.5264 -15.5045 35.0242 -0.2605
# 4 -10.2433 -15.5157 -15.5045 33.4411 -3.6818 4.9911
# 5 31.5868 9.6238 35.0242 -3.6818 51.4296 -2.7990
# 6 1.3722 7.9401 -0.2605 4.9911 -2.7990 31.0474
#
#
#
# Elastic Compliance Matrix: (Units=1/GPa)
#
#
# Indices 1 2 3 4 5 6 
#
# 1 0.008453 -0.002387 -0.000651 0.000752 -0.004263 -0.000274
# 2 -0.002387 0.029421 -0.000627 0.013761 -0.003168 -0.009922
# 3 -0.000651 -0.000627 0.016157 0.006120 -0.010134 -0.001573
# 4 0.000752 0.013761 0.006120 0.040375 -0.004882 -0.010432
# 5 -0.004263 -0.003168 -0.010134 -0.004882 0.029444 0.004353
# 6 -0.000274 -0.009922 -0.001573 -0.010432 0.004353 0.036814
#
#
# Mechanical properties :
#
#
# Convention : Reuss Voigt Hill
#
# Bulk Modulus (GPa) = 21.41187 46.15100 33.78144
# Shear Modulus (GPa) = 27.23890 37.53333 32.38612
#
# Velocity S-wave (km/s) = 3.48585 4.09187 3.80096
# Velocity P-wave (km/s) = 5.07476 6.55075 5.85942
#
# Compressibility (1/GPa) = 0.04670306
#
# Stress axis : x y z
#
# Youngs Moduli (GPa) = 118.29943 33.98930 61.89149
#
# Poissons Ratio (x) = 0.08113 0.04027
# Poissons Ratio (y) = 0.28236 0.03878
# Poissons Ratio (z) = 0.07698 0.02130
#
# Static dielectric constant tensor:
#      x y z
#    x 2.045450 0.044230 -0.222210 
#    y 0.044230 1.991100 0.008560 
#    z -0.222210 0.008560 2.001870 
# 
# From -- ./inp_files/84244.got.cif
#   From: 2010.05.17/outbox.cif.g08.bks.cpg/sg2_43_cif.got.tgz:84244.got - 2010.06.03 11:33:40.
