data_PCOD9063006
_publ_section_title
;
Structure prediction by ZEFSAII (Michael W. Deem and Ramdas Pophale) SiO2 
 PCOD9063006
Probable space group: P -1
;
_chemical_formula_sum "Si O2"
_cell_formula_units_Z 16
_cell_length_a 19.333144
_cell_length_b 23.587345
_cell_length_c 5.835231
_cell_angle_alpha 131.543315
_cell_angle_beta 59.393130
_cell_angle_gamma 157.927569
_cell_volume 693.826516
_symmetry_space_group_name_H-M "P -1"
_symmetry_group_IT_number 2
_symmetry_cell_setting 'triclinic'
loop_
_space_group_symop_operation_xyz
x,y,z
-x,-y,-z
loop_
_atom_site_type_symbol
_atom_site_label
_atom_site_fract_x
_atom_site_fract_y
_atom_site_fract_z
Si Si1 0.824355 0.291060 0.189222
Si Si2 0.508808 0.779728 0.918895
Si Si3 0.509267 0.464267 0.140286
Si Si4 0.913231 0.906109 0.143515
Si Si5 0.122189 0.438895 0.947610
Si Si6 0.449820 0.019921 0.829316
Si Si7 0.772866 0.558076 0.819545
Si Si8 0.959090 0.152146 0.221084
O O1 0.000000 0.500000 0.500000
O O2 0.744807 0.174314 0.225302
O O3 0.635583 0.172759 0.097595
O O4 0.931118 0.325935 0.926189
O O5 0.324816 0.638789 0.021277
O O6 0.407234 0.623974 0.530010
O O7 0.557003 0.900615 0.037296
O O8 0.723570 0.938630 0.077185
O O9 0.500000 0.500000 0.500000
O O10 0.500000 0.500000 0.000000
O O11 0.301888 0.241949 0.891738
O O12 0.688638 0.559994 0.091392
O O13 0.000000 0.000000 0.500000
O O14 0.919295 0.820436 0.897519
O O15 0.000000 0.000000 0.000000
O O16 0.050185 0.293050 0.611908
O O17 0.180777 0.477785 0.215202
O O18 0.500000 0.000000 0.500000
O O19 0.976201 0.757628 0.890339
#
# Coordination Sequence:
#
# PCOD9063006 Si02
#       8
#     2   2   2   2   2   2   2   2
#     4  11  24  43  69 100 135 177 227 277 343 415
#     4  11  25  43  66 102 134 177 229 280 351 418
#     4  12  25  46  74 101 143 189 242 300 363 427
#     4  12  27  45  71 106 140 189 245 300 362 428
#     4  11  25  42  68 100 133 180 226 282 349 419
#     4  11  24  43  69  99 137 176 223 283 340 414
#     4  11  25  44  69  96 137 182 229 288 350 422
#     4  11  25  45  68  95 140 180 229 289 352 418
#
# _framework density 23.060517999999998
#
# number of rings (size 3 to 8) (size 9 to 14) (size 15 to 20)
#    0.000    0.750    1.250    5.250    5.250    8.000 
#    0.000    0.000    0.000    0.000    0.000    0.000 
#    0.000    0.000    0.000    0.000    0.000    0.000 
#
# Total GULP energy -89257.687832 kJ/mol
# GULP energy per Si atom -5578.605489 kJ/mol
# Density = 2.300803 g / cm^3
# Si number density = 23.060518 Si / 1000 Ang^3
#
#
#
# Elastic Constant Matrix: (Units=GPa)
#
#
# Indices 1 2 3 4 5 6 
#
# 1 69.5601 22.1653 3.5775 -4.8278 -6.9066 0.0689
# 2 22.1653 158.8661 23.5400 10.7139 10.8388 1.8930
# 3 3.5775 23.5400 81.0702 2.7913 -4.4856 -1.8131
# 4 -4.8278 10.7139 2.7913 35.6939 2.9322 1.8731
# 5 -6.9066 10.8388 -4.4856 2.9322 36.7892 0.8448
# 6 0.0689 1.8930 -1.8131 1.8731 0.8448 44.6256
#
#
#
# Elastic Compliance Matrix: (Units=1/GPa)
#
#
# Indices 1 2 3 4 5 6 
#
# 1 0.015743 -0.002640 0.000176 0.002621 0.003548 -0.000082
# 2 -0.002640 0.007306 -0.002087 -0.002150 -0.002726 -0.000249
# 3 0.000176 -0.002087 0.013093 -0.000592 0.002278 0.000602
# 4 0.002621 -0.002150 -0.000592 0.029225 -0.001250 -0.001140
# 5 0.003548 -0.002726 0.002278 -0.001250 0.029035 -0.000295
# 6 -0.000082 -0.000249 0.000602 -0.001140 -0.000295 0.022497
#
#
# Mechanical properties :
#
#
# Convention : Reuss Voigt Hill
#
# Bulk Modulus (GPa) = 36.98360 45.34022 41.16191
# Shear Modulus (GPa) = 37.03297 40.76931 38.90114
#
# Velocity S-wave (km/s) = 4.01172 4.20923 4.11166
# Velocity P-wave (km/s) = 6.12625 6.58237 6.35840
#
# Compressibility (1/GPa) = 0.02703901
#
# Stress axis : x y z
#
# Youngs Moduli (GPa) = 63.52200 136.87001 76.37560
#
# Poissons Ratio (x) = 0.36139 -0.01346
# Poissons Ratio (y) = 0.16772 0.15942
# Poissons Ratio (z) = -0.01119 0.28569
#
# Static dielectric constant tensor:
#      x y z
#    x 2.032210 0.029370 -0.293060 
#    y 0.029370 1.895430 -0.175530 
#    z -0.293060 -0.175530 2.549580 
# 
# From -- ./inp_files/106127.got.cif
#   From: 2010.05.17/outbox.cif.g08.bks.cpg/sg2_54_cif.got.tgz:106127.got - 2010.06.03 11:33:40.
