data_PCOD9063449
_publ_section_title
;
Structure prediction by ZEFSAII (Michael W. Deem and Ramdas Pophale) SiO2 
 PCOD9063449
Probable space group: P -1
;
_chemical_formula_sum "Si O2"
_cell_formula_units_Z 16
_cell_length_a 21.732606
_cell_length_b 8.435488
_cell_length_c 6.469566
_cell_angle_alpha 58.893068
_cell_angle_beta 50.176041
_cell_angle_gamma 46.870828
_cell_volume 658.178738
_symmetry_space_group_name_H-M "P -1"
_symmetry_group_IT_number 2
_symmetry_cell_setting 'triclinic'
loop_
_space_group_symop_operation_xyz
x,y,z
-x,-y,-z
loop_
_atom_site_type_symbol
_atom_site_label
_atom_site_fract_x
_atom_site_fract_y
_atom_site_fract_z
Si Si1 0.022319 0.283966 0.216493
Si Si2 0.805898 0.973539 0.732198
Si Si3 0.688071 0.636370 0.813249
Si Si4 0.560288 0.757249 0.633121
Si Si5 0.912635 0.187794 0.193632
Si Si6 0.394538 0.576529 0.606789
Si Si7 0.626134 0.083057 0.861014
Si Si8 0.872172 0.513506 0.708343
O O1 0.966623 0.197262 0.271247
O O2 0.975052 0.362696 0.489932
O O3 0.133704 0.113687 0.128065
O O4 0.000000 0.500000 0.000000
O O5 0.843523 0.758528 0.652185
O O6 0.835477 0.130625 0.460406
O O7 0.694420 0.067271 0.909214
O O8 0.646484 0.714178 0.622317
O O9 0.798856 0.527635 0.686339
O O10 0.641076 0.852681 0.915271
O O11 0.659764 0.469386 0.069830
O O12 0.596082 0.574856 0.504706
O O13 0.500000 0.000000 0.500000
O O14 0.482502 0.756892 0.948738
O O15 0.866473 0.405077 0.005495
O O16 0.000000 0.000000 0.000000
O O17 0.500000 0.500000 0.500000
O O18 0.348122 0.820324 0.454416
#
# Coordination Sequence:
#
# PCOD9063449 Si02
#       8
#     2   2   2   2   2   2   2   2
#     4  12  24  44  72  97 135 181 221 272 335 397
#     4  11  24  44  68  99 134 175 222 276 334 396
#     4  11  25  45  69  98 136 175 221 278 333 393
#     4  12  24  44  72  97 135 181 221 272 335 397
#     4  12  24  44  71  96 134 178 223 276 335 390
#     4  12  24  44  71  96 134 178 223 276 335 390
#     4  11  24  44  68  99 134 175 222 276 334 396
#     4  11  25  45  69  98 136 175 221 278 333 393
#
# _framework density 24.309505999999999
#
# number of rings (size 3 to 8) (size 9 to 14) (size 15 to 20)
#    0.000    0.500    5.000    3.750    0.000    3.000 
#    0.000    1.250    0.000    0.000    0.000    0.000 
#    0.000    0.000    0.000    0.000    0.000    0.000 
#
# Total GULP energy -89639.271690 kJ/mol
# GULP energy per Si atom -5602.454481 kJ/mol
# Density = 2.425418 g / cm^3
# Si number density = 24.309506 Si / 1000 Ang^3
#
#
#
# Elastic Constant Matrix: (Units=GPa)
#
#
# Indices 1 2 3 4 5 6 
#
# 1 179.8669 8.0669 13.1695 -10.3915 8.4719 -16.4904
# 2 8.0669 41.4236 10.1284 -14.7594 0.5807 2.0114
# 3 13.1695 10.1284 67.7851 -38.1735 5.1560 4.4868
# 4 -10.3915 -14.7594 -38.1735 46.4862 0.9390 2.4911
# 5 8.4719 0.5807 5.1560 0.9390 31.1296 -7.7308
# 6 -16.4904 2.0114 4.4868 2.4911 -7.7308 44.3930
#
#
#
# Elastic Compliance Matrix: (Units=1/GPa)
#
#
# Indices 1 2 3 4 5 6 
#
# 1 0.005926 -0.000973 -0.001059 0.000046 -0.000875 0.002198
# 2 -0.000973 0.027726 0.002402 0.010739 -0.001658 -0.002752
# 3 -0.001059 0.002402 0.029964 0.025605 -0.007030 -0.006192
# 4 0.000046 0.010739 0.025605 0.046486 -0.007592 -0.006988
# 5 -0.000875 -0.001658 -0.007030 -0.007592 0.035543 0.007076
# 6 0.002198 -0.002752 -0.006192 -0.006988 0.007076 0.025717
#
#
# Mechanical properties :
#
#
# Convention : Reuss Voigt Hill
#
# Bulk Modulus (GPa) = 15.53846 39.08947 27.31396
# Shear Modulus (GPa) = 26.03160 41.58250 33.80705
#
# Velocity S-wave (km/s) = 3.27592 4.14036 3.73324
# Velocity P-wave (km/s) = 4.55134 6.24272 5.46289
#
# Compressibility (1/GPa) = 0.06435646
#
# Stress axis : x y z
#
# Youngs Moduli (GPa) = 168.74259 36.06697 33.37392
#
# Poissons Ratio (x) = 0.03510 0.03534
# Poissons Ratio (y) = 0.16422 -0.08017
# Poissons Ratio (z) = 0.17868 -0.08664
#
# Static dielectric constant tensor:
#      x y z
#    x 1.926890 -0.002790 0.021500 
#    y -0.002790 1.911410 -0.036060 
#    z 0.021500 -0.036060 1.958620 
# 
# From -- ./inp_files/52867.got.cif
#   From: 2010.05.17/outbox.cif.g08.bks.cpg/sg2_27_cif.got.tgz:52867.got - 2010.06.03 11:33:40.
