data_PCOD9063463
_publ_section_title
;
Structure prediction by ZEFSAII (Michael W. Deem and Ramdas Pophale) SiO2 
 PCOD9063463
Probable space group: P -1
;
_chemical_formula_sum "Si O2"
_cell_formula_units_Z 14
_cell_length_a 9.089826
_cell_length_b 13.142431
_cell_length_c 4.905646
_cell_angle_alpha 81.351522
_cell_angle_beta 81.251505
_cell_angle_gamma 79.078729
_cell_volume 564.252410
_symmetry_space_group_name_H-M "P -1"
_symmetry_group_IT_number 2
_symmetry_cell_setting 'triclinic'
loop_
_space_group_symop_operation_xyz
x,y,z
-x,-y,-z
loop_
_atom_site_type_symbol
_atom_site_label
_atom_site_fract_x
_atom_site_fract_y
_atom_site_fract_z
Si Si1 0.978383 0.132410 0.693934
Si Si2 0.643759 0.103025 0.912227
Si Si3 0.348852 0.466133 0.432491
Si Si4 0.650657 0.762217 0.258836
Si Si5 0.041227 0.244943 0.122413
Si Si6 0.844914 0.453705 0.054279
Si Si7 0.291144 0.029599 0.537373
O O1 0.802102 0.131168 0.752133
O O2 0.013645 0.227341 0.454166
O O3 0.110336 0.043264 0.583402
O O4 0.023401 0.143990 0.991767
O O5 0.506418 0.195934 0.864326
O O6 0.636793 0.001976 0.762258
O O7 0.655132 0.064294 0.232688
O O8 0.500000 0.500000 0.500000
O O9 0.357498 0.342630 0.530227
O O10 0.288339 0.496212 0.133361
O O11 0.218842 0.528426 0.633567
O O12 0.674718 0.860789 0.400566
O O13 0.792671 0.736501 0.020169
O O14 0.906668 0.333336 0.022579
O O15 0.000000 0.500000 0.000000
#
# Coordination Sequence:
#
# PCOD9063463 Si02
#       7
#     2   2   2   2   2   2   2
#     4  11  24  44  72 102 140 184 236 293 354 427
#     4  12  25  44  70 105 139 185 233 299 357 414
#     4  12  29  50  74 113 149 188 238 312 366 427
#     4  11  27  45  72 102 145 184 241 290 364 424
#     4  11  25  44  70 104 139 191 237 286 352 438
#     4  12  26  48  79 103 148 190 251 292 363 439
#     4  11  24  44  69 101 140 187 237 288 352 433
#
# _framework density 24.811593999999999
#
# number of rings (size 3 to 8) (size 9 to 14) (size 15 to 20)
#    0.000    0.571    1.429    6.000    8.000    4.571 
#    0.000    0.000    0.000    0.000    0.000    0.000 
#    0.000    0.000    0.000    0.000    0.000    0.000 
#
# Total GULP energy -78376.183959 kJ/mol
# GULP energy per Si atom -5598.298854 kJ/mol
# Density = 2.475512 g / cm^3
# Si number density = 24.811594 Si / 1000 Ang^3
#
#
#
# Elastic Constant Matrix: (Units=GPa)
#
#
# Indices 1 2 3 4 5 6 
#
# 1 132.3970 25.2938 -3.7283 -17.2969 -7.7412 -20.4232
# 2 25.2938 79.1110 14.7444 -10.2199 4.6527 -31.1918
# 3 -3.7283 14.7444 76.4016 -1.8500 16.1672 2.5018
# 4 -17.2969 -10.2199 -1.8500 41.1860 -10.7376 6.0279
# 5 -7.7412 4.6527 16.1672 -10.7376 41.5168 -6.0115
# 6 -20.4232 -31.1918 2.5018 6.0279 -6.0115 41.3770
#
#
#
# Elastic Compliance Matrix: (Units=1/GPa)
#
#
# Indices 1 2 3 4 5 6 
#
# 1 0.009014 -0.001203 -0.000054 0.003846 0.003334 0.003469
# 2 -0.001203 0.019897 -0.004781 0.002653 0.002212 0.014629
# 3 -0.000054 -0.004781 0.015563 -0.001474 -0.006687 -0.005329
# 4 0.003846 0.002653 -0.001474 0.028556 0.008534 0.001067
# 5 0.003334 0.002212 -0.006687 0.008534 0.030266 0.006871
# 6 0.003469 0.014629 -0.005329 0.001067 0.006871 0.038074
#
#
# Mechanical properties :
#
#
# Convention : Reuss Voigt Hill
#
# Bulk Modulus (GPa) = 30.86747 40.05882 35.46314
# Shear Modulus (GPa) = 30.44218 41.58928 36.01573
#
# Velocity S-wave (km/s) = 3.50656 4.09859 3.81408
# Velocity P-wave (km/s) = 5.37237 6.21113 5.80692
#
# Compressibility (1/GPa) = 0.03239657
#
# Stress axis : x y z
#
# Youngs Moduli (GPa) = 110.93928 50.25888 64.25601
#
# Poissons Ratio (x) = 0.06048 0.00346
# Poissons Ratio (y) = 0.13349 0.30724
# Poissons Ratio (z) = 0.00597 0.24031
#
# Static dielectric constant tensor:
#      x y z
#    x 2.010750 0.057670 0.016090 
#    y 0.057670 2.011700 -0.009700 
#    z 0.016090 -0.009700 1.893420 
# 
# From -- ./inp_files/34994.got.cif
#   From: 2010.05.17/outbox.cif.g08.bks.cpg/sg2_18_cif.got.tgz:34994.got - 2010.06.03 11:33:40.
