data_PCOD9063875
_publ_section_title
;
Structure prediction by ZEFSAII (Michael W. Deem and Ramdas Pophale) SiO2 
 PCOD9063875
Probable space group: P -1
;
_chemical_formula_sum "Si O2"
_cell_formula_units_Z 14
_cell_length_a 8.904909
_cell_length_b 5.078599
_cell_length_c 13.155591
_cell_angle_alpha 105.499623
_cell_angle_beta 96.557666
_cell_angle_gamma 81.036699
_cell_volume 564.668023
_symmetry_space_group_name_H-M "P -1"
_symmetry_group_IT_number 2
_symmetry_cell_setting 'triclinic'
loop_
_space_group_symop_operation_xyz
x,y,z
-x,-y,-z
loop_
_atom_site_type_symbol
_atom_site_label
_atom_site_fract_x
_atom_site_fract_y
_atom_site_fract_z
Si Si1 0.648372 0.704341 0.376994
Si Si2 0.826243 0.425386 0.990278
Si Si3 0.874007 0.934947 0.565462
Si Si4 0.800572 0.443314 0.764072
Si Si5 0.497115 0.191196 0.282086
Si Si6 0.933458 0.342544 0.277417
Si Si7 0.263446 0.979588 0.884375
O O1 0.570053 0.436903 0.370100
O O2 0.792104 0.576016 0.306474
O O3 0.726719 0.843828 0.489935
O O4 0.536481 0.918849 0.324422
O O5 0.770606 0.351997 0.866249
O O6 0.789148 0.192108 0.042029
O O7 0.000000 0.500000 0.000000
O O8 0.733405 0.710010 0.051299
O O9 0.823079 0.193781 0.660720
O O10 0.000000 0.000000 0.500000
O O11 0.965043 0.700951 0.618860
O O12 0.674106 0.683784 0.739930
O O13 0.957360 0.573657 0.791388
O O14 0.582745 0.140278 0.174756
O O15 0.865846 0.064996 0.214193
#
# Coordination Sequence:
#
# PCOD9063875 Si02
#       7
#     2   2   2   2   2   2   2
#     4  11  25  48  74  99 147 192 235 283 366 421
#     4  12  25  44  73 109 135 187 238 300 342 420
#     4  12  25  45  76 108 138 188 245 302 350 416
#     4  12  29  43  73 109 145 178 250 295 348 425
#     4  11  28  48  70 108 147 193 228 294 358 436
#     4  11  24  44  76 105 137 187 244 298 341 427
#     4  11  24  46  73  98 148 187 230 283 372 412
#
# _framework density 24.793327999999999
#
# number of rings (size 3 to 8) (size 9 to 14) (size 15 to 20)
#    0.000    0.571    2.857    5.143    6.000    2.286 
#    0.000    0.000    0.000    0.000    0.000    0.000 
#    0.000    0.000    0.000    0.000    0.000    0.000 
#
# Total GULP energy -78502.916396 kJ/mol
# GULP energy per Si atom -5607.351171 kJ/mol
# Density = 2.473690 g / cm^3
# Si number density = 24.793328 Si / 1000 Ang^3
#
#
#
# Elastic Constant Matrix: (Units=GPa)
#
#
# Indices 1 2 3 4 5 6 
#
# 1 67.5510 11.2162 13.9074 15.5204 -9.3489 -25.4593
# 2 11.2162 101.4017 29.9419 -0.2481 -3.5052 -20.0805
# 3 13.9074 29.9419 131.5296 7.5049 -0.5705 -17.2625
# 4 15.5204 -0.2481 7.5049 45.8394 0.2761 -1.1445
# 5 -9.3489 -3.5052 -0.5705 0.2761 20.1870 -3.7049
# 6 -25.4593 -20.0805 -17.2625 -1.1445 -3.7049 35.4950
#
#
#
# Elastic Compliance Matrix: (Units=1/GPa)
#
#
# Indices 1 2 3 4 5 6 
#
# 1 0.027192 0.001900 0.000177 -0.008775 0.017116 0.022168
# 2 0.001900 0.011859 -0.001878 -0.000108 0.004283 0.007602
# 3 0.000177 -0.001878 0.008517 -0.001387 0.000607 0.003225
# 4 -0.008775 -0.000108 -0.001387 0.024877 -0.005714 -0.006824
# 5 0.017116 0.004283 0.000607 -0.005714 0.062213 0.021305
# 6 0.022168 0.007602 0.003225 -0.006824 0.021305 0.051947
#
#
# Mechanical properties :
#
#
# Convention : Reuss Voigt Hill
#
# Bulk Modulus (GPa) = 20.84834 45.62370 33.23602
# Shear Modulus (GPa) = 24.72861 36.66539 30.69700
#
# Velocity S-wave (km/s) = 3.16157 3.84974 3.52250
# Velocity P-wave (km/s) = 4.66417 6.18080 5.47525
#
# Compressibility (1/GPa) = 0.04796545
#
# Stress axis : x y z
#
# Youngs Moduli (GPa) = 36.77592 84.32098 117.41543
#
# Poissons Ratio (x) = -0.16023 -0.02074
# Poissons Ratio (y) = -0.06989 0.22053
# Poissons Ratio (z) = -0.00650 0.15837
#
# Static dielectric constant tensor:
#      x y z
#    x 1.985610 0.019000 -0.024060 
#    y 0.019000 1.930550 -0.002810 
#    z -0.024060 -0.002810 1.980280 
# 
# From -- ./inp_files/101558.got.cif
#   From: 2010.05.17/outbox.cif.g08.bks.cpg/sg2_51_cif.got.tgz:101558.got - 2010.06.03 11:33:40.
