data_PCOD9063743
_publ_section_title
;
Structure prediction by ZEFSAII (Michael W. Deem and Ramdas Pophale) SiO2 
 PCOD9063743
Probable space group: P -1
;
_chemical_formula_sum "Si O2"
_cell_formula_units_Z 14
_cell_length_a 8.763139
_cell_length_b 9.935279
_cell_length_c 11.151430
_cell_angle_alpha 116.406049
_cell_angle_beta 101.972740
_cell_angle_gamma 119.357204
_cell_volume 635.451148
_symmetry_space_group_name_H-M "P -1"
_symmetry_group_IT_number 2
_symmetry_cell_setting 'triclinic'
loop_
_space_group_symop_operation_xyz
x,y,z
-x,-y,-z
loop_
_atom_site_type_symbol
_atom_site_label
_atom_site_fract_x
_atom_site_fract_y
_atom_site_fract_z
Si Si1 0.406961 0.091784 0.872571
Si Si2 0.395113 0.070706 0.442145
Si Si3 0.227472 0.163493 0.657270
Si Si4 0.932867 0.301697 0.193241
Si Si5 0.654586 0.459607 0.493912
Si Si6 0.848187 0.260943 0.906043
Si Si7 0.717246 0.464795 0.226749
O O1 0.269903 0.095895 0.756718
O O2 0.613206 0.165929 0.865102
O O3 0.263336 0.877632 0.829998
O O4 0.506036 0.256982 0.058756
O O5 0.188407 0.874943 0.264651
O O6 0.500000 0.000000 0.500000
O O7 0.367642 0.182687 0.581351
O O8 0.539754 0.234883 0.428713
O O9 0.263295 0.361722 0.762764
O O10 0.000000 0.000000 0.500000
O O11 0.900123 0.460065 0.233431
O O12 0.141308 0.394703 0.333324
O O13 0.927954 0.234508 0.030998
O O14 0.500000 0.500000 0.500000
O O15 0.714502 0.488567 0.377036
O O16 0.000000 0.500000 0.000000
#
# Coordination Sequence:
#
# PCOD9063743 Si02
#       7
#     2   2   2   2   2   2   2
#     4  11  24  47  72 102 140 186 236 281 340 419
#     4  12  25  45  72  98 142 182 231 290 344 413
#     4  12  27  43  67 105 140 184 233 280 348 411
#     4  11  25  46  76 101 137 188 235 280 346 418
#     4  12  25  46  69 106 140 176 233 292 347 405
#     4  11  24  44  73 106 135 178 237 287 345 406
#     4  11  24  45  71  99 139 182 230 286 343 414
#
# _framework density 22.031592
#
# number of rings (size 3 to 8) (size 9 to 14) (size 15 to 20)
#    0.000    0.571    2.857    6.000    6.000    0.000 
#    2.571    1.429    0.000    0.000    0.000    0.000 
#    0.000    0.000    0.000    0.000    0.000    0.000 
#
# Total GULP energy -78321.314619 kJ/mol
# GULP energy per Si atom -5594.379616 kJ/mol
# Density = 2.198145 g / cm^3
# Si number density = 22.031592 Si / 1000 Ang^3
#
#
#
# Elastic Constant Matrix: (Units=GPa)
#
#
# Indices 1 2 3 4 5 6 
#
# 1 65.9908 19.9053 33.1047 1.4544 12.5395 -11.4600
# 2 19.9053 123.6418 30.6576 -0.9280 8.4604 -2.2989
# 3 33.1047 30.6576 137.6030 -19.8955 19.9026 -14.7969
# 4 1.4544 -0.9280 -19.8955 54.3249 -0.7491 3.3441
# 5 12.5395 8.4604 19.9026 -0.7491 33.2119 1.6828
# 6 -11.4600 -2.2989 -14.7969 3.3441 1.6828 29.5417
#
#
#
# Elastic Compliance Matrix: (Units=1/GPa)
#
#
# Indices 1 2 3 4 5 6 
#
# 1 0.019464 -0.001892 -0.003108 -0.002159 -0.005377 0.006398
# 2 -0.001892 0.008800 -0.001552 -0.000329 -0.000566 -0.000757
# 3 -0.003108 -0.001552 0.009870 0.003395 -0.004446 0.003486
# 4 -0.002159 -0.000329 0.003395 0.019779 -0.000620 -0.001366
# 5 -0.005377 -0.000566 -0.004446 -0.000620 0.035253 -0.006295
# 6 0.006398 -0.000757 0.003486 -0.001366 -0.006295 0.038533
#
#
# Mechanical properties :
#
#
# Convention : Reuss Voigt Hill
#
# Bulk Modulus (GPa) = 39.95447 54.95231 47.45339
# Shear Modulus (GPa) = 32.64879 39.65356 36.15118
#
# Velocity S-wave (km/s) = 3.85373 4.24707 4.05517
# Velocity P-wave (km/s) = 6.16248 7.00334 6.59632
#
# Compressibility (1/GPa) = 0.02502849
#
# Stress axis : x y z
#
# Youngs Moduli (GPa) = 51.37772 113.64122 101.32149
#
# Poissons Ratio (x) = 0.21504 0.31486
# Poissons Ratio (y) = 0.09722 0.15729
# Poissons Ratio (z) = 0.15966 0.17642
#
# Static dielectric constant tensor:
#      x y z
#    x 1.884570 0.027810 -0.058760 
#    y 0.027810 1.800040 0.012910 
#    z -0.058760 0.012910 1.826530 
# 
# From -- ./inp_files/157900.got.cif
#   From: 2010.05.17/outbox.cif.g08.bks.cpg/sg2_79_cif.got.tgz:157900.got - 2010.06.03 11:33:40.
