data_PCOD9063412
_publ_section_title
;
Structure prediction by ZEFSAII (Michael W. Deem and Ramdas Pophale) SiO2 
 PCOD9063412
Probable space group: P -1
;
_chemical_formula_sum "Si O2"
_cell_formula_units_Z 16
_cell_length_a 6.293664
_cell_length_b 14.555051
_cell_length_c 11.618957
_cell_angle_alpha 124.493089
_cell_angle_beta 59.298848
_cell_angle_gamma 123.290313
_cell_volume 701.788673
_symmetry_space_group_name_H-M "P -1"
_symmetry_group_IT_number 2
_symmetry_cell_setting 'triclinic'
loop_
_space_group_symop_operation_xyz
x,y,z
-x,-y,-z
loop_
_atom_site_type_symbol
_atom_site_label
_atom_site_fract_x
_atom_site_fract_y
_atom_site_fract_z
Si Si1 0.449159 0.030929 0.165156
Si Si2 0.041265 0.741062 0.837771
Si Si3 0.628594 0.693340 0.088531
Si Si4 0.408368 0.887536 0.291692
Si Si5 0.923602 0.084948 0.404589
Si Si6 0.264405 0.472667 0.883953
Si Si7 0.255210 0.546767 0.686459
Si Si8 0.140891 0.340589 0.419809
O O1 0.707148 0.149581 0.200416
O O2 0.187280 0.060131 0.283447
O O3 0.426068 0.921741 0.177885
O O4 0.500000 0.000000 0.000000
O O5 0.125020 0.644223 0.815527
O O6 0.890179 0.675101 0.719041
O O7 0.865505 0.780808 0.005383
O O8 0.423024 0.758007 0.215775
O O9 0.729397 0.647025 0.141891
O O10 0.494091 0.580127 0.961570
O O11 0.157498 0.905404 0.433866
O O12 0.672089 0.982384 0.344708
O O13 0.967061 0.214648 0.432575
O O14 0.291670 0.480131 0.744211
O O15 0.000000 0.500000 0.000000
O O16 0.085335 0.449931 0.571878
O O17 0.547227 0.623614 0.612339
#
# Coordination Sequence:
#
# PCOD9063412 Si02
#       8
#     2   2   2   2   2   2   2   2
#     4  12  27  44  76 105 137 185 237 289 353 420
#     4  12  23  44  71 103 142 177 237 294 349 414
#     4  11  26  43  71 104 138 188 229 289 355 417
#     4  11  27  48  71  99 146 185 233 292 350 420
#     4  11  25  50  69 102 139 189 236 288 351 419
#     4  11  24  44  68 101 142 179 235 286 346 422
#     4  11  24  44  70 101 138 186 229 294 350 413
#     4  11  24  44  69 101 139 183 236 289 350 417
#
# _framework density 22.798887000000001
#
# number of rings (size 3 to 8) (size 9 to 14) (size 15 to 20)
#    0.000    0.750    5.000    1.500    5.250    2.000 
#    9.000    0.000    0.000    0.000    0.000    0.000 
#    0.000    0.000    0.000    0.000    0.000    0.000 
#
# Total GULP energy -89464.866335 kJ/mol
# GULP energy per Si atom -5591.554146 kJ/mol
# Density = 2.274700 g / cm^3
# Si number density = 22.798887 Si / 1000 Ang^3
#
#
#
# Elastic Constant Matrix: (Units=GPa)
#
#
# Indices 1 2 3 4 5 6 
#
# 1 49.6490 18.4755 28.8593 -7.3813 -0.3618 -12.0144
# 2 18.4755 70.1933 30.1038 -8.0804 8.4577 -12.2542
# 3 28.8593 30.1038 120.2443 -13.5021 -1.5472 -13.3503
# 4 -7.3813 -8.0804 -13.5021 37.8560 -1.7760 3.4658
# 5 -0.3618 8.4577 -1.5472 -1.7760 44.4340 -5.7645
# 6 -12.0144 -12.2542 -13.3503 3.4658 -5.7645 42.0727
#
#
#
# Elastic Compliance Matrix: (Units=1/GPa)
#
#
# Indices 1 2 3 4 5 6 
#
# 1 0.025661 -0.003971 -0.004360 0.002232 0.001527 0.004813
# 2 -0.003971 0.017576 -0.003042 0.001521 -0.003103 0.002470
# 3 -0.004360 -0.003042 0.010517 0.002197 0.001151 0.001183
# 4 0.002232 0.001521 0.002197 0.028038 0.000872 -0.000413
# 5 0.001527 -0.003103 0.001151 0.000872 0.023580 0.003056
# 6 0.004813 0.002470 0.001183 -0.000413 0.003056 0.026690
#
#
# Mechanical properties :
#
#
# Convention : Reuss Voigt Hill
#
# Bulk Modulus (GPa) = 32.24962 43.88485 38.06723
# Shear Modulus (GPa) = 30.27632 35.71574 32.99603
#
# Velocity S-wave (km/s) = 3.64809 3.96227 3.80842
# Velocity P-wave (km/s) = 5.64984 6.34218 6.00600
#
# Compressibility (1/GPa) = 0.03100812
#
# Stress axis : x y z
#
# Youngs Moduli (GPa) = 38.96952 56.89455 95.08105
#
# Poissons Ratio (x) = 0.22594 0.41455
# Poissons Ratio (y) = 0.15475 0.28926
# Poissons Ratio (z) = 0.16991 0.17309
#
# Static dielectric constant tensor:
#      x y z
#    x 1.855540 0.023640 -0.018460 
#    y 0.023640 1.858530 0.005120 
#    z -0.018460 0.005120 1.886330 
# 
# From -- ./inp_files/367915.got.cif
#   From: 2010.05.17/outbox.cif.g08.bks.cpg/sg2_184_cif.got.tgz:367915.got - 2010.06.03 11:33:40.
