data_PCOD9063630
_publ_section_title
;
Structure prediction by ZEFSAII (Michael W. Deem and Ramdas Pophale) SiO2 
 PCOD9063630
Probable space group: P -1
;
_chemical_formula_sum "Si O2"
_cell_formula_units_Z 16
_cell_length_a 11.912217
_cell_length_b 9.000806
_cell_length_c 17.098792
_cell_angle_alpha 48.524109
_cell_angle_beta 148.738755
_cell_angle_gamma 130.320226
_cell_volume 697.205902
_symmetry_space_group_name_H-M "P -1"
_symmetry_group_IT_number 2
_symmetry_cell_setting 'triclinic'
loop_
_space_group_symop_operation_xyz
x,y,z
-x,-y,-z
loop_
_atom_site_type_symbol
_atom_site_label
_atom_site_fract_x
_atom_site_fract_y
_atom_site_fract_z
Si Si1 0.722393 0.988266 0.590747
Si Si2 0.147289 0.160730 0.884635
Si Si3 0.399610 0.852930 0.143691
Si Si4 0.856521 0.504122 0.102255
Si Si5 0.020434 0.711598 0.478678
Si Si6 0.328605 0.473906 0.333456
Si Si7 0.838037 0.151531 0.330548
Si Si8 0.446322 0.273698 0.870987
O O1 0.716464 0.755025 0.645992
O O2 0.500000 0.000000 0.500000
O O3 0.789384 0.116464 0.506304
O O4 0.916681 0.102472 0.723053
O O5 0.153542 0.324797 0.898813
O O6 0.336239 0.237630 0.904320
O O7 0.190446 0.942656 0.013237
O O8 0.417691 0.634733 0.262627
O O9 0.416181 0.850785 0.059718
O O10 0.598633 0.014767 0.242438
O O11 0.843202 0.278714 0.210570
O O12 0.098143 0.535761 0.197625
O O13 0.637984 0.476359 0.927436
O O14 0.090214 0.682474 0.618320
O O15 0.000000 0.500000 0.500000
O O16 0.776254 0.754781 0.305186
O O17 0.500000 0.500000 0.500000
O O18 0.000000 0.000000 0.500000
#
# Coordination Sequence:
#
# PCOD9063630 Si02
#       8
#     2   2   2   2   2   2   2   2
#     4  11  25  46  72 101 146 186 233 295 360 421
#     4  11  25  45  73 108 139 187 238 300 357 416
#     4  12  26  43  74 103 146 185 242 286 361 430
#     4  12  26  46  74 102 150 183 237 298 359 419
#     4  11  25  42  71 108 139 182 244 293 353 420
#     4  12  28  49  69 103 146 193 235 291 359 427
#     4  12  23  42  71 104 135 190 236 289 349 420
#     4  11  24  44  71 109 143 182 233 305 354 419
#
# _framework density 22.948744000000001
#
# number of rings (size 3 to 8) (size 9 to 14) (size 15 to 20)
#    0.000    0.500    2.500    6.000    5.250    2.500 
#    0.000    0.000    0.000    0.000    0.000    0.000 
#    0.000    0.000    0.000    0.000    0.000    0.000 
#
# Total GULP energy -89288.767812 kJ/mol
# GULP energy per Si atom -5580.547988 kJ/mol
# Density = 2.289651 g / cm^3
# Si number density = 22.948744 Si / 1000 Ang^3
#
#
#
# Elastic Constant Matrix: (Units=GPa)
#
#
# Indices 1 2 3 4 5 6 
#
# 1 99.9324 45.3352 35.6071 6.5173 17.6848 -14.2352
# 2 45.3352 107.6058 12.2517 3.8672 1.6283 -20.8101
# 3 35.6071 12.2517 61.1910 18.8098 5.1698 3.1167
# 4 6.5173 3.8672 18.8098 52.6885 -1.1652 -7.2352
# 5 17.6848 1.6283 5.1698 -1.1652 39.1582 -2.8117
# 6 -14.2352 -20.8101 3.1167 -7.2352 -2.8117 53.9609
#
#
#
# Elastic Compliance Matrix: (Units=1/GPa)
#
#
# Indices 1 2 3 4 5 6 
#
# 1 0.017120 -0.005619 -0.009009 0.001760 -0.006056 0.002790
# 2 -0.005619 0.012220 0.000417 0.000157 0.002219 0.003343
# 3 -0.009009 0.000417 0.024242 -0.008210 0.000269 -0.004703
# 4 0.001760 0.000157 -0.008210 0.022265 0.001236 0.004049
# 5 -0.006056 0.002219 0.000269 0.001236 0.028245 0.000880
# 6 0.002790 0.003343 -0.004703 0.004049 0.000880 0.021418
#
#
# Mechanical properties :
#
#
# Convention : Reuss Voigt Hill
#
# Bulk Modulus (GPa) = 39.74530 50.56860 45.15695
# Shear Modulus (GPa) = 30.80366 40.86388 35.83377
#
# Velocity S-wave (km/s) = 3.66769 4.22436 3.95583
# Velocity P-wave (km/s) = 5.94077 6.77325 6.37062
#
# Compressibility (1/GPa) = 0.02516021
#
# Stress axis : x y z
#
# Youngs Moduli (GPa) = 58.41012 81.83009 41.25132
#
# Poissons Ratio (x) = 0.45982 0.37162
# Poissons Ratio (y) = 0.32822 -0.01720
# Poissons Ratio (z) = 0.52620 -0.03411
#
# Static dielectric constant tensor:
#      x y z
#    x 2.030620 -0.055880 -0.042780 
#    y -0.055880 1.874730 -0.114110 
#    z -0.042780 -0.114110 0.655270 
# 
# From -- ./inp_files/566591.got.cif
#   From: 2010.05.17/outbox.cif.g08.bks.cpg/sg2_284_cif.got.tgz:566591.got - 2010.06.03 11:33:40.
