data_PCOD9063521
_publ_section_title
;
Structure prediction by ZEFSAII (Michael W. Deem and Ramdas Pophale) SiO2 
 PCOD9063521
Probable space group: P -1
;
_chemical_formula_sum "Si O2"
_cell_formula_units_Z 16
_cell_length_a 25.442626
_cell_length_b 6.431062
_cell_length_c 12.570361
_cell_angle_alpha 44.601757
_cell_angle_beta 28.309240
_cell_angle_gamma 53.114398
_cell_volume 682.705875
_symmetry_space_group_name_H-M "P -1"
_symmetry_group_IT_number 2
_symmetry_cell_setting 'triclinic'
loop_
_space_group_symop_operation_xyz
x,y,z
-x,-y,-z
loop_
_atom_site_type_symbol
_atom_site_label
_atom_site_fract_x
_atom_site_fract_y
_atom_site_fract_z
Si Si1 0.188792 0.724326 0.001523
Si Si2 0.108396 0.329988 0.896164
Si Si3 0.248646 0.892333 0.389152
Si Si4 0.060086 0.306167 0.236700
Si Si5 0.635450 0.264007 0.966370
Si Si6 0.406903 0.071260 0.224287
Si Si7 0.555932 0.189574 0.515535
Si Si8 0.852973 0.521280 0.613694
O O1 0.320782 0.784231 0.763853
O O2 0.136179 0.998737 0.937039
O O3 0.159388 0.433694 0.089034
O O4 0.130410 0.658387 0.242492
O O5 0.203139 0.552748 0.595438
O O6 0.106222 0.310566 0.034736
O O7 0.000000 0.500000 0.000000
O O8 0.328853 0.918491 0.134516
O O9 0.297935 0.957169 0.394728
O O10 0.163083 0.144418 0.441406
O O11 0.957684 0.515014 0.352594
O O12 0.000000 0.000000 0.500000
O O13 0.592496 0.575806 0.892464
O O14 0.743122 0.363844 0.809802
O O15 0.535071 0.064394 0.273297
O O16 0.420535 0.908465 0.369567
O O17 0.500000 0.000000 0.000000
O O18 0.500000 0.500000 0.500000
#
# Coordination Sequence:
#
# PCOD9063521 Si02
#       8
#     2   2   2   2   2   2   2   2
#     4  12  28  47  72 108 146 189 242 296 362 427
#     4  12  27  45  75 111 142 184 237 307 359 423
#     4  11  24  44  74 104 144 185 245 293 353 427
#     4  12  27  48  75 102 143 189 237 297 369 427
#     4  11  25  46  73 106 144 198 235 289 362 427
#     4  11  24  44  70 101 139 194 238 282 352 423
#     4  12  27  45  73 107 151 188 243 296 351 432
#     4  11  26  45  76 105 141 193 242 293 359 436
#
# _framework density 23.436150999999999
#
# number of rings (size 3 to 8) (size 9 to 14) (size 15 to 20)
#    0.000    0.500    2.500    4.500    8.750    5.500 
#    0.000    0.000    0.000    0.000    0.000    0.000 
#    0.000    0.000    0.000    0.000    0.000    0.000 
#
# Total GULP energy -89486.355474 kJ/mol
# GULP energy per Si atom -5592.897217 kJ/mol
# Density = 2.338281 g / cm^3
# Si number density = 23.436151 Si / 1000 Ang^3
#
#
#
# Elastic Constant Matrix: (Units=GPa)
#
#
# Indices 1 2 3 4 5 6 
#
# 1 55.1868 -2.0385 -0.6120 -19.4840 -1.9551 -2.0363
# 2 -2.0385 108.4275 10.5090 -11.2150 0.2386 -20.9395
# 3 -0.6120 10.5090 93.2154 -7.2267 -11.9319 3.6856
# 4 -19.4840 -11.2150 -7.2267 48.1883 4.0429 6.0385
# 5 -1.9551 0.2386 -11.9319 4.0429 35.1139 -1.5388
# 6 -2.0363 -20.9395 3.6856 6.0385 -1.5388 38.8447
#
#
#
# Elastic Compliance Matrix: (Units=1/GPa)
#
#
# Indices 1 2 3 4 5 6 
#
# 1 0.021377 0.001335 0.000723 0.008979 0.000410 0.000392
# 2 0.001335 0.010680 -0.001306 0.002166 -0.000446 0.005597
# 3 0.000723 -0.001306 0.011555 0.001645 0.003704 -0.001871
# 4 0.008979 0.002166 0.001645 0.025626 -0.002019 -0.002581
# 5 0.000410 -0.000446 0.003704 -0.002019 0.030037 0.000933
# 6 0.000392 0.005597 -0.001871 -0.002581 0.000933 0.029397
#
#
# Mechanical properties :
#
#
# Convention : Reuss Voigt Hill
#
# Bulk Modulus (GPa) = 22.16434 30.28294 26.22364
# Shear Modulus (GPa) = 35.16017 41.02746 38.09382
#
# Velocity S-wave (km/s) = 3.87751 4.18856 4.03604
# Velocity P-wave (km/s) = 5.43366 6.02840 5.73874
#
# Compressibility (1/GPa) = 0.04511752
#
# Stress axis : x y z
#
# Youngs Moduli (GPa) = 46.77992 93.63052 86.53889
#
# Poissons Ratio (x) = -0.12503 -0.06256
# Poissons Ratio (y) = -0.06247 0.11300
# Poissons Ratio (z) = -0.03382 0.12226
#
# Static dielectric constant tensor:
#      x y z
#    x 1.917790 -0.038710 -0.077260 
#    y -0.038710 2.189840 -0.028050 
#    z -0.077260 -0.028050 1.874220 
# 
# From -- ./inp_files/112934.got.cif
#   From: 2010.05.17/outbox.cif.g08.bks.cpg/sg2_57_cif.got.tgz:112934.got - 2010.06.03 11:33:40.
