data_PCOD9063711
_publ_section_title
;
Structure prediction by ZEFSAII (Michael W. Deem and Ramdas Pophale) SiO2 
 PCOD9063711
Probable space group: P -1
;
_chemical_formula_sum "Si O2"
_cell_formula_units_Z 12
_cell_length_a 10.054279
_cell_length_b 6.452406
_cell_length_c 12.517284
_cell_angle_alpha 133.255358
_cell_angle_beta 100.280562
_cell_angle_gamma 98.201588
_cell_volume 540.691470
_symmetry_space_group_name_H-M "P -1"
_symmetry_group_IT_number 2
_symmetry_cell_setting 'triclinic'
loop_
_space_group_symop_operation_xyz
x,y,z
-x,-y,-z
loop_
_atom_site_type_symbol
_atom_site_label
_atom_site_fract_x
_atom_site_fract_y
_atom_site_fract_z
Si Si1 0.313723 0.245143 0.648963
Si Si2 0.746911 0.144795 0.106766
Si Si3 0.328194 0.333926 0.441533
Si Si4 0.154810 0.763892 0.613823
Si Si5 0.582493 0.482166 0.896463
Si Si6 0.159387 0.736516 0.073622
O O1 0.306925 0.174364 0.498579
O O2 0.313097 0.585685 0.785718
O O3 0.461998 0.241596 0.720322
O O4 0.180056 0.024703 0.621846
O O5 0.819590 0.113849 0.218574
O O6 0.839286 0.231120 0.042981
O O7 0.774276 0.921475 0.744931
O O8 0.630260 0.804984 0.956556
O O9 0.500000 0.500000 0.500000
O O10 0.266288 0.602317 0.541238
O O11 0.000000 0.500000 0.500000
O O12 0.500000 0.500000 0.000000
O O13 0.719074 0.396784 0.917553
O O14 0.000000 0.500000 0.000000
#
# Coordination Sequence:
#
# PCOD9063711 Si02
#       6
#     2   2   2   2   2   2
#     4  11  24  45  75 103 135 183 239 284 335 417
#     4  11  24  44  73 101 140 178 237 284 342 415
#     4  11  27  46  70 104 145 179 230 294 346 406
#     4  11  26  44  73  99 136 190 235 274 346 419
#     4  12  23  43  76 102 134 182 236 277 346 417
#     4  12  29  45  68 107 148 178 227 294 358 403
#
# _framework density 22.193805999999999
#
# number of rings (size 3 to 8) (size 9 to 14) (size 15 to 20)
#    0.000    0.667    3.333    2.500    9.333    6.000 
#    0.000    0.000    0.000    0.000    0.000    0.000 
#    0.000    0.000    0.000    0.000    0.000    0.000 
#
# Total GULP energy -67089.185938 kJ/mol
# GULP energy per Si atom -5590.765495 kJ/mol
# Density = 2.214329 g / cm^3
# Si number density = 22.193806 Si / 1000 Ang^3
#
#
#
# Elastic Constant Matrix: (Units=GPa)
#
#
# Indices 1 2 3 4 5 6 
#
# 1 61.5448 29.0823 13.6467 -2.4316 -4.4052 36.4350
# 2 29.0823 117.1044 11.7126 1.3998 -7.5081 34.4794
# 3 13.6467 11.7126 103.1497 -1.5738 -16.0374 21.5248
# 4 -2.4316 1.3998 -1.5738 36.1633 11.7445 -0.9878
# 5 -4.4052 -7.5081 -16.0374 11.7445 29.6393 4.5373
# 6 36.4350 34.4794 21.5248 -0.9878 4.5373 42.0578
#
#
#
# Elastic Compliance Matrix: (Units=1/GPa)
#
#
# Indices 1 2 3 4 5 6 
#
# 1 0.039104 0.003072 0.005797 -0.004112 0.017689 -0.041366
# 2 0.003072 0.012674 0.002712 -0.003473 0.008880 -0.015479
# 3 0.005797 0.002712 0.013885 -0.003758 0.012976 -0.015840
# 4 -0.004112 -0.003473 -0.003758 0.033683 -0.018574 0.011127
# 5 0.017689 0.008880 0.012976 -0.018574 0.058508 -0.035993
# 6 -0.041366 -0.015479 -0.015840 0.011127 -0.035993 0.084553
#
#
# Mechanical properties :
#
#
# Convention : Reuss Voigt Hill
#
# Bulk Modulus (GPa) = 11.25805 43.40914 27.33360
# Shear Modulus (GPa) = 20.09214 36.72921 28.41067
#
# Velocity S-wave (km/s) = 3.01209 4.07250 3.58175
# Velocity P-wave (km/s) = 4.14494 6.45873 5.42659
#
# Compressibility (1/GPa) = 0.08882529
#
# Stress axis : x y z
#
# Youngs Moduli (GPa) = 25.57267 78.90465 72.01911
#
# Poissons Ratio (x) = -0.24237 -0.41752
# Poissons Ratio (y) = -0.07855 -0.19533
# Poissons Ratio (z) = -0.14825 -0.21400
#
# Static dielectric constant tensor:
#      x y z
#    x 1.820350 -0.009250 0.031170 
#    y -0.009250 1.847840 0.018690 
#    z 0.031170 0.018690 1.885790 
# 
# From -- ./inp_files/24935.got.cif
#   From: 2010.05.17/outbox.cif.g08.bks.cpg/sg2_13_cif.got.tgz:24935.got - 2010.06.03 11:33:40.
