data_PCOD9063040
_publ_section_title
;
Structure prediction by ZEFSAII (Michael W. Deem and Ramdas Pophale) SiO2 
 PCOD9063040
Probable space group: P -1
;
_chemical_formula_sum "Si O2"
_cell_formula_units_Z 15
_cell_length_a 9.800343
_cell_length_b 9.992608
_cell_length_c 11.775102
_cell_angle_alpha 59.492160
_cell_angle_beta 75.542379
_cell_angle_gamma 120.316596
_cell_volume 628.648385
_symmetry_space_group_name_H-M "P -1"
_symmetry_group_IT_number 2
_symmetry_cell_setting 'triclinic'
loop_
_space_group_symop_operation_xyz
x,y,z
-x,-y,-z
loop_
_atom_site_type_symbol
_atom_site_label
_atom_site_fract_x
_atom_site_fract_y
_atom_site_fract_z
Si Si1 0.026591 0.004751 0.746975
Si Si2 0.913082 0.682047 0.246595
Si Si3 0.000000 0.500000 0.500000
Si Si4 0.507226 0.936770 0.843079
Si Si5 0.087352 0.722419 0.953273
Si Si6 0.700486 0.358860 0.753395
Si Si7 0.358792 0.265079 0.207618
Si Si8 0.467905 0.460140 0.352671
O O1 0.951102 0.060525 0.837938
O O2 0.274459 0.250803 0.565716
O O3 0.884120 0.909913 0.706486
O O4 0.010589 0.814263 0.869522
O O5 0.015786 0.685379 0.114421
O O6 0.690741 0.573677 0.297766
O O7 0.897635 0.544127 0.408429
O O8 0.049890 0.407133 0.420044
O O9 0.574421 0.852147 0.788723
O O10 0.704486 0.205239 0.735704
O O11 0.386570 0.766607 0.053041
O O12 0.344206 0.914137 0.823385
O O13 0.000000 0.500000 0.000000
O O14 0.548714 0.367413 0.735009
O O15 0.408265 0.343326 0.292463
O O16 0.500000 0.500000 0.000000
#
# Coordination Sequence:
#
# PCOD9063040 Si02
#       8
#     2   2   1   2   2   2   2   2
#     4  12  27  47  74 109 144 194 251 301 367 437
#     4  12  26  48  77 108 146 193 244 306 362 444
#     4  12  24  44  72 112 142 178 242 308 364 410
#     4  11  24  43  69 106 138 194 238 292 359 431
#     4  12  27  47  70 104 148 192 240 300 363 437
#     4  11  24  43  74 101 144 183 243 299 356 429
#     4  12  25  47  73 105 149 196 242 299 367 439
#     4  12  26  48  73 108 149 194 241 309 368 435
#
# _framework density 23.860716
#
# number of rings (size 3 to 8) (size 9 to 14) (size 15 to 20)
#    0.000    0.267    4.000    5.200    3.733    0.000 
#    4.800    1.333    0.000    0.000    0.000    0.000 
#    0.000    0.000    0.000    0.000    0.000    0.000 
#
# Total GULP energy -83852.416434 kJ/mol
# GULP energy per Si atom -5590.161096 kJ/mol
# Density = 2.380641 g / cm^3
# Si number density = 23.860716 Si / 1000 Ang^3
#
#
#
# Elastic Constant Matrix: (Units=GPa)
#
#
# Indices 1 2 3 4 5 6 
#
# 1 191.3822 47.7329 26.0145 6.7864 10.9097 -3.7855
# 2 47.7329 154.9013 31.0281 20.3754 15.6803 -10.4024
# 3 26.0145 31.0281 69.1035 16.3555 6.9321 -13.0238
# 4 6.7864 20.3754 16.3555 32.6418 4.9292 -2.9655
# 5 10.9097 15.6803 6.9321 4.9292 37.1725 -7.1466
# 6 -3.7855 -10.4024 -13.0238 -2.9655 -7.1466 45.3468
#
#
#
# Elastic Compliance Matrix: (Units=1/GPa)
#
#
# Indices 1 2 3 4 5 6 
#
# 1 0.005846 -0.001485 -0.001677 0.000655 -0.000948 -0.000441
# 2 -0.001485 0.007983 -0.001912 -0.003356 -0.002010 0.000622
# 3 -0.001677 -0.001912 0.018518 -0.007297 -0.000379 0.004203
# 4 0.000655 -0.003356 -0.007297 0.036543 -0.002416 -0.000802
# 5 -0.000948 -0.002010 -0.000379 -0.002416 0.029147 0.003786
# 6 -0.000441 0.000622 0.004203 -0.000802 0.003786 0.023909
#
#
# Mechanical properties :
#
#
# Convention : Reuss Voigt Hill
#
# Bulk Modulus (GPa) = 45.04796 69.43756 57.24276
# Shear Modulus (GPa) = 35.84393 43.73968 39.79180
#
# Velocity S-wave (km/s) = 3.88005 4.28615 4.08814
# Velocity P-wave (km/s) = 6.24448 7.32524 6.80635
#
# Compressibility (1/GPa) = 0.02219856
#
# Stress axis : x y z
#
# Youngs Moduli (GPa) = 171.06876 125.26364 54.00115
#
# Poissons Ratio (x) = 0.18605 0.09055
# Poissons Ratio (y) = 0.25408 0.10326
# Poissons Ratio (z) = 0.28684 0.23952
#
# Static dielectric constant tensor:
#      x y z
#    x 1.900920 0.002040 -0.089900 
#    y 0.002040 1.953960 -0.039780 
#    z -0.089900 -0.039780 2.135830 
# 
# From -- ./inp_files/381320.got.cif
#   From: 2010.05.17/outbox.cif.g08.bks.cpg/sg2_191_cif.got.tgz:381320.got - 2010.06.03 11:33:40.
