data_PCOD9063236
_publ_section_title
;
Structure prediction by ZEFSAII (Michael W. Deem and Ramdas Pophale) SiO2 
 PCOD9063236
Probable space group: P -1
;
_chemical_formula_sum "Si O2"
_cell_formula_units_Z 14
_cell_length_a 9.536815
_cell_length_b 11.912231
_cell_length_c 9.490322
_cell_angle_alpha 121.512056
_cell_angle_beta 43.209167
_cell_angle_gamma 102.154303
_cell_volume 601.891986
_symmetry_space_group_name_H-M "P -1"
_symmetry_group_IT_number 2
_symmetry_cell_setting 'triclinic'
loop_
_space_group_symop_operation_xyz
x,y,z
-x,-y,-z
loop_
_atom_site_type_symbol
_atom_site_label
_atom_site_fract_x
_atom_site_fract_y
_atom_site_fract_z
Si Si1 0.077578 0.804629 0.581786
Si Si2 0.664131 0.863218 0.474888
Si Si3 0.161174 0.376595 0.214498
Si Si4 0.635922 0.320182 0.958074
Si Si5 0.782388 0.561816 0.113980
Si Si6 0.270739 0.988328 0.207853
Si Si7 0.772359 0.010458 0.237338
O O1 0.193560 0.697753 0.306586
O O2 0.938917 0.746683 0.754786
O O3 0.914861 0.936761 0.714198
O O4 0.266267 0.852385 0.547692
O O5 0.777118 0.918230 0.554583
O O6 0.765244 0.891843 0.272404
O O7 0.420596 0.960278 0.710423
O O8 0.669168 0.705202 0.369857
O O9 0.170089 0.405297 0.061118
O O10 0.000000 0.500000 0.500000
O O11 0.398754 0.347563 0.086261
O O12 0.655206 0.447741 0.121382
O O13 0.701087 0.171761 0.889352
O O14 0.000000 0.500000 0.000000
O O15 0.500000 0.000000 0.000000
O O16 0.000000 0.000000 0.000000
#
# Coordination Sequence:
#
# PCOD9063236 Si02
#       7
#     2   2   2   2   2   2   2
#     4  12  24  45  77 105 143 190 251 298 359 437
#     4  11  26  46  69 106 149 182 242 305 364 427
#     4  12  27  48  76 108 147 197 254 294 362 458
#     4  12  26  49  77 103 148 202 240 301 370 436
#     4  12  28  49  76 107 154 194 237 307 376 428
#     4  12  25  48  77 109 143 191 251 302 359 438
#     4  11  24  43  73 104 142 189 237 304 368 425
#
# _framework density 23.259988
#
# number of rings (size 3 to 8) (size 9 to 14) (size 15 to 20)
#    0.000    0.286    4.286    4.286    6.000    0.000 
#    2.571    1.429    0.000    0.000    0.000    0.000 
#    0.000    0.000    0.000    0.000    0.000    0.000 
#
# Total GULP energy -78396.641349 kJ/mol
# GULP energy per Si atom -5599.760096 kJ/mol
# Density = 2.320705 g / cm^3
# Si number density = 23.259988 Si / 1000 Ang^3
#
#
#
# Elastic Constant Matrix: (Units=GPa)
#
#
# Indices 1 2 3 4 5 6 
#
# 1 116.3317 49.1012 -3.4319 -0.8201 -5.8510 -7.1268
# 2 49.1012 146.6036 31.1612 12.1847 12.2272 19.8599
# 3 -3.4319 31.1612 76.3030 0.1333 -11.4188 -2.8789
# 4 -0.8201 12.1847 0.1333 39.5591 16.5614 -0.4592
# 5 -5.8510 12.2272 -11.4188 16.5614 36.3954 2.6812
# 6 -7.1268 19.8599 -2.8789 -0.4592 2.6812 39.0314
#
#
#
# Elastic Compliance Matrix: (Units=1/GPa)
#
#
# Indices 1 2 3 4 5 6 
#
# 1 0.011693 -0.005795 0.003765 0.000164 0.004561 0.005050
# 2 -0.005795 0.011593 -0.006092 -0.001419 -0.005574 -0.007040
# 3 0.003765 -0.006092 0.017197 -0.001585 0.008441 0.004457
# 4 0.000164 -0.001419 -0.001585 0.031881 -0.014650 0.002016
# 5 0.004561 -0.005574 0.008441 -0.014650 0.039292 0.001420
# 6 0.005050 -0.007040 0.004457 0.002016 0.001420 0.030380
#
#
# Mechanical properties :
#
#
# Convention : Reuss Voigt Hill
#
# Bulk Modulus (GPa) = 41.25461 54.76657 48.01059
# Shear Modulus (GPa) = 30.05539 40.49103 35.27321
#
# Velocity S-wave (km/s) = 3.59855 4.17682 3.89842
# Velocity P-wave (km/s) = 5.91953 6.84526 6.39916
#
# Compressibility (1/GPa) = 0.02423971
#
# Stress axis : x y z
#
# Youngs Moduli (GPa) = 85.52170 86.25636 58.14915
#
# Poissons Ratio (x) = 0.49983 -0.21895
# Poissons Ratio (y) = 0.49557 0.35427
# Poissons Ratio (z) = -0.32201 0.52551
#
# Static dielectric constant tensor:
#      x y z
#    x 1.839260 0.016550 0.075480 
#    y 0.016550 1.906130 0.037190 
#    z 0.075480 0.037190 1.936430 
# 
# From -- ./inp_files/189648.got.cif
#   From: 2010.05.17/outbox.cif.g08.bks.cpg/sg2_95_cif.got.tgz:189648.got - 2010.06.03 11:33:40.
