data_PCOD9063348
_publ_section_title
;
Structure prediction by ZEFSAII (Michael W. Deem and Ramdas Pophale) SiO2 
 PCOD9063348
Probable space group: P -1
;
_chemical_formula_sum "Si O2"
_cell_formula_units_Z 12
_cell_length_a 22.373799
_cell_length_b 22.486231
_cell_length_c 7.972393
_cell_angle_alpha 146.804288
_cell_angle_beta 33.368965
_cell_angle_gamma 166.765415
_cell_volume 495.932872
_symmetry_space_group_name_H-M "P -1"
_symmetry_group_IT_number 2
_symmetry_cell_setting 'triclinic'
loop_
_space_group_symop_operation_xyz
x,y,z
-x,-y,-z
loop_
_atom_site_type_symbol
_atom_site_label
_atom_site_fract_x
_atom_site_fract_y
_atom_site_fract_z
Si Si1 0.249389 0.739748 0.859005
Si Si2 0.887796 0.063513 0.886703
Si Si3 0.384220 0.001446 0.860849
Si Si4 0.628919 0.389851 0.778634
Si Si5 0.687169 0.461590 0.414879
Si Si6 0.882830 0.974453 0.349856
O O1 0.221451 0.806071 0.940093
O O2 0.310249 0.680453 0.488182
O O3 0.000000 0.500000 0.000000
O O4 0.500000 0.000000 0.000000
O O5 0.913372 0.991440 0.518939
O O6 0.773031 0.064378 0.054453
O O7 0.164839 0.347917 0.987985
O O8 0.665820 0.845172 0.033299
O O9 0.500000 0.000000 0.500000
O O10 0.618209 0.288976 0.069190
O O11 0.677217 0.437737 0.580577
O O12 0.949469 0.764045 0.464682
O O13 0.429386 0.299437 0.593234
O O14 0.000000 0.000000 0.000000
#
# Coordination Sequence:
#
# PCOD9063348 Si02
#       6
#     2   2   2   2   2   2
#     4  12  26  40  63  93 140 186 224 258 320 393
#     4  11  25  42  68  97 133 173 224 275 324 390
#     4  11  24  44  64 102 137 185 225 266 322 394
#     4  12  24  43  63 100 139 172 217 276 324 390
#     4  11  25  44  71  99 135 176 220 273 338 397
#     4  11  25  49  73  98 129 172 223 281 340 400
#
# _framework density 24.196822999999998
#
# number of rings (size 3 to 8) (size 9 to 14) (size 15 to 20)
#    0.000    0.667    3.333    4.500    4.667    2.000 
#    0.000    5.000    0.000    0.000    0.000    0.000 
#    0.000    0.000    0.000    0.000    0.000    0.000 
#
# Total GULP energy -67233.267846 kJ/mol
# GULP energy per Si atom -5602.772321 kJ/mol
# Density = 2.414175 g / cm^3
# Si number density = 24.196823 Si / 1000 Ang^3
#
#
#
# Elastic Constant Matrix: (Units=GPa)
#
#
# Indices 1 2 3 4 5 6 
#
# 1 53.4807 -5.0077 -10.8230 9.0253 20.6901 -7.5608
# 2 -5.0077 70.2459 2.6515 -6.5763 -3.3029 -18.3479
# 3 -10.8230 2.6515 153.4757 -5.2550 11.2873 2.9142
# 4 9.0253 -6.5763 -5.2550 39.7776 1.3058 13.1935
# 5 20.6901 -3.3029 11.2873 1.3058 22.6314 -2.8351
# 6 -7.5608 -18.3479 2.9142 13.1935 -2.8351 41.2384
#
#
#
# Elastic Compliance Matrix: (Units=1/GPa)
#
#
# Indices 1 2 3 4 5 6 
#
# 1 0.034656 0.001937 0.004350 -0.008357 -0.032164 0.007371
# 2 0.001937 0.016532 -0.000459 -0.000493 0.001906 0.008032
# 3 0.004350 -0.000459 0.007431 0.000372 -0.007845 -0.000590
# 4 -0.008357 -0.000493 0.000372 0.030607 0.004203 -0.011281
# 5 -0.032164 0.001906 -0.007845 0.004203 0.077476 -0.000513
# 6 0.007371 0.008032 -0.000590 -0.011281 -0.000513 0.032790
#
#
# Mechanical properties :
#
#
# Convention : Reuss Voigt Hill
#
# Bulk Modulus (GPa) = 14.22970 27.87156 21.05063
# Shear Modulus (GPa) = 23.66733 40.08824 31.87779
#
# Velocity S-wave (km/s) = 3.13088 4.07474 3.63359
# Velocity P-wave (km/s) = 4.35471 5.80360 5.13056
#
# Compressibility (1/GPa) = 0.07027555
#
# Stress axis : x y z
#
# Youngs Moduli (GPa) = 28.85529 60.48722 134.56606
#
# Poissons Ratio (x) = -0.11715 -0.58534
# Poissons Ratio (y) = -0.05589 0.06171
# Poissons Ratio (z) = -0.12552 0.02774
#
# Static dielectric constant tensor:
#      x y z
#    x 1.986270 -0.028120 -0.033450 
#    y -0.028120 1.854320 -0.037910 
#    z -0.033450 -0.037910 1.952190 
# 
# From -- ./inp_files/46123.got.cif
#   From: 2010.05.17/outbox.cif.g08.bks.cpg/sg2_24_cif.got.tgz:46123.got - 2010.06.03 11:33:40.
