data_PCOD9063480
_publ_section_title
;
Structure prediction by ZEFSAII (Michael W. Deem and Ramdas Pophale) SiO2 
 PCOD9063480
Probable space group: P -1
;
_chemical_formula_sum "Si O2"
_cell_formula_units_Z 16
_cell_length_a 17.674215
_cell_length_b 6.133362
_cell_length_c 8.895429
_cell_angle_alpha 100.560682
_cell_angle_beta 121.507139
_cell_angle_gamma 61.187997
_cell_volume 717.308838
_symmetry_space_group_name_H-M "P -1"
_symmetry_group_IT_number 2
_symmetry_cell_setting 'triclinic'
loop_
_space_group_symop_operation_xyz
x,y,z
-x,-y,-z
loop_
_atom_site_type_symbol
_atom_site_label
_atom_site_fract_x
_atom_site_fract_y
_atom_site_fract_z
Si Si1 0.453035 0.803488 0.447061
Si Si2 0.695880 0.753418 0.479603
Si Si3 0.785120 0.317199 0.734898
Si Si4 0.610953 0.777574 0.085669
Si Si5 0.668972 0.300448 0.905346
Si Si6 0.126495 0.164045 0.429273
Si Si7 0.058602 0.562080 0.938274
Si Si8 0.795440 0.869947 0.176464
O O1 0.500000 0.500000 0.500000
O O2 0.404132 0.811774 0.234416
O O3 0.500000 0.000000 0.500000
O O4 0.371392 0.957099 0.509763
O O5 0.713704 0.584130 0.622443
O O6 0.643445 0.687175 0.279447
O O7 0.806251 0.706992 0.540842
O O8 0.727705 0.281813 0.811281
O O9 0.815570 0.115393 0.609745
O O10 0.886690 0.298402 0.906864
O O11 0.700024 0.839088 0.131674
O O12 0.610986 0.574808 0.944907
O O13 0.500000 0.000000 0.000000
O O14 0.748833 0.143900 0.093863
O O15 0.130791 0.168610 0.613524
O O16 0.019486 0.290313 0.255159
O O17 0.146552 0.320158 0.920723
O O18 0.000000 0.500000 0.000000
#
# Coordination Sequence:
#
# PCOD9063480 Si02
#       8
#     2   2   2   2   2   2   2   2
#     4  12  27  45  75 108 146 195 258 320 378 451
#     4  11  24  45  69 102 148 188 246 306 374 441
#     4  12  23  45  74 103 145 192 247 308 374 443
#     4  11  26  47  72 101 146 196 246 302 377 448
#     4  12  25  46  73 103 145 195 245 312 378 445
#     4  11  24  44  69 105 142 191 236 305 372 449
#     4  12  23  45  74 105 142 189 248 307 374 452
#     4  11  26  46  70 103 149 186 243 305 375 448
#
# _framework density 22.305596000000001
#
# number of rings (size 3 to 8) (size 9 to 14) (size 15 to 20)
#    0.000    0.500    3.750    4.500    3.500    0.500 
#    0.000    1.250    0.000    0.000    0.000    0.000 
#    0.000    0.000    0.000    0.000    0.000    0.000 
#
# Total GULP energy -89409.685430 kJ/mol
# GULP energy per Si atom -5588.105339 kJ/mol
# Density = 2.225483 g / cm^3
# Si number density = 22.305596 Si / 1000 Ang^3
#
#
#
# Elastic Constant Matrix: (Units=GPa)
#
#
# Indices 1 2 3 4 5 6 
#
# 1 77.7892 19.2393 28.2763 -1.1619 4.4648 -0.4324
# 2 19.2393 67.5885 4.9570 -1.7773 -1.2910 -2.9504
# 3 28.2763 4.9570 121.7678 4.3735 5.2142 18.2007
# 4 -1.1619 -1.7773 4.3735 49.9877 0.5549 -0.0511
# 5 4.4648 -1.2910 5.2142 0.5549 37.8026 2.8520
# 6 -0.4324 -2.9504 18.2007 -0.0511 2.8520 31.9264
#
#
#
# Elastic Compliance Matrix: (Units=1/GPa)
#
#
# Indices 1 2 3 4 5 6 
#
# 1 0.015283 -0.004009 -0.003645 0.000551 -0.001603 0.002058
# 2 -0.004009 0.016023 0.000024 0.000466 0.000910 0.001332
# 3 -0.003645 0.000024 0.009963 -0.000956 -0.000500 -0.005684
# 4 0.000551 0.000466 -0.000956 0.020121 -0.000262 0.000651
# 5 -0.001603 0.000910 -0.000500 -0.000262 0.026901 -0.002056
# 6 0.002058 0.001332 -0.005684 0.000651 -0.002056 0.034898
#
#
# Mechanical properties :
#
#
# Convention : Reuss Voigt Hill
#
# Bulk Modulus (GPa) = 38.44831 41.34339 39.89585
# Shear Modulus (GPa) = 33.98588 38.25488 36.12038
#
# Velocity S-wave (km/s) = 3.90763 4.14579 4.02847
# Velocity P-wave (km/s) = 6.13465 6.44143 6.28991
#
# Compressibility (1/GPa) = 0.02600894
#
# Stress axis : x y z
#
# Youngs Moduli (GPa) = 65.43051 62.41129 100.37120
#
# Poissons Ratio (x) = 0.25023 0.36582
# Poissons Ratio (y) = 0.26234 -0.00241
# Poissons Ratio (z) = 0.23847 -0.00150
#
# Static dielectric constant tensor:
#      x y z
#    x 2.127090 -0.349350 0.093890 
#    y -0.349350 2.344790 -0.110950 
#    z 0.093890 -0.110950 1.831050 
# 
# From -- ./inp_files/85039.got.cif
#   From: 2010.05.17/outbox.cif.g08.bks.cpg/sg2_43_cif.got.tgz:85039.got - 2010.06.03 11:33:40.
