data_PCOD9063696
_publ_section_title
;
Structure prediction by ZEFSAII (Michael W. Deem and Ramdas Pophale) SiO2 
 PCOD9063696
Probable space group: P -1
;
_chemical_formula_sum "Si O2"
_cell_formula_units_Z 16
_cell_length_a 9.084417
_cell_length_b 17.536716
_cell_length_c 11.113140
_cell_angle_alpha 137.119006
_cell_angle_beta 104.433316
_cell_angle_gamma 45.591523
_cell_volume 723.209835
_symmetry_space_group_name_H-M "P -1"
_symmetry_group_IT_number 2
_symmetry_cell_setting 'triclinic'
loop_
_space_group_symop_operation_xyz
x,y,z
-x,-y,-z
loop_
_atom_site_type_symbol
_atom_site_label
_atom_site_fract_x
_atom_site_fract_y
_atom_site_fract_z
Si Si1 0.428209 0.911454 0.407902
Si Si2 0.893062 0.521289 0.130844
Si Si3 0.006727 0.789948 0.165768
Si Si4 0.880128 0.074296 0.191199
Si Si5 0.961842 0.585331 0.463187
Si Si6 0.646123 0.256957 0.948520
Si Si7 0.579888 0.044653 0.168198
Si Si8 0.314597 0.572686 0.441229
O O1 0.629517 0.732936 0.323536
O O2 0.428772 0.826087 0.196763
O O3 0.500000 0.000000 0.500000
O O4 0.165898 0.061103 0.592440
O O5 0.026689 0.478110 0.232135
O O6 0.000000 0.500000 0.000000
O O7 0.895145 0.387012 0.977532
O O8 0.248855 0.724776 0.115157
O O9 0.806788 0.887755 0.126003
O O10 0.658930 0.114894 0.201659
O O11 0.805287 0.241554 0.408711
O O12 0.098865 0.903740 0.117971
O O13 0.000000 0.000000 0.000000
O O14 0.678820 0.782905 0.623425
O O15 0.000000 0.500000 0.500000
O O16 0.121751 0.604002 0.503739
O O17 0.449994 0.431791 0.195993
O O18 0.500000 0.000000 0.000000
O O19 0.500000 0.500000 0.500000
#
# Coordination Sequence:
#
# PCOD9063696 Si02
#       8
#     2   2   2   2   2   2   2   2
#     4  12  26  48  74 107 151 195 259 314 371 453
#     4  12  26  47  76 112 148 201 254 309 379 454
#     4  11  26  47  76 104 152 195 256 312 379 454
#     4  11  24  44  73 105 153 197 246 305 382 455
#     4  12  27  45  75 111 152 193 253 316 377 446
#     4  11  28  46  74 109 149 202 249 312 385 449
#     4  11  24  44  72 112 151 196 247 313 381 450
#     4  12  26  45  72 109 154 196 249 312 383 458
#
# _framework density 22.123591999999999
#
# number of rings (size 3 to 8) (size 9 to 14) (size 15 to 20)
#    0.000    0.500    3.750    3.375    7.000    2.500 
#    0.000    0.000    0.000    0.000    0.000    0.000 
#    0.000    0.000    0.000    0.000    0.000    0.000 
#
# Total GULP energy -89320.479406 kJ/mol
# GULP energy per Si atom -5582.529963 kJ/mol
# Density = 2.207324 g / cm^3
# Si number density = 22.123592 Si / 1000 Ang^3
#
#
#
# Elastic Constant Matrix: (Units=GPa)
#
#
# Indices 1 2 3 4 5 6 
#
# 1 179.2381 18.0006 78.2932 4.2068 -1.8537 8.0062
# 2 18.0006 39.4849 27.7037 1.5752 0.3122 5.4174
# 3 78.2932 27.7037 166.4969 -3.4711 8.3740 10.7340
# 4 4.2068 1.5752 -3.4711 46.1450 1.0155 8.1644
# 5 -1.8537 0.3122 8.3740 1.0155 39.4134 4.7470
# 6 8.0062 5.4174 10.7340 8.1644 4.7470 33.4105
#
#
#
# Elastic Compliance Matrix: (Units=1/GPa)
#
#
# Indices 1 2 3 4 5 6 
#
# 1 0.007141 -0.000884 -0.003252 -0.000804 0.001113 -0.000485
# 2 -0.000884 0.029200 -0.004309 -0.000713 0.001036 -0.003111
# 3 -0.003252 -0.004309 0.008456 0.001352 -0.001792 -0.001314
# 4 -0.000804 -0.000713 0.001352 0.022881 -0.000224 -0.005685
# 5 0.001113 0.001036 -0.001792 -0.000224 0.026228 -0.003531
# 6 -0.000485 -0.003111 -0.001314 -0.005685 -0.003531 0.032864
#
#
# Mechanical properties :
#
#
# Convention : Reuss Voigt Hill
#
# Bulk Modulus (GPa) = 35.83569 70.35719 53.09644
# Shear Modulus (GPa) = 32.68797 41.20861 36.94829
#
# Velocity S-wave (km/s) = 3.84802 4.32053 4.09110
# Velocity P-wave (km/s) = 5.99801 7.53394 6.80942
#
# Compressibility (1/GPa) = 0.02790514
#
# Stress axis : x y z
#
# Youngs Moduli (GPa) = 140.04513 34.24695 118.26596
#
# Poissons Ratio (x) = 0.03026 0.38463
# Poissons Ratio (y) = 0.12375 0.50966
# Poissons Ratio (z) = 0.45546 0.14758
#
# Static dielectric constant tensor:
#      x y z
#    x 1.077940 -0.730090 -0.001580 
#    y -0.730090 1.218870 -0.048320 
#    z -0.001580 -0.048320 1.844050 
# 
# From -- ./inp_files/333917.got.cif
#   From: 2010.05.17/outbox.cif.g08.bks.cpg/sg2_167_cif.got.tgz:333917.got - 2010.06.03 11:33:40.
