data_PCOD9063471
_publ_section_title
;
Structure prediction by ZEFSAII (Michael W. Deem and Ramdas Pophale) SiO2 
 PCOD9063471
Probable space group: P -1
;
_chemical_formula_sum "Si O2"
_cell_formula_units_Z 16
_cell_length_a 18.363176
_cell_length_b 8.826484
_cell_length_c 12.950015
_cell_angle_alpha 76.191006
_cell_angle_beta 134.828129
_cell_angle_gamma 140.197301
_cell_volume 709.819109
_symmetry_space_group_name_H-M "P -1"
_symmetry_group_IT_number 2
_symmetry_cell_setting 'triclinic'
loop_
_space_group_symop_operation_xyz
x,y,z
-x,-y,-z
loop_
_atom_site_type_symbol
_atom_site_label
_atom_site_fract_x
_atom_site_fract_y
_atom_site_fract_z
Si Si1 0.863622 0.636788 0.227365
Si Si2 0.577180 0.678822 0.441591
Si Si3 0.540353 0.376873 0.292625
Si Si4 0.331129 0.330460 0.939324
Si Si5 0.166208 0.673280 0.051897
Si Si6 0.087082 0.308663 0.496305
Si Si7 0.843559 0.698076 0.965550
Si Si8 0.040710 0.580652 0.324061
O O1 0.655716 0.465551 0.064560
O O2 0.966672 0.783812 0.421035
O O3 0.879906 0.475589 0.245007
O O4 0.921517 0.788298 0.147794
O O5 0.500000 0.500000 0.500000
O O6 0.639672 0.617453 0.440147
O O7 0.379367 0.512531 0.227596
O O8 0.767629 0.052831 0.576182
O O9 0.710041 0.520678 0.364466
O O10 0.386290 0.295630 0.096167
O O11 0.391120 0.044054 0.241539
O O12 0.500000 0.500000 0.000000
O O13 0.104686 0.995104 0.719278
O O14 0.080030 0.628343 0.865508
O O15 0.176452 0.502361 0.068297
O O16 0.000000 0.500000 0.000000
O O17 0.120179 0.535772 0.471609
O O18 0.000000 0.000000 0.000000
#
# Coordination Sequence:
#
# PCOD9063471 Si02
#       8
#     2   2   2   2   2   2   2   2
#     4  11  24  44  70 101 141 189 235 297 364 437
#     4  12  25  45  70 104 143 190 249 298 367 439
#     4  12  25  47  74 107 146 192 242 305 368 434
#     4  12  25  46  72 107 147 192 244 300 367 439
#     4  11  24  46  72 104 145 190 244 302 368 432
#     4  12  26  46  74 107 148 190 246 306 370 440
#     4  11  24  44  69 102 142 192 242 301 369 438
#     4  11  25  45  69 107 146 187 241 305 366 437
#
# _framework density 22.540955
#
# number of rings (size 3 to 8) (size 9 to 14) (size 15 to 20)
#    0.000    0.500    3.750    5.250    1.750    1.000 
#    0.000    6.250    0.000    0.000    0.000    0.000 
#    0.000    0.000    0.000    0.000    0.000    0.000 
#
# Total GULP energy -89342.847778 kJ/mol
# GULP energy per Si atom -5583.927986 kJ/mol
# Density = 2.248965 g / cm^3
# Si number density = 22.540955 Si / 1000 Ang^3
#
#
#
# Elastic Constant Matrix: (Units=GPa)
#
#
# Indices 1 2 3 4 5 6 
#
# 1 174.1561 39.7039 41.6117 -17.1019 10.7411 -7.4576
# 2 39.7039 106.5121 21.7367 -10.1997 2.9613 -21.2670
# 3 41.6117 21.7367 97.9104 -11.7326 9.9591 -10.0090
# 4 -17.1019 -10.1997 -11.7326 45.6529 1.8348 5.5176
# 5 10.7411 2.9613 9.9591 1.8348 36.5900 -7.8166
# 6 -7.4576 -21.2670 -10.0090 5.5176 -7.8166 29.8608
#
#
#
# Elastic Compliance Matrix: (Units=1/GPa)
#
#
# Indices 1 2 3 4 5 6 
#
# 1 0.006998 -0.002201 -0.002241 0.001780 -0.001639 -0.001329
# 2 -0.002201 0.012021 -0.001014 0.000569 0.001628 0.007993
# 3 -0.002241 -0.001014 0.012032 0.001897 -0.002243 0.001814
# 4 0.001780 0.000569 0.001897 0.023757 -0.003068 -0.003707
# 5 -0.001639 0.001628 -0.002243 -0.003068 0.030256 0.008485
# 6 -0.001329 0.007993 0.001814 -0.003707 0.008485 0.042364
#
#
# Mechanical properties :
#
#
# Convention : Reuss Voigt Hill
#
# Bulk Modulus (GPa) = 49.65342 64.96478 57.30910
# Shear Modulus (GPa) = 34.47013 40.78917 37.62965
#
# Velocity S-wave (km/s) = 3.91477 4.25850 4.09025
# Velocity P-wave (km/s) = 6.51995 7.28445 6.91278
#
# Compressibility (1/GPa) = 0.02013960
#
# Stress axis : x y z
#
# Youngs Moduli (GPa) = 142.89301 83.18800 83.11230
#
# Poissons Ratio (x) = 0.18306 0.18629
# Poissons Ratio (y) = 0.31444 0.08426
# Poissons Ratio (z) = 0.32029 0.08433
#
# Static dielectric constant tensor:
#      x y z
#    x 1.835270 -0.006390 0.013490 
#    y -0.006390 1.865630 -0.019850 
#    z 0.013490 -0.019850 1.856690 
# 
# From -- ./inp_files/462145.got.cif
#   From: 2010.05.17/outbox.cif.g08.bks.cpg/sg2_232_cif.got.tgz:462145.got - 2010.06.03 11:33:40.
