data_PCOD9063329
_publ_section_title
;
Structure prediction by ZEFSAII (Michael W. Deem and Ramdas Pophale) SiO2 
 PCOD9063329
Probable space group: P -1
;
_chemical_formula_sum "Si O2"
_cell_formula_units_Z 16
_cell_length_a 9.119497
_cell_length_b 13.516970
_cell_length_c 7.872615
_cell_angle_alpha 61.555900
_cell_angle_beta 78.247295
_cell_angle_gamma 118.385789
_cell_volume 623.951325
_symmetry_space_group_name_H-M "P -1"
_symmetry_group_IT_number 2
_symmetry_cell_setting 'triclinic'
loop_
_space_group_symop_operation_xyz
x,y,z
-x,-y,-z
loop_
_atom_site_type_symbol
_atom_site_label
_atom_site_fract_x
_atom_site_fract_y
_atom_site_fract_z
Si Si1 0.042597 0.196646 0.251467
Si Si2 0.436445 0.757669 0.515328
Si Si3 0.246249 0.520346 0.039489
Si Si4 0.053189 0.495730 0.677623
Si Si5 0.795639 0.827099 0.218713
Si Si6 0.910509 0.186559 0.923524
Si Si7 0.307658 0.939989 0.281050
Si Si8 0.397388 0.234517 0.046083
O O1 0.197646 0.170229 0.251413
O O2 0.889673 0.137023 0.492269
O O3 0.193348 0.380503 0.066991
O O4 0.923798 0.132401 0.151126
O O5 0.342692 0.669417 0.785319
O O6 0.655137 0.813608 0.400781
O O7 0.411789 0.877102 0.376587
O O8 0.289683 0.616229 0.539703
O O9 0.413616 0.596505 0.082530
O O10 0.036238 0.456598 0.215144
O O11 0.933289 0.322865 0.873352
O O12 0.000000 0.500000 0.500000
O O13 0.884034 0.746865 0.277846
O O14 0.670106 0.771558 0.122582
O O15 0.000000 0.000000 0.000000
O O16 0.751725 0.097530 0.876632
O O17 0.432000 0.117081 0.134840
#
# Coordination Sequence:
#
# PCOD9063329 Si02
#       8
#     2   2   2   2   2   2   2   2
#     4  11  24  47  75 109 153 198 250 312 372 446
#     4  12  26  43  76 109 146 196 248 309 376 440
#     4  12  25  46  73 113 156 191 249 313 371 450
#     4  12  22  44  73 110 147 193 244 309 373 439
#     4  11  26  49  69 105 145 195 253 303 373 448
#     4  11  24  43  77 104 146 197 243 313 366 439
#     4  12  25  47  77 111 149 198 253 307 377 449
#     4  11  27  45  72 108 148 201 247 305 378 447
#
# _framework density 25.643027
#
# number of rings (size 3 to 8) (size 9 to 14) (size 15 to 20)
#    0.000    0.500    5.000    2.625    1.750    4.500 
#    2.250    0.000    0.000    0.000    0.000    0.000 
#    0.000    0.000    0.000    0.000    0.000    0.000 
#
# Total GULP energy -89420.771251 kJ/mol
# GULP energy per Si atom -5588.798203 kJ/mol
# Density = 2.558466 g / cm^3
# Si number density = 25.643027 Si / 1000 Ang^3
#
#
#
# Elastic Constant Matrix: (Units=GPa)
#
#
# Indices 1 2 3 4 5 6 
#
# 1 64.6372 20.5654 26.5081 7.8105 -12.7458 -10.5930
# 2 20.5654 136.4959 17.7308 0.6474 12.2928 5.2277
# 3 26.5081 17.7308 71.3473 10.4114 -20.4602 4.0006
# 4 7.8105 0.6474 10.4114 27.9908 1.7056 1.2030
# 5 -12.7458 12.2928 -20.4602 1.7056 41.1700 6.5687
# 6 -10.5930 5.2277 4.0006 1.2030 6.5687 49.7516
#
#
#
# Elastic Compliance Matrix: (Units=1/GPa)
#
#
# Indices 1 2 3 4 5 6 
#
# 1 0.020711 -0.002926 -0.005494 -0.004113 0.003970 0.004734
# 2 -0.002926 0.008554 -0.002635 0.001918 -0.004732 -0.000732
# 3 -0.005494 -0.002635 0.020852 -0.006629 0.010325 -0.003773
# 4 -0.004113 0.001918 -0.006629 0.039729 -0.006687 -0.000622
# 5 0.003970 -0.004732 0.010325 -0.006687 0.032926 -0.003673
# 6 0.004734 -0.000732 -0.003773 -0.000622 -0.003673 0.021988
#
#
# Mechanical properties :
#
#
# Convention : Reuss Voigt Hill
#
# Bulk Modulus (GPa) = 35.70571 44.67655 40.19113
# Shear Modulus (GPa) = 28.37571 37.62754 33.00162
#
# Velocity S-wave (km/s) = 3.33012 3.83477 3.59132
# Velocity P-wave (km/s) = 5.36103 6.08832 5.73621
#
# Compressibility (1/GPa) = 0.02800673
#
# Stress axis : x y z
#
# Youngs Moduli (GPa) = 48.28345 116.89816 47.95728
#
# Poissons Ratio (x) = 0.34205 0.26350
# Poissons Ratio (y) = 0.14128 0.12636
# Poissons Ratio (z) = 0.26529 0.30800
#
# Static dielectric constant tensor:
#      x y z
#    x 2.091100 0.016820 0.018220 
#    y 0.016820 2.206150 0.132820 
#    z 0.018220 0.132820 2.082720 
# 
# From -- ./inp_files/205905.got.cif
#   From: 2010.05.17/outbox.cif.g08.bks.cpg/sg2_103_cif.got.tgz:205905.got - 2010.06.03 11:33:40.
