data_PCOD9063210
_publ_section_title
;
Structure prediction by ZEFSAII (Michael W. Deem and Ramdas Pophale) SiO2 
 PCOD9063210
Probable space group: P -1
;
_chemical_formula_sum "Si O2"
_cell_formula_units_Z 13
_cell_length_a 8.302145
_cell_length_b 8.920802
_cell_length_c 12.103495
_cell_angle_alpha 66.558172
_cell_angle_beta 47.643696
_cell_angle_gamma 93.585511
_cell_volume 530.610669
_symmetry_space_group_name_H-M "P -1"
_symmetry_group_IT_number 2
_symmetry_cell_setting 'triclinic'
loop_
_space_group_symop_operation_xyz
x,y,z
-x,-y,-z
loop_
_atom_site_type_symbol
_atom_site_label
_atom_site_fract_x
_atom_site_fract_y
_atom_site_fract_z
Si Si1 0.547154 0.138196 0.540433
Si Si2 0.826140 0.769099 0.530904
Si Si3 0.739023 0.978506 0.083197
Si Si4 0.060195 0.192189 0.280677
Si Si5 0.071576 0.672919 0.265814
Si Si6 0.509371 0.613681 0.149778
Si Si7 0.500000 0.500000 0.500000
O O1 0.420617 0.011184 0.744146
O O2 0.448671 0.287080 0.548984
O O3 0.845164 0.245347 0.377140
O O4 0.500000 0.000000 0.500000
O O5 0.831704 0.799264 0.650639
O O6 0.560127 0.579108 0.699189
O O7 0.021799 0.714278 0.402663
O O8 0.918579 0.972637 0.376714
O O9 0.591223 0.774416 0.156246
O O10 0.787214 0.134974 0.924921
O O11 0.000000 0.000000 0.000000
O O12 0.268742 0.316526 0.060432
O O13 0.262177 0.591616 0.209789
O O14 0.795330 0.561966 0.374586
#
# Coordination Sequence:
#
# PCOD9063210 Si02
#       7
#     2   2   2   2   2   2   1
#     4  12  26  49  75 110 158 206 262 329 394 466
#     4  11  24  43  72 109 154 205 252 333 393 462
#     4  12  25  47  75 109 156 210 261 329 398 468
#     4  11  25  45  72 113 159 198 263 330 392 468
#     4  12  25  47  75 112 151 210 264 324 396 472
#     4  12  25  47  78 114 155 208 268 319 401 477
#     4  12  26  50  78 108 158 208 264 316 402 468
#
# _framework density 24.500074999999999
#
# number of rings (size 3 to 8) (size 9 to 14) (size 15 to 20)
#    0.000    0.308    3.077    6.000    4.308    0.000 
#    0.000    0.769    0.000    0.000    0.000    0.000 
#    0.000    0.000    0.000    0.000    0.000    0.000 
#
# Total GULP energy -72493.183278 kJ/mol
# GULP energy per Si atom -5576.398714 kJ/mol
# Density = 2.444431 g / cm^3
# Si number density = 24.500075 Si / 1000 Ang^3
#
#
#
# Elastic Constant Matrix: (Units=GPa)
#
#
# Indices 1 2 3 4 5 6 
#
# 1 76.1514 8.4634 40.8374 -11.0014 -24.8965 0.1368
# 2 8.4634 117.4346 50.8984 -24.3823 -4.5078 1.7045
# 3 40.8374 50.8984 224.4896 10.4816 11.1259 -0.9994
# 4 -11.0014 -24.3823 10.4816 47.7875 -1.8167 -5.1712
# 5 -24.8965 -4.5078 11.1259 -1.8167 50.6482 4.6327
# 6 0.1368 1.7045 -0.9994 -5.1712 4.6327 48.4671
#
#
#
# Elastic Compliance Matrix: (Units=1/GPa)
#
#
# Indices 1 2 3 4 5 6 
#
# 1 0.020763 0.002950 -0.005410 0.007865 0.011993 -0.000581
# 2 0.002950 0.011610 -0.003698 0.007547 0.003569 -0.000029
# 3 -0.005410 -0.003698 0.006731 -0.004762 -0.004658 0.000221
# 4 0.007865 0.007547 -0.004762 0.028092 0.006409 0.001999
# 5 0.011993 0.003569 -0.004658 0.006409 0.027410 -0.002192
# 6 -0.000581 -0.000029 0.000221 0.001999 -0.002192 0.021063
#
#
# Mechanical properties :
#
#
# Convention : Reuss Voigt Hill
#
# Bulk Modulus (GPa) = 37.33018 68.71933 53.02475
# Shear Modulus (GPa) = 36.51898 50.57231 43.54564
#
# Velocity S-wave (km/s) = 3.86497 4.54824 4.22046
# Velocity P-wave (km/s) = 5.93188 7.46268 6.74087
#
# Compressibility (1/GPa) = 0.02678798
#
# Stress axis : x y z
#
# Youngs Moduli (GPa) = 48.16213 86.13263 148.55625
#
# Poissons Ratio (x) = -0.25411 0.80371
# Poissons Ratio (y) = -0.14209 0.54942
# Poissons Ratio (z) = 0.26056 0.31855
#
# Static dielectric constant tensor:
#      x y z
#    x 1.971470 0.056310 0.012060 
#    y 0.056310 1.966590 -0.021340 
#    z 0.012060 -0.021340 1.895240 
# 
# From -- ./inp_files/146965.got.cif
#   From: 2010.05.17/outbox.cif.g08.bks.cpg/sg2_74_cif.got.tgz:146965.got - 2010.06.03 11:33:40.
