data_PCOD9063494
_publ_section_title
;
Structure prediction by ZEFSAII (Michael W. Deem and Ramdas Pophale) SiO2 
 PCOD9063494
Probable space group: P -1
;
_chemical_formula_sum "Si O2"
_cell_formula_units_Z 16
_cell_length_a 20.549016
_cell_length_b 7.778675
_cell_length_c 10.301677
_cell_angle_alpha 49.294678
_cell_angle_beta 146.005568
_cell_angle_gamma 122.087443
_cell_volume 697.760087
_symmetry_space_group_name_H-M "P -1"
_symmetry_group_IT_number 2
_symmetry_cell_setting 'triclinic'
loop_
_space_group_symop_operation_xyz
x,y,z
-x,-y,-z
loop_
_atom_site_type_symbol
_atom_site_label
_atom_site_fract_x
_atom_site_fract_y
_atom_site_fract_z
Si Si1 0.545263 0.423670 0.970241
Si Si2 0.257417 0.274238 0.845546
Si Si3 0.502803 0.231660 0.637635
Si Si4 0.094514 0.622266 0.274693
Si Si5 0.655297 0.878812 0.220446
Si Si6 0.700305 0.083331 0.537953
Si Si7 0.840447 0.610186 0.782361
Si Si8 0.690958 0.193519 0.754792
O O1 0.627953 0.614259 0.956496
O O2 0.636485 0.219760 0.250597
O O3 0.500000 0.500000 0.000000
O O4 0.433563 0.310020 0.780182
O O5 0.153173 0.457080 0.561962
O O6 0.296739 0.208193 0.796946
O O7 0.231888 0.038191 0.988196
O O8 0.500000 0.500000 0.500000
O O9 0.575475 0.163745 0.662160
O O10 0.370764 0.145724 0.461207
O O11 0.581072 0.102112 0.943151
O O12 0.164346 0.857385 0.274799
O O13 0.122564 0.498672 0.243149
O O14 0.956239 0.648198 0.036894
O O15 0.766032 0.841028 0.516187
O O16 0.662793 0.207934 0.549736
O O17 0.761611 0.411768 0.808445
#
# Coordination Sequence:
#
# PCOD9063494 Si02
#       8
#     2   2   2   2   2   2   2   2
#     4   8  12  22  39  60  87 118 149 175 217 273
#     4   8  14  23  39  66  95 118 144 184 231 268
#     4  10  20  33  48  67  94 122 150 189 237 279
#     4   8  15  28  45  68  94 125 153 182 222 273
#     4   8  15  27  42  60  87 126 153 177 226 279
#     4   9  17  29  48  70  91 118 153 188 224 271
#     4   9  16  27  45  68  96 122 154 187 221 269
#     4  10  18  27  45  74  98 117 147 192 232 264
#
# _framework density 22.930517999999999
#
# number of rings (size 3 to 8) (size 9 to 14) (size 15 to 20)
#    0.000    3.250    0.000    3.375    0.000    1.500 
#    0.000    1.875    0.000    1.500    0.000    0.000 
#    0.000    0.000    0.000    0.000    0.000    0.000 
#
# Total GULP energy -89208.938375 kJ/mol
# GULP energy per Si atom -5575.558648 kJ/mol
# Density = 2.287833 g / cm^3
# Si number density = 22.930518 Si / 1000 Ang^3
#
#
#
# Elastic Constant Matrix: (Units=GPa)
#
#
# Indices 1 2 3 4 5 6 
#
# 1 35.9192 16.5349 20.7777 3.1143 -4.7164 1.4628
# 2 16.5349 143.7363 87.5511 -2.7202 10.0836 29.8043
# 3 20.7777 87.5511 172.2405 5.2466 8.6844 24.5179
# 4 3.1143 -2.7202 5.2466 40.6858 0.1894 2.4316
# 5 -4.7164 10.0836 8.6844 0.1894 21.2642 -3.2066
# 6 1.4628 29.8043 24.5179 2.4316 -3.2066 28.7400
#
#
#
# Elastic Compliance Matrix: (Units=1/GPa)
#
#
# Indices 1 2 3 4 5 6 
#
# 1 0.033210 -0.004052 -0.003452 -0.002842 0.011780 0.007011
# 2 -0.004052 0.012625 -0.004201 0.002340 -0.006736 -0.010252
# 3 -0.003452 -0.004201 0.009022 -0.000962 -0.002965 -0.003414
# 4 -0.002842 0.002340 -0.000962 0.025316 -0.002152 -0.003843
# 5 0.011780 -0.006736 -0.002965 -0.002152 0.056385 0.015389
# 6 0.007011 -0.010252 -0.003414 -0.003843 0.015389 0.050024
#
#
# Mechanical properties :
#
#
# Convention : Reuss Voigt Hill
#
# Bulk Modulus (GPa) = 31.79850 66.84702 49.32276
# Shear Modulus (GPa) = 22.67841 33.27347 27.97594
#
# Velocity S-wave (km/s) = 3.14826 3.81341 3.49668
# Velocity P-wave (km/s) = 5.20700 6.97171 6.15295
#
# Compressibility (1/GPa) = 0.03144802
#
# Stress axis : x y z
#
# Youngs Moduli (GPa) = 30.11158 79.21031 110.83607
#
# Poissons Ratio (x) = 0.32092 0.38262
# Poissons Ratio (y) = 0.12200 0.46559
# Poissons Ratio (z) = 0.10395 0.33274
#
# Static dielectric constant tensor:
#      x y z
#    x 1.895850 -0.050730 -0.008460 
#    y -0.050730 1.918480 -0.021370 
#    z -0.008460 -0.021370 1.902090 
# 
# From -- ./inp_files/220783.got.cif
#   From: 2010.05.17/outbox.cif.g08.bks.cpg/sg2_111_cif.got.tgz:220783.got - 2010.06.03 11:33:40.
