data_PCOD9063196
_publ_section_title
;
Structure prediction by ZEFSAII (Michael W. Deem and Ramdas Pophale) SiO2 
 PCOD9063196
Probable space group: P -1
;
_chemical_formula_sum "Si O2"
_cell_formula_units_Z 16
_cell_length_a 13.898842
_cell_length_b 9.542510
_cell_length_c 7.896419
_cell_angle_alpha 99.849228
_cell_angle_beta 119.442328
_cell_angle_gamma 122.409215
_cell_volume 621.125709
_symmetry_space_group_name_H-M "P -1"
_symmetry_group_IT_number 2
_symmetry_cell_setting 'triclinic'
loop_
_space_group_symop_operation_xyz
x,y,z
-x,-y,-z
loop_
_atom_site_type_symbol
_atom_site_label
_atom_site_fract_x
_atom_site_fract_y
_atom_site_fract_z
Si Si1 0.189959 0.448488 0.419406
Si Si2 0.165973 0.606364 0.744572
Si Si3 0.622501 0.167625 0.491824
Si Si4 0.329014 0.048815 0.060471
Si Si5 0.665689 0.899166 0.323868
Si Si6 0.688136 0.691690 0.717136
Si Si7 0.696050 0.526229 0.017526
Si Si8 0.121724 0.152634 0.486962
O O1 0.247585 0.605716 0.653704
O O2 0.217708 0.582124 0.313283
O O3 0.252601 0.351537 0.392934
O O4 0.046365 0.226507 0.346771
O O5 0.189236 0.503882 0.878980
O O6 0.000000 0.500000 0.500000
O O7 0.242495 0.817393 0.931175
O O8 0.507643 0.172821 0.297268
O O9 0.500000 0.000000 0.500000
O O10 0.673812 0.071107 0.422134
O O11 0.274319 0.110347 0.167754
O O12 0.330660 0.105392 0.879439
O O13 0.808803 0.936145 0.531276
O O14 0.490688 0.687866 0.194653
O O15 0.500000 0.500000 0.500000
O O16 0.743754 0.664014 0.928587
O O17 0.724783 0.640591 0.237036
O O18 0.000000 0.000000 0.500000
#
# Coordination Sequence:
#
# PCOD9063196 Si02
#       8
#     2   2   2   2   2   2   2   2
#     4  11  25  45  72 106 148 190 239 301 376 434
#     4  11  26  48  74  99 143 199 255 305 360 444
#     4  12  25  41  70 110 152 183 242 306 375 441
#     4  12  24  42  69 105 145 188 244 295 376 429
#     4  12  23  43  72 108 141 189 248 312 369 435
#     4  12  25  41  70 111 153 182 232 311 379 439
#     4  11  24  43  72 105 146 188 250 301 372 440
#     4  11  26  45  72 106 144 196 252 299 365 447
#
# _framework density 25.759679999999999
#
# number of rings (size 3 to 8) (size 9 to 14) (size 15 to 20)
#    0.000    0.500    5.000    3.750    5.250    0.000 
#    0.000    3.125    0.000    0.000    0.000    0.000 
#    0.000    0.000    0.000    0.000    0.000    0.000 
#
# Total GULP energy -89109.995843 kJ/mol
# GULP energy per Si atom -5569.374740 kJ/mol
# Density = 2.570105 g / cm^3
# Si number density = 25.759680 Si / 1000 Ang^3
#
#
#
# Elastic Constant Matrix: (Units=GPa)
#
#
# Indices 1 2 3 4 5 6 
#
# 1 119.2671 52.8675 39.7635 3.0933 -35.8838 -53.7632
# 2 52.8675 145.6195 8.0175 -5.2166 -9.7235 -27.9334
# 3 39.7635 8.0175 61.9680 -2.8480 -22.5792 -14.9122
# 4 3.0933 -5.2166 -2.8480 44.2016 -5.9191 -8.3538
# 5 -35.8838 -9.7235 -22.5792 -5.9191 51.2915 8.6785
# 6 -53.7632 -27.9334 -14.9122 -8.3538 8.6785 42.0155
#
#
#
# Elastic Compliance Matrix: (Units=1/GPa)
#
#
# Indices 1 2 3 4 5 6 
#
# 1 0.030720 -0.003401 -0.006318 0.005047 0.013045 0.033115
# 2 -0.003401 0.008494 0.001622 0.001741 -0.000238 0.002266
# 3 -0.006318 0.001622 0.022381 0.002935 0.006032 0.000275
# 4 0.005047 0.001741 0.002935 0.025843 0.006011 0.012554
# 5 0.013045 -0.000238 0.006032 0.006011 0.029599 0.013757
# 6 0.033115 0.002266 0.000275 0.012554 0.013757 0.067434
#
#
# Mechanical properties :
#
#
# Convention : Reuss Voigt Hill
#
# Bulk Modulus (GPa) = 22.02622 58.68352 40.35487
# Shear Modulus (GPa) = 23.16983 42.58213 32.87598
#
# Velocity S-wave (km/s) = 3.00236 4.07019 3.57635
# Velocity P-wave (km/s) = 4.53741 6.70218 5.72308
#
# Compressibility (1/GPa) = 0.04540043
#
# Stress axis : x y z
#
# Youngs Moduli (GPa) = 32.55181 117.73198 44.68163
#
# Poissons Ratio (x) = 0.40041 0.28231
# Poissons Ratio (y) = 0.11071 -0.07248
# Poissons Ratio (z) = 0.20567 -0.19099
#
# Static dielectric constant tensor:
#      x y z
#    x 2.149770 0.236720 0.086770 
#    y 0.236720 2.509960 -0.142300 
#    z 0.086770 -0.142300 2.253550 
# 
# From -- ./inp_files/298926.got.cif
#   From: 2010.05.17/outbox.cif.g08.bks.cpg/sg2_150_cif.got.tgz:298926.got - 2010.06.03 11:33:40.
