data_PCOD9063426
_publ_section_title
;
Structure prediction by ZEFSAII (Michael W. Deem and Ramdas Pophale) SiO2 
 PCOD9063426
Probable space group: P -1
;
_chemical_formula_sum "Si O2"
_cell_formula_units_Z 16
_cell_length_a 9.537203
_cell_length_b 9.724811
_cell_length_c 11.760328
_cell_angle_alpha 98.581849
_cell_angle_beta 87.714844
_cell_angle_gamma 136.857437
_cell_volume 733.664205
_symmetry_space_group_name_H-M "P -1"
_symmetry_group_IT_number 2
_symmetry_cell_setting 'triclinic'
loop_
_space_group_symop_operation_xyz
x,y,z
-x,-y,-z
loop_
_atom_site_type_symbol
_atom_site_label
_atom_site_fract_x
_atom_site_fract_y
_atom_site_fract_z
Si Si1 0.530728 0.859248 0.360410
Si Si2 0.792797 0.260227 0.969936
Si Si3 0.229889 0.221110 0.028669
Si Si4 0.141893 0.982462 0.443740
Si Si5 0.670528 0.903485 0.790744
Si Si6 0.077059 0.624072 0.396615
Si Si7 0.739488 0.225654 0.228120
Si Si8 0.422144 0.637277 0.120144
O O1 0.323979 0.789767 0.396264
O O2 0.447349 0.679069 0.257757
O O3 0.662822 0.898282 0.464823
O O4 0.676072 0.061208 0.300444
O O5 0.743672 0.182466 0.091488
O O6 0.785613 0.120080 0.872063
O O7 0.632229 0.255803 0.923339
O O8 0.000000 0.500000 0.000000
O O9 0.247864 0.398918 0.064998
O O10 0.331721 0.221137 0.134023
O O11 0.366682 0.272152 0.924445
O O12 0.000000 0.000000 0.000000
O O13 0.218495 0.062794 0.323293
O O14 0.026672 0.750165 0.414977
O O15 0.000000 0.000000 0.500000
O O16 0.441525 0.791675 0.758833
O O17 0.000000 0.500000 0.500000
O O18 0.956075 0.453569 0.281518
#
# Coordination Sequence:
#
# PCOD9063426 Si02
#       8
#     2   2   2   2   2   2   2   2
#     4  12  25  48  75 104 143 186 248 296 355 427
#     4  12  23  43  74 112 137 181 241 293 354 426
#     4  11  26  44  69  99 150 187 224 283 373 426
#     4  12  28  48  71 105 147 190 241 302 358 427
#     4  12  24  47  70 103 144 187 237 299 354 424
#     4  12  25  46  77 104 137 195 243 292 360 424
#     4  12  23  43  80 106 143 179 244 305 353 421
#     4  11  24  44  68 105 139 184 229 289 354 432
#
# _framework density 21.808342
#
# number of rings (size 3 to 8) (size 9 to 14) (size 15 to 20)
#    0.000    0.250    5.000    4.500    1.750    3.000 
#    0.000    1.875    0.000    0.000    0.000    0.000 
#    0.000    0.000    0.000    0.000    0.000    0.000 
#
# Total GULP energy -89614.920310 kJ/mol
# GULP energy per Si atom -5600.932519 kJ/mol
# Density = 2.175870 g / cm^3
# Si number density = 21.808342 Si / 1000 Ang^3
#
#
#
# Elastic Constant Matrix: (Units=GPa)
#
#
# Indices 1 2 3 4 5 6 
#
# 1 85.7552 27.7995 38.7991 12.2726 -20.8992 -3.2991
# 2 27.7995 97.2778 17.5626 10.2551 -11.3846 12.0406
# 3 38.7991 17.5626 120.4910 8.2137 -24.7552 -4.3906
# 4 12.2726 10.2551 8.2137 37.3101 6.6986 8.9315
# 5 -20.8992 -11.3846 -24.7552 6.6986 33.5597 1.6689
# 6 -3.2991 12.0406 -4.3906 8.9315 1.6689 30.5419
#
#
#
# Elastic Compliance Matrix: (Units=1/GPa)
#
#
# Indices 1 2 3 4 5 6 
#
# 1 0.017175 -0.003212 -0.002636 -0.006783 0.008804 0.004245
# 2 -0.003212 0.012320 -0.000327 -0.001521 0.002487 -0.004942
# 3 -0.002636 -0.000327 0.010876 -0.003125 0.006797 0.001950
# 4 -0.006783 -0.001521 -0.003125 0.034979 -0.013526 -0.010072
# 5 0.008804 0.002487 0.006797 -0.013526 0.043713 0.002514
# 6 0.004245 -0.004942 0.001950 -0.010072 0.002514 0.038237
#
#
# Mechanical properties :
#
#
# Convention : Reuss Voigt Hill
#
# Bulk Modulus (GPa) = 35.68784 52.42738 44.05761
# Shear Modulus (GPa) = 27.93436 34.90652 31.42044
#
# Velocity S-wave (km/s) = 3.58285 4.00510 3.79984
# Velocity P-wave (km/s) = 5.78927 6.74388 6.28473
#
# Compressibility (1/GPa) = 0.02802075
#
# Stress axis : x y z
#
# Youngs Moduli (GPa) = 58.22475 81.16922 91.94171
#
# Poissons Ratio (x) = 0.26073 0.24239
# Poissons Ratio (y) = 0.18703 0.03004
# Poissons Ratio (z) = 0.15350 0.02652
#
# Static dielectric constant tensor:
#      x y z
#    x 1.786990 0.012430 -0.000520 
#    y 0.012430 1.806150 0.015610 
#    z -0.000520 0.015610 1.797260 
# 
# From -- ./inp_files/382657.got.cif
#   From: 2010.05.17/outbox.cif.g08.bks.cpg/sg2_192_cif.got.tgz:382657.got - 2010.06.03 11:33:40.
