data_PCOD9063042
_publ_section_title
;
Structure prediction by ZEFSAII (Michael W. Deem and Ramdas Pophale) SiO2 
 PCOD9063042
Probable space group: P -1
;
_chemical_formula_sum "Si O2"
_cell_formula_units_Z 16
_cell_length_a 15.702094
_cell_length_b 11.421482
_cell_length_c 15.302563
_cell_angle_alpha 139.462967
_cell_angle_beta 151.134034
_cell_angle_gamma 60.253551
_cell_volume 724.818572
_symmetry_space_group_name_H-M "P -1"
_symmetry_group_IT_number 2
_symmetry_cell_setting 'triclinic'
loop_
_space_group_symop_operation_xyz
x,y,z
-x,-y,-z
loop_
_atom_site_type_symbol
_atom_site_label
_atom_site_fract_x
_atom_site_fract_y
_atom_site_fract_z
Si Si1 0.002030 0.003634 0.399883
Si Si2 0.377488 0.469181 0.961675
Si Si3 0.990930 0.245850 0.884767
Si Si4 0.452852 0.122289 0.098193
Si Si5 0.794875 0.896643 0.877761
Si Si6 0.642098 0.273689 0.531181
Si Si7 0.318206 0.446509 0.557953
Si Si8 0.064722 0.611971 0.717522
O O1 0.209919 0.217727 0.678882
O O2 0.994939 0.809367 0.234561
O O3 0.000000 0.000000 0.500000
O O4 0.794207 0.992055 0.175658
O O5 0.239823 0.574437 0.891731
O O6 0.500000 0.500000 0.000000
O O7 0.534352 0.545129 0.227473
O O8 0.765024 0.211754 0.672858
O O9 0.036750 0.105055 0.908638
O O10 0.179563 0.489284 0.205320
O O11 0.558893 0.129606 0.288550
O O12 0.545565 0.360471 0.278475
O O13 0.500000 0.000000 0.000000
O O14 0.560587 0.745811 0.621001
O O15 0.788538 0.779673 0.716308
O O16 0.842998 0.134712 0.056474
O O17 0.142814 0.480763 0.461935
O O18 0.000000 0.500000 0.500000
#
# Coordination Sequence:
#
# PCOD9063042 Si02
#       8
#     2   2   2   2   2   2   2   2
#     4  12  24  43  73 107 143 187 242 307 370 430
#     4  12  28  48  75 107 149 194 252 308 368 444
#     4  11  24  43  69 106 146 187 240 301 364 441
#     4  12  24  43  72 109 150 186 246 304 369 438
#     4  12  26  47  74 104 153 192 244 303 375 439
#     4  11  25  42  72 107 144 193 237 297 373 438
#     4  12  27  48  74 107 149 192 247 311 367 440
#     4  12  28  48  75 103 141 200 252 301 370 446
#
# _framework density 22.074487999999999
#
# number of rings (size 3 to 8) (size 9 to 14) (size 15 to 20)
#    0.000    0.250    5.000    3.750    3.500    1.500 
#    0.000    0.000    0.000    0.000    0.000    0.000 
#    0.000    0.000    0.000    0.000    0.000    0.000 
#
# Total GULP energy -89589.463929 kJ/mol
# GULP energy per Si atom -5599.341496 kJ/mol
# Density = 2.202425 g / cm^3
# Si number density = 22.074488 Si / 1000 Ang^3
#
#
#
# Elastic Constant Matrix: (Units=GPa)
#
#
# Indices 1 2 3 4 5 6 
#
# 1 99.8513 10.9400 52.0453 -7.6145 -3.5320 -13.2798
# 2 10.9400 94.8389 38.0591 -32.5961 -1.9237 -12.3886
# 3 52.0453 38.0591 110.8350 -13.6948 -11.6417 1.2581
# 4 -7.6145 -32.5961 -13.6948 48.5814 -5.2474 -2.9342
# 5 -3.5320 -1.9237 -11.6417 -5.2474 35.6395 8.5736
# 6 -13.2798 -12.3886 1.2581 -2.9342 8.5736 32.1661
#
#
#
# Elastic Compliance Matrix: (Units=1/GPa)
#
#
# Indices 1 2 3 4 5 6 
#
# 1 0.015408 0.003756 -0.008590 0.002756 -0.002874 0.009161
# 2 0.003756 0.018004 -0.006862 0.011167 -0.001714 0.010229
# 3 -0.008590 -0.006862 0.015957 -0.001335 0.005837 -0.008491
# 4 0.002756 0.011167 -0.001335 0.028892 0.002926 0.007346
# 5 -0.002874 -0.001714 0.005837 0.002926 0.032540 -0.010482
# 6 0.009161 0.010229 -0.008491 0.007346 -0.010482 0.042606
#
#
# Mechanical properties :
#
#
# Convention : Reuss Voigt Hill
#
# Bulk Modulus (GPa) = 38.49782 56.40155 47.44969
# Shear Modulus (GPa) = 26.96005 36.90947 31.93476
#
# Velocity S-wave (km/s) = 3.49853 4.09350 3.80765
# Velocity P-wave (km/s) = 5.81356 6.92447 6.39319
#
# Compressibility (1/GPa) = 0.02597550
#
# Stress axis : x y z
#
# Youngs Moduli (GPa) = 64.90275 55.54230 62.66847
#
# Poissons Ratio (x) = -0.20859 0.53832
# Poissons Ratio (y) = -0.24374 0.43005
# Poissons Ratio (z) = 0.55751 0.38115
#
# Static dielectric constant tensor:
#      x y z
#    x 1.807100 0.003880 0.011410 
#    y 0.003880 1.828460 0.008920 
#    z 0.011410 0.008920 1.792200 
# 
# From -- ./inp_files/522612.got.cif
#   From: 2010.05.17/outbox.cif.g08.bks.cpg/sg2_262_cif.got.tgz:522612.got - 2010.06.03 11:33:40.
