data_PCOD9063097
_publ_section_title
;
Structure prediction by ZEFSAII (Michael W. Deem and Ramdas Pophale) SiO2 
 PCOD9063097
Probable space group: P -1
;
_chemical_formula_sum "Si O2"
_cell_formula_units_Z 12
_cell_length_a 5.048389
_cell_length_b 21.209518
_cell_length_c 5.204381
_cell_angle_alpha 95.796769
_cell_angle_beta 82.359510
_cell_angle_gamma 108.769953
_cell_volume 521.925969
_symmetry_space_group_name_H-M "P -1"
_symmetry_group_IT_number 2
_symmetry_cell_setting 'triclinic'
loop_
_space_group_symop_operation_xyz
x,y,z
-x,-y,-z
loop_
_atom_site_type_symbol
_atom_site_label
_atom_site_fract_x
_atom_site_fract_y
_atom_site_fract_z
Si Si1 0.989403 0.220506 0.593705
Si Si2 0.792748 0.514375 0.329949
Si Si3 0.179221 0.613360 0.991288
Si Si4 0.617433 0.866672 0.507145
Si Si5 0.681550 0.953172 0.035461
Si Si6 0.819760 0.694050 0.891792
O O1 0.667001 0.193227 0.535106
O O2 0.116675 0.159529 0.574372
O O3 0.158565 0.268605 0.365973
O O4 0.027281 0.257104 0.877047
O O5 0.500000 0.500000 0.500000
O O6 0.944348 0.587919 0.232982
O O7 0.753557 0.455378 0.104319
O O8 0.000000 0.500000 0.500000
O O9 0.491269 0.664140 0.001855
O O10 0.998454 0.641876 0.826920
O O11 0.623805 0.895329 0.804297
O O12 0.624178 0.921928 0.313545
O O13 0.500000 0.000000 0.000000
O O14 0.000000 0.000000 0.000000
#
# Coordination Sequence:
#
# PCOD9063097 Si02
#       6
#     2   2   2   2   2   2
#     4  12  26  45  68  99 132 190 226 279 338 399
#     4  11  24  43  70  95 135 174 222 275 380 411
#     4  11  26  43  66 103 130 177 224 299 340 429
#     4  12  24  45  68  96 144 177 226 277 336 399
#     4  12  24  42  70 105 136 177 224 277 336 397
#     4  12  26  44  70  98 136 174 242 281 340 401
#
# _framework density 22.991764
#
# number of rings (size 3 to 8) (size 9 to 14) (size 15 to 20)
#    0.000    0.333    0.000    9.000    7.000    2.667 
#    0.000    0.000    0.000    0.000    0.000    0.000 
#    0.000    0.000    0.000    0.000    0.000    0.000 
#
# Total GULP energy -67159.151230 kJ/mol
# GULP energy per Si atom -5596.595936 kJ/mol
# Density = 2.293943 g / cm^3
# Si number density = 22.991764 Si / 1000 Ang^3
#
#
#
# Elastic Constant Matrix: (Units=GPa)
#
#
# Indices 1 2 3 4 5 6 
#
# 1 141.3242 6.8380 -3.9811 -5.2903 -3.2499 8.7987
# 2 6.8380 49.6063 -2.6205 -15.8533 -1.7970 -6.5820
# 3 -3.9811 -2.6205 68.8813 2.9143 3.0374 1.6355
# 4 -5.2903 -15.8533 2.9143 40.6120 -6.4785 1.3493
# 5 -3.2499 -1.7970 3.0374 -6.4785 31.0550 -2.1419
# 6 8.7987 -6.5820 1.6355 1.3493 -2.1419 49.4289
#
#
#
# Elastic Compliance Matrix: (Units=1/GPa)
#
#
# Indices 1 2 3 4 5 6 
#
# 1 0.007262 -0.000911 0.000356 0.000728 0.000727 -0.001414
# 2 -0.000911 0.023940 0.000218 0.009663 0.003507 0.003231
# 3 0.000356 0.000218 0.014683 -0.001170 -0.001669 -0.000561
# 4 0.000728 0.009663 -0.001170 0.029666 0.006986 0.000689
# 5 0.000727 0.003507 -0.001669 0.006986 0.034217 0.001685
# 6 -0.001414 0.003231 -0.000561 0.000689 0.001685 0.020986
#
#
# Mechanical properties :
#
#
# Convention : Reuss Voigt Hill
#
# Bulk Modulus (GPa) = 22.11891 28.92050 25.51970
# Shear Modulus (GPa) = 34.13029 41.52419 37.82724
#
# Velocity S-wave (km/s) = 3.85705 4.25437 4.06057
# Velocity P-wave (km/s) = 5.42927 6.06126 5.75395
#
# Compressibility (1/GPa) = 0.04521019
#
# Stress axis : x y z
#
# Youngs Moduli (GPa) = 137.70259 41.77164 68.10603
#
# Poissons Ratio (x) = 0.03805 -0.02423
# Poissons Ratio (y) = 0.12544 -0.01484
# Poissons Ratio (z) = -0.04899 -0.00910
#
# Static dielectric constant tensor:
#      x y z
#    x 1.808970 0.003380 -0.043200 
#    y 0.003380 1.934520 0.035320 
#    z -0.043200 0.035320 1.901160 
# 
# From -- ./inp_files/8136.got.cif
#   From: 2010.05.17/outbox.cif.g08.bks.cpg/sg2_5_cif.got.tgz:8136.got - 2010.06.03 11:33:40.
