data_PCOD9063185
_publ_section_title
;
Structure prediction by ZEFSAII (Michael W. Deem and Ramdas Pophale) SiO2 
 PCOD9063185
Probable space group: P -1
;
_chemical_formula_sum "Si O2"
_cell_formula_units_Z 16
_cell_length_a 11.240770
_cell_length_b 13.812240
_cell_length_c 17.880126
_cell_angle_alpha 32.286707
_cell_angle_beta 125.922770
_cell_angle_gamma 148.186268
_cell_volume 690.952889
_symmetry_space_group_name_H-M "P -1"
_symmetry_group_IT_number 2
_symmetry_cell_setting 'triclinic'
loop_
_space_group_symop_operation_xyz
x,y,z
-x,-y,-z
loop_
_atom_site_type_symbol
_atom_site_label
_atom_site_fract_x
_atom_site_fract_y
_atom_site_fract_z
Si Si1 0.175692 0.497053 0.683069
Si Si2 0.720669 0.758155 0.181260
Si Si3 0.417414 0.052473 0.327554
Si Si4 0.259928 0.833527 0.161404
Si Si5 0.133335 0.169958 0.359410
Si Si6 0.708820 0.363816 0.074156
Si Si7 0.800693 0.358457 0.883181
Si Si8 0.923472 0.958500 0.739184
O O1 0.138989 0.251980 0.809065
O O2 0.372109 0.708263 0.686288
O O3 0.917844 0.326319 0.728206
O O4 0.289233 0.728256 0.506140
O O5 0.426899 0.403286 0.311875
O O6 0.845707 0.872197 0.234196
O O7 0.748411 0.982113 0.006721
O O8 0.561334 0.207244 0.200968
O O9 0.208934 0.998240 0.302708
O O10 0.145753 0.575006 0.229808
O O11 0.543564 0.090875 0.129431
O O12 0.156144 0.411193 0.208984
O O13 0.005507 0.958651 0.376034
O O14 0.000000 0.000000 0.500000
O O15 0.992040 0.569761 0.053748
O O16 0.723038 0.589301 0.910183
O O17 0.500000 0.000000 0.000000
#
# Coordination Sequence:
#
# PCOD9063185 Si02
#       8
#     2   2   2   2   2   2   2   2
#     4  11  24  43  72 102 148 178 224 291 356 423
#     4  12  24  47  71 101 140 181 233 289 353 416
#     4  11  24  43  72 106 141 183 224 285 363 426
#     4  12  24  44  72 105 136 186 232 291 347 416
#     4  12  29  47  70 102 141 187 236 293 349 406
#     4  12  24  43  75 105 136 183 232 290 349 419
#     4  12  25  48  71 101 138 186 246 283 339 413
#     4  12  24  46  72 100 140 181 234 286 351 419
#
# _framework density 23.156426
#
# number of rings (size 3 to 8) (size 9 to 14) (size 15 to 20)
#    0.000    0.250    6.250    1.500    3.500    5.500 
#    0.000    0.000    0.000    0.000    0.000    0.000 
#    0.000    0.000    0.000    0.000    0.000    0.000 
#
# Total GULP energy -89525.975102 kJ/mol
# GULP energy per Si atom -5595.373444 kJ/mol
# Density = 2.310372 g / cm^3
# Si number density = 23.156426 Si / 1000 Ang^3
#
#
#
# Elastic Constant Matrix: (Units=GPa)
#
#
# Indices 1 2 3 4 5 6 
#
# 1 99.1461 11.8200 14.2168 8.7207 2.5123 2.6598
# 2 11.8200 129.2931 1.5436 11.3195 3.3959 -1.4541
# 3 14.2168 1.5436 75.8415 18.8072 -18.2919 2.9308
# 4 8.7207 11.3195 18.8072 17.7568 -3.8137 -0.1698
# 5 2.5123 3.3959 -18.2919 -3.8137 39.4113 1.9441
# 6 2.6598 -1.4541 2.9308 -0.1698 1.9441 29.9940
#
#
#
# Elastic Compliance Matrix: (Units=1/GPa)
#
#
# Indices 1 2 3 4 5 6 
#
# 1 0.010754 -0.000606 -0.001443 -0.003723 -0.001626 -0.000758
# 2 -0.000606 0.008381 0.001426 -0.006700 -0.000686 0.000327
# 3 -0.001443 0.001426 0.020342 -0.020141 0.007580 -0.002396
# 4 -0.003723 -0.006700 -0.020141 0.083652 -0.000561 0.002483
# 5 -0.001626 -0.000686 0.007580 -0.000561 0.029124 -0.002521
# 6 -0.000758 0.000327 -0.002396 0.002483 -0.002521 0.033835
#
#
# Mechanical properties :
#
#
# Convention : Reuss Voigt Hill
#
# Bulk Modulus (GPa) = 26.15580 39.93792 33.04686
# Shear Modulus (GPa) = 24.99028 35.87908 30.43468
#
# Velocity S-wave (km/s) = 3.28867 3.94054 3.62927
# Velocity P-wave (km/s) = 5.07349 6.16346 5.64484
#
# Compressibility (1/GPa) = 0.03823244
#
# Stress axis : x y z
#
# Youngs Moduli (GPa) = 92.98582 119.31736 49.15888
#
# Poissons Ratio (x) = 0.07228 0.07095
# Poissons Ratio (y) = 0.05633 -0.07012
# Poissons Ratio (z) = 0.13420 -0.17019
#
# Static dielectric constant tensor:
#      x y z
#    x 1.907840 -0.010110 -0.016700 
#    y -0.010110 1.870850 -0.004880 
#    z -0.016700 -0.004880 1.882320 
# 
# From -- ./inp_files/398205.got.cif
#   From: 2010.05.17/outbox.cif.g08.bks.cpg/sg2_200_cif.got.tgz:398205.got - 2010.06.03 11:33:40.
