data_PCOD9063795
_publ_section_title
;
Structure prediction by ZEFSAII (Michael W. Deem and Ramdas Pophale) SiO2 
 PCOD9063795
Probable space group: P -1
;
_chemical_formula_sum "Si O2"
_cell_formula_units_Z 14
_cell_length_a 9.552579
_cell_length_b 7.631621
_cell_length_c 17.684242
_cell_angle_alpha 111.562376
_cell_angle_beta 138.151613
_cell_angle_gamma 100.087729
_cell_volume 552.190771
_symmetry_space_group_name_H-M "P -1"
_symmetry_group_IT_number 2
_symmetry_cell_setting 'triclinic'
loop_
_space_group_symop_operation_xyz
x,y,z
-x,-y,-z
loop_
_atom_site_type_symbol
_atom_site_label
_atom_site_fract_x
_atom_site_fract_y
_atom_site_fract_z
Si Si1 0.571685 0.360826 0.594996
Si Si2 0.544776 0.756920 0.139194
Si Si3 0.635022 0.729732 0.921477
Si Si4 0.832830 0.445758 0.190654
Si Si5 0.363558 0.772658 0.689782
Si Si6 0.327968 0.150922 0.313071
Si Si7 0.888804 0.011846 0.538452
O O1 0.367124 0.121902 0.411493
O O2 0.518462 0.546612 0.590715
O O3 0.916169 0.533896 0.736851
O O4 0.457159 0.236458 0.612922
O O5 0.459993 0.540843 0.131690
O O6 0.908629 0.969182 0.314477
O O7 0.522550 0.958587 0.185559
O O8 0.336437 0.583121 0.955753
O O9 0.457520 0.775079 0.906596
O O10 0.530036 0.712008 0.792270
O O11 0.988238 0.959190 0.117341
O O12 0.010522 0.710516 0.357371
O O13 0.491440 0.867315 0.672162
O O14 0.000000 0.500000 0.500000
O O15 0.000000 0.000000 0.500000
#
# Coordination Sequence:
#
# PCOD9063795 Si02
#       7
#     2   2   2   2   2   2   2
#     4  11  24  44  74 104 150 195 251 307 379 444
#     4  11  26  46  74 106 147 201 243 308 381 440
#     4  11  25  46  71 103 153 191 248 308 372 447
#     4  11  24  46  73 109 148 200 252 304 374 455
#     4  12  27  45  72 111 149 195 258 310 377 445
#     4  11  25  44  71 106 149 199 244 315 377 447
#     4  11  25  44  74 108 148 199 248 311 372 442
#
# _framework density 25.353559000000001
#
# number of rings (size 3 to 8) (size 9 to 14) (size 15 to 20)
#    0.000    0.857    0.000    6.857   10.000    5.143 
#    0.000    0.000    0.000    0.000    0.000    0.000 
#    0.000    0.000    0.000    0.000    0.000    0.000 
#
# Total GULP energy -78221.554264 kJ/mol
# GULP energy per Si atom -5587.253876 kJ/mol
# Density = 2.529585 g / cm^3
# Si number density = 25.353559 Si / 1000 Ang^3
#
#
#
# Elastic Constant Matrix: (Units=GPa)
#
#
# Indices 1 2 3 4 5 6 
#
# 1 149.8317 31.9910 42.9021 1.5441 1.0642 21.1309
# 2 31.9910 92.7243 28.5903 -8.7521 -16.0638 9.3893
# 3 42.9021 28.5903 139.6048 -17.8691 2.8441 14.7391
# 4 1.5441 -8.7521 -17.8691 49.4994 1.3521 -2.2351
# 5 1.0642 -16.0638 2.8441 1.3521 40.1835 4.1427
# 6 21.1309 9.3893 14.7391 -2.2351 4.1427 32.9976
#
#
#
# Elastic Compliance Matrix: (Units=1/GPa)
#
#
# Indices 1 2 3 4 5 6 
#
# 1 0.008219 -0.002087 -0.001867 -0.001461 -0.000471 -0.003876
# 2 -0.002087 0.013427 -0.001786 0.001534 0.005735 -0.002302
# 3 -0.001867 -0.001786 0.008682 0.002826 -0.001185 -0.001834
# 4 -0.001461 0.001534 0.002826 0.021582 -0.000351 0.000743
# 5 -0.000471 0.005735 -0.001185 -0.000351 0.027731 -0.004306
# 6 -0.003876 -0.002302 -0.001834 0.000743 -0.004306 0.034852
#
#
# Mechanical properties :
#
#
# Convention : Reuss Voigt Hill
#
# Bulk Modulus (GPa) = 53.05414 65.45860 59.25637
# Shear Modulus (GPa) = 37.80549 43.11460 40.46004
#
# Velocity S-wave (km/s) = 3.86571 4.12823 3.99912
# Velocity P-wave (km/s) = 6.39500 6.97118 6.68930
#
# Compressibility (1/GPa) = 0.01884867
#
# Stress axis : x y z
#
# Youngs Moduli (GPa) = 121.66479 74.47746 115.18099
#
# Poissons Ratio (x) = 0.15546 0.21501
# Poissons Ratio (y) = 0.25396 0.20568
# Poissons Ratio (z) = 0.22711 0.13300
#
# Static dielectric constant tensor:
#      x y z
#    x 2.109130 0.057640 -0.013900 
#    y 0.057640 2.076990 -0.004650 
#    z -0.013900 -0.004650 2.073510 
# 
# From -- ./inp_files/557515.got.cif
#   From: 2010.05.17/outbox.cif.g08.bks.cpg/sg2_279_cif.got.tgz:557515.got - 2010.06.03 11:33:40.
