data_PCOD9063232
_publ_section_title
;
Structure prediction by ZEFSAII (Michael W. Deem and Ramdas Pophale) SiO2 
 PCOD9063232
Probable space group: P -1
;
_chemical_formula_sum "Si O2"
_cell_formula_units_Z 16
_cell_length_a 9.333894
_cell_length_b 14.101229
_cell_length_c 11.388530
_cell_angle_alpha 31.870270
_cell_angle_beta 109.982965
_cell_angle_gamma 95.646232
_cell_volume 685.960738
_symmetry_space_group_name_H-M "P -1"
_symmetry_group_IT_number 2
_symmetry_cell_setting 'triclinic'
loop_
_space_group_symop_operation_xyz
x,y,z
-x,-y,-z
loop_
_atom_site_type_symbol
_atom_site_label
_atom_site_fract_x
_atom_site_fract_y
_atom_site_fract_z
Si Si1 0.615034 0.709471 0.741164
Si Si2 0.124374 0.554170 0.753204
Si Si3 0.002579 0.985430 0.239172
Si Si4 0.226022 0.424529 0.315607
Si Si5 0.289898 0.936669 0.538904
Si Si6 0.898397 0.702874 0.189996
Si Si7 0.312196 0.794459 0.958871
Si Si8 0.609284 0.805073 0.168452
O O1 0.652597 0.690529 0.633718
O O2 0.424853 0.797256 0.632454
O O3 0.683620 0.863820 0.649997
O O4 0.725100 0.507208 0.048395
O O5 0.082501 0.760028 0.459163
O O6 0.159171 0.382635 0.849833
O O7 0.957204 0.571026 0.756560
O O8 0.110061 0.981238 0.389870
O O9 0.816654 0.034378 0.178311
O O10 0.014926 0.151744 0.981588
O O11 0.289160 0.340470 0.549339
O O12 0.232080 0.635448 0.098122
O O13 0.322755 0.851017 0.768531
O O14 0.741245 0.828233 0.091756
O O15 0.000000 0.500000 0.500000
O O16 0.488397 0.730120 0.139364
O O17 0.500000 0.000000 0.000000
#
# Coordination Sequence:
#
# PCOD9063232 Si02
#       8
#     2   2   2   2   2   2   2   2
#     4  11  24  43  73 103 151 188 239 306 369 433
#     4  12  24  47  74 110 143 195 243 301 372 430
#     4  12  26  46  77 109 145 193 243 303 369 438
#     4  12  25  46  69 105 149 193 242 304 365 438
#     4  11  24  44  71 108 143 190 243 305 367 438
#     4  12  26  51  74 107 150 189 247 302 361 438
#     4  12  25  46  73 106 146 189 247 302 367 437
#     4  12  27  48  72 105 147 195 248 300 368 434
#
# _framework density 23.324950999999999
#
# number of rings (size 3 to 8) (size 9 to 14) (size 15 to 20)
#    0.000    0.250    3.750    4.875    3.500    3.500 
#    2.250    0.000    0.000    0.000    0.000    0.000 
#    0.000    0.000    0.000    0.000    0.000    0.000 
#
# Total GULP energy -89575.250875 kJ/mol
# GULP energy per Si atom -5598.453180 kJ/mol
# Density = 2.327186 g / cm^3
# Si number density = 23.324951 Si / 1000 Ang^3
#
#
#
# Elastic Constant Matrix: (Units=GPa)
#
#
# Indices 1 2 3 4 5 6 
#
# 1 74.7817 43.6384 9.6866 5.4792 5.8812 -24.3260
# 2 43.6384 72.9227 28.0728 6.4423 -9.3713 -22.7833
# 3 9.6866 28.0728 71.7209 3.3994 -13.1035 -6.4795
# 4 5.4792 6.4423 3.3994 42.4933 5.0470 0.2106
# 5 5.8812 -9.3713 -13.1035 5.0470 32.4231 0.7584
# 6 -24.3260 -22.7833 -6.4795 0.2106 0.7584 52.7535
#
#
#
# Elastic Compliance Matrix: (Units=1/GPa)
#
#
# Indices 1 2 3 4 5 6 
#
# 1 0.023751 -0.014142 0.001342 -0.000106 -0.007957 0.005124
# 2 -0.014142 0.027463 -0.006837 -0.002773 0.008069 0.004395
# 3 0.001342 -0.006837 0.017377 -0.001117 0.004984 -0.000267
# 4 -0.000106 -0.002773 -0.001117 0.024662 -0.005040 -0.001410
# 5 -0.007957 0.008069 0.004984 -0.005040 0.037418 -0.000090
# 6 0.005124 0.004395 -0.000267 -0.001410 -0.000090 0.023191
#
#
# Mechanical properties :
#
#
# Convention : Reuss Voigt Hill
#
# Bulk Modulus (GPa) = 34.10931 42.46897 38.28914
# Shear Modulus (GPa) = 24.64152 34.73582 29.68867
#
# Velocity S-wave (km/s) = 3.25383 3.86322 3.57154
# Velocity P-wave (km/s) = 5.36393 6.17627 5.78438
#
# Compressibility (1/GPa) = 0.02931751
#
# Stress axis : x y z
#
# Youngs Moduli (GPa) = 42.10280 36.41268 57.54703
#
# Poissons Ratio (x) = 0.51495 -0.07722
# Poissons Ratio (y) = 0.59542 0.39344
# Poissons Ratio (z) = -0.05650 0.24895
#
# Static dielectric constant tensor:
#      x y z
#    x 1.849840 -0.016960 -0.004180 
#    y -0.016960 1.890010 -0.027980 
#    z -0.004180 -0.027980 1.942190 
# 
# From -- ./inp_files/398204.got.cif
#   From: 2010.05.17/outbox.cif.g08.bks.cpg/sg2_200_cif.got.tgz:398204.got - 2010.06.03 11:33:40.
