data_PCOD9063203
_publ_section_title
;
Structure prediction by ZEFSAII (Michael W. Deem and Ramdas Pophale) SiO2 
 PCOD9063203
Probable space group: P -1
;
_chemical_formula_sum "Si O2"
_cell_formula_units_Z 16
_cell_length_a 11.084792
_cell_length_b 10.933115
_cell_length_c 19.434740
_cell_angle_alpha 138.829731
_cell_angle_beta 31.202680
_cell_angle_gamma 146.939143
_cell_volume 660.269764
_symmetry_space_group_name_H-M "P -1"
_symmetry_group_IT_number 2
_symmetry_cell_setting 'triclinic'
loop_
_space_group_symop_operation_xyz
x,y,z
-x,-y,-z
loop_
_atom_site_type_symbol
_atom_site_label
_atom_site_fract_x
_atom_site_fract_y
_atom_site_fract_z
Si Si1 0.354304 0.350551 0.440816
Si Si2 0.557657 0.244432 0.496932
Si Si3 0.821966 0.582932 0.724067
Si Si4 0.087711 0.055656 0.739814
Si Si5 0.604213 0.055876 0.171722
Si Si6 0.710886 0.172423 0.911250
Si Si7 0.808288 0.637654 0.048398
Si Si8 0.261865 0.847967 0.375735
O O1 0.500000 0.500000 0.500000
O O2 0.411003 0.520964 0.423947
O O3 0.480827 0.208476 0.303148
O O4 0.018627 0.222886 0.558684
O O5 0.401041 0.138267 0.599793
O O6 0.856170 0.284042 0.347878
O O7 0.348568 0.067182 0.467738
O O8 0.521721 0.493211 0.867702
O O9 0.783276 0.343528 0.630634
O O10 0.878247 0.782552 0.730541
O O11 0.120274 0.185975 0.849901
O O12 0.964449 0.140180 0.778766
O O13 0.456825 0.906451 0.112253
O O14 0.498602 0.906271 0.228559
O O15 0.942473 0.217289 0.066598
O O16 0.824642 0.431175 0.978217
O O17 0.500000 0.000000 0.000000
#
# Coordination Sequence:
#
# PCOD9063203 Si02
#       8
#     2   2   2   2   2   2   2   2
#     4  11  24  43  72 107 139 176 229 288 353 410
#     4  11  25  44  71 105 138 187 233 291 347 412
#     4  11  26  47  69 101 144 188 239 284 342 413
#     4  12  25  45  72 103 142 182 238 287 352 409
#     4  12  26  44  73 106 141 184 227 291 352 415
#     4  12  25  44  70 106 139 178 230 288 353 411
#     4  12  26  45  70 103 142 186 231 289 347 413
#     4  11  26  46  72 102 144 182 235 285 349 414
#
# _framework density 24.232519
#
# number of rings (size 3 to 8) (size 9 to 14) (size 15 to 20)
#    0.000    0.500    3.750    3.375    5.250    3.500 
#    0.000    3.125    0.000    0.000    0.000    0.000 
#    0.000    0.000    0.000    0.000    0.000    0.000 
#
# Total GULP energy -89334.206895 kJ/mol
# GULP energy per Si atom -5583.387931 kJ/mol
# Density = 2.417736 g / cm^3
# Si number density = 24.232519 Si / 1000 Ang^3
#
#
#
# Elastic Constant Matrix: (Units=GPa)
#
#
# Indices 1 2 3 4 5 6 
#
# 1 42.1018 41.1122 37.1128 1.7056 -8.5638 5.8838
# 2 41.1122 128.2273 59.8494 -19.3262 -3.3956 -14.1614
# 3 37.1128 59.8494 117.8699 -29.1591 -11.8442 3.0757
# 4 1.7056 -19.3262 -29.1591 51.2777 -0.0383 -12.6722
# 5 -8.5638 -3.3956 -11.8442 -0.0383 49.6159 4.3694
# 6 5.8838 -14.1614 3.0757 -12.6722 4.3694 41.6793
#
#
#
# Elastic Compliance Matrix: (Units=1/GPa)
#
#
# Indices 1 2 3 4 5 6 
#
# 1 0.057753 -0.017584 -0.013195 -0.021071 0.007389 -0.020335
# 2 -0.017584 0.016520 -0.001274 0.008856 -0.003189 0.011216
# 3 -0.013195 -0.001274 0.015706 0.009654 0.001120 0.003089
# 4 -0.021071 0.008856 0.009654 0.032853 -0.002064 0.015476
# 5 0.007389 -0.003189 0.001120 -0.002064 0.021930 -0.005136
# 6 -0.020335 0.011216 0.003089 0.015476 -0.005136 0.035690
#
#
# Mechanical properties :
#
#
# Convention : Reuss Voigt Hill
#
# Bulk Modulus (GPa) = 38.65180 62.70531 50.67856
# Shear Modulus (GPa) = 19.74864 38.52288 29.13576
#
# Velocity S-wave (km/s) = 2.85786 3.99145 3.47124
# Velocity P-wave (km/s) = 5.18409 6.86840 6.08481
#
# Compressibility (1/GPa) = 0.02587202
#
# Stress axis : x y z
#
# Youngs Moduli (GPa) = 17.31526 60.53273 63.67081
#
# Poissons Ratio (x) = 1.06438 0.84017
# Poissons Ratio (y) = 0.30446 0.08112
# Poissons Ratio (z) = 0.22848 0.07712
#
# Static dielectric constant tensor:
#      x y z
#    x 1.956800 -0.031130 -0.031140 
#    y -0.031130 1.944700 -0.036930 
#    z -0.031140 -0.036930 1.967060 
# 
# From -- ./inp_files/471257.got.cif
#   From: 2010.05.17/outbox.cif.g08.bks.cpg/sg2_236_cif.got.tgz:471257.got - 2010.06.03 11:33:40.
