data_PCOD9063567
_publ_section_title
;
Structure prediction by ZEFSAII (Michael W. Deem and Ramdas Pophale) SiO2 
 PCOD9063567
Probable space group: P -1
;
_chemical_formula_sum "Si O2"
_cell_formula_units_Z 14
_cell_length_a 14.389829
_cell_length_b 14.159863
_cell_length_c 23.067803
_cell_angle_alpha 159.975794
_cell_angle_beta 22.032668
_cell_angle_gamma 149.630579
_cell_volume 602.543494
_symmetry_space_group_name_H-M "P -1"
_symmetry_group_IT_number 2
_symmetry_cell_setting 'triclinic'
loop_
_space_group_symop_operation_xyz
x,y,z
-x,-y,-z
loop_
_atom_site_type_symbol
_atom_site_label
_atom_site_fract_x
_atom_site_fract_y
_atom_site_fract_z
Si Si1 0.258714 0.637498 0.592683
Si Si2 0.447029 0.126528 0.262448
Si Si3 0.766793 0.432065 0.777729
Si Si4 0.189902 0.710216 0.537031
Si Si5 0.471615 0.477035 0.863160
Si Si6 0.978696 0.270755 0.016944
Si Si7 0.733699 0.835623 0.483825
O O1 0.370589 0.335324 0.375350
O O2 0.235814 0.666821 0.553874
O O3 0.457675 0.839832 0.618837
O O4 0.980710 0.642985 0.782467
O O5 0.299554 0.205664 0.451997
O O6 0.739019 0.168970 0.129727
O O7 0.422464 0.806465 0.078635
O O8 0.698593 0.418368 0.741674
O O9 0.850778 0.124600 0.572660
O O10 0.500000 0.500000 0.000000
O O11 0.442939 0.651700 0.321547
O O12 0.000000 0.500000 0.500000
O O13 0.065609 0.019213 0.779942
O O14 0.225221 0.341165 0.949433
O O15 0.887656 0.568950 0.215637
#
# Coordination Sequence:
#
# PCOD9063567 Si02
#       7
#     2   2   2   2   2   2   2
#     4  11  25  45  69  99 138 183 228 277 341 405
#     4  11  24  45  69 103 143 179 219 287 341 412
#     4  12  25  40  69 104 136 178 226 277 341 406
#     4  12  24  49  70  96 141 181 236 279 335 406
#     4  12  25  45  72 102 139 181 227 284 341 399
#     4  11  24  44  70  97 136 183 224 283 335 398
#     4  11  26  45  68 106 142 177 227 277 348 411
#
# _framework density 23.234838
#
# number of rings (size 3 to 8) (size 9 to 14) (size 15 to 20)
#    0.000    0.571    4.286    3.857    4.000    2.286 
#    0.000    3.571    0.000    0.000    0.000    0.000 
#    0.000    0.000    0.000    0.000    0.000    0.000 
#
# Total GULP energy -78302.495776 kJ/mol
# GULP energy per Si atom -5593.035413 kJ/mol
# Density = 2.318195 g / cm^3
# Si number density = 23.234838 Si / 1000 Ang^3
#
#
#
# Elastic Constant Matrix: (Units=GPa)
#
#
# Indices 1 2 3 4 5 6 
#
# 1 74.5531 21.1141 25.3928 -14.5884 -2.3099 -6.5416
# 2 21.1141 94.2511 30.8503 -6.7403 -4.3068 17.1671
# 3 25.3928 30.8503 121.4718 16.1929 6.6494 -6.3184
# 4 -14.5884 -6.7403 16.1929 46.0924 3.3754 -6.1036
# 5 -2.3099 -4.3068 6.6494 3.3754 26.3493 -8.8197
# 6 -6.5416 17.1671 -6.3184 -6.1036 -8.8197 38.8705
#
#
#
# Elastic Compliance Matrix: (Units=1/GPa)
#
#
# Indices 1 2 3 4 5 6 
#
# 1 0.017438 -0.003077 -0.003654 0.006861 0.002887 0.005432
# 2 -0.003077 0.013775 -0.003406 0.001300 0.000377 -0.006866
# 3 -0.003654 -0.003406 0.010741 -0.005076 -0.002513 0.001268
# 4 0.006861 0.001300 -0.005076 0.026355 0.000024 0.003899
# 5 0.002887 0.000377 -0.002513 0.000024 0.042064 0.009459
# 6 0.005432 -0.006866 0.001268 0.003899 0.009459 0.032638
#
#
# Mechanical properties :
#
#
# Convention : Reuss Voigt Hill
#
# Bulk Modulus (GPa) = 46.12625 49.44338 47.78481
# Shear Modulus (GPa) = 29.32354 36.45702 32.89028
#
# Velocity S-wave (km/s) = 3.55639 3.96544 3.76647
# Velocity P-wave (km/s) = 6.06293 6.50326 6.28695
#
# Compressibility (1/GPa) = 0.02167963
#
# Stress axis : x y z
#
# Youngs Moduli (GPa) = 57.34669 72.59532 93.09733
#
# Poissons Ratio (x) = 0.22340 0.34015
# Poissons Ratio (y) = 0.17648 0.31711
# Poissons Ratio (z) = 0.20953 0.24728
#
# Static dielectric constant tensor:
#      x y z
#    x 1.867920 0.008050 -0.037050 
#    y 0.008050 1.894790 -0.028420 
#    z -0.037050 -0.028420 1.894370 
# 
# From -- ./inp_files/332702.got.cif
#   From: 2010.05.17/outbox.cif.g08.bks.cpg/sg2_167_cif.got.tgz:332702.got - 2010.06.03 11:33:40.
