data_PCOD9063943
_publ_section_title
;
Structure prediction by ZEFSAII (Michael W. Deem and Ramdas Pophale) SiO2 
 PCOD9063943
Probable space group: P -1
;
_chemical_formula_sum "Si O2"
_cell_formula_units_Z 15
_cell_length_a 9.214950
_cell_length_b 8.386084
_cell_length_c 13.011696
_cell_angle_alpha 104.150728
_cell_angle_beta 118.923650
_cell_angle_gamma 52.140591
_cell_volume 692.848757
_symmetry_space_group_name_H-M "P -1"
_symmetry_group_IT_number 2
_symmetry_cell_setting 'triclinic'
loop_
_space_group_symop_operation_xyz
x,y,z
-x,-y,-z
loop_
_atom_site_type_symbol
_atom_site_label
_atom_site_fract_x
_atom_site_fract_y
_atom_site_fract_z
Si Si1 0.894239 0.987103 0.649983
Si Si2 0.344315 0.464448 0.217725
Si Si3 0.500000 0.000000 0.500000
Si Si4 0.257506 0.566927 0.616346
Si Si5 0.027622 0.882592 0.093867
Si Si6 0.645465 0.822079 0.299673
Si Si7 0.364899 0.098637 0.069604
Si Si8 0.096831 0.654916 0.363148
O O1 0.864483 0.171717 0.603985
O O2 0.990979 0.993204 0.791898
O O3 0.681640 0.020870 0.603896
O O4 0.052135 0.775130 0.615128
O O5 0.560125 0.408154 0.321614
O O6 0.363440 0.287586 0.133871
O O7 0.194610 0.525107 0.273327
O O8 0.242212 0.666084 0.146280
O O9 0.593658 0.952838 0.405648
O O10 0.312855 0.387637 0.682732
O O11 0.214516 0.516338 0.480895
O O12 0.856318 0.841582 0.024603
O O13 0.000000 0.000000 0.000000
O O14 0.857079 0.763125 0.312136
O O15 0.467039 0.941427 0.174291
O O16 0.500000 0.000000 0.000000
#
# Coordination Sequence:
#
# PCOD9063943 Si02
#       8
#     2   2   1   2   2   2   2   2
#     4  11  25  45  72 101 144 184 232 287 354 421
#     4  11  25  43  73 101 136 188 237 283 352 414
#     4  12  26  44  70 104 144 178 232 288 360 408
#     4  12  24  44  66 107 143 182 227 289 356 420
#     4  11  24  47  67 100 137 185 233 289 344 410
#     4  12  27  43  70 107 143 182 236 289 350 418
#     4  12  26  47  72  99 140 187 241 286 340 415
#     4  11  24  45  67 105 145 181 231 285 357 425
#
# _framework density 21.649747000000001
#
# number of rings (size 3 to 8) (size 9 to 14) (size 15 to 20)
#    0.000    0.533    1.333    8.000    3.733    2.133 
#    0.000    2.667    0.000    0.000    0.000    0.000 
#    0.000    0.000    0.000    0.000    0.000    0.000 
#
# Total GULP energy -83781.821102 kJ/mol
# GULP energy per Si atom -5585.454740 kJ/mol
# Density = 2.160047 g / cm^3
# Si number density = 21.649747 Si / 1000 Ang^3
#
#
#
# Elastic Constant Matrix: (Units=GPa)
#
#
# Indices 1 2 3 4 5 6 
#
# 1 93.0698 13.9686 16.7601 2.8705 11.4432 -13.3683
# 2 13.9686 74.7405 26.0096 15.1643 -22.5460 -10.7811
# 3 16.7601 26.0096 107.1738 1.1668 -1.8226 2.1905
# 4 2.8705 15.1643 1.1668 33.4221 -0.1614 3.6360
# 5 11.4432 -22.5460 -1.8226 -0.1614 51.5969 -6.3363
# 6 -13.3683 -10.7811 2.1905 3.6360 -6.3363 20.6387
#
#
#
# Elastic Compliance Matrix: (Units=1/GPa)
#
#
# Indices 1 2 3 4 5 6 
#
# 1 0.012642 -0.001151 -0.001874 -0.001299 -0.002486 0.007252
# 2 -0.001151 0.025201 -0.005963 -0.013183 0.013409 0.019491
# 3 -0.001874 -0.005963 0.011132 0.003214 -0.002632 -0.006884
# 4 -0.001299 -0.013183 0.003214 0.037711 -0.007324 -0.016961
# 5 -0.002486 0.013409 -0.002632 -0.007324 0.027570 0.015428
# 6 0.007252 0.019491 -0.006884 -0.016961 0.015428 0.071787
#
#
# Mechanical properties :
#
#
# Convention : Reuss Voigt Hill
#
# Bulk Modulus (GPa) = 32.25892 43.16230 37.71061
# Shear Modulus (GPa) = 23.32621 35.68126 29.50374
#
# Velocity S-wave (km/s) = 3.28599 4.06410 3.69558
# Velocity P-wave (km/s) = 5.41569 6.48093 5.97211
#
# Compressibility (1/GPa) = 0.03099918
#
# Stress axis : x y z
#
# Youngs Moduli (GPa) = 79.09962 39.68137 89.83331
#
# Poissons Ratio (x) = 0.04568 0.16835
# Poissons Ratio (y) = 0.09105 0.53565
# Poissons Ratio (z) = 0.14824 0.23661
#
# Static dielectric constant tensor:
#      x y z
#    x 1.792980 0.003830 0.016710 
#    y 0.003830 1.804940 -0.023220 
#    z 0.016710 -0.023220 1.786500 
# 
# From -- ./inp_files/221522.got.cif
#   From: 2010.05.17/outbox.cif.g08.bks.cpg/sg2_111_cif.got.tgz:221522.got - 2010.06.03 11:33:40.
