data_PCOD9063652
_publ_section_title
;
Structure prediction by ZEFSAII (Michael W. Deem and Ramdas Pophale) SiO2 
 PCOD9063652
Probable space group: P -1
;
_chemical_formula_sum "Si O2"
_cell_formula_units_Z 16
_cell_length_a 6.820497
_cell_length_b 13.397000
_cell_length_c 7.952968
_cell_angle_alpha 100.675570
_cell_angle_beta 98.600461
_cell_angle_gamma 104.749731
_cell_volume 675.629741
_symmetry_space_group_name_H-M "P -1"
_symmetry_group_IT_number 2
_symmetry_cell_setting 'triclinic'
loop_
_space_group_symop_operation_xyz
x,y,z
-x,-y,-z
loop_
_atom_site_type_symbol
_atom_site_label
_atom_site_fract_x
_atom_site_fract_y
_atom_site_fract_z
Si Si1 0.349058 0.927021 0.597475
Si Si2 0.068940 0.177579 0.653624
Si Si3 0.561604 0.262112 0.266638
Si Si4 0.597667 0.888649 0.116667
Si Si5 0.812938 0.266066 0.887384
Si Si6 0.361119 0.535397 0.137936
Si Si7 0.003631 0.627334 0.762500
Si Si8 0.318071 0.352568 0.508708
O O1 0.379993 0.812313 0.606340
O O2 0.118630 0.905680 0.488653
O O3 0.500000 0.000000 0.500000
O O4 0.370914 0.988126 0.799332
O O5 0.196506 0.131277 0.787695
O O6 0.232726 0.243429 0.563565
O O7 0.968568 0.260315 0.758653
O O8 0.410500 0.322716 0.340396
O O9 0.761051 0.356471 0.261585
O O10 0.453201 0.178634 0.082241
O O11 0.388284 0.833593 0.177076
O O12 0.717591 0.364932 0.898494
O O13 0.936143 0.266789 0.078681
O O14 0.147503 0.453735 0.152867
O O15 0.513435 0.570496 0.328037
O O16 0.500000 0.500000 0.000000
O O17 0.877533 0.613557 0.569338
#
# Coordination Sequence:
#
# PCOD9063652 Si02
#       8
#     2   2   2   2   2   2   2   2
#     4  12  23  45  72 105 142 187 241 286 349 422
#     4  12  23  45  73 102 140 187 235 288 356 407
#     4  11  26  47  69 105 149 183 237 288 353 414
#     4  11  24  44  72 101 143 186 231 293 345 419
#     4  11  24  47  69 100 141 183 234 289 347 422
#     4  12  27  48  75 104 139 184 241 286 351 426
#     4  11  26  45  70 102 142 187 227 292 355 402
#     4  12  25  46  72 101 145 182 235 295 345 420
#
# _framework density 23.681611
#
# number of rings (size 3 to 8) (size 9 to 14) (size 15 to 20)
#    0.000    0.500    3.750    4.500    3.500    0.500 
#    0.000    1.250    0.000    0.000    0.000    0.000 
#    0.000    0.000    0.000    0.000    0.000    0.000 
#
# Total GULP energy -89302.917096 kJ/mol
# GULP energy per Si atom -5581.432319 kJ/mol
# Density = 2.362771 g / cm^3
# Si number density = 23.681611 Si / 1000 Ang^3
#
#
#
# Elastic Constant Matrix: (Units=GPa)
#
#
# Indices 1 2 3 4 5 6 
#
# 1 86.0011 19.3820 31.8673 17.5381 5.9952 14.1903
# 2 19.3820 60.4169 -3.0217 10.8058 6.6757 0.9006
# 3 31.8673 -3.0217 114.2139 17.5434 19.8092 4.2383
# 4 17.5381 10.8058 17.5434 27.8513 4.5811 8.9566
# 5 5.9952 6.6757 19.8092 4.5811 53.6056 -1.8676
# 6 14.1903 0.9006 4.2383 8.9566 -1.8676 27.3244
#
#
#
# Elastic Compliance Matrix: (Units=1/GPa)
#
#
# Indices 1 2 3 4 5 6 
#
# 1 0.015835 -0.004509 -0.003758 -0.003914 0.000298 -0.006189
# 2 -0.004509 0.019726 0.003226 -0.007587 -0.002374 0.003515
# 3 -0.003758 0.003226 0.011375 -0.006041 -0.003606 0.001815
# 4 -0.003914 -0.007587 -0.006041 0.049500 -0.001071 -0.013079
# 5 0.000298 -0.002374 -0.003606 -0.001071 0.020419 0.002229
# 6 -0.006189 0.003515 0.001815 -0.013079 0.002229 0.043853
#
#
# Mechanical properties :
#
#
# Convention : Reuss Voigt Hill
#
# Bulk Modulus (GPa) = 27.13311 39.67635 33.40473
# Shear Modulus (GPa) = 27.31117 35.91656 31.61386
#
# Velocity S-wave (km/s) = 3.39966 3.89864 3.65767
# Velocity P-wave (km/s) = 5.18581 6.08739 5.65459
#
# Compressibility (1/GPa) = 0.03685533
#
# Stress axis : x y z
#
# Youngs Moduli (GPa) = 63.15135 50.69403 87.90878
#
# Poissons Ratio (x) = 0.22856 0.33040
# Poissons Ratio (y) = 0.28473 -0.28363
# Poissons Ratio (z) = 0.23735 -0.16356
#
# Static dielectric constant tensor:
#      x y z
#    x 1.889180 0.000140 -0.012670 
#    y 0.000140 1.904740 -0.020990 
#    z -0.012670 -0.020990 1.940900 
# 
# From -- ./inp_files/135761.got.cif
#   From: 2010.05.17/outbox.cif.g08.bks.cpg/sg2_68_cif.got.tgz:135761.got - 2010.06.03 11:33:40.
