data_PCOD9063970
_publ_section_title
;
Structure prediction by ZEFSAII (Michael W. Deem and Ramdas Pophale) SiO2 
 PCOD9063970
Probable space group: P -1
;
_chemical_formula_sum "Si O2"
_cell_formula_units_Z 16
_cell_length_a 11.712320
_cell_length_b 9.429390
_cell_length_c 19.507579
_cell_angle_alpha 135.997950
_cell_angle_beta 37.272747
_cell_angle_gamma 109.102386
_cell_volume 736.604014
_symmetry_space_group_name_H-M "P -1"
_symmetry_group_IT_number 2
_symmetry_cell_setting 'triclinic'
loop_
_space_group_symop_operation_xyz
x,y,z
-x,-y,-z
loop_
_atom_site_type_symbol
_atom_site_label
_atom_site_fract_x
_atom_site_fract_y
_atom_site_fract_z
Si Si1 0.011821 0.965428 0.193297
Si Si2 0.549909 0.175454 0.991614
Si Si3 0.854499 0.256907 0.616026
Si Si4 0.310083 0.506295 0.505051
Si Si5 0.350546 0.878769 0.459096
Si Si6 0.195425 0.286242 0.383560
Si Si7 0.321003 0.362014 0.602975
Si Si8 0.128337 0.560208 0.902872
O O1 0.265046 0.807085 0.049156
O O2 0.934076 0.243842 0.313817
O O3 0.829067 0.997248 0.347998
O O4 0.022867 0.843096 0.073464
O O5 0.678962 0.989199 0.802270
O O6 0.353891 0.461440 0.162784
O O7 0.500000 0.000000 0.000000
O O8 0.759856 0.196207 0.572625
O O9 0.046821 0.301161 0.522121
O O10 0.000000 0.000000 0.500000
O O11 0.375348 0.331068 0.346370
O O12 0.278851 0.417353 0.561706
O O13 0.485523 0.585585 0.457234
O O14 0.598474 0.636168 0.279543
O O15 0.393459 0.082138 0.483471
O O16 0.000000 0.500000 0.500000
O O17 0.118838 0.524946 0.813556
O O18 0.000000 0.500000 0.000000
#
# Coordination Sequence:
#
# PCOD9063970 Si02
#       8
#     2   2   2   2   2   2   2   2
#     4  12  23  42  72 100 137 189 247 296 357 437
#     4  12  25  42  73 111 139 192 254 296 363 448
#     4  12  26  45  72 107 148 188 237 313 377 426
#     4  11  24  45  68 105 147 194 235 301 375 430
#     4  12  23  46  71 101 145 188 245 303 361 442
#     4  12  23  45  75 102 144 196 244 294 364 445
#     4  11  25  43  70 101 148 189 235 308 371 424
#     4  12  24  41  73 102 133 190 248 296 354 435
#
# _framework density 21.721305999999998
#
# number of rings (size 3 to 8) (size 9 to 14) (size 15 to 20)
#    0.000    0.250    7.500    1.875    1.750    1.000 
#    0.000    0.000    5.500    0.000    0.000    0.000 
#    0.000    0.000    0.000    0.000    0.000    0.000 
#
# Total GULP energy -89222.788878 kJ/mol
# GULP energy per Si atom -5576.424305 kJ/mol
# Density = 2.167187 g / cm^3
# Si number density = 21.721306 Si / 1000 Ang^3
#
#
#
# Elastic Constant Matrix: (Units=GPa)
#
#
# Indices 1 2 3 4 5 6 
#
# 1 92.3823 22.9536 20.2998 -1.2604 16.9105 -2.5921
# 2 22.9536 123.6443 29.6451 5.8594 -2.7069 -16.6165
# 3 20.2998 29.6451 111.4623 10.3215 11.2094 -10.9698
# 4 -1.2604 5.8594 10.3215 35.6153 7.2132 -0.0145
# 5 16.9105 -2.7069 11.2094 7.2132 42.2887 5.4453
# 6 -2.5921 -16.6165 -10.9698 -0.0145 5.4453 34.4698
#
#
#
# Elastic Compliance Matrix: (Units=1/GPa)
#
#
# Indices 1 2 3 4 5 6 
#
# 1 0.012680 -0.002210 -0.001374 0.002279 -0.005273 0.000285
# 2 -0.002210 0.009522 -0.001821 -0.001474 0.001768 0.003565
# 3 -0.001374 -0.001821 0.010414 -0.002304 -0.002281 0.002693
# 4 0.002279 -0.001474 -0.002304 0.030181 -0.005492 -0.000392
# 5 -0.005273 0.001768 -0.002281 -0.005492 0.028015 -0.004698
# 6 0.000285 0.003565 0.002693 -0.000392 -0.004698 0.032350
#
#
# Mechanical properties :
#
#
# Convention : Reuss Voigt Hill
#
# Bulk Modulus (GPa) = 45.85714 52.58732 49.22223
# Shear Modulus (GPa) = 35.40093 39.44745 37.42419
#
# Velocity S-wave (km/s) = 4.04143 4.26616 4.15532
# Velocity P-wave (km/s) = 6.55248 6.96631 6.76256
#
# Compressibility (1/GPa) = 0.02180686
#
# Stress axis : x y z
#
# Youngs Moduli (GPa) = 78.86529 105.01970 96.02544
#
# Poissons Ratio (x) = 0.23204 0.13197
# Poissons Ratio (y) = 0.17426 0.17483
# Poissons Ratio (z) = 0.10838 0.19120
#
# Static dielectric constant tensor:
#      x y z
#    x 1.849300 0.052120 0.042850 
#    y 0.052120 1.567980 -0.036160 
#    z 0.042850 -0.036160 1.767900 
# 
# From -- ./inp_files/566926.got.cif
#   From: 2010.05.17/outbox.cif.g08.bks.cpg/sg2_284_cif.got.tgz:566926.got - 2010.06.03 11:33:40.
