data_PCOD9063012
_publ_section_title
;
Structure prediction by ZEFSAII (Michael W. Deem and Ramdas Pophale) SiO2 
 PCOD9063012
Probable space group: P -1
;
_chemical_formula_sum "Si O2"
_cell_formula_units_Z 16
_cell_length_a 10.482769
_cell_length_b 11.831709
_cell_length_c 9.610553
_cell_angle_alpha 122.829508
_cell_angle_beta 108.318161
_cell_angle_gamma 49.293491
_cell_volume 757.837511
_symmetry_space_group_name_H-M "P -1"
_symmetry_group_IT_number 2
_symmetry_cell_setting 'triclinic'
loop_
_space_group_symop_operation_xyz
x,y,z
-x,-y,-z
loop_
_atom_site_type_symbol
_atom_site_label
_atom_site_fract_x
_atom_site_fract_y
_atom_site_fract_z
Si Si1 0.653293 0.476706 0.330472
Si Si2 0.631057 0.740065 0.293879
Si Si3 0.265396 0.026569 0.937719
Si Si4 0.646018 0.739454 0.983102
Si Si5 0.979937 0.867069 0.832861
Si Si6 0.653591 0.489436 0.658667
Si Si7 0.816337 0.097024 0.436960
Si Si8 0.264674 0.044905 0.439086
O O1 0.625258 0.614077 0.305577
O O2 0.838075 0.307455 0.249053
O O3 0.627851 0.543563 0.524821
O O4 0.512160 0.445104 0.261897
O O5 0.750587 0.787191 0.423064
O O6 0.443685 0.915830 0.340482
O O7 0.672280 0.680869 0.111090
O O8 0.284108 0.154104 0.946234
O O9 0.139500 0.131159 0.092253
O O10 0.449104 0.871886 0.956020
O O11 0.199052 0.954483 0.757547
O O12 0.733961 0.570841 0.809526
O O13 0.879499 0.923657 0.690750
O O14 0.000000 0.000000 0.000000
O O15 0.745260 0.290823 0.549956
O O16 0.726817 0.045708 0.476260
O O17 0.000000 0.000000 0.500000
#
# Coordination Sequence:
#
# PCOD9063012 Si02
#       8
#     2   2   2   2   2   2   2   2
#     4  11  25  44  71  98 140 178 225 286 345 408
#     4  11  24  44  69 101 136 181 227 285 338 402
#     4  11  24  44  70 101 139 182 233 277 341 414
#     4  11  24  43  72 101 137 182 230 285 336 403
#     4  12  25  45  69 104 138 180 230 284 346 404
#     4  11  24  44  70 103 132 181 232 277 344 414
#     4  12  24  46  71  99 139 182 227 283 344 411
#     4  11  24  43  69 101 136 179 232 278 341 410
#
# _framework density 21.112708000000001
#
# number of rings (size 3 to 8) (size 9 to 14) (size 15 to 20)
#    0.000    0.750    3.750    4.500    1.750    3.000 
#    2.250    1.250    0.000    0.000    0.000    0.000 
#    0.000    0.000    0.000    0.000    0.000    0.000 
#
# Total GULP energy -89387.682811 kJ/mol
# GULP energy per Si atom -5586.730176 kJ/mol
# Density = 2.106465 g / cm^3
# Si number density = 21.112708 Si / 1000 Ang^3
#
#
#
# Elastic Constant Matrix: (Units=GPa)
#
#
# Indices 1 2 3 4 5 6 
#
# 1 59.7147 35.1488 27.1795 -0.8209 -1.0736 12.6612
# 2 35.1488 101.2993 55.6883 -4.1060 0.9921 18.2556
# 3 27.1795 55.6883 113.0257 -1.1670 11.0860 13.8056
# 4 -0.8209 -4.1060 -1.1670 33.6008 6.7645 -3.8320
# 5 -1.0736 0.9921 11.0860 6.7645 36.9818 -4.5542
# 6 12.6612 18.2556 13.8056 -3.8320 -4.5542 42.0613
#
#
#
# Elastic Compliance Matrix: (Units=1/GPa)
#
#
# Indices 1 2 3 4 5 6 
#
# 1 0.021871 -0.005903 -0.002072 -0.000870 0.001168 -0.003294
# 2 -0.005903 0.015824 -0.006073 0.001112 0.000661 -0.002925
# 3 -0.002072 -0.006073 0.012901 0.000301 -0.003990 -0.001379
# 4 -0.000870 0.001112 0.000301 0.031237 -0.005623 0.001917
# 5 0.001168 0.000661 -0.003990 -0.005623 0.029696 0.003374
# 6 -0.003294 -0.002925 -0.001379 0.001917 0.003374 0.027029
#
#
# Mechanical properties :
#
#
# Convention : Reuss Voigt Hill
#
# Bulk Modulus (GPa) = 44.44416 56.67477 50.55946
# Shear Modulus (GPa) = 28.70990 32.93033 30.82012
#
# Velocity S-wave (km/s) = 3.69160 3.95364 3.82486
# Velocity P-wave (km/s) = 6.26635 6.90969 6.59587
#
# Compressibility (1/GPa) = 0.02250014
#
# Stress axis : x y z
#
# Youngs Moduli (GPa) = 45.72170 63.19370 77.51245
#
# Poissons Ratio (x) = 0.37301 0.16063
# Poissons Ratio (y) = 0.26988 0.47076
# Poissons Ratio (z) = 0.09475 0.38380
#
# Static dielectric constant tensor:
#      x y z
#    x 1.819870 -0.008450 0.002890 
#    y -0.008450 1.749440 -0.010450 
#    z 0.002890 -0.010450 1.747680 
# 
# From -- ./inp_files/263113.got.cif
#   From: 2010.05.17/outbox.cif.g08.bks.cpg/sg2_132_cif.got.tgz:263113.got - 2010.06.03 11:33:40.
