data_PCOD9063731
_publ_section_title
;
Structure prediction by ZEFSAII (Michael W. Deem and Ramdas Pophale) SiO2 
 PCOD9063731
Probable space group: P -1
;
_chemical_formula_sum "Si O2"
_cell_formula_units_Z 13
_cell_length_a 18.406218
_cell_length_b 11.704336
_cell_length_c 12.266904
_cell_angle_alpha 50.098707
_cell_angle_beta 155.167109
_cell_angle_gamma 147.335794
_cell_volume 503.923017
_symmetry_space_group_name_H-M "P -1"
_symmetry_group_IT_number 2
_symmetry_cell_setting 'triclinic'
loop_
_space_group_symop_operation_xyz
x,y,z
-x,-y,-z
loop_
_atom_site_type_symbol
_atom_site_label
_atom_site_fract_x
_atom_site_fract_y
_atom_site_fract_z
Si Si1 0.452215 0.633743 0.908273
Si Si2 0.315810 0.230290 0.622824
Si Si3 0.000000 0.500000 0.500000
Si Si4 0.451067 0.044409 0.790355
Si Si5 0.115240 0.505022 0.042745
Si Si6 0.679506 0.741925 0.761551
Si Si7 0.248819 0.010902 0.088492
O O1 0.141483 0.460338 0.643188
O O2 0.500000 0.500000 0.000000
O O3 0.658267 0.790753 0.201563
O O4 0.520175 0.804380 0.804882
O O5 0.303479 0.093463 0.600504
O O6 0.614520 0.523681 0.820480
O O7 0.045519 0.147943 0.279948
O O8 0.760388 0.215492 0.399092
O O9 0.761708 0.293964 0.001826
O O10 0.500000 0.000000 0.000000
O O11 0.420040 0.629419 0.404488
O O12 0.852247 0.205080 0.849267
O O13 0.000000 0.500000 0.000000
O O14 0.653582 0.800997 0.806178
O O15 0.000000 0.000000 0.000000
#
# Coordination Sequence:
#
# PCOD9063731 Si02
#       7
#     2   2   1   2   2   2   2
#     4  12  24  46  75 111 153 199 255 314 383 452
#     4  11  24  45  72 112 145 197 254 314 374 457
#     4  12  28  44  70 112 146 196 250 310 380 446
#     4  12  26  46  73 107 151 195 248 314 375 454
#     4  11  27  46  71 107 149 196 251 312 384 452
#     4  11  24  44  73 104 146 193 254 307 377 457
#     4  11  24  45  74 105 147 200 248 313 376 451
#
# _framework density 25.79759
#
# number of rings (size 3 to 8) (size 9 to 14) (size 15 to 20)
#    0.000    0.615    3.077    4.154    2.154    5.538 
#    0.000    0.000    0.000    0.000    0.000    0.000 
#    0.000    0.000    0.000    0.000    0.000    0.000 
#
# Total GULP energy -72388.800945 kJ/mol
# GULP energy per Si atom -5568.369303 kJ/mol
# Density = 2.573887 g / cm^3
# Si number density = 25.797590 Si / 1000 Ang^3
#
#
#
# Elastic Constant Matrix: (Units=GPa)
#
#
# Indices 1 2 3 4 5 6 
#
# 1 161.9642 73.0700 13.9364 7.1359 26.3853 12.8941
# 2 73.0700 191.5582 19.6658 32.7277 8.9928 13.9664
# 3 13.9364 19.6658 47.8767 7.1273 7.0966 17.2869
# 4 7.1359 32.7277 7.1273 32.6599 9.5743 -7.9293
# 5 26.3853 8.9928 7.0966 9.5743 48.5870 5.5238
# 6 12.8941 13.9664 17.2869 -7.9293 5.5238 65.8231
#
#
#
# Elastic Compliance Matrix: (Units=1/GPa)
#
#
# Indices 1 2 3 4 5 6 
#
# 1 0.008373 -0.003434 -0.000857 0.003103 -0.004404 0.000057
# 2 -0.003434 0.008072 -0.000669 -0.008387 0.002356 -0.002073
# 3 -0.000857 -0.000669 0.024934 -0.005925 -0.001105 -0.006860
# 4 0.003103 -0.008387 -0.005925 0.044430 -0.009027 0.008837
# 5 -0.004404 0.002356 -0.001105 -0.009027 0.024763 -0.002512
# 6 0.000057 -0.002073 -0.006860 0.008837 -0.002512 0.018698
#
#
# Mechanical properties :
#
#
# Convention : Reuss Voigt Hill
#
# Bulk Modulus (GPa) = 31.78487 68.30483 50.04485
# Shear Modulus (GPa) = 33.40585 49.06248 41.23417
#
# Velocity S-wave (km/s) = 3.60241 4.36572 4.00230
# Velocity P-wave (km/s) = 5.44525 7.20745 6.38741
#
# Compressibility (1/GPa) = 0.03146151
#
# Stress axis : x y z
#
# Youngs Moduli (GPa) = 119.42811 123.88403 40.10637
#
# Poissons Ratio (x) = 0.42536 0.03435
# Poissons Ratio (y) = 0.41006 0.02682
# Poissons Ratio (z) = 0.10230 0.08283
#
# Static dielectric constant tensor:
#      x y z
#    x 2.049350 0.015110 -0.037530 
#    y 0.015110 2.316090 0.004390 
#    z -0.037530 0.004390 2.125300 
# 
# From -- ./inp_files/389094.got.cif
#   From: 2010.05.17/outbox.cif.g08.bks.cpg/sg2_195_cif.got.tgz:389094.got - 2010.06.03 11:33:40.
