data_PCOD9063647
_publ_section_title
;
Structure prediction by ZEFSAII (Michael W. Deem and Ramdas Pophale) SiO2 
 PCOD9063647
Probable space group: P -1
;
_chemical_formula_sum "Si O2"
_cell_formula_units_Z 16
_cell_length_a 8.892478
_cell_length_b 8.689239
_cell_length_c 10.685894
_cell_angle_alpha 113.377315
_cell_angle_beta 119.786514
_cell_angle_gamma 84.773138
_cell_volume 651.924737
_symmetry_space_group_name_H-M "P -1"
_symmetry_group_IT_number 2
_symmetry_cell_setting 'triclinic'
loop_
_space_group_symop_operation_xyz
x,y,z
-x,-y,-z
loop_
_atom_site_type_symbol
_atom_site_label
_atom_site_fract_x
_atom_site_fract_y
_atom_site_fract_z
Si Si1 0.661199 0.269993 0.334999
Si Si2 0.011025 0.529388 0.324364
Si Si3 0.902694 0.242688 0.782869
Si Si4 0.142908 0.801413 0.956503
Si Si5 0.480762 0.819701 0.498753
Si Si6 0.470715 0.296449 0.922313
Si Si7 0.326361 0.390543 0.648111
Si Si8 0.181106 0.032455 0.836125
O O1 0.534630 0.177125 0.356951
O O2 0.584978 0.412834 0.266651
O O3 0.809498 0.389187 0.513369
O O4 0.749857 0.127843 0.253217
O O5 0.980266 0.330155 0.224226
O O6 0.864350 0.586589 0.373471
O O7 0.988737 0.605686 0.201073
O O8 0.706588 0.256071 0.662153
O O9 0.996217 0.081383 0.725766
O O10 0.905571 0.233107 0.930328
O O11 0.152015 0.983828 0.954191
O O12 0.340436 0.760588 0.009345
O O13 0.630386 0.706732 0.489455
O O14 0.500000 0.000000 0.500000
O O15 0.397413 0.270985 0.743058
O O16 0.330305 0.189873 0.920370
O O17 0.500000 0.500000 0.000000
#
# Coordination Sequence:
#
# PCOD9063647 Si02
#       8
#     2   2   2   2   2   2   2   2
#     4  11  26  44  72 105 136 181 234 286 351 406
#     4  11  24  44  72 100 139 184 230 283 345 423
#     4  11  25  43  66 101 140 184 229 282 349 412
#     4  12  24  44  68 103 140 181 234 285 345 412
#     4  11  26  43  69 101 142 181 230 292 344 415
#     4  12  23  44  71  99 136 186 230 280 351 416
#     4  12  22  45  69 100 135 179 235 280 345 412
#     4  12  25  45  69 104 141 180 233 290 345 415
#
# _framework density 24.542712000000002
#
# number of rings (size 3 to 8) (size 9 to 14) (size 15 to 20)
#    0.000    0.500    5.000    2.625    1.750    1.000 
#    0.000    0.000    0.000    0.000    0.000    0.000 
#    0.000    0.000    0.000    0.000    0.000    0.000 
#
# Total GULP energy -89400.282902 kJ/mol
# GULP energy per Si atom -5587.517681 kJ/mol
# Density = 2.448685 g / cm^3
# Si number density = 24.542712 Si / 1000 Ang^3
#
#
#
# Elastic Constant Matrix: (Units=GPa)
#
#
# Indices 1 2 3 4 5 6 
#
# 1 105.5832 55.6134 29.9913 -2.2241 -31.9223 14.7571
# 2 55.6134 156.5074 24.4292 -14.6815 -11.5441 29.3804
# 3 29.9913 24.4292 66.5325 -3.8535 -8.6500 11.1106
# 4 -2.2241 -14.6815 -3.8535 32.8129 5.3837 -6.9909
# 5 -31.9223 -11.5441 -8.6500 5.3837 38.5213 -13.9547
# 6 14.7571 29.3804 11.1106 -6.9909 -13.9547 49.1334
#
#
#
# Elastic Compliance Matrix: (Units=1/GPa)
#
#
# Indices 1 2 3 4 5 6 
#
# 1 0.016938 -0.005062 -0.004672 -0.003295 0.012704 0.002136
# 2 -0.005062 0.009152 -0.000629 0.003345 -0.003644 -0.004369
# 3 -0.004672 -0.000629 0.017686 0.001156 -0.001109 -0.002371
# 4 -0.003295 0.003345 0.001156 0.033180 -0.005413 0.001912
# 5 0.012704 -0.003644 -0.001109 -0.005413 0.039150 0.008963
# 6 0.002136 -0.004369 -0.002371 0.001912 0.008963 0.025677
#
#
# Mechanical properties :
#
#
# Convention : Reuss Voigt Hill
#
# Bulk Modulus (GPa) = 43.38640 60.96567 52.17603
# Shear Modulus (GPa) = 29.37837 38.66614 34.02226
#
# Velocity S-wave (km/s) = 3.46357 3.97352 3.72727
# Velocity P-wave (km/s) = 5.80615 6.77837 6.31101
#
# Compressibility (1/GPa) = 0.02304870
#
# Stress axis : x y z
#
# Youngs Moduli (GPa) = 59.03862 109.27023 56.54228
#
# Poissons Ratio (x) = 0.55318 0.26418
# Poissons Ratio (y) = 0.29888 0.03555
# Poissons Ratio (z) = 0.27585 0.06870
#
# Static dielectric constant tensor:
#      x y z
#    x 1.979450 0.062310 0.006550 
#    y 0.062310 2.035050 -0.051650 
#    z 0.006550 -0.051650 2.056790 
# 
# From -- ./inp_files/382975.got.cif
#   From: 2010.05.17/outbox.cif.g08.bks.cpg/sg2_192_cif.got.tgz:382975.got - 2010.06.03 11:33:40.
