data_PCOD9063489
_publ_section_title
;
Structure prediction by ZEFSAII (Michael W. Deem and Ramdas Pophale) SiO2 
 PCOD9063489
Probable space group: P -1
;
_chemical_formula_sum "Si O2"
_cell_formula_units_Z 14
_cell_length_a 9.375927
_cell_length_b 8.929623
_cell_length_c 8.165057
_cell_angle_alpha 84.897621
_cell_angle_beta 52.950179
_cell_angle_gamma 72.370772
_cell_volume 516.025137
_symmetry_space_group_name_H-M "P -1"
_symmetry_group_IT_number 2
_symmetry_cell_setting 'triclinic'
loop_
_space_group_symop_operation_xyz
x,y,z
-x,-y,-z
loop_
_atom_site_type_symbol
_atom_site_label
_atom_site_fract_x
_atom_site_fract_y
_atom_site_fract_z
Si Si1 0.020225 0.623153 0.105731
Si Si2 0.611207 0.697622 0.336076
Si Si3 0.601598 0.487116 0.678253
Si Si4 0.225754 0.344760 0.207989
Si Si5 0.165046 0.866246 0.982763
Si Si6 0.953897 0.186183 0.562821
Si Si7 0.416540 0.063203 0.876277
O O1 0.083225 0.512501 0.231871
O O2 0.162414 0.705775 0.917736
O O3 0.804676 0.735461 0.245284
O O4 0.000000 0.500000 0.000000
O O5 0.592774 0.602033 0.519687
O O6 0.565373 0.587100 0.233603
O O7 0.480440 0.870034 0.343619
O O8 0.614687 0.597137 0.815213
O O9 0.784384 0.326325 0.579531
O O10 0.133628 0.245635 0.402070
O O11 0.268619 0.226672 0.032977
O O12 0.106208 0.820804 0.207148
O O13 0.337328 0.930754 0.872881
O O14 0.000000 0.000000 0.000000
O O15 0.000000 0.000000 0.500000
O O16 0.500000 0.000000 0.000000
#
# Coordination Sequence:
#
# PCOD9063489 Si02
#       7
#     2   2   2   2   2   2   2
#     4  12  23  43  72 102 131 176 236 279 330 410
#     4  11  24  44  69  95 142 173 228 281 341 404
#     4  11  25  44  71 101 134 183 225 286 337 403
#     4  12  24  44  73 100 130 182 233 277 340 404
#     4  12  24  43  67 100 136 179 222 279 341 401
#     4  12  24  42  69 103 138 174 226 281 337 404
#     4  12  27  46  66 100 141 179 222 285 346 407
#
# _framework density 27.130462000000001
#
# number of rings (size 3 to 8) (size 9 to 14) (size 15 to 20)
#    0.000    0.286    7.143    2.143    0.000    1.714 
#    0.000    2.143    0.000    0.000    0.000    0.000 
#    0.000    0.000    0.000    0.000    0.000    0.000 
#
# Total GULP energy -78074.569674 kJ/mol
# GULP energy per Si atom -5576.754977 kJ/mol
# Density = 2.706871 g / cm^3
# Si number density = 27.130462 Si / 1000 Ang^3
#
#
#
# Elastic Constant Matrix: (Units=GPa)
#
#
# Indices 1 2 3 4 5 6 
#
# 1 144.2255 70.7036 17.4937 -31.1309 12.7269 16.1604
# 2 70.7036 207.3717 38.3732 -54.4709 -7.5384 6.1072
# 3 17.4937 38.3732 45.5018 -39.4810 7.3888 -6.8787
# 4 -31.1309 -54.4709 -39.4810 68.5163 -2.6459 1.7560
# 5 12.7269 -7.5384 7.3888 -2.6459 41.2312 -18.9330
# 6 16.1604 6.1072 -6.8787 1.7560 -18.9330 65.8367
#
#
#
# Elastic Compliance Matrix: (Units=1/GPa)
#
#
# Indices 1 2 3 4 5 6 
#
# 1 0.009640 -0.002911 0.001520 0.002831 -0.005211 -0.003512
# 2 -0.002911 0.007196 -0.002938 0.002814 0.003188 0.000582
# 3 0.001520 -0.002938 0.047213 0.025240 -0.006841 0.002192
# 4 0.002831 0.002814 0.025240 0.032554 -0.002788 0.000011
# 5 -0.005211 0.003188 -0.006841 -0.002788 0.031856 0.009504
# 6 -0.003512 0.000582 0.002192 0.000011 0.009504 0.018959
#
#
# Mechanical properties :
#
#
# Convention : Reuss Voigt Hill
#
# Bulk Modulus (GPa) = 18.05330 72.24888 45.15109
# Shear Modulus (GPa) = 28.64665 53.15208 40.89937
#
# Velocity S-wave (km/s) = 3.25296 4.43101 3.88688
# Velocity P-wave (km/s) = 4.55826 7.27093 6.06812
#
# Compressibility (1/GPa) = 0.05539153
#
# Stress axis : x y z
#
# Youngs Moduli (GPa) = 103.72965 138.96268 21.18063
#
# Poissons Ratio (x) = 0.40446 -0.03219
# Poissons Ratio (y) = 0.30191 0.06223
# Poissons Ratio (z) = -0.15764 0.40829
#
# Static dielectric constant tensor:
#      x y z
#    x 2.798710 0.064900 0.083320 
#    y 0.064900 2.216840 0.201630 
#    z 0.083320 0.201630 2.245680 
# 
# From -- ./inp_files/157865.got.cif
#   From: 2010.05.17/outbox.cif.g08.bks.cpg/sg2_79_cif.got.tgz:157865.got - 2010.06.03 11:33:40.
