data_PCOD9063225
_publ_section_title
;
Structure prediction by ZEFSAII (Michael W. Deem and Ramdas Pophale) SiO2 
 PCOD9063225
Probable space group: P -1
;
_chemical_formula_sum "Si O2"
_cell_formula_units_Z 14
_cell_length_a 9.177849
_cell_length_b 9.543930
_cell_length_c 9.319563
_cell_angle_alpha 125.193377
_cell_angle_beta 106.600664
_cell_angle_gamma 75.234459
_cell_volume 635.050477
_symmetry_space_group_name_H-M "P -1"
_symmetry_group_IT_number 2
_symmetry_cell_setting 'triclinic'
loop_
_space_group_symop_operation_xyz
x,y,z
-x,-y,-z
loop_
_atom_site_type_symbol
_atom_site_label
_atom_site_fract_x
_atom_site_fract_y
_atom_site_fract_z
Si Si1 0.957157 0.859189 0.520177
Si Si2 0.255318 0.628444 0.462791
Si Si3 0.147407 0.596091 0.088916
Si Si4 0.433049 0.456298 0.632120
Si Si5 0.318009 0.308972 0.793080
Si Si6 0.865323 0.058840 0.885206
Si Si7 0.539410 0.157086 0.003400
O O1 0.843534 0.748389 0.337011
O O2 0.123119 0.769320 0.564651
O O3 0.866141 0.923869 0.675432
O O4 0.000000 0.000000 0.500000
O O5 0.199442 0.601777 0.270586
O O6 0.281128 0.481813 0.505074
O O7 0.432528 0.645135 0.485653
O O8 0.104746 0.772149 0.096586
O O9 0.279318 0.488104 0.971613
O O10 0.000000 0.500000 0.000000
O O11 0.412553 0.345665 0.701198
O O12 0.459798 0.653388 0.806665
O O13 0.413891 0.182455 0.855798
O O14 0.705823 0.102174 0.948692
O O15 0.000000 0.000000 0.000000
O O16 0.500000 0.000000 0.000000
#
# Coordination Sequence:
#
# PCOD9063225 Si02
#       7
#     2   2   2   2   2   2   2
#     4  12  27  46  71 106 147 186 232 299 360 428
#     4  11  24  43  73 100 144 183 237 289 360 420
#     4  12  23  45  76 103 140 193 240 291 350 436
#     4  11  25  46  73 105 139 185 242 300 344 434
#     4  12  26  47  75 103 140 190 244 293 358 420
#     4  12  28  47  72 106 151 189 238 296 360 427
#     4  12  28  45  75 106 146 190 242 301 360 421
#
# _framework density 22.045490000000001
#
# number of rings (size 3 to 8) (size 9 to 14) (size 15 to 20)
#    0.000    0.286    5.714    2.143    6.000    4.571 
#    0.000    0.000    0.000    0.000    0.000    0.000 
#    0.000    0.000    0.000    0.000    0.000    0.000 
#
# Total GULP energy -78166.757131 kJ/mol
# GULP energy per Si atom -5583.339795 kJ/mol
# Density = 2.199531 g / cm^3
# Si number density = 22.045490 Si / 1000 Ang^3
#
#
#
# Elastic Constant Matrix: (Units=GPa)
#
#
# Indices 1 2 3 4 5 6 
#
# 1 96.4770 42.9783 20.6735 1.0241 -12.8180 -14.8143
# 2 42.9783 148.7823 47.6717 -35.9934 19.7929 -11.2829
# 3 20.6735 47.6717 81.3715 -19.8926 -15.8732 4.3877
# 4 1.0241 -35.9934 -19.8926 38.4208 -5.9068 2.4233
# 5 -12.8180 19.7929 -15.8732 -5.9068 33.8358 -4.1330
# 6 -14.8143 -11.2829 4.3877 2.4233 -4.1330 46.4546
#
#
#
# Elastic Compliance Matrix: (Units=1/GPa)
#
#
# Indices 1 2 3 4 5 6 
#
# 1 0.015289 -0.006787 0.000412 -0.005357 0.009547 0.004317
# 2 -0.006787 0.014937 -0.007704 0.008083 -0.013442 0.000574
# 3 0.000412 -0.007704 0.021443 0.006430 0.015512 -0.002720
# 4 -0.005357 0.008083 0.006430 0.037599 0.002568 -0.002085
# 5 0.009547 -0.013442 0.015512 0.002568 0.049071 0.002547
# 6 0.004317 0.000574 -0.002720 -0.002085 0.002547 0.023635
#
#
# Mechanical properties :
#
#
# Convention : Reuss Voigt Hill
#
# Bulk Modulus (GPa) = 42.53357 61.03087 51.78222
# Shear Modulus (GPa) = 25.25673 38.09606 31.67640
#
# Velocity S-wave (km/s) = 3.38844 4.16151 3.79471
# Velocity P-wave (km/s) = 5.88593 7.12987 6.53755
#
# Compressibility (1/GPa) = 0.02351084
#
# Stress axis : x y z
#
# Youngs Moduli (GPa) = 65.40819 66.94621 46.63632
#
# Poissons Ratio (x) = 0.45437 -0.01921
# Poissons Ratio (y) = 0.44393 0.35927
# Poissons Ratio (z) = -0.02695 0.51574
#
# Static dielectric constant tensor:
#      x y z
#    x 1.818940 0.012340 -0.021000 
#    y 0.012340 1.816440 0.002340 
#    z -0.021000 0.002340 1.861910 
# 
# From -- ./inp_files/155647.got.cif
#   From: 2010.05.17/outbox.cif.g08.bks.cpg/sg2_78_cif.got.tgz:155647.got - 2010.06.03 11:33:40.
