data_PCOD9063615
_publ_section_title
;
Structure prediction by ZEFSAII (Michael W. Deem and Ramdas Pophale) SiO2 
 PCOD9063615
Probable space group: P -1
;
_chemical_formula_sum "Si O2"
_cell_formula_units_Z 14
_cell_length_a 14.164507
_cell_length_b 9.427119
_cell_length_c 5.341477
_cell_angle_alpha 87.471656
_cell_angle_beta 93.498690
_cell_angle_gamma 131.315599
_cell_volume 534.705586
_symmetry_space_group_name_H-M "P -1"
_symmetry_group_IT_number 2
_symmetry_cell_setting 'triclinic'
loop_
_space_group_symop_operation_xyz
x,y,z
-x,-y,-z
loop_
_atom_site_type_symbol
_atom_site_label
_atom_site_fract_x
_atom_site_fract_y
_atom_site_fract_z
Si Si1 0.719905 0.935731 0.227966
Si Si2 0.945391 0.102192 0.925169
Si Si3 0.294479 0.387112 0.554548
Si Si4 0.902657 0.279226 0.531582
Si Si5 0.499557 0.203293 0.452200
Si Si6 0.325756 0.824110 0.219827
Si Si7 0.202421 0.443967 0.029126
O O1 0.721600 0.795827 0.409522
O O2 0.585700 0.864175 0.306057
O O3 0.812261 0.155349 0.298476
O O4 0.798984 0.959857 0.997702
O O5 0.949673 0.172374 0.642510
O O6 0.051810 0.309636 0.057140
O O7 0.000000 0.000000 0.000000
O O8 0.436632 0.583537 0.612491
O O9 0.252150 0.402096 0.276291
O O10 0.219290 0.384196 0.771438
O O11 0.807267 0.243771 0.725326
O O12 0.000000 0.500000 0.500000
O O13 0.611655 0.208097 0.546831
O O14 0.419080 0.052401 0.226571
O O15 0.289304 0.670845 0.021112
#
# Coordination Sequence:
#
# PCOD9063615 Si02
#       7
#     2   2   2   2   2   2   2
#     4  11  24  44  71 105 148 195 254 306 376 454
#     4  12  26  45  72 109 148 200 246 315 380 451
#     4  11  24  46  72 110 145 203 250 315 370 455
#     4  11  26  45  73 110 150 194 254 313 379 456
#     4   9  21  45  71 102 145 197 249 310 373 448
#     4   9  21  45  67 104 142 195 243 310 374 443
#     4  11  25  43  76 104 149 198 256 305 385 444
#
# _framework density 26.182632000000002
#
# number of rings (size 3 to 8) (size 9 to 14) (size 15 to 20)
#    0.000    1.429    1.429    2.143    6.000    4.000 
#   18.000    3.571    0.000    0.000    0.000    0.000 
#    0.000    0.000    0.000    0.000    0.000    0.000 
#
# Total GULP energy -78108.740854 kJ/mol
# GULP energy per Si atom -5579.195775 kJ/mol
# Density = 2.612304 g / cm^3
# Si number density = 26.182632 Si / 1000 Ang^3
#
#
#
# Elastic Constant Matrix: (Units=GPa)
#
#
# Indices 1 2 3 4 5 6 
#
# 1 91.5558 33.6896 31.5953 -22.7109 -2.8539 -6.7594
# 2 33.6896 189.6710 29.5212 -5.4693 8.3083 17.9026
# 3 31.5953 29.5212 92.9025 -20.6969 -11.9632 -9.4077
# 4 -22.7109 -5.4693 -20.6969 39.4660 -3.1163 -7.5296
# 5 -2.8539 8.3083 -11.9632 -3.1163 16.0434 -0.7532
# 6 -6.7594 17.9026 -9.4077 -7.5296 -0.7532 41.2537
#
#
#
# Elastic Compliance Matrix: (Units=1/GPa)
#
#
# Indices 1 2 3 4 5 6 
#
# 1 0.015262 -0.003085 -0.000805 0.009438 0.005803 0.005485
# 2 -0.003085 0.007167 -0.003846 -0.004493 -0.008257 -0.005463
# 3 -0.000805 -0.003846 0.017874 0.011305 0.017748 0.008000
# 4 0.009438 -0.004493 0.011305 0.040365 0.020925 0.013824
# 5 0.005803 -0.008257 0.017748 0.020925 0.085593 0.013963
# 6 0.005485 -0.005463 0.008000 0.013824 0.013963 0.032112
#
#
# Mechanical properties :
#
#
# Convention : Reuss Voigt Hill
#
# Bulk Modulus (GPa) = 40.27219 62.63796 51.45507
# Shear Modulus (GPa) = 22.51015 37.97418 30.24216
#
# Velocity S-wave (km/s) = 2.93531 3.81249 3.40228
# Velocity P-wave (km/s) = 5.18678 6.58449 5.92698
#
# Compressibility (1/GPa) = 0.02483103
#
# Stress axis : x y z
#
# Youngs Moduli (GPa) = 65.52116 139.53516 55.94767
#
# Poissons Ratio (x) = 0.43052 0.04503
# Poissons Ratio (y) = 0.20216 0.21515
# Poissons Ratio (z) = 0.05274 0.53659
#
# Static dielectric constant tensor:
#      x y z
#    x 2.190050 -0.025630 -0.054960 
#    y -0.025630 2.095620 0.022000 
#    z -0.054960 0.022000 2.116490 
# 
# From -- ./inp_files/90466.got.cif
#   From: 2010.05.17/outbox.cif.g08.bks.cpg/sg2_46_cif.got.tgz:90466.got - 2010.06.03 11:33:40.
