data_PCOD9063533
_publ_section_title
;
Structure prediction by ZEFSAII (Michael W. Deem and Ramdas Pophale) SiO2 
 PCOD9063533
Probable space group: P -1
;
_chemical_formula_sum "Si O2"
_cell_formula_units_Z 16
_cell_length_a 9.078743
_cell_length_b 21.744057
_cell_length_c 18.449522
_cell_angle_alpha 162.279763
_cell_angle_beta 43.035076
_cell_angle_gamma 138.883632
_cell_volume 727.354970
_symmetry_space_group_name_H-M "P -1"
_symmetry_group_IT_number 2
_symmetry_cell_setting 'triclinic'
loop_
_space_group_symop_operation_xyz
x,y,z
-x,-y,-z
loop_
_atom_site_type_symbol
_atom_site_label
_atom_site_fract_x
_atom_site_fract_y
_atom_site_fract_z
Si Si1 0.567947 0.396509 0.156790
Si Si2 0.760327 0.045675 0.631806
Si Si3 0.044547 0.211844 0.175888
Si Si4 0.095860 0.249435 0.481217
Si Si5 0.755367 0.122548 0.033000
Si Si6 0.683140 0.215541 0.695375
Si Si7 0.496900 0.569032 0.219409
Si Si8 0.002702 0.443762 0.592429
O O1 0.306325 0.294696 0.153857
O O2 0.692508 0.566682 0.361711
O O3 0.578762 0.521152 0.216377
O O4 0.690333 0.209727 0.895279
O O5 0.585132 0.814598 0.442587
O O6 0.763774 0.161681 0.684314
O O7 0.000000 0.000000 0.500000
O O8 0.984615 0.368908 0.432069
O O9 0.000000 0.000000 0.000000
O O10 0.890471 0.168383 0.111542
O O11 0.139812 0.023646 0.219131
O O12 0.884359 0.262421 0.619020
O O13 0.042890 0.275107 0.444939
O O14 0.500000 0.000000 0.000000
O O15 0.791853 0.350135 0.241312
O O16 0.500000 0.000000 0.500000
O O17 0.583618 0.414564 0.962160
O O18 0.228092 0.506087 0.247366
#
# Coordination Sequence:
#
# PCOD9063533 Si02
#       8
#     2   2   2   2   2   2   2   2
#     4  11  26  45  70 101 144 179 231 288 338 412
#     4  11  24  44  70 102 135 183 232 279 345 407
#     4  12  25  48  73  99 140 185 227 285 347 408
#     4  12  27  45  67 106 141 179 231 289 339 406
#     4  12  28  46  71 104 138 178 234 287 343 409
#     4  11  25  44  69 101 144 177 229 291 340 406
#     4  11  24  44  72 100 134 187 230 277 349 412
#     4  12  26  45  72 100 140 184 232 278 348 411
#
# _framework density 21.997513000000001
#
# number of rings (size 3 to 8) (size 9 to 14) (size 15 to 20)
#    0.000    0.500    2.500    4.875    5.250    9.000 
#    0.000    0.000    0.000    0.000    0.000    0.000 
#    0.000    0.000    0.000    0.000    0.000    0.000 
#
# Total GULP energy -89558.293477 kJ/mol
# GULP energy per Si atom -5597.393342 kJ/mol
# Density = 2.194745 g / cm^3
# Si number density = 21.997513 Si / 1000 Ang^3
#
#
#
# Elastic Constant Matrix: (Units=GPa)
#
#
# Indices 1 2 3 4 5 6 
#
# 1 66.9018 15.7627 6.4008 -4.7756 13.8768 13.6525
# 2 15.7627 109.9786 29.2194 -0.5849 8.6875 15.2703
# 3 6.4008 29.2194 124.1592 -0.4004 10.1423 3.3704
# 4 -4.7756 -0.5849 -0.4004 43.1370 -2.0989 -4.6182
# 5 13.8768 8.6875 10.1423 -2.0989 30.9886 3.7144
# 6 13.6525 15.2703 3.3704 -4.6182 3.7144 38.9198
#
#
#
# Elastic Compliance Matrix: (Units=1/GPa)
#
#
# Indices 1 2 3 4 5 6 
#
# 1 0.017778 -0.001336 0.000103 0.001085 -0.006956 -0.004928
# 2 -0.001336 0.010430 -0.002195 -0.000448 -0.001234 -0.003369
# 3 0.000103 -0.002195 0.008748 -0.000020 -0.002330 0.000287
# 4 0.001085 -0.000448 -0.000020 0.023610 0.000945 0.002508
# 5 -0.006956 -0.001234 -0.002330 0.000945 0.036588 -0.000254
# 6 -0.004928 -0.003369 0.000287 0.002508 -0.000254 0.029041
#
#
# Mechanical properties :
#
#
# Convention : Reuss Voigt Hill
#
# Bulk Modulus (GPa) = 33.22127 44.86729 39.04428
# Shear Modulus (GPa) = 34.94439 39.25285 37.09862
#
# Velocity S-wave (km/s) = 3.99000 4.22883 4.11115
# Velocity P-wave (km/s) = 6.03008 6.65468 6.35006
#
# Compressibility (1/GPa) = 0.03010119
#
# Stress axis : x y z
#
# Youngs Moduli (GPa) = 56.24869 95.87573 114.31372
#
# Poissons Ratio (x) = 0.12809 -0.01182
# Poissons Ratio (y) = 0.07515 0.25091
# Poissons Ratio (z) = -0.00582 0.21044
#
# Static dielectric constant tensor:
#      x y z
#    x 1.803280 -0.017880 -0.004760 
#    y -0.017880 1.783280 0.010470 
#    z -0.004760 0.010470 1.814440 
# 
# From -- ./inp_files/562967.got.cif
#   From: 2010.05.17/outbox.cif.g08.bks.cpg/sg2_282_cif.got.tgz:562967.got - 2010.06.03 11:33:40.
