data_PCOD9063437
_publ_section_title
;
Structure prediction by ZEFSAII (Michael W. Deem and Ramdas Pophale) SiO2 
 PCOD9063437
Probable space group: P -1
;
_chemical_formula_sum "Si O2"
_cell_formula_units_Z 12
_cell_length_a 8.455574
_cell_length_b 14.067991
_cell_length_c 11.341051
_cell_angle_alpha 147.999652
_cell_angle_beta 138.399643
_cell_angle_gamma 53.756045
_cell_volume 471.093078
_symmetry_space_group_name_H-M "P -1"
_symmetry_group_IT_number 2
_symmetry_cell_setting 'triclinic'
loop_
_space_group_symop_operation_xyz
x,y,z
-x,-y,-z
loop_
_atom_site_type_symbol
_atom_site_label
_atom_site_fract_x
_atom_site_fract_y
_atom_site_fract_z
Si Si1 0.298736 0.410640 0.706079
Si Si2 0.197444 0.528645 0.383566
Si Si3 0.935936 0.230039 0.634089
Si Si4 0.248119 0.001040 0.210479
Si Si5 0.501454 0.314356 0.082870
Si Si6 0.971090 0.132941 0.809457
O O1 0.335395 0.536068 0.744912
O O2 0.036841 0.407280 0.613632
O O3 0.345222 0.208991 0.493968
O O4 0.500000 0.500000 0.000000
O O5 0.428329 0.621347 0.678979
O O6 0.184826 0.617585 0.340959
O O7 0.140736 0.312414 0.130818
O O8 0.857692 0.191372 0.684375
O O9 0.222856 0.292422 0.869035
O O10 0.904928 0.042910 0.345635
O O11 0.197371 0.923747 0.233092
O O12 0.409734 0.876114 0.099162
O O13 0.000000 0.000000 0.000000
#
# Coordination Sequence:
#
# PCOD9063437 Si02
#       6
#     2   2   2   2   2   2
#     4  12  23  39  67 100 131 165 220 269 323 383
#     4  12  23  44  67  98 131 172 218 272 322 385
#     4  11  26  46  65  97 133 176 218 264 326 395
#     4  12  23  42  68 100 132 169 215 275 324 383
#     4  12  25  42  71  99 130 171 220 270 328 382
#     4  11  24  44  68  93 137 174 214 270 327 384
#
# _framework density 25.472674000000001
#
# number of rings (size 3 to 8) (size 9 to 14) (size 15 to 20)
#    0.000    0.333    6.667    2.000    2.333    2.000 
#    0.000    7.500    0.000    0.000    0.000    0.000 
#    0.000    0.000    0.000    0.000    0.000    0.000 
#
# Total GULP energy -67365.115086 kJ/mol
# GULP energy per Si atom -5613.759590 kJ/mol
# Density = 2.541470 g / cm^3
# Si number density = 25.472674 Si / 1000 Ang^3
#
#
#
# Elastic Constant Matrix: (Units=GPa)
#
#
# Indices 1 2 3 4 5 6 
#
# 1 47.5283 7.7143 21.0511 3.2426 -1.3495 -12.5714
# 2 7.7143 109.1054 69.3799 5.2293 8.1119 -7.2956
# 3 21.0511 69.3799 192.9696 40.2852 -25.2402 -21.3817
# 4 3.2426 5.2293 40.2852 57.9403 0.1798 -0.8310
# 5 -1.3495 8.1119 -25.2402 0.1798 41.0315 0.6800
# 6 -12.5714 -7.2956 -21.3817 -0.8310 0.6800 30.2674
#
#
#
# Elastic Compliance Matrix: (Units=1/GPa)
#
#
# Indices 1 2 3 4 5 6 
#
# 1 0.024118 -0.000008 -0.001692 -0.000045 -0.000392 0.008828
# 2 -0.000008 0.013640 -0.006620 0.003377 -0.006765 -0.001147
# 3 -0.001692 -0.006620 0.010710 -0.006708 0.007790 0.004908
# 4 -0.000045 0.003377 -0.006708 0.021590 -0.004837 -0.003242
# 5 -0.000392 -0.006765 0.007790 -0.004837 0.030461 0.002892
# 6 0.008828 -0.001147 0.004908 -0.003242 0.002892 0.039742
#
#
# Mechanical properties :
#
#
# Convention : Reuss Voigt Hill
#
# Bulk Modulus (GPa) = 31.41904 60.65488 46.03696
# Shear Modulus (GPa) = 29.84893 42.61171 36.23032
#
# Velocity S-wave (km/s) = 3.42687 4.09447 3.77546
# Velocity P-wave (km/s) = 5.29331 6.79826 6.09243
#
# Compressibility (1/GPa) = 0.03182784
#
# Stress axis : x y z
#
# Youngs Moduli (GPa) = 41.46344 73.31233 93.36909
#
# Poissons Ratio (x) = 0.00056 0.15799
# Poissons Ratio (y) = 0.00032 0.61814
# Poissons Ratio (z) = 0.07016 0.48535
#
# Static dielectric constant tensor:
#      x y z
#    x 2.066590 0.019640 -0.044840 
#    y 0.019640 1.970940 -0.021830 
#    z -0.044840 -0.021830 1.967960 
# 
# From -- ./inp_files/183811.got.cif
#   From: 2010.05.17/outbox.cif.g08.bks.cpg/sg2_92_cif.got.tgz:183811.got - 2010.06.03 11:33:40.
