data_PCOD9063270
_publ_section_title
;
Structure prediction by ZEFSAII (Michael W. Deem and Ramdas Pophale) SiO2 
 PCOD9063270
Probable space group: P -1
;
_chemical_formula_sum "Si O2"
_cell_formula_units_Z 16
_cell_length_a 30.673959
_cell_length_b 5.132955
_cell_length_c 9.293843
_cell_angle_alpha 105.569534
_cell_angle_beta 149.170993
_cell_angle_gamma 88.441133
_cell_volume 658.306115
_symmetry_space_group_name_H-M "P -1"
_symmetry_group_IT_number 2
_symmetry_cell_setting 'triclinic'
loop_
_space_group_symop_operation_xyz
x,y,z
-x,-y,-z
loop_
_atom_site_type_symbol
_atom_site_label
_atom_site_fract_x
_atom_site_fract_y
_atom_site_fract_z
Si Si1 0.851332 0.904308 0.612744
Si Si2 0.230227 0.538715 0.231707
Si Si3 0.302097 0.202463 0.593173
Si Si4 0.745122 0.761098 0.025737
Si Si5 0.022165 0.322630 0.661575
Si Si6 0.040786 0.425721 0.244820
Si Si7 0.551985 0.820010 0.773623
Si Si8 0.369528 0.874570 0.249525
O O1 0.775198 0.830654 0.508694
O O2 0.874011 0.644462 0.568395
O O3 0.812607 0.991490 0.369605
O O4 0.951366 0.124747 0.995379
O O5 0.298926 0.449951 0.512323
O O6 0.213455 0.353524 0.008214
O O7 0.270192 0.889443 0.373087
O O8 0.132472 0.459952 0.027347
O O9 0.393112 0.235641 0.945666
O O10 0.678061 0.911674 0.800445
O O11 0.687239 0.464034 0.911438
O O12 0.952097 0.328442 0.585885
O O13 0.000000 0.500000 0.500000
O O14 0.000000 0.000000 0.500000
O O15 0.000000 0.500000 0.000000
O O16 0.500000 0.500000 0.500000
O O17 0.618206 0.052954 0.876986
O O18 0.473811 0.939717 0.608378
#
# Coordination Sequence:
#
# PCOD9063270 Si02
#       8
#     2   2   2   2   2   2   2   2
#     4  11  25  43  71 103 139 185 244 304 357 414
#     4  12  28  47  68 107 150 190 244 285 373 431
#     4  12  26  47  74 104 145 192 231 308 356 430
#     4  12  26  46  72 104 144 193 234 297 360 430
#     4  12  27  48  73  99 145 201 241 294 358 432
#     4  11  26  43  68 105 140 181 248 305 350 422
#     4  11  24  45  78 112 137 183 240 295 363 432
#     4  11  24  43  74 106 140 174 246 290 341 443
#
# _framework density 24.304805000000002
#
# number of rings (size 3 to 8) (size 9 to 14) (size 15 to 20)
#    0.000    0.500    3.750    3.000   12.250    0.000 
#    0.000    3.750    0.000    0.000    0.000    0.000 
#    0.000    0.000    0.000    0.000    0.000    0.000 
#
# Total GULP energy -89508.619069 kJ/mol
# GULP energy per Si atom -5594.288692 kJ/mol
# Density = 2.424949 g / cm^3
# Si number density = 24.304805 Si / 1000 Ang^3
#
#
#
# Elastic Constant Matrix: (Units=GPa)
#
#
# Indices 1 2 3 4 5 6 
#
# 1 76.9996 33.8304 5.7211 -2.5082 -8.4104 -18.3619
# 2 33.8304 150.0149 27.1625 -14.9570 9.4790 -15.4554
# 3 5.7211 27.1625 77.4150 -21.2803 4.7073 -8.1737
# 4 -2.5082 -14.9570 -21.2803 48.6223 -6.2209 -0.9223
# 5 -8.4104 9.4790 4.7073 -6.2209 33.5420 -6.1432
# 6 -18.3619 -15.4554 -8.1737 -0.9223 -6.1432 51.0730
#
#
#
# Elastic Compliance Matrix: (Units=1/GPa)
#
#
# Indices 1 2 3 4 5 6 
#
# 1 0.016600 -0.003549 0.000487 0.000895 0.006316 0.005748
# 2 -0.003549 0.008177 -0.002087 0.001097 -0.002600 0.000571
# 3 0.000487 -0.002087 0.015552 0.006241 0.000082 0.002155
# 4 0.000895 0.001097 0.006241 0.024243 0.004006 0.002572
# 5 0.006316 -0.002600 0.000082 0.004006 0.033897 0.005647
# 6 0.005748 0.000571 0.002155 0.002572 0.005647 0.022890
#
#
# Mechanical properties :
#
#
# Convention : Reuss Voigt Hill
#
# Bulk Modulus (GPa) = 33.29880 48.65083 40.97481
# Shear Modulus (GPa) = 35.29418 42.49516 38.89467
#
# Velocity S-wave (km/s) = 3.81484 4.18595 4.00470
# Velocity P-wave (km/s) = 5.75624 6.58964 6.18699
#
# Compressibility (1/GPa) = 0.03003111
#
# Stress axis : x y z
#
# Youngs Moduli (GPa) = 60.24095 122.29689 64.30182
#
# Poissons Ratio (x) = 0.43409 -0.03134
# Poissons Ratio (y) = 0.21382 0.13418
# Poissons Ratio (z) = -0.02936 0.25519
#
# Static dielectric constant tensor:
#      x y z
#    x 1.920520 0.040090 0.028460 
#    y 0.040090 1.968110 0.090960 
#    z 0.028460 0.090960 2.153310 
# 
# From -- ./inp_files/358271.got.cif
#   From: 2010.05.17/outbox.cif.g08.bks.cpg/sg2_180_cif.got.tgz:358271.got - 2010.06.03 11:33:40.
