data_PCOD9063084
_publ_section_title
;
Structure prediction by ZEFSAII (Michael W. Deem and Ramdas Pophale) SiO2 
 PCOD9063084
Probable space group: P -1
;
_chemical_formula_sum "Si O2"
_cell_formula_units_Z 16
_cell_length_a 8.937859
_cell_length_b 14.760635
_cell_length_c 9.249132
_cell_angle_alpha 48.434638
_cell_angle_beta 100.452601
_cell_angle_gamma 70.710509
_cell_volume 709.659945
_symmetry_space_group_name_H-M "P -1"
_symmetry_group_IT_number 2
_symmetry_cell_setting 'triclinic'
loop_
_space_group_symop_operation_xyz
x,y,z
-x,-y,-z
loop_
_atom_site_type_symbol
_atom_site_label
_atom_site_fract_x
_atom_site_fract_y
_atom_site_fract_z
Si Si1 0.936852 0.904848 0.162177
Si Si2 0.995031 0.615439 0.093476
Si Si3 0.327958 0.888706 0.855040
Si Si4 0.345810 0.090518 0.111903
Si Si5 0.696276 0.333081 0.388294
Si Si6 0.636969 0.413293 0.751176
Si Si7 0.551048 0.173471 0.389421
Si Si8 0.838533 0.481739 0.086701
O O1 0.137107 0.736242 0.389778
O O2 0.852140 0.967899 0.241777
O O3 0.774785 0.918964 0.022874
O O4 0.000000 0.000000 0.000000
O O5 0.175247 0.594645 0.217827
O O6 0.959863 0.487785 0.230265
O O7 0.033059 0.604905 0.939475
O O8 0.809043 0.772188 0.955161
O O9 0.513644 0.873413 0.960133
O O10 0.351826 0.891253 0.682906
O O11 0.327724 0.746191 0.045464
O O12 0.460098 0.939730 0.392998
O O13 0.490066 0.473426 0.260258
O O14 0.683268 0.203184 0.468630
O O15 0.754927 0.395352 0.208761
O O16 0.500000 0.500000 0.500000
O O17 0.343723 0.339870 0.160071
#
# Coordination Sequence:
#
# PCOD9063084 Si02
#       8
#     2   2   2   2   2   2   2   2
#     4  12  27  49  67 104 142 187 236 288 353 419
#     4  11  24  43  71 104 141 175 237 281 358 405
#     4  12  27  46  71 107 139 187 240 284 357 416
#     4  12  26  47  73 103 145 188 233 293 346 424
#     4  12  24  45  70  99 143 181 238 288 353 412
#     4  12  25  44  72  97 144 189 233 292 350 419
#     4  12  24  45  74 102 148 182 235 291 350 416
#     4  11  24  43  70 105 138 182 230 296 343 422
#
# _framework density 22.546011
#
# number of rings (size 3 to 8) (size 9 to 14) (size 15 to 20)
#    0.000    0.250    5.000    4.125    1.750    2.500 
#    0.000    2.500    0.000    0.000    0.000    0.000 
#    0.000    0.000    0.000    0.000    0.000    0.000 
#
# Total GULP energy -89456.755251 kJ/mol
# GULP energy per Si atom -5591.047203 kJ/mol
# Density = 2.249470 g / cm^3
# Si number density = 22.546011 Si / 1000 Ang^3
#
#
#
# Elastic Constant Matrix: (Units=GPa)
#
#
# Indices 1 2 3 4 5 6 
#
# 1 114.6000 28.3186 10.6736 -0.0601 20.9882 10.5475
# 2 28.3186 98.3345 2.1677 -2.0134 -2.9761 2.1854
# 3 10.6736 2.1677 52.0937 0.7322 10.6541 10.3396
# 4 -0.0601 -2.0134 0.7322 24.2210 -1.4781 12.4872
# 5 20.9882 -2.9761 10.6541 -1.4781 22.0695 5.0237
# 6 10.5475 2.1854 10.3396 12.4872 5.0237 52.8629
#
#
#
# Elastic Compliance Matrix: (Units=1/GPa)
#
#
# Indices 1 2 3 4 5 6 
#
# 1 0.011876 -0.003770 0.000344 -0.000469 -0.011760 -0.001053
# 2 -0.003770 0.011489 -0.000806 0.001568 0.005738 -0.000481
# 3 0.000344 -0.000806 0.021926 0.000430 -0.010206 -0.003456
# 4 -0.000469 0.001568 0.000430 0.047978 0.006394 -0.011996
# 5 -0.011760 0.005738 -0.010206 0.006394 0.063405 -0.003431
# 6 -0.001053 -0.000481 -0.003456 -0.011996 -0.003431 0.022982
#
#
# Mechanical properties :
#
#
# Convention : Reuss Voigt Hill
#
# Bulk Modulus (GPa) = 27.15260 38.59424 32.87342
# Shear Modulus (GPa) = 24.95067 34.75523 29.85295
#
# Velocity S-wave (km/s) = 3.33025 3.93049 3.64275
# Velocity P-wave (km/s) = 5.18235 6.14438 5.68376
#
# Compressibility (1/GPa) = 0.03682888
#
# Stress axis : x y z
#
# Youngs Moduli (GPa) = 84.20375 87.03807 45.60742
#
# Poissons Ratio (x) = 0.32812 -0.01570
# Poissons Ratio (y) = 0.31743 0.03675
# Poissons Ratio (z) = -0.02899 0.07013
#
# Static dielectric constant tensor:
#      x y z
#    x 1.916840 0.000040 -0.026220 
#    y 0.000040 1.876050 0.067900 
#    z -0.026220 0.067900 1.858120 
# 
# From -- ./inp_files/205651.got.cif
#   From: 2010.05.17/outbox.cif.g08.bks.cpg/sg2_103_cif.got.tgz:205651.got - 2010.06.03 11:33:40.
