data_PCOD9063288
_publ_section_title
;
Structure prediction by ZEFSAII (Michael W. Deem and Ramdas Pophale) SiO2 
 PCOD9063288
Probable space group: P -1
;
_chemical_formula_sum "Si O2"
_cell_formula_units_Z 16
_cell_length_a 9.251684
_cell_length_b 14.009851
_cell_length_c 9.531091
_cell_angle_alpha 120.584067
_cell_angle_beta 59.123727
_cell_angle_gamma 79.016758
_cell_volume 722.419637
_symmetry_space_group_name_H-M "P -1"
_symmetry_group_IT_number 2
_symmetry_cell_setting 'triclinic'
loop_
_space_group_symop_operation_xyz
x,y,z
-x,-y,-z
loop_
_atom_site_type_symbol
_atom_site_label
_atom_site_fract_x
_atom_site_fract_y
_atom_site_fract_z
Si Si1 0.032458 0.785040 0.457109
Si Si2 0.075339 0.376346 0.976402
Si Si3 0.464610 0.885944 0.534314
Si Si4 0.622010 0.028016 0.672288
Si Si5 0.864731 0.149576 0.253493
Si Si6 0.125517 0.507258 0.316176
Si Si7 0.721428 0.354016 0.238228
Si Si8 0.408085 0.714335 0.013951
O O1 0.045559 0.851644 0.642087
O O2 0.027418 0.659169 0.414562
O O3 0.239726 0.730627 0.219714
O O4 0.830566 0.900688 0.551601
O O5 0.134480 0.413822 0.118426
O O6 0.879750 0.373325 0.095801
O O7 0.286659 0.231111 0.708174
O O8 0.000000 0.500000 0.000000
O O9 0.348852 0.957919 0.497884
O O10 0.367210 0.812311 0.584095
O O11 0.450114 0.997194 0.728366
O O12 0.561559 0.168020 0.879190
O O13 0.840419 0.262842 0.248215
O O14 0.000000 0.000000 0.000000
O O15 0.000000 0.500000 0.500000
O O16 0.365230 0.435966 0.192604
O O17 0.500000 0.500000 0.500000
O O18 0.673488 0.274239 0.093746
#
# Coordination Sequence:
#
# PCOD9063288 Si02
#       8
#     2   2   2   2   2   2   2   2
#     4  12  25  46  73 104 134 187 239 282 341 423
#     4  12  24  46  74 101 135 188 234 282 344 417
#     4  11  25  45  71 103 141 184 236 283 347 419
#     4  11  24  43  75 101 135 176 245 282 333 409
#     4  12  27  45  69 104 147 181 226 291 361 405
#     4  12  26  45  67 102 141 178 226 292 349 404
#     4  12  27  46  72 106 144 181 228 293 356 409
#     4  12  24  46  73 102 137 186 236 282 340 418
#
# _framework density 22.147793
#
# number of rings (size 3 to 8) (size 9 to 14) (size 15 to 20)
#    0.000    0.250    2.500    6.750    5.250    2.000 
#    0.000    1.875    0.000    0.000    0.000    0.000 
#    0.000    0.000    0.000    0.000    0.000    0.000 
#
# Total GULP energy -89614.099561 kJ/mol
# GULP energy per Si atom -5600.881223 kJ/mol
# Density = 2.209738 g / cm^3
# Si number density = 22.147793 Si / 1000 Ang^3
#
#
#
# Elastic Constant Matrix: (Units=GPa)
#
#
# Indices 1 2 3 4 5 6 
#
# 1 118.7274 33.7482 39.2218 -5.4042 16.6683 -4.7934
# 2 33.7482 134.7424 39.0765 7.9662 -13.6717 -12.8997
# 3 39.2218 39.0765 95.0821 3.5869 5.9722 -9.5405
# 4 -5.4042 7.9662 3.5869 27.1774 -5.7262 6.3929
# 5 16.6683 -13.6717 5.9722 -5.7262 37.9819 9.3071
# 6 -4.7934 -12.8997 -9.5405 6.3929 9.3071 45.6353
#
#
#
# Elastic Compliance Matrix: (Units=1/GPa)
#
#
# Indices 1 2 3 4 5 6 
#
# 1 0.011000 -0.002389 -0.003274 0.002152 -0.004972 0.000508
# 2 -0.002389 0.009588 -0.003013 -0.002276 0.004320 0.001267
# 3 -0.003274 -0.003013 0.013655 -0.002792 -0.002862 0.002634
# 4 0.002152 -0.002276 -0.002792 0.041674 0.006983 -0.008263
# 5 -0.004972 0.004320 -0.002862 0.006983 0.033455 -0.007701
# 6 0.000508 0.001267 0.002634 -0.008263 -0.007701 0.025603
#
#
# Mechanical properties :
#
#
# Convention : Reuss Voigt Hill
#
# Bulk Modulus (GPa) = 59.20106 63.62720 61.41413
# Shear Modulus (GPa) = 31.65420 37.92596 34.79008
#
# Velocity S-wave (km/s) = 3.78461 4.14261 3.96765
# Velocity P-wave (km/s) = 6.77390 7.18835 6.98420
#
# Compressibility (1/GPa) = 0.01689159
#
# Stress axis : x y z
#
# Youngs Moduli (GPa) = 90.91198 104.29780 73.23124
#
# Poissons Ratio (x) = 0.24914 0.23973
# Poissons Ratio (y) = 0.21717 0.22067
# Poissons Ratio (z) = 0.29760 0.31429
#
# Static dielectric constant tensor:
#      x y z
#    x 1.843420 0.004140 0.012320 
#    y 0.004140 1.803800 0.008960 
#    z 0.012320 0.008960 1.823300 
# 
# From -- ./inp_files/208622.got.cif
#   From: 2010.05.17/outbox.cif.g08.bks.cpg/sg2_105_cif.got.tgz:208622.got - 2010.06.03 11:33:40.
