data_PCOD9063156
_publ_section_title
;
Structure prediction by ZEFSAII (Michael W. Deem and Ramdas Pophale) SiO2 
 PCOD9063156
Probable space group: P -1
;
_chemical_formula_sum "Si O2"
_cell_formula_units_Z 15
_cell_length_a 9.792018
_cell_length_b 9.325258
_cell_length_c 11.656540
_cell_angle_alpha 39.473052
_cell_angle_beta 106.604138
_cell_angle_gamma 89.719430
_cell_volume 602.387387
_symmetry_space_group_name_H-M "P -1"
_symmetry_group_IT_number 2
_symmetry_cell_setting 'triclinic'
loop_
_space_group_symop_operation_xyz
x,y,z
-x,-y,-z
loop_
_atom_site_type_symbol
_atom_site_label
_atom_site_fract_x
_atom_site_fract_y
_atom_site_fract_z
Si Si1 0.836206 0.943463 0.280651
Si Si2 0.944078 0.608898 0.043012
Si Si3 0.173113 0.910567 0.401383
Si Si4 0.848684 0.208322 0.890902
Si Si5 0.715349 0.539163 0.453936
Si Si6 0.359073 0.326926 0.982818
Si Si7 0.611345 0.181384 0.287173
Si Si8 0.500000 0.000000 0.000000
O O1 0.834072 0.677189 0.421723
O O2 0.996410 0.947794 0.361801
O O3 0.709716 0.088984 0.252141
O O4 0.793872 0.082062 0.061046
O O5 0.820721 0.526934 0.125608
O O6 0.847559 0.893547 0.823974
O O7 0.000000 0.500000 0.000000
O O8 0.088795 0.597775 0.157275
O O9 0.240893 0.645954 0.526503
O O10 0.274801 0.957500 0.497672
O O11 0.726805 0.364626 0.672900
O O12 0.000000 0.000000 0.000000
O O13 0.564595 0.764901 0.248068
O O14 0.448305 0.177774 0.209324
O O15 0.424344 0.541481 0.855269
O O16 0.394643 0.166538 0.977855
#
# Coordination Sequence:
#
# PCOD9063156 Si02
#       8
#     2   2   2   2   2   2   2   1
#     4  11  24  44  74 108 147 190 250 319 370 440
#     4  11  26  46  71 109 148 188 247 319 375 439
#     4  11  24  43  71 108 142 192 251 302 376 441
#     4  11  25  44  71 112 143 187 255 310 371 439
#     4  12  25  46  73 108 147 202 247 306 375 442
#     4  11  25  45  70  98 149 196 244 304 364 457
#     4  11  24  44  69 103 143 195 244 298 381 445
#     4  12  26  46  72 108 146 208 248 290 386 444
#
# _framework density 24.900919999999999
#
# number of rings (size 3 to 8) (size 9 to 14) (size 15 to 20)
#    0.000    0.800    5.333    2.400    5.600    0.533 
#    0.000    5.333    0.000    0.000    0.000    0.000 
#    0.000    0.000    0.000    0.000    0.000    0.000 
#
# Total GULP energy -83593.143429 kJ/mol
# GULP energy per Si atom -5572.876229 kJ/mol
# Density = 2.484424 g / cm^3
# Si number density = 24.900920 Si / 1000 Ang^3
#
#
#
# Elastic Constant Matrix: (Units=GPa)
#
#
# Indices 1 2 3 4 5 6 
#
# 1 50.5480 37.3431 7.9378 4.7982 -12.4809 -1.2772
# 2 37.3431 141.8707 24.7494 16.1921 4.1665 -15.3703
# 3 7.9378 24.7494 157.6751 22.0395 7.5781 -10.3831
# 4 4.7982 16.1921 22.0395 47.6828 -8.1519 8.2827
# 5 -12.4809 4.1665 7.5781 -8.1519 20.0288 -1.7078
# 6 -1.2772 -15.3703 -10.3831 8.2827 -1.7078 38.3336
#
#
#
# Elastic Compliance Matrix: (Units=1/GPa)
#
#
# Indices 1 2 3 4 5 6 
#
# 1 0.033612 -0.010350 -0.002497 0.006473 0.026343 -0.003932
# 2 -0.010350 0.011209 0.000403 -0.005669 -0.010815 0.005002
# 3 -0.002497 0.000403 0.007596 -0.004982 -0.006292 0.002932
# 4 0.006473 -0.005669 -0.004982 0.029212 0.018228 -0.008906
# 5 0.026343 -0.010815 -0.006292 0.018228 0.077913 -0.005630
# 6 -0.003932 0.005002 0.002932 -0.008906 -0.005630 0.030429
#
#
# Mechanical properties :
#
#
# Convention : Reuss Voigt Hill
#
# Bulk Modulus (GPa) = 36.32492 54.46160 45.39326
# Shear Modulus (GPa) = 22.31783 39.87996 31.09890
#
# Velocity S-wave (km/s) = 2.99702 4.00627 3.53782
# Velocity P-wave (km/s) = 5.15709 6.58172 5.91247
#
# Compressibility (1/GPa) = 0.02752931
#
# Stress axis : x y z
#
# Youngs Moduli (GPa) = 29.75115 89.21217 131.64117
#
# Poissons Ratio (x) = 0.92336 0.32875
# Poissons Ratio (y) = 0.30793 -0.05307
# Poissons Ratio (z) = 0.07430 -0.03597
#
# Static dielectric constant tensor:
#      x y z
#    x 2.455910 0.583780 -0.048290 
#    y 0.583780 2.549510 -0.040440 
#    z -0.048290 -0.040440 2.058130 
# 
# From -- ./inp_files/416169.got.cif
#   From: 2010.05.17/outbox.cif.g08.bks.cpg/sg2_209_cif.got.tgz:416169.got - 2010.06.03 11:33:40.
