data_PCOD9063697
_publ_section_title
;
Structure prediction by ZEFSAII (Michael W. Deem and Ramdas Pophale) SiO2 
 PCOD9063697
Probable space group: P -1
;
_chemical_formula_sum "Si O2"
_cell_formula_units_Z 16
_cell_length_a 9.226419
_cell_length_b 15.911694
_cell_length_c 13.674167
_cell_angle_alpha 138.564740
_cell_angle_beta 30.583501
_cell_angle_gamma 138.670117
_cell_volume 641.887113
_symmetry_space_group_name_H-M "P -1"
_symmetry_group_IT_number 2
_symmetry_cell_setting 'triclinic'
loop_
_space_group_symop_operation_xyz
x,y,z
-x,-y,-z
loop_
_atom_site_type_symbol
_atom_site_label
_atom_site_fract_x
_atom_site_fract_y
_atom_site_fract_z
Si Si1 0.640599 0.599414 0.271029
Si Si2 0.191479 0.530062 0.314464
Si Si3 0.241501 0.609423 0.858086
Si Si4 0.239389 0.053703 0.655077
Si Si5 0.533016 0.152892 0.364328
Si Si6 0.867506 0.336823 0.728851
Si Si7 0.194064 0.245534 0.019546
Si Si8 0.725368 0.845543 0.678141
O O1 0.518910 0.585185 0.219581
O O2 0.562432 0.456274 0.244462
O O3 0.495394 0.697421 0.495429
O O4 0.999429 0.650795 0.099516
O O5 0.135605 0.633233 0.359958
O O6 0.000000 0.500000 0.500000
O O7 0.168309 0.393592 0.153549
O O8 0.440484 0.732286 0.788498
O O9 0.051493 0.479537 0.792846
O O10 0.348956 0.096594 0.518864
O O11 0.911287 0.947215 0.739991
O O12 0.500000 0.000000 0.500000
O O13 0.208601 0.168156 0.844463
O O14 0.383360 0.087721 0.293322
O O15 0.881446 0.163756 0.181794
O O16 0.518831 0.274017 0.906706
O O17 0.041849 0.232092 0.556431
#
# Coordination Sequence:
#
# PCOD9063697 Si02
#       8
#     2   2   2   2   2   2   2   2
#     4  11  24  44  72 117 161 191 251 321 390 465
#     4  12  24  40  75 116 156 199 248 315 392 463
#     4  11  25  45  75 116 159 204 246 318 401 459
#     4  12  30  57  77 109 155 213 271 320 369 466
#     4  12  28  49  79 115 153 201 265 320 387 461
#     4  12  24  46  74 113 159 196 248 320 394 461
#     4  12  27  48  82 112 154 207 254 321 391 454
#     4  12  27  51  77 110 160 208 255 320 380 467
#
# _framework density 24.926499
#
# number of rings (size 3 to 8) (size 9 to 14) (size 15 to 20)
#    0.000    0.250    5.000    3.375    5.250    2.000 
#    2.250    0.000    0.000    0.000    0.000    0.000 
#    0.000    0.000    0.000    0.000    0.000    0.000 
#
# Total GULP energy -89606.341327 kJ/mol
# GULP energy per Si atom -5600.396333 kJ/mol
# Density = 2.486977 g / cm^3
# Si number density = 24.926499 Si / 1000 Ang^3
#
#
#
# Elastic Constant Matrix: (Units=GPa)
#
#
# Indices 1 2 3 4 5 6 
#
# 1 115.9376 27.9016 18.0399 -2.4227 1.9132 13.4869
# 2 27.9016 98.1416 35.5980 -3.4628 7.8825 36.7315
# 3 18.0399 35.5980 113.4302 -10.7315 1.8203 3.3004
# 4 -2.4227 -3.4628 -10.7315 35.8082 9.6560 5.4521
# 5 1.9132 7.8825 1.8203 9.6560 31.8672 -2.5046
# 6 13.4869 36.7315 3.3004 5.4521 -2.5046 40.0232
#
#
#
# Elastic Compliance Matrix: (Units=1/GPa)
#
#
# Indices 1 2 3 4 5 6 
#
# 1 0.009374 -0.001689 -0.000852 0.000573 -0.000399 -0.001641
# 2 -0.001689 0.020352 -0.004938 0.005346 -0.007757 -0.018915
# 3 -0.000852 -0.004938 0.010574 0.001973 0.000362 0.003701
# 4 0.000573 0.005346 0.001973 0.034113 -0.012647 -0.010700
# 5 -0.000399 -0.007757 0.000362 -0.012647 0.038025 0.011326
# 6 -0.001641 -0.018915 0.003701 -0.010700 0.011326 0.044759
#
#
# Mechanical properties :
#
#
# Convention : Reuss Voigt Hill
#
# Bulk Modulus (GPa) = 39.46172 54.50982 46.98577
# Shear Modulus (GPa) = 27.68512 37.93771 32.81141
#
# Velocity S-wave (km/s) = 3.33629 3.90549 3.63206
# Velocity P-wave (km/s) = 5.54136 6.50022 6.03985
#
# Compressibility (1/GPa) = 0.02534101
#
# Stress axis : x y z
#
# Youngs Moduli (GPa) = 106.67835 49.13608 94.56856
#
# Poissons Ratio (x) = 0.08301 0.08060
# Poissons Ratio (y) = 0.18023 0.46695
# Poissons Ratio (z) = 0.09092 0.24262
#
# Static dielectric constant tensor:
#      x y z
#    x 2.020780 0.051790 0.004000 
#    y 0.051790 2.034790 -0.011970 
#    z 0.004000 -0.011970 1.977810 
# 
# From -- ./inp_files/507921.got.cif
#   From: 2010.05.17/outbox.cif.g08.bks.cpg/sg2_254_cif.got.tgz:507921.got - 2010.06.03 11:33:40.
