data_PCOD9063537
_publ_section_title
;
Structure prediction by ZEFSAII (Michael W. Deem and Ramdas Pophale) SiO2 
 PCOD9063537
Probable space group: P -1
;
_chemical_formula_sum "Si O2"
_cell_formula_units_Z 16
_cell_length_a 5.620309
_cell_length_b 17.677887
_cell_length_c 6.373434
_cell_angle_alpha 94.942445
_cell_angle_beta 93.080349
_cell_angle_gamma 90.270712
_cell_volume 629.939835
_symmetry_space_group_name_H-M "P -1"
_symmetry_group_IT_number 2
_symmetry_cell_setting 'triclinic'
loop_
_space_group_symop_operation_xyz
x,y,z
-x,-y,-z
loop_
_atom_site_type_symbol
_atom_site_label
_atom_site_fract_x
_atom_site_fract_y
_atom_site_fract_z
Si Si1 0.742752 0.978776 0.886766
Si Si2 0.294554 0.747928 0.053597
Si Si3 0.298576 0.338899 0.997595
Si Si4 0.030358 0.708830 0.678600
Si Si5 0.747571 0.847188 0.581764
Si Si6 0.231714 0.885661 0.374449
Si Si7 0.922895 0.391281 0.719032
Si Si8 0.573891 0.518437 0.757653
O O1 0.740796 0.889939 0.814219
O O2 0.731622 0.030166 0.690389
O O3 0.500000 0.000000 0.000000
O O4 0.000000 0.000000 0.000000
O O5 0.195919 0.821732 0.177163
O O6 0.236087 0.671742 0.177936
O O7 0.578273 0.738084 0.076597
O O8 0.250634 0.754259 0.800225
O O9 0.435354 0.391143 0.186014
O O10 0.066998 0.317562 0.110771
O O11 0.195169 0.384501 0.806715
O O12 0.089005 0.638267 0.523533
O O13 0.830724 0.760313 0.578251
O O14 0.485873 0.861284 0.479763
O O15 0.984695 0.882913 0.490133
O O16 0.826536 0.475140 0.760740
O O17 0.500000 0.500000 0.500000
O O18 0.500000 0.500000 0.000000
#
# Coordination Sequence:
#
# PCOD9063537 Si02
#       8
#     2   2   2   2   2   2   2   2
#     4  12  26  46  72 104 145 189 247 304 367 448
#     4  11  24  44  70 102 143 185 244 300 369 447
#     4  11  26  43  72 101 141 191 243 311 371 453
#     4  11  26  42  72 105 139 191 243 303 373 449
#     4  12  26  46  72 105 145 195 243 302 376 447
#     4  12  26  45  73 103 147 191 247 303 372 453
#     4  11  24  47  69 102 142 185 250 299 379 446
#     4  12  27  46  74 103 146 196 250 314 391 465
#
# _framework density 25.399252000000001
#
# number of rings (size 3 to 8) (size 9 to 14) (size 15 to 20)
#    0.000    0.500    2.500    4.875    8.750    2.500 
#    0.000    0.000    0.000    0.000    0.000    0.000 
#    0.000    0.000    0.000    0.000    0.000    0.000 
#
# Total GULP energy -89087.057346 kJ/mol
# GULP energy per Si atom -5567.941084 kJ/mol
# Density = 2.534144 g / cm^3
# Si number density = 25.399252 Si / 1000 Ang^3
#
#
#
# Elastic Constant Matrix: (Units=GPa)
#
#
# Indices 1 2 3 4 5 6 
#
# 1 113.7166 11.0513 93.0597 14.7483 10.4000 -22.5034
# 2 11.0513 69.8977 29.4695 23.3576 -1.6953 -13.7910
# 3 93.0597 29.4695 232.3734 50.5762 13.0410 21.7168
# 4 14.7483 23.3576 50.5762 56.0261 -3.7182 3.0443
# 5 10.4000 -1.6953 13.0410 -3.7182 53.9603 3.2559
# 6 -22.5034 -13.7910 21.7168 3.0443 3.2559 52.2725
#
#
#
# Elastic Compliance Matrix: (Units=1/GPa)
#
#
# Indices 1 2 3 4 5 6 
#
# 1 0.018454 0.002901 -0.009117 0.001353 -0.001926 0.012539
# 2 0.002901 0.018726 -0.002851 -0.006431 -0.000193 0.007760
# 3 -0.009117 -0.002851 0.010311 -0.005296 -0.000670 -0.008611
# 4 0.001353 -0.006431 -0.005296 0.025155 0.002583 -0.000540
# 5 -0.001926 -0.000193 -0.000670 0.002583 0.019355 -0.001958
# 6 0.012539 0.007760 -0.008611 -0.000540 -0.001958 0.030306
#
#
# Mechanical properties :
#
#
# Convention : Reuss Voigt Hill
#
# Bulk Modulus (GPa) = 34.06360 75.90539 54.98449
# Shear Modulus (GPa) = 33.28282 51.27894 42.28088
#
# Velocity S-wave (km/s) = 3.62385 4.49811 4.08444
# Velocity P-wave (km/s) = 5.56328 7.54500 6.62862
#
# Compressibility (1/GPa) = 0.02935685
#
# Stress axis : x y z
#
# Youngs Moduli (GPa) = 54.18762 53.40297 96.98359
#
# Poissons Ratio (x) = -0.15491 0.88418
# Poissons Ratio (y) = -0.15719 0.27652
# Poissons Ratio (z) = 0.49401 0.15226
#
# Static dielectric constant tensor:
#      x y z
#    x 1.899020 0.099350 -0.060170 
#    y 0.099350 1.929770 -0.085100 
#    z -0.060170 -0.085100 1.983850 
# 
# From -- ./inp_files/10739.got.cif
#   From: 2010.05.17/outbox.cif.g08.bks.cpg/sg2_6_cif.got.tgz:10739.got - 2010.06.03 11:33:40.
