data_PCOD9063089
_publ_section_title
;
Structure prediction by ZEFSAII (Michael W. Deem and Ramdas Pophale) SiO2 
 PCOD9063089
Probable space group: P -1
;
_chemical_formula_sum "Si O2"
_cell_formula_units_Z 14
_cell_length_a 5.037197
_cell_length_b 5.796768
_cell_length_c 19.878830
_cell_angle_alpha 100.877543
_cell_angle_beta 88.606215
_cell_angle_gamma 80.145569
_cell_volume 560.649323
_symmetry_space_group_name_H-M "P -1"
_symmetry_group_IT_number 2
_symmetry_cell_setting 'triclinic'
loop_
_space_group_symop_operation_xyz
x,y,z
-x,-y,-z
loop_
_atom_site_type_symbol
_atom_site_label
_atom_site_fract_x
_atom_site_fract_y
_atom_site_fract_z
Si Si1 0.614867 0.193218 0.706755
Si Si2 0.755659 0.447452 0.044281
Si Si3 0.599330 0.891893 0.156294
Si Si4 0.627717 0.992150 0.425754
Si Si5 0.939485 0.854785 0.865310
Si Si6 0.907749 0.451091 0.421400
Si Si7 0.046744 0.502691 0.721444
O O1 0.534246 0.072014 0.767989
O O2 0.583959 0.043824 0.632273
O O3 0.372662 0.426831 0.715735
O O4 0.900050 0.274182 0.714227
O O5 0.651158 0.622694 0.116384
O O6 0.899353 0.214592 0.070632
O O7 0.500000 0.500000 0.000000
O O8 0.000000 0.500000 0.000000
O O9 0.891318 0.960510 0.157356
O O10 0.374689 0.040756 0.116908
O O11 0.815091 0.730318 0.414680
O O12 0.500000 0.000000 0.500000
O O13 0.736597 0.237608 0.423977
O O14 0.960273 0.650270 0.797500
O O15 0.042733 0.371824 0.342849
O O16 0.000000 0.500000 0.500000
#
# Coordination Sequence:
#
# PCOD9063089 Si02
#       7
#     2   2   2   2   2   2   2
#     4  11  24  45  73 105 145 193 246 310 375 448
#     4  12  28  48  74 104 152 188 240 312 378 456
#     4  12  26  45  76 107 144 192 250 305 376 454
#     4  11  24  43  70 106 153 200 256 317 383 453
#     4  12  26  45  76 107 144 192 250 305 376 454
#     4  11  24  43  70 106 153 200 256 317 383 453
#     4  11  24  45  73 105 145 193 246 310 375 448
#
# _framework density 24.971046999999999
#
# number of rings (size 3 to 8) (size 9 to 14) (size 15 to 20)
#    0.000    0.571    1.429    6.000    2.000    9.143 
#    0.000    0.000    0.000    0.000    0.000    0.000 
#    0.000    0.000    0.000    0.000    0.000    0.000 
#
# Total GULP energy -78123.842194 kJ/mol
# GULP energy per Si atom -5580.274442 kJ/mol
# Density = 2.491421 g / cm^3
# Si number density = 24.971047 Si / 1000 Ang^3
#
#
#
# Elastic Constant Matrix: (Units=GPa)
#
#
# Indices 1 2 3 4 5 6 
#
# 1 79.6980 9.0362 6.3072 -3.8742 10.5727 -8.5121
# 2 9.0362 70.1565 8.1355 -1.7516 15.6110 -4.3165
# 3 6.3072 8.1355 107.5457 -15.5423 12.4402 -5.5111
# 4 -3.8742 -1.7516 -15.5423 40.7678 0.8864 5.2487
# 5 10.5727 15.6110 12.4402 0.8864 48.5955 -3.7202
# 6 -8.5121 -4.3165 -5.5111 5.2487 -3.7202 53.4912
#
#
#
# Elastic Compliance Matrix: (Units=1/GPa)
#
#
# Indices 1 2 3 4 5 6 
#
# 1 0.013228 -0.001019 -0.000194 0.000967 -0.002385 0.001742
# 2 -0.001019 0.015516 -0.000491 0.000395 -0.004592 0.000681
# 3 -0.000194 -0.000491 0.010209 0.003850 -0.002451 0.000433
# 4 0.000967 0.000395 0.003850 0.026425 -0.001969 -0.002147
# 5 -0.002385 -0.004592 -0.002451 -0.001969 0.023297 0.000811
# 6 0.001742 0.000681 0.000433 -0.002147 0.000811 0.019339
#
#
# Mechanical properties :
#
#
# Convention : Reuss Voigt Hill
#
# Bulk Modulus (GPa) = 28.13356 33.81756 30.97556
# Shear Modulus (GPa) = 40.56163 44.16565 42.36364
#
# Velocity S-wave (km/s) = 4.03469 4.21012 4.12334
# Velocity P-wave (km/s) = 5.74421 6.09964 5.92459
#
# Compressibility (1/GPa) = 0.03554474
#
# Stress axis : x y z
#
# Youngs Moduli (GPa) = 75.59872 64.45134 97.95335
#
# Poissons Ratio (x) = 0.06569 0.01898
# Poissons Ratio (y) = 0.07705 0.04808
# Poissons Ratio (z) = 0.01465 0.03163
#
# Static dielectric constant tensor:
#      x y z
#    x 2.009520 -0.052060 -0.040720 
#    y -0.052060 2.135340 0.019150 
#    z -0.040720 0.019150 2.132350 
# 
# From -- ./inp_files/546001.got.cif
#   From: 2010.05.17/outbox.cif.g08.bks.cpg/sg2_274_cif.got.tgz:546001.got - 2010.06.03 11:33:40.
