data_PCOD9063678
_publ_section_title
;
Structure prediction by ZEFSAII (Michael W. Deem and Ramdas Pophale) SiO2 
 PCOD9063678
Probable space group: P -1
;
_chemical_formula_sum "Si O2"
_cell_formula_units_Z 8
_cell_length_a 7.316302
_cell_length_b 7.574324
_cell_length_c 7.395053
_cell_angle_alpha 58.104830
_cell_angle_beta 118.994039
_cell_angle_gamma 127.273837
_cell_volume 268.510191
_symmetry_space_group_name_H-M "P -1"
_symmetry_group_IT_number 2
_symmetry_cell_setting 'triclinic'
loop_
_space_group_symop_operation_xyz
x,y,z
-x,-y,-z
loop_
_atom_site_type_symbol
_atom_site_label
_atom_site_fract_x
_atom_site_fract_y
_atom_site_fract_z
Si Si1 0.990345 0.157634 0.249629
Si Si2 0.649200 0.231297 0.579795
Si Si3 0.387432 0.670935 0.094871
Si Si4 0.156275 0.280598 0.818483
O O1 0.227528 0.395024 0.198353
O O2 0.000000 0.000000 0.500000
O O3 0.968399 0.983425 0.175666
O O4 0.787997 0.236545 0.116923
O O5 0.525000 0.225231 0.717393
O O6 0.722612 0.479181 0.378179
O O7 0.912428 0.285856 0.750527
O O8 0.500000 0.000000 0.500000
O O9 0.592013 0.720164 0.022429
#
# Coordination Sequence:
#
# PCOD9063678 Si02
#       4
#     2   2   2   2
#     4  11  24  46  76 104 139 189 242 295 355 421
#     4  11  25  42  72 108 146 187 235 294 355 429
#     4  11  25  46  75 103 142 190 235 295 359 419
#     4  11  24  44  72 106 141 189 238 291 356 425
#
# _framework density 29.794025999999999
#
# number of rings (size 3 to 8) (size 9 to 14) (size 15 to 20)
#    0.000    1.000    2.500    3.000    3.500    1.000 
#    0.000    6.250    0.000    0.000    0.000    0.000 
#    0.000    0.000    0.000    0.000    0.000    0.000 
#
# Total GULP energy -44677.167989 kJ/mol
# GULP energy per Si atom -5584.645999 kJ/mol
# Density = 2.972621 g / cm^3
# Si number density = 29.794026 Si / 1000 Ang^3
#
#
#
# Elastic Constant Matrix: (Units=GPa)
#
#
# Indices 1 2 3 4 5 6 
#
# 1 149.2577 63.6484 58.0433 32.3909 31.9216 10.3534
# 2 63.6484 263.7621 33.3886 -31.6602 -20.9612 -4.7604
# 3 58.0433 33.3886 167.0246 -18.2742 19.4802 3.8425
# 4 32.3909 -31.6602 -18.2742 52.3085 2.2736 -7.4620
# 5 31.9216 -20.9612 19.4802 2.2736 49.4556 11.8139
# 6 10.3534 -4.7604 3.8425 -7.4620 11.8139 61.7746
#
#
#
# Elastic Compliance Matrix: (Units=1/GPa)
#
#
# Indices 1 2 3 4 5 6 
#
# 1 0.017629 -0.006470 -0.005364 -0.016697 -0.010493 -0.003130
# 2 -0.006470 0.006712 0.001110 0.008406 0.005856 0.001428
# 3 -0.005364 0.001110 0.008378 0.007110 -0.000010 0.001324
# 4 -0.016697 0.008406 0.007110 0.037509 0.008399 0.005929
# 5 -0.010493 0.005856 -0.000010 0.008399 0.029678 -0.002451
# 6 -0.003130 0.001428 0.001324 0.005929 -0.002451 0.017925
#
#
# Mechanical properties :
#
#
# Convention : Reuss Voigt Hill
#
# Bulk Modulus (GPa) = 88.71114 98.91166 93.81140
# Shear Modulus (GPa) = 34.95639 61.03868 47.99753
#
# Velocity S-wave (km/s) = 3.42902 4.53115 4.01805
# Velocity P-wave (km/s) = 6.74663 7.78754 7.28569
#
# Compressibility (1/GPa) = 0.01127254
#
# Stress axis : x y z
#
# Youngs Moduli (GPa) = 56.72361 148.98639 119.36150
#
# Poissons Ratio (x) = 0.96389 0.64027
# Poissons Ratio (y) = 0.36698 -0.13254
# Poissons Ratio (z) = 0.30427 -0.16544
#
# Static dielectric constant tensor:
#      x y z
#    x 2.308740 -0.063720 0.099410 
#    y -0.063720 2.306270 0.187320 
#    z 0.099410 0.187320 2.242520 
# 
# From -- ./inp_files/233089.got.cif
#   From: 2010.05.17/outbox.cif.g08.bks.cpg/sg2_117_cif.got.tgz:233089.got - 2010.06.03 11:33:40.
