data_PCOD9063039
_publ_section_title
;
Structure prediction by ZEFSAII (Michael W. Deem and Ramdas Pophale) SiO2 
 PCOD9063039
Probable space group: P -1
;
_chemical_formula_sum "Si O2"
_cell_formula_units_Z 16
_cell_length_a 15.050055
_cell_length_b 9.384255
_cell_length_c 8.924749
_cell_angle_alpha 76.893490
_cell_angle_beta 63.795340
_cell_angle_gamma 40.003588
_cell_volume 713.287716
_symmetry_space_group_name_H-M "P -1"
_symmetry_group_IT_number 2
_symmetry_cell_setting 'triclinic'
loop_
_space_group_symop_operation_xyz
x,y,z
-x,-y,-z
loop_
_atom_site_type_symbol
_atom_site_label
_atom_site_fract_x
_atom_site_fract_y
_atom_site_fract_z
Si Si1 0.168151 0.348868 0.851209
Si Si2 0.355572 0.517874 0.270767
Si Si3 0.105364 0.891087 0.163815
Si Si4 0.165950 0.671320 0.878671
Si Si5 0.509242 0.587372 0.324162
Si Si6 0.653772 0.767946 0.521844
Si Si7 0.328361 0.916460 0.996905
Si Si8 0.397684 0.017594 0.189547
O O1 0.208738 0.454634 0.878988
O O2 0.199871 0.345364 0.654658
O O3 0.280115 0.089813 0.868520
O O4 0.000000 0.500000 0.000000
O O5 0.186632 0.716747 0.280733
O O6 0.408172 0.613520 0.273599
O O7 0.358297 0.393412 0.427035
O O8 0.490887 0.322121 0.099136
O O9 0.086584 0.794128 0.067201
O O10 0.226736 0.887746 0.053830
O O11 0.943135 0.155558 0.217282
O O12 0.312248 0.608485 0.795953
O O13 0.500000 0.500000 0.500000
O O14 0.465604 0.807289 0.289960
O O15 0.663809 0.806269 0.678387
O O16 0.500000 0.000000 0.500000
O O17 0.293146 0.042921 0.146562
O O18 0.500000 0.000000 0.000000
#
# Coordination Sequence:
#
# PCOD9063039 Si02
#       8
#     2   2   2   2   2   2   2   2
#     4  12  26  47  73 101 149 193 238 297 376 438
#     4  12  23  42  73 105 146 183 248 305 359 427
#     4  11  24  43  69 106 138 190 237 299 362 441
#     4  11  24  44  71 102 143 189 242 292 377 432
#     4  12  25  42  71 108 144 190 248 305 367 439
#     4  12  25  45  72 109 143 190 249 306 360 438
#     4  12  22  43  72 102 143 189 242 300 362 435
#     4  12  24  42  72 109 146 187 245 310 365 426
#
# _framework density 22.431339000000001
#
# number of rings (size 3 to 8) (size 9 to 14) (size 15 to 20)
#    0.000    0.250    6.250    4.125    1.750    0.000 
#    0.000    4.375    0.000    0.000    0.000    0.000 
#    0.000    0.000    0.000    0.000    0.000    0.000 
#
# Total GULP energy -89284.098533 kJ/mol
# GULP energy per Si atom -5580.256158 kJ/mol
# Density = 2.238028 g / cm^3
# Si number density = 22.431339 Si / 1000 Ang^3
#
#
#
# Elastic Constant Matrix: (Units=GPa)
#
#
# Indices 1 2 3 4 5 6 
#
# 1 78.2309 16.6663 19.2508 4.9515 12.6073 14.4993
# 2 16.6663 77.6936 2.1991 -31.0904 -12.3077 9.2036
# 3 19.2508 2.1991 93.3062 -3.4782 -3.4907 20.5604
# 4 4.9515 -31.0904 -3.4782 34.9882 5.2530 -0.5461
# 5 12.6073 -12.3077 -3.4907 5.2530 28.1222 -2.2361
# 6 14.4993 9.2036 20.5604 -0.5461 -2.2361 44.9716
#
#
#
# Elastic Compliance Matrix: (Units=1/GPa)
#
#
# Indices 1 2 3 4 5 6 
#
# 1 0.018622 -0.009077 -0.003713 -0.009427 -0.011269 -0.003124
# 2 -0.009077 0.026111 0.003211 0.023055 0.011347 -0.003041
# 3 -0.003713 0.003211 0.012812 0.004048 0.003499 -0.005095
# 4 -0.009427 0.023055 0.004048 0.049971 0.005273 -0.002661
# 5 -0.011269 0.011347 0.003499 0.005273 0.045187 0.002022
# 6 -0.003124 -0.003041 -0.005095 -0.002661 0.002022 0.026263
#
#
# Mechanical properties :
#
#
# Convention : Reuss Voigt Hill
#
# Bulk Modulus (GPa) = 26.04988 36.16256 31.10622
# Shear Modulus (GPa) = 23.70577 35.69070 29.69823
#
# Velocity S-wave (km/s) = 3.25440 3.99320 3.64258
# Velocity P-wave (km/s) = 5.07541 6.11697 5.62037
#
# Compressibility (1/GPa) = 0.03838789
#
# Stress axis : x y z
#
# Youngs Moduli (GPa) = 53.70056 38.29816 78.05081
#
# Poissons Ratio (x) = 0.34764 0.28979
# Poissons Ratio (y) = 0.48745 -0.25066
# Poissons Ratio (z) = 0.19938 -0.12299
#
# Static dielectric constant tensor:
#      x y z
#    x 1.804820 -0.016460 0.013490 
#    y -0.016460 1.942320 -0.041260 
#    z 0.013490 -0.041260 2.064720 
# 
# From -- ./inp_files/298195.got.cif
#   From: 2010.05.17/outbox.cif.g08.bks.cpg/sg2_150_cif.got.tgz:298195.got - 2010.06.03 11:33:40.
