data_PCOD9063029
_publ_section_title
;
Structure prediction by ZEFSAII (Michael W. Deem and Ramdas Pophale) SiO2 
 PCOD9063029
Probable space group: P -1
;
_chemical_formula_sum "Si O2"
_cell_formula_units_Z 16
_cell_length_a 21.368018
_cell_length_b 18.386788
_cell_length_c 5.315585
_cell_angle_alpha 106.799558
_cell_angle_beta 107.510010
_cell_angle_gamma 18.356876
_cell_volume 627.203538
_symmetry_space_group_name_H-M "P -1"
_symmetry_group_IT_number 2
_symmetry_cell_setting 'triclinic'
loop_
_space_group_symop_operation_xyz
x,y,z
-x,-y,-z
loop_
_atom_site_type_symbol
_atom_site_label
_atom_site_fract_x
_atom_site_fract_y
_atom_site_fract_z
Si Si1 0.424901 0.217745 0.702440
Si Si2 0.727336 0.938573 0.440771
Si Si3 0.770206 0.274776 0.032624
Si Si4 0.303658 0.175148 0.042380
Si Si5 0.817631 0.383497 0.999363
Si Si6 0.448360 0.619594 0.357438
Si Si7 0.937781 0.486268 0.294467
Si Si8 0.082605 0.120778 0.564375
O O1 0.348477 0.367470 0.948103
O O2 0.240878 0.359550 0.612579
O O3 0.504069 0.179478 0.523220
O O4 0.609716 0.959304 0.736754
O O5 0.737978 0.851891 0.204277
O O6 0.822670 0.899663 0.352718
O O7 0.876729 0.771364 0.693913
O O8 0.738343 0.383200 0.922814
O O9 0.650315 0.432485 0.295645
O O10 0.674763 0.295464 0.907914
O O11 0.000000 0.000000 0.000000
O O12 0.133032 0.420251 0.984268
O O13 0.500000 0.000000 0.000000
O O14 0.945699 0.255817 0.285482
O O15 0.957368 0.240737 0.782669
O O16 0.500000 0.500000 0.500000
O O17 0.283864 0.852384 0.513327
O O18 0.000000 0.500000 0.500000
#
# Coordination Sequence:
#
# PCOD9063029 Si02
#       8
#     2   2   2   2   2   2   2   2
#     4  11  24  43  69 103 141 191 247 300 372 436
#     4  11  24  43  72  99 147 191 245 306 370 443
#     4  11  24  47  76 110 152 195 245 303 368 432
#     4   9  22  40  66 103 139 184 240 305 365 443
#     4  12  28  48  77 106 151 200 247 305 370 439
#     4  11  26  45  78 113 150 196 250 303 365 441
#     4   9  20  42  66 102 144 185 236 307 371 440
#     4  12  28  49  75 109 150 198 250 300 372 438
#
# _framework density 25.510061
#
# number of rings (size 3 to 8) (size 9 to 14) (size 15 to 20)
#    0.000    1.250    2.500    1.500    7.000    7.000 
#    0.000    7.500    0.000    0.000    0.000    0.000 
#    0.000    0.000    0.000    0.000    0.000    0.000 
#
# Total GULP energy -89242.781513 kJ/mol
# GULP energy per Si atom -5577.673845 kJ/mol
# Density = 2.545200 g / cm^3
# Si number density = 25.510061 Si / 1000 Ang^3
#
#
#
# Elastic Constant Matrix: (Units=GPa)
#
#
# Indices 1 2 3 4 5 6 
#
# 1 161.8769 44.9901 41.4586 25.9737 -27.1234 -12.4349
# 2 44.9901 119.8086 35.8584 28.8764 -16.7273 -8.6508
# 3 41.4586 35.8584 84.7641 15.5405 -25.8317 -16.3981
# 4 25.9737 28.8764 15.5405 44.4520 -11.0893 -8.2867
# 5 -27.1234 -16.7273 -25.8317 -11.0893 46.8048 17.6861
# 6 -12.4349 -8.6508 -16.3981 -8.2867 17.6861 53.9438
#
#
#
# Elastic Compliance Matrix: (Units=1/GPa)
#
#
# Indices 1 2 3 4 5 6 
#
# 1 0.007887 -0.001433 -0.002124 -0.002375 0.002403 -0.000210
# 2 -0.001433 0.011076 -0.002974 -0.005297 0.000381 -0.000397
# 3 -0.002124 -0.002974 0.016390 -0.000732 0.005825 0.001993
# 4 -0.002375 -0.005297 -0.000732 0.028535 0.002332 0.002000
# 5 0.002403 0.000381 0.005825 0.002332 0.029248 -0.006845
# 6 -0.000210 -0.000397 0.001993 0.002000 -0.006845 0.021583
#
#
# Mechanical properties :
#
#
# Convention : Reuss Voigt Hill
#
# Bulk Modulus (GPa) = 44.86410 67.89598 56.38004
# Shear Modulus (GPa) = 36.97868 45.31630 41.14749
#
# Velocity S-wave (km/s) = 3.81146 4.21932 4.02056
# Velocity P-wave (km/s) = 6.08232 7.10000 6.61077
#
# Compressibility (1/GPa) = 0.02228954
#
# Stress axis : x y z
#
# Youngs Moduli (GPa) = 126.78295 90.28304 61.01441
#
# Poissons Ratio (x) = 0.12941 0.12962
# Poissons Ratio (y) = 0.18173 0.18146
# Poissons Ratio (z) = 0.26935 0.26850
#
# Static dielectric constant tensor:
#      x y z
#    x 1.961430 0.059670 -0.019050 
#    y 0.059670 2.090130 -0.042830 
#    z -0.019050 -0.042830 2.124670 
# 
# From -- ./inp_files/120091.got.cif
#   From: 2010.05.17/outbox.cif.g08.bks.cpg/sg2_61_cif.got.tgz:120091.got - 2010.06.03 11:33:40.
