data_PCOD9063937
_publ_section_title
;
Structure prediction by ZEFSAII (Michael W. Deem and Ramdas Pophale) SiO2 
 PCOD9063937
Probable space group: P -1
;
_chemical_formula_sum "Si O2"
_cell_formula_units_Z 16
_cell_length_a 9.302550
_cell_length_b 15.306525
_cell_length_c 6.821146
_cell_angle_alpha 127.673852
_cell_angle_beta 58.836478
_cell_angle_gamma 112.683042
_cell_volume 654.360329
_symmetry_space_group_name_H-M "P -1"
_symmetry_group_IT_number 2
_symmetry_cell_setting 'triclinic'
loop_
_space_group_symop_operation_xyz
x,y,z
-x,-y,-z
loop_
_atom_site_type_symbol
_atom_site_label
_atom_site_fract_x
_atom_site_fract_y
_atom_site_fract_z
Si Si1 0.682258 0.390183 0.381945
Si Si2 0.750771 0.153874 0.583591
Si Si3 0.999603 0.271139 0.836704
Si Si4 0.735037 0.788623 0.140029
Si Si5 0.658098 0.974650 0.730152
Si Si6 0.580486 0.366329 0.865075
Si Si7 0.682562 0.578476 0.354644
Si Si8 0.186373 0.032219 0.990239
O O1 0.668482 0.382903 0.614709
O O2 0.722610 0.513863 0.435291
O O3 0.484661 0.356860 0.411633
O O4 0.831336 0.322693 0.102493
O O5 0.688886 0.075814 0.699461
O O6 0.656020 0.261420 0.764618
O O7 0.937331 0.197790 0.590674
O O8 0.727612 0.073238 0.302117
O O9 0.083138 0.218397 0.895704
O O10 0.152651 0.354616 0.758174
O O11 0.619164 0.672615 0.059057
O O12 0.746075 0.855239 0.018536
O O13 0.643579 0.864494 0.461243
O O14 0.500000 0.000000 0.000000
O O15 0.798676 0.964763 0.783655
O O16 0.376816 0.522626 0.889816
O O17 0.000000 0.000000 0.000000
#
# Coordination Sequence:
#
# PCOD9063937 Si02
#       8
#     2   2   2   2   2   2   2   2
#     4  11  26  46  75 101 142 192 234 290 364 414
#     4  11  26  42  70 106 140 183 240 290 345 424
#     4  12  25  49  72 105 149 186 234 296 353 418
#     4  11  26  44  70 108 143 184 238 297 345 419
#     4  11  24  45  73  99 144 188 232 291 356 413
#     4  12  25  47  72 106 143 182 242 295 345 426
#     4  11  26  52  69 107 148 181 237 302 346 420
#     4  11  24  45  67 102 142 184 234 290 351 418
#
# _framework density 24.451357999999999
#
# number of rings (size 3 to 8) (size 9 to 14) (size 15 to 20)
#    0.000    0.750    2.500    3.750    5.250    5.500 
#    4.500    0.000    0.000    0.000    0.000    0.000 
#    0.000    0.000    0.000    0.000    0.000    0.000 
#
# Total GULP energy -89578.928951 kJ/mol
# GULP energy per Si atom -5598.683059 kJ/mol
# Density = 2.439571 g / cm^3
# Si number density = 24.451358 Si / 1000 Ang^3
#
#
#
# Elastic Constant Matrix: (Units=GPa)
#
#
# Indices 1 2 3 4 5 6 
#
# 1 99.4982 26.7549 32.2718 13.4959 -4.7379 -10.1569
# 2 26.7549 98.1580 44.5348 7.5222 11.8079 9.8375
# 3 32.2718 44.5348 106.5466 -7.0600 -8.9314 -1.9167
# 4 13.4959 7.5222 -7.0600 19.0938 -11.6684 -6.6928
# 5 -4.7379 11.8079 -8.9314 -11.6684 47.9305 1.2157
# 6 -10.1569 9.8375 -1.9167 -6.6928 1.2157 51.3584
#
#
#
# Elastic Compliance Matrix: (Units=1/GPa)
#
#
# Indices 1 2 3 4 5 6 
#
# 1 0.013397 -0.000193 -0.005012 -0.012531 -0.002636 0.000929
# 2 -0.000193 0.018114 -0.009825 -0.019443 -0.010890 -0.006151
# 3 -0.005012 -0.009825 0.017378 0.021581 0.010313 0.004108
# 4 -0.012531 -0.019443 0.021581 0.101454 0.031903 0.014517
# 5 -0.002636 -0.010890 0.010313 0.031903 0.032839 0.005330
# 6 0.000929 -0.006151 0.004108 0.014517 0.005330 0.022752
#
#
# Mechanical properties :
#
#
# Convention : Reuss Voigt Hill
#
# Bulk Modulus (GPa) = 53.10617 56.81399 54.96008
# Shear Modulus (GPa) = 20.63805 37.05261 28.84533
#
# Velocity S-wave (km/s) = 2.90840 3.89699 3.43841
# Velocity P-wave (km/s) = 5.74845 6.59808 6.18786
#
# Compressibility (1/GPa) = 0.01883020
#
# Stress axis : x y z
#
# Youngs Moduli (GPa) = 74.64367 55.20495 57.54258
#
# Poissons Ratio (x) = 0.01068 0.28838
# Poissons Ratio (y) = 0.01444 0.56534
# Poissons Ratio (z) = 0.37408 0.54237
#
# Static dielectric constant tensor:
#      x y z
#    x 1.978000 -0.016590 -0.074230 
#    y -0.016590 1.933640 0.052480 
#    z -0.074230 0.052480 1.877860 
# 
# From -- ./inp_files/48798.got.cif
#   From: 2010.05.17/outbox.cif.g08.bks.cpg/sg2_25_cif.got.tgz:48798.got - 2010.06.03 11:33:40.
