data_PCOD9063811
_publ_section_title
;
Structure prediction by ZEFSAII (Michael W. Deem and Ramdas Pophale) SiO2 
 PCOD9063811
Probable space group: P -1
;
_chemical_formula_sum "Si O2"
_cell_formula_units_Z 16
_cell_length_a 9.505465
_cell_length_b 5.531396
_cell_length_c 15.315183
_cell_angle_alpha 110.497631
_cell_angle_beta 102.827228
_cell_angle_gamma 105.229076
_cell_volume 682.445882
_symmetry_space_group_name_H-M "P -1"
_symmetry_group_IT_number 2
_symmetry_cell_setting 'triclinic'
loop_
_space_group_symop_operation_xyz
x,y,z
-x,-y,-z
loop_
_atom_site_type_symbol
_atom_site_label
_atom_site_fract_x
_atom_site_fract_y
_atom_site_fract_z
Si Si1 0.095380 0.673744 0.617785
Si Si2 0.860564 0.556346 0.717462
Si Si3 0.391382 0.182623 0.950665
Si Si4 0.470176 0.680709 0.440814
Si Si5 0.093381 0.795965 0.169039
Si Si6 0.337911 0.007425 0.101635
Si Si7 0.189198 0.235224 0.781763
Si Si8 0.605184 0.413522 0.292149
O O1 0.270584 0.678344 0.649807
O O2 0.000000 0.500000 0.500000
O O3 0.999946 0.536595 0.674934
O O4 0.102521 0.991314 0.668936
O O5 0.709309 0.464099 0.625861
O O6 0.828027 0.338397 0.764811
O O7 0.893172 0.878905 0.786430
O O8 0.270072 0.099204 0.844678
O O9 0.521991 0.062631 0.928371
O O10 0.500000 0.500000 0.000000
O O11 0.302011 0.140767 0.025494
O O12 0.500000 0.500000 0.500000
O O13 0.577432 0.654223 0.373010
O O14 0.500000 0.000000 0.500000
O O15 0.915015 0.649994 0.157254
O O16 0.180644 0.783583 0.090117
O O17 0.431500 0.194104 0.219958
O O18 0.318406 0.473295 0.776189
#
# Coordination Sequence:
#
# PCOD9063811 Si02
#       8
#     2   2   2   2   2   2   2   2
#     4  11  25  44  70  99 143 192 243 294 357 430
#     4  11  24  45  66 102 144 186 236 297 357 423
#     4  11  24  44  74 108 142 181 245 299 364 436
#     4  12  28  44  68 105 143 186 245 303 360 427
#     4  11  25  46  72 102 144 190 234 294 363 431
#     4  11  25  44  75 107 139 189 241 301 364 437
#     4  11  25  45  72 102 144 190 237 300 363 432
#     4  12  24  45  73 102 138 195 241 297 361 431
#
# _framework density 23.445081999999999
#
# number of rings (size 3 to 8) (size 9 to 14) (size 15 to 20)
#    0.000    0.750    5.000    1.500    7.000    2.000 
#    0.000    0.625    0.000    0.000    0.000    0.000 
#    0.000    0.000    0.000    0.000    0.000    0.000 
#
# Total GULP energy -89227.937416 kJ/mol
# GULP energy per Si atom -5576.746089 kJ/mol
# Density = 2.339172 g / cm^3
# Si number density = 23.445082 Si / 1000 Ang^3
#
#
#
# Elastic Constant Matrix: (Units=GPa)
#
#
# Indices 1 2 3 4 5 6 
#
# 1 109.2002 7.1631 15.3114 -11.2972 -23.3516 7.0892
# 2 7.1631 86.9358 24.9615 -8.8218 -23.2075 2.2099
# 3 15.3114 24.9615 62.7789 7.3288 -27.9592 -1.0353
# 4 -11.2972 -8.8218 7.3288 32.1300 10.5419 -12.0379
# 5 -23.3516 -23.2075 -27.9592 10.5419 18.3160 -4.3311
# 6 7.0892 2.2099 -1.0353 -12.0379 -4.3311 40.3197
#
#
#
# Elastic Compliance Matrix: (Units=1/GPa)
#
#
# Indices 1 2 3 4 5 6 
#
# 1 0.004184 -0.004756 -0.025139 0.023135 -0.052344 0.000164
# 2 -0.004756 0.009071 -0.026076 0.022758 -0.047143 0.001400
# 3 -0.025139 -0.026076 -0.062575 0.063607 -0.196724 0.002101
# 4 0.023135 0.022758 0.063607 -0.021693 0.169824 0.008084
# 5 -0.052344 -0.047143 -0.196724 0.169824 -0.468222 0.007142
# 6 0.000164 0.001400 0.002101 0.008084 0.007142 0.027931
#
#
# Mechanical properties :
#
#
# Convention : Reuss Voigt Hill
#
# Bulk Modulus (GPa) = -6.20100 39.30965 16.55432
# Shear Modulus (GPa) = -11.03470 32.25173 10.60851
#
# Velocity S-wave (km/s) = -2.17183 3.71297 2.12947
# Velocity P-wave (km/s) = 2.98994 5.93166 3.62249
#
# Compressibility (1/GPa) = -0.16126422
#
# Stress axis : x y z
#
# Youngs Moduli (GPa) = 239.02093 110.24597 -15.98077
#
# Poissons Ratio (x) = 0.52438 -0.40175
# Poissons Ratio (y) = 1.13689 -0.41671
# Poissons Ratio (z) = 6.00882 2.87476
#
# Static dielectric constant tensor:
#      x y z
#    x 1.294540 0.688930 -0.125550 
#    y 0.688930 0.907800 0.289590 
#    z -0.125550 0.289590 1.764920 
# 
# From -- ./inp_files/35210.got.cif
#   From: 2010.05.17/outbox.cif.g08.bks.cpg/sg2_18_cif.got.tgz:35210.got - 2010.06.03 11:33:40.
