data_PCOD9063260
_publ_section_title
;
Structure prediction by ZEFSAII (Michael W. Deem and Ramdas Pophale) SiO2 
 PCOD9063260
Probable space group: P -1
;
_chemical_formula_sum "Si O2"
_cell_formula_units_Z 16
_cell_length_a 8.857369
_cell_length_b 14.457332
_cell_length_c 8.675379
_cell_angle_alpha 137.424061
_cell_angle_beta 68.905301
_cell_angle_gamma 102.981275
_cell_volume 699.803764
_symmetry_space_group_name_H-M "P -1"
_symmetry_group_IT_number 2
_symmetry_cell_setting 'triclinic'
loop_
_space_group_symop_operation_xyz
x,y,z
-x,-y,-z
loop_
_atom_site_type_symbol
_atom_site_label
_atom_site_fract_x
_atom_site_fract_y
_atom_site_fract_z
Si Si1 0.696013 0.335761 0.866438
Si Si2 0.906994 0.711637 0.867388
Si Si3 0.981802 0.164607 0.698717
Si Si4 0.542103 0.576901 0.423621
Si Si5 0.280602 0.161795 0.379307
Si Si6 0.470581 0.883603 0.491948
Si Si7 0.202806 0.588173 0.406378
Si Si8 0.810394 0.974260 0.050127
O O1 0.541356 0.260483 0.766724
O O2 0.795024 0.381409 0.737725
O O3 0.804565 0.225973 0.791574
O O4 0.642051 0.467790 0.146485
O O5 0.820290 0.572282 0.754952
O O6 0.800559 0.831300 0.968889
O O7 0.059832 0.672033 0.652134
O O8 0.966879 0.770995 0.079722
O O9 0.106197 0.203285 0.567210
O O10 0.000000 0.000000 0.500000
O O11 0.500000 0.500000 0.500000
O O12 0.643596 0.709090 0.569706
O O13 0.374564 0.621528 0.455350
O O14 0.394430 0.118288 0.428154
O O15 0.260805 0.043962 0.116382
O O16 0.500000 0.000000 0.500000
O O17 0.296540 0.915632 0.677454
O O18 0.000000 0.000000 0.000000
#
# Coordination Sequence:
#
# PCOD9063260 Si02
#       8
#     2   2   2   2   2   2   2   2
#     4  12  26  46  73 101 148 188 237 302 367 423
#     4  11  24  43  74 102 143 189 242 291 363 433
#     4  12  26  47  70 106 144 188 243 296 360 442
#     4  12  27  45  73 105 148 189 242 305 360 429
#     4  12  26  46  74 106 146 189 246 296 366 431
#     4  12  27  45  72 107 145 193 242 299 364 436
#     4  11  24  45  71 104 142 187 239 302 360 427
#     4  12  26  47  74 103 148 195 241 299 360 436
#
# _framework density 22.863551999999999
#
# number of rings (size 3 to 8) (size 9 to 14) (size 15 to 20)
#    0.000    0.250    1.250    8.250    5.250    4.000 
#    4.500    0.000    0.000    0.000    0.000    0.000 
#    0.000    0.000    0.000    0.000    0.000    0.000 
#
# Total GULP energy -89736.650206 kJ/mol
# GULP energy per Si atom -5608.540638 kJ/mol
# Density = 2.281151 g / cm^3
# Si number density = 22.863552 Si / 1000 Ang^3
#
#
#
# Elastic Constant Matrix: (Units=GPa)
#
#
# Indices 1 2 3 4 5 6 
#
# 1 78.4208 5.1973 6.2142 -1.1306 6.0735 0.3840
# 2 5.1973 103.5407 8.4107 -5.6353 5.2300 6.4287
# 3 6.2142 8.4107 88.4969 -11.5330 1.4447 14.9925
# 4 -1.1306 -5.6353 -11.5330 40.6144 -3.0537 -0.3239
# 5 6.0735 5.2300 1.4447 -3.0537 38.9855 1.1856
# 6 0.3840 6.4287 14.9925 -0.3239 1.1856 44.1746
#
#
#
# Elastic Compliance Matrix: (Units=1/GPa)
#
#
# Indices 1 2 3 4 5 6 
#
# 1 0.013004 -0.000507 -0.000901 -0.000108 -0.001943 0.000318
# 2 -0.000507 0.009920 -0.000537 0.001117 -0.001107 -0.001219
# 3 -0.000901 -0.000537 0.012565 0.003446 0.000143 -0.004157
# 4 -0.000108 0.001117 0.003446 0.025878 0.001803 -0.001190
# 5 -0.001943 -0.001107 0.000143 0.001803 0.026255 -0.000562
# 6 0.000318 -0.001219 -0.004157 -0.001190 -0.000562 0.024229
#
#
# Mechanical properties :
#
#
# Convention : Reuss Voigt Hill
#
# Bulk Modulus (GPa) = 31.64719 34.45587 33.05153
# Shear Modulus (GPa) = 39.59632 41.46397 40.53015
#
# Velocity S-wave (km/s) = 4.16607 4.26319 4.21491
# Velocity P-wave (km/s) = 6.08386 6.27184 6.17856
#
# Compressibility (1/GPa) = 0.03159838
#
# Stress axis : x y z
#
# Youngs Moduli (GPa) = 76.89901 100.81145 79.58508
#
# Poissons Ratio (x) = 0.05111 0.07172
# Poissons Ratio (y) = 0.03899 0.04274
# Poissons Ratio (z) = 0.06930 0.05414
#
# Static dielectric constant tensor:
#      x y z
#    x 1.838380 0.008390 0.007460 
#    y 0.008390 1.865600 0.001480 
#    z 0.007460 0.001480 1.812380 
# 
# From -- ./inp_files/209190.got.cif
#   From: 2010.05.17/outbox.cif.g08.bks.cpg/sg2_105_cif.got.tgz:209190.got - 2010.06.03 11:33:40.
