data_PCOD9063334
_publ_section_title
;
Structure prediction by ZEFSAII (Michael W. Deem and Ramdas Pophale) SiO2 
 PCOD9063334
Probable space group: P -1
;
_chemical_formula_sum "Si O2"
_cell_formula_units_Z 16
_cell_length_a 11.151624
_cell_length_b 8.700978
_cell_length_c 20.409840
_cell_angle_alpha 31.047792
_cell_angle_beta 137.699820
_cell_angle_gamma 125.647332
_cell_volume 679.981029
_symmetry_space_group_name_H-M "P -1"
_symmetry_group_IT_number 2
_symmetry_cell_setting 'triclinic'
loop_
_space_group_symop_operation_xyz
x,y,z
-x,-y,-z
loop_
_atom_site_type_symbol
_atom_site_label
_atom_site_fract_x
_atom_site_fract_y
_atom_site_fract_z
Si Si1 0.334315 0.455348 0.724806
Si Si2 0.648172 0.730914 0.401678
Si Si3 0.459254 0.898030 0.894405
Si Si4 0.877044 0.878344 0.050309
Si Si5 0.566153 0.713606 0.823386
Si Si6 0.972271 0.359698 0.359208
Si Si7 0.353166 0.817816 0.475149
Si Si8 0.914514 0.828539 0.866259
O O1 0.505915 0.583933 0.777818
O O2 0.185180 0.518135 0.698014
O O3 0.272074 0.648860 0.564581
O O4 0.394480 0.112933 0.851394
O O5 0.556233 0.459186 0.433511
O O6 0.835616 0.572133 0.563475
O O7 0.670819 0.960819 0.267531
O O8 0.548783 0.961482 0.329371
O O9 0.660220 0.945869 0.934533
O O10 0.458162 0.551687 0.038784
O O11 0.926643 0.519929 0.212889
O O12 0.937984 0.009254 0.096576
O O13 0.000000 0.000000 0.000000
O O14 0.767242 0.778196 0.879539
O O15 0.000000 0.000000 0.500000
O O16 0.500000 0.000000 0.500000
O O17 0.198174 0.011391 0.298916
O O18 0.000000 0.500000 0.000000
#
# Coordination Sequence:
#
# PCOD9063334 Si02
#       8
#     2   2   2   2   2   2   2   2
#     4  11  24  43  78 104 147 195 247 307 369 445
#     4  11  25  45  74 105 142 194 249 306 373 445
#     4  11  25  46  77 107 150 198 253 298 382 457
#     4  12  27  50  74 112 153 195 249 320 379 443
#     4  12  23  45  74 108 146 198 246 307 372 459
#     4  12  25  48  75 114 149 194 256 316 375 452
#     4  11  25  48  70 104 145 194 250 303 371 447
#     4  12  28  46  72 110 150 193 249 311 379 444
#
# _framework density 23.530069999999998
#
# number of rings (size 3 to 8) (size 9 to 14) (size 15 to 20)
#    0.000    0.500    5.000    2.250    3.500    5.500 
#    6.750    0.000    0.000    0.000    0.000    0.000 
#    0.000    0.000    0.000    0.000    0.000    0.000 
#
# Total GULP energy -89472.985540 kJ/mol
# GULP energy per Si atom -5592.061596 kJ/mol
# Density = 2.347651 g / cm^3
# Si number density = 23.530070 Si / 1000 Ang^3
#
#
#
# Elastic Constant Matrix: (Units=GPa)
#
#
# Indices 1 2 3 4 5 6 
#
# 1 96.0878 -3.3357 30.6326 -11.8996 -8.5024 12.7343
# 2 -3.3357 92.2676 8.5440 -15.1497 7.3913 -6.9047
# 3 30.6326 8.5440 139.0382 -13.0886 -15.6004 -5.0078
# 4 -11.8996 -15.1497 -13.0886 37.9857 -0.8918 2.0402
# 5 -8.5024 7.3913 -15.6004 -0.8918 42.4597 -0.3483
# 6 12.7343 -6.9047 -5.0078 2.0402 -0.3483 28.7959
#
#
#
# Elastic Compliance Matrix: (Units=1/GPa)
#
#
# Indices 1 2 3 4 5 6 
#
# 1 0.012644 0.000729 -0.002529 0.003743 0.001504 -0.006104
# 2 0.000729 0.012005 -0.000616 0.004643 -0.002056 0.002095
# 3 -0.002529 -0.000616 0.008344 0.001776 0.002723 0.002329
# 4 0.003743 0.004643 0.001776 0.030117 0.001207 -0.002352
# 5 0.001504 -0.002056 0.002723 0.001207 0.025233 -0.000465
# 6 -0.006104 0.002095 0.002329 -0.002352 -0.000465 0.038495
#
#
# Mechanical properties :
#
#
# Convention : Reuss Voigt Hill
#
# Bulk Modulus (GPa) = 35.51162 44.34171 39.92667
# Shear Modulus (GPa) = 35.44627 41.28510 38.36569
#
# Velocity S-wave (km/s) = 3.88548 4.19330 4.04232
# Velocity P-wave (km/s) = 5.93751 6.50620 6.22835
#
# Compressibility (1/GPa) = 0.02815979
#
# Stress axis : x y z
#
# Youngs Moduli (GPa) = 79.08654 83.29654 119.84740
#
# Poissons Ratio (x) = -0.06070 0.30312
# Poissons Ratio (y) = -0.05763 0.07387
# Poissons Ratio (z) = 0.20003 0.05134
#
# Static dielectric constant tensor:
#      x y z
#    x 2.033140 0.045840 -0.044340 
#    y 0.045840 1.994060 -0.001780 
#    z -0.044340 -0.001780 1.879320 
# 
# From -- ./inp_files/593927.got.cif
#   From: 2010.05.17/outbox.cif.g08.bks.cpg/sg2_297_cif.got.tgz:593927.got - 2010.06.03 11:33:40.
