data_PCOD9063184
_publ_section_title
;
Structure prediction by ZEFSAII (Michael W. Deem and Ramdas Pophale) SiO2 
 PCOD9063184
Probable space group: P -1
;
_chemical_formula_sum "Si O2"
_cell_formula_units_Z 13
_cell_length_a 13.402660
_cell_length_b 11.653479
_cell_length_c 9.297718
_cell_angle_alpha 40.071145
_cell_angle_beta 33.786229
_cell_angle_gamma 58.772317
_cell_volume 491.018569
_symmetry_space_group_name_H-M "P -1"
_symmetry_group_IT_number 2
_symmetry_cell_setting 'triclinic'
loop_
_space_group_symop_operation_xyz
x,y,z
-x,-y,-z
loop_
_atom_site_type_symbol
_atom_site_label
_atom_site_fract_x
_atom_site_fract_y
_atom_site_fract_z
Si Si1 0.500000 0.500000 0.500000
Si Si2 0.493599 0.763164 0.432536
Si Si3 0.189693 0.637644 0.570236
Si Si4 0.187537 0.019893 0.341472
Si Si5 0.546112 0.717408 0.710040
Si Si6 0.882689 0.316680 0.725299
Si Si7 0.787431 0.018155 0.341669
O O1 0.371252 0.553144 0.735875
O O2 0.357110 0.554138 0.489589
O O3 0.626541 0.783190 0.392372
O O4 0.365175 0.892357 0.485850
O O5 0.634298 0.792950 0.094629
O O6 0.246608 0.845142 0.377044
O O7 0.127455 0.656670 0.459910
O O8 0.000000 0.500000 0.000000
O O9 0.125896 0.021870 0.576879
O O10 0.000000 0.000000 0.500000
O O11 0.664227 0.835388 0.582224
O O12 0.500000 0.500000 0.000000
O O13 0.342968 0.744389 0.916765
O O14 0.000000 0.500000 0.500000
O O15 0.921166 0.153208 0.932624
#
# Coordination Sequence:
#
# PCOD9063184 Si02
#       7
#     1   2   2   2   2   2   2
#     4  12  26  44  78 108 148 196 250 310 384 452
#     4  11  24  43  72 102 143 191 253 299 380 452
#     4  12  26  48  75 112 155 195 257 318 382 463
#     4  12  26  45  73 107 150 198 253 318 387 450
#     4  11  25  44  73 106 147 196 253 306 379 463
#     4  11  25  46  75 105 153 198 249 323 385 447
#     4  11  24  48  73 106 152 200 257 314 380 464
#
# _framework density 26.475576
#
# number of rings (size 3 to 8) (size 9 to 14) (size 15 to 20)
#    0.000    0.615    1.538    6.923    6.462    2.462 
#    0.000    2.308    0.000    0.000    0.000    0.000 
#    0.000    0.000    0.000    0.000    0.000    0.000 
#
# Total GULP energy -72485.103279 kJ/mol
# GULP energy per Si atom -5575.777175 kJ/mol
# Density = 2.641532 g / cm^3
# Si number density = 26.475576 Si / 1000 Ang^3
#
#
#
# Elastic Constant Matrix: (Units=GPa)
#
#
# Indices 1 2 3 4 5 6 
#
# 1 268.7545 48.2177 72.4970 0.4176 22.4040 49.2936
# 2 48.2177 105.0036 5.4229 -7.6054 0.5043 19.9545
# 3 72.4970 5.4229 103.9649 9.7949 19.4268 11.9133
# 4 0.4176 -7.6054 9.7949 35.0316 4.1924 -2.1429
# 5 22.4040 0.5043 19.4268 4.1924 52.4241 8.2029
# 6 49.2936 19.9545 11.9133 -2.1429 8.2029 62.1262
#
#
#
# Elastic Compliance Matrix: (Units=1/GPa)
#
#
# Indices 1 2 3 4 5 6 
#
# 1 0.005563 -0.001761 -0.003342 0.000376 -0.000666 -0.003107
# 2 -0.001761 0.010865 0.000614 0.001999 0.000608 -0.002221
# 3 -0.003342 0.000614 0.012745 -0.002999 -0.003110 0.000318
# 4 0.000376 0.001999 -0.002999 0.030061 -0.001611 0.000884
# 5 -0.000666 0.000608 -0.003110 -0.001611 0.020931 -0.001890
# 6 -0.003107 -0.002221 0.000318 0.000884 -0.001890 0.019494
#
#
# Mechanical properties :
#
#
# Convention : Reuss Voigt Hill
#
# Bulk Modulus (GPa) = 49.52247 81.11091 65.31669
# Shear Modulus (GPa) = 43.33959 53.35542 48.34750
#
# Velocity S-wave (km/s) = 4.05033 4.49405 4.27795
# Velocity P-wave (km/s) = 6.37332 7.59152 7.00894
#
# Compressibility (1/GPa) = 0.02019285
#
# Stress axis : x y z
#
# Youngs Moduli (GPa) = 179.75253 92.04243 78.46459
#
# Poissons Ratio (x) = 0.16211 0.26226
# Poissons Ratio (y) = 0.31659 -0.04817
# Poissons Ratio (z) = 0.60081 -0.05651
#
# Static dielectric constant tensor:
#      x y z
#    x 2.221460 -0.168870 0.302090 
#    y -0.168870 1.832050 0.273950 
#    z 0.302090 0.273950 1.818360 
# 
# From -- ./inp_files/261245.got.cif
#   From: 2010.05.17/outbox.cif.g08.bks.cpg/sg2_131_cif.got.tgz:261245.got - 2010.06.03 11:33:40.
