data_PCOD9063640
_publ_section_title
;
Structure prediction by ZEFSAII (Michael W. Deem and Ramdas Pophale) SiO2 
 PCOD9063640
Probable space group: P -1
;
_chemical_formula_sum "Si O2"
_cell_formula_units_Z 16
_cell_length_a 10.743915
_cell_length_b 9.204948
_cell_length_c 18.037717
_cell_angle_alpha 147.049763
_cell_angle_beta 51.808840
_cell_angle_gamma 115.199920
_cell_volume 744.300506
_symmetry_space_group_name_H-M "P -1"
_symmetry_group_IT_number 2
_symmetry_cell_setting 'triclinic'
loop_
_space_group_symop_operation_xyz
x,y,z
-x,-y,-z
loop_
_atom_site_type_symbol
_atom_site_label
_atom_site_fract_x
_atom_site_fract_y
_atom_site_fract_z
Si Si1 0.061044 0.378724 0.302466
Si Si2 0.514607 0.677706 0.350799
Si Si3 0.419290 0.283566 0.112742
Si Si4 0.478638 0.665416 0.654922
Si Si5 0.103964 0.705653 0.822753
Si Si6 0.390773 0.785514 0.130896
Si Si7 0.887966 0.593913 0.155540
Si Si8 0.960368 0.931683 0.668867
O O1 0.235545 0.294208 0.162208
O O2 0.074975 0.173011 0.280154
O O3 0.933490 0.385086 0.285428
O O4 0.018371 0.672160 0.483659
O O5 0.407871 0.561278 0.281116
O O6 0.464446 0.544034 0.387836
O O7 0.701937 0.563891 0.206376
O O8 0.500000 0.000000 0.500000
O O9 0.549412 0.271947 0.997916
O O10 0.500000 0.000000 0.000000
O O11 0.500000 0.500000 0.500000
O O12 0.287885 0.737240 0.770783
O O13 0.553231 0.937081 0.743584
O O14 0.062446 0.540332 0.839173
O O15 0.000000 0.000000 0.000000
O O16 0.194995 0.872891 0.231282
O O17 0.500000 0.500000 0.000000
O O18 0.900219 0.904914 0.297447
O O19 0.000000 0.500000 0.000000
#
# Coordination Sequence:
#
# PCOD9063640 Si02
#       8
#     2   2   2   2   2   2   2   2
#     4  11  24  44  71  97 134 182 224 279 340 404
#     4  11  25  45  70 100 134 181 227 276 341 408
#     4  12  23  45  71  97 136 177 230 282 335 402
#     4  11  25  46  68  99 139 177 224 281 341 406
#     4  11  25  41  68  98 132 175 224 274 337 398
#     4  12  27  44  69 102 136 179 231 281 341 405
#     4  11  25  42  67  98 136 173 221 278 333 405
#     4  11  24  45  68  99 136 179 226 275 342 407
#
# _framework density 21.496694000000002
#
# number of rings (size 3 to 8) (size 9 to 14) (size 15 to 20)
#    0.000    0.750    2.500    3.750    7.000    4.500 
#    0.000    0.000    0.000    0.000    0.000    0.000 
#    0.000    0.000    0.000    0.000    0.000    0.000 
#
# Total GULP energy -89131.043719 kJ/mol
# GULP energy per Si atom -5570.690232 kJ/mol
# Density = 2.144777 g / cm^3
# Si number density = 21.496694 Si / 1000 Ang^3
#
#
#
# Elastic Constant Matrix: (Units=GPa)
#
#
# Indices 1 2 3 4 5 6 
#
# 1 68.8764 17.0507 1.5682 7.4683 7.4227 -0.2137
# 2 17.0507 65.5294 34.5944 14.7135 2.3149 -1.1970
# 3 1.5682 34.5944 76.9244 3.7800 14.4115 -13.2041
# 4 7.4683 14.7135 3.7800 40.7357 1.0827 -1.4041
# 5 7.4227 2.3149 14.4115 1.0827 48.5382 0.0676
# 6 -0.2137 -1.1970 -13.2041 -1.4041 0.0676 26.9424
#
#
#
# Elastic Compliance Matrix: (Units=1/GPa)
#
#
# Indices 1 2 3 4 5 6 
#
# 1 0.016249 -0.005385 0.002945 -0.001181 -0.003078 0.001279
# 2 -0.005385 0.024367 -0.012041 -0.006967 0.003399 -0.005233
# 3 0.002945 -0.012041 0.021115 0.002359 -0.006212 0.009975
# 4 -0.001181 -0.006967 0.002359 0.027162 -0.000797 0.002255
# 5 -0.003078 0.003399 -0.006212 -0.000797 0.022777 -0.003016
# 6 0.001279 -0.005233 0.009975 0.002255 -0.003016 0.041908
#
#
# Mechanical properties :
#
#
# Convention : Reuss Voigt Hill
#
# Bulk Modulus (GPa) = 30.51828 35.30632 32.91230
# Shear Modulus (GPa) = 25.84473 33.78437 29.81455
#
# Velocity S-wave (km/s) = 3.47113 3.96865 3.72820
# Velocity P-wave (km/s) = 5.50387 6.12046 5.82033
#
# Compressibility (1/GPa) = 0.03276724
#
# Stress axis : x y z
#
# Youngs Moduli (GPa) = 61.54391 41.03883 47.35963
#
# Poissons Ratio (x) = 0.22100 -0.13946
# Poissons Ratio (y) = 0.33142 0.57027
# Poissons Ratio (z) = -0.18123 0.49416
#
# Static dielectric constant tensor:
#      x y z
#    x 1.840460 -0.109100 0.021680 
#    y -0.109100 1.877680 -0.019840 
#    z 0.021680 -0.019840 1.752160 
# 
# From -- ./inp_files/567111.got.cif
#   From: 2010.05.17/outbox.cif.g08.bks.cpg/sg2_284_cif.got.tgz:567111.got - 2010.06.03 11:33:40.
