data_PCOD9063519
_publ_section_title
;
Structure prediction by ZEFSAII (Michael W. Deem and Ramdas Pophale) SiO2 
 PCOD9063519
Probable space group: P -1
;
_chemical_formula_sum "Si O2"
_cell_formula_units_Z 16
_cell_length_a 9.828935
_cell_length_b 8.146264
_cell_length_c 16.410592
_cell_angle_alpha 49.173177
_cell_angle_beta 74.681918
_cell_angle_gamma 45.689276
_cell_volume 664.975941
_symmetry_space_group_name_H-M "P -1"
_symmetry_group_IT_number 2
_symmetry_cell_setting 'triclinic'
loop_
_space_group_symop_operation_xyz
x,y,z
-x,-y,-z
loop_
_atom_site_type_symbol
_atom_site_label
_atom_site_fract_x
_atom_site_fract_y
_atom_site_fract_z
Si Si1 0.351058 0.386560 0.753623
Si Si2 0.030318 0.439231 0.266379
Si Si3 0.534244 0.248686 0.219604
Si Si4 0.227542 0.599379 0.289669
Si Si5 0.163766 0.707219 0.852219
Si Si6 0.278229 0.736001 0.499746
Si Si7 0.205344 0.404224 0.519906
Si Si8 0.258317 0.307948 0.116754
O O1 0.265492 0.517674 0.814157
O O2 0.309447 0.636996 0.620674
O O3 0.205427 0.354382 0.754011
O O4 0.581407 0.054387 0.816294
O O5 0.103983 0.560707 0.267694
O O6 0.086931 0.415009 0.170926
O O7 0.159942 0.087932 0.388977
O O8 0.398978 0.496026 0.235135
O O9 0.697609 0.238108 0.165597
O O10 0.386757 0.333640 0.143927
O O11 0.642562 0.922602 0.350767
O O12 0.301245 0.390375 0.425786
O O13 0.066070 0.955132 0.229988
O O14 0.175706 0.517888 0.982460
O O15 0.500000 0.500000 0.500000
O O16 0.164762 0.660322 0.498575
O O17 0.000000 0.500000 0.500000
#
# Coordination Sequence:
#
# PCOD9063519 Si02
#       8
#     2   2   2   2   2   2   2   2
#     4  12  25  44  69 103 138 182 238 290 362 419
#     4  11  25  43  73 103 142 185 229 296 358 432
#     4  11  24  44  70 101 138 187 232 297 352 419
#     4  11  25  43  68 107 143 183 237 292 359 427
#     4  12  27  43  72 101 142 190 237 291 348 428
#     4  12  24  45  74 105 147 186 233 300 371 428
#     4  12  23  43  74 105 146 181 239 303 356 429
#     4  11  25  50  68 101 140 189 243 287 351 422
#
# _framework density 24.061022000000001
#
# number of rings (size 3 to 8) (size 9 to 14) (size 15 to 20)
#    0.000    0.500    3.750    4.500    3.500    4.500 
#    0.000    0.000    0.000    0.000    0.000    0.000 
#    0.000    0.000    0.000    0.000    0.000    0.000 
#
# Total GULP energy -89762.304861 kJ/mol
# GULP energy per Si atom -5610.144054 kJ/mol
# Density = 2.400626 g / cm^3
# Si number density = 24.061022 Si / 1000 Ang^3
#
#
#
# Elastic Constant Matrix: (Units=GPa)
#
#
# Indices 1 2 3 4 5 6 
#
# 1 81.8910 5.0583 8.3613 -0.1276 -7.1266 -6.1073
# 2 5.0583 98.4838 27.7763 30.0267 -3.3532 -5.2145
# 3 8.3613 27.7763 154.7022 39.5851 -11.0246 -1.9084
# 4 -0.1276 30.0267 39.5851 34.0610 -2.5802 3.2176
# 5 -7.1266 -3.3532 -11.0246 -2.5802 24.5132 11.1613
# 6 -6.1073 -5.2145 -1.9084 3.2176 11.1613 39.8279
#
#
#
# Elastic Compliance Matrix: (Units=1/GPa)
#
#
# Indices 1 2 3 4 5 6 
#
# 1 0.012671 -0.000853 -0.000782 0.001865 0.003053 0.000788
# 2 -0.000853 0.014402 0.001121 -0.014358 -0.000730 0.003173
# 3 -0.000782 0.001121 0.009567 -0.011977 0.002644 0.000712
# 4 0.001865 -0.014358 -0.011977 0.056845 0.002582 -0.007484
# 5 0.003053 -0.000730 0.002644 0.002582 0.049187 -0.013493
# 6 0.000788 0.003173 0.000712 -0.007484 -0.013493 0.030064
#
#
# Mechanical properties :
#
#
# Convention : Reuss Voigt Hill
#
# Bulk Modulus (GPa) = 28.07976 46.38542 37.23259
# Shear Modulus (GPa) = 26.93472 39.27249 33.10360
#
# Velocity S-wave (km/s) = 3.34942 4.04444 3.71323
# Velocity P-wave (km/s) = 5.16273 6.41327 5.82168
#
# Compressibility (1/GPa) = 0.03561284
#
# Stress axis : x y z
#
# Youngs Moduli (GPa) = 78.91900 69.43394 104.52905
#
# Poissons Ratio (x) = 0.05925 0.08169
# Poissons Ratio (y) = 0.06734 -0.11720
# Poissons Ratio (z) = 0.06168 -0.07785
#
# Static dielectric constant tensor:
#      x y z
#    x 1.960110 0.027970 0.003700 
#    y 0.027970 1.897080 0.015390 
#    z 0.003700 0.015390 1.838220 
# 
# From -- ./inp_files/515053.got.cif
#   From: 2010.05.17/outbox.cif.g08.bks.cpg/sg2_258_cif.got.tgz:515053.got - 2010.06.03 11:33:40.
