data_PCOD9063083
_publ_section_title
;
Structure prediction by ZEFSAII (Michael W. Deem and Ramdas Pophale) SiO2 
 PCOD9063083
Probable space group: P -1
;
_chemical_formula_sum "Si O2"
_cell_formula_units_Z 16
_cell_length_a 19.830969
_cell_length_b 12.628312
_cell_length_c 17.391210
_cell_angle_alpha 153.524931
_cell_angle_beta 20.053563
_cell_angle_gamma 153.130015
_cell_volume 627.367164
_symmetry_space_group_name_H-M "P -1"
_symmetry_group_IT_number 2
_symmetry_cell_setting 'triclinic'
loop_
_space_group_symop_operation_xyz
x,y,z
-x,-y,-z
loop_
_atom_site_type_symbol
_atom_site_label
_atom_site_fract_x
_atom_site_fract_y
_atom_site_fract_z
Si Si1 0.209342 0.873776 0.039310
Si Si2 0.420365 0.752010 0.362190
Si Si3 0.517715 0.861564 0.580526
Si Si4 0.605356 0.824673 0.815682
Si Si5 0.058811 0.269132 0.371841
Si Si6 0.096450 0.434924 0.716077
Si Si7 0.811849 0.629268 0.040750
Si Si8 0.807617 0.585254 0.851666
O O1 0.054448 0.632511 0.092815
O O2 0.299913 0.068037 0.136030
O O3 0.096421 0.015500 0.195006
O O4 0.414344 0.836556 0.758398
O O5 0.206663 0.511730 0.421102
O O6 0.500000 0.000000 0.500000
O O7 0.445955 0.880042 0.334368
O O8 0.582485 0.607668 0.104336
O O9 0.307711 0.672735 0.642307
O O10 0.730506 0.800466 0.297746
O O11 0.801436 0.784811 0.537234
O O12 0.412283 0.573506 0.868421
O O13 0.500000 0.000000 0.000000
O O14 0.100728 0.303255 0.257330
O O15 0.836843 0.312235 0.648813
O O16 0.957209 0.492528 0.835813
O O17 0.897256 0.728932 0.929572
#
# Coordination Sequence:
#
# PCOD9063083 Si02
#       8
#     2   2   2   2   2   2   2   2
#     4  12  24  48  74  99 146 179 228 299 337 413
#     4  12  25  47  69  99 143 184 226 286 345 411
#     4  11  27  46  69 105 138 188 233 280 351 412
#     4  11  24  43  70 105 132 182 237 279 347 407
#     4  11  27  44  71 109 135 179 237 284 350 405
#     4  11  26  48  69 104 144 184 231 281 351 412
#     4  11  24  45  71 101 141 186 231 284 345 416
#     4  11  24  45  72 103 137 179 235 288 343 409
#
# _framework density 25.503406999999999
#
# number of rings (size 3 to 8) (size 9 to 14) (size 15 to 20)
#    0.000    0.750    3.750    2.625    7.000    2.000 
#    2.250    0.000    0.000    0.000    0.000    0.000 
#    0.000    0.000    0.000    0.000    0.000    0.000 
#
# Total GULP energy -89218.915364 kJ/mol
# GULP energy per Si atom -5576.182210 kJ/mol
# Density = 2.544536 g / cm^3
# Si number density = 25.503407 Si / 1000 Ang^3
#
#
#
# Elastic Constant Matrix: (Units=GPa)
#
#
# Indices 1 2 3 4 5 6 
#
# 1 141.1458 -39.5712 93.6730 -13.3359 -16.7223 -38.3227
# 2 -39.5712 248.4033 -87.2095 7.5214 26.9032 33.3874
# 3 93.6730 -87.2095 211.6267 -10.6948 -33.1610 -35.9293
# 4 -13.3359 7.5214 -10.6948 18.2314 -6.0245 -7.7615
# 5 -16.7223 26.9032 -33.1610 -6.0245 50.1233 10.1241
# 6 -38.3227 33.3874 -35.9293 -7.7615 10.1241 53.1544
#
#
#
# Elastic Compliance Matrix: (Units=1/GPa)
#
#
# Indices 1 2 3 4 5 6 
#
# 1 0.013156 -0.001041 -0.003766 0.012375 0.002127 0.008995
# 2 -0.001041 0.005156 0.001547 -0.003961 -0.001930 -0.003154
# 3 -0.003766 0.001547 0.007939 0.002965 0.003219 0.001499
# 4 0.012375 -0.003961 0.002965 0.081389 0.013405 0.022746
# 5 0.002127 -0.001930 0.003219 0.013405 0.025010 0.002115
# 6 0.008995 -0.003154 0.001499 0.022746 0.002115 0.031211
#
#
# Mechanical properties :
#
#
# Convention : Reuss Voigt Hill
#
# Bulk Modulus (GPa) = 50.67981 59.44005 55.05993
# Shear Modulus (GPa) = 28.25550 66.58740 47.42145
#
# Velocity S-wave (km/s) = 3.33214 5.11526 4.31677
# Velocity P-wave (km/s) = 5.89229 7.63185 6.81778
#
# Compressibility (1/GPa) = 0.01973172
#
# Stress axis : x y z
#
# Youngs Moduli (GPa) = 76.00975 193.94796 125.96467
#
# Poissons Ratio (x) = 0.20181 0.47443
# Poissons Ratio (y) = 0.07909 -0.19491
# Poissons Ratio (z) = 0.28628 -0.30010
#
# Static dielectric constant tensor:
#      x y z
#    x 2.068040 0.107850 0.105460 
#    y 0.107850 2.105040 0.021120 
#    z 0.105460 0.021120 2.081900 
# 
# From -- ./inp_files/578031.got.cif
#   From: 2010.05.17/outbox.cif.g08.bks.cpg/sg2_290_cif.got.tgz:578031.got - 2010.06.03 11:33:40.
