data_PCOD9063064
_publ_section_title
;
Structure prediction by ZEFSAII (Michael W. Deem and Ramdas Pophale) SiO2 
 PCOD9063064
Probable space group: P -1
;
_chemical_formula_sum "Si O2"
_cell_formula_units_Z 15
_cell_length_a 8.911908
_cell_length_b 10.607615
_cell_length_c 8.776533
_cell_angle_alpha 71.173024
_cell_angle_beta 127.127410
_cell_angle_gamma 107.997734
_cell_volume 618.899101
_symmetry_space_group_name_H-M "P -1"
_symmetry_group_IT_number 2
_symmetry_cell_setting 'triclinic'
loop_
_space_group_symop_operation_xyz
x,y,z
-x,-y,-z
loop_
_atom_site_type_symbol
_atom_site_label
_atom_site_fract_x
_atom_site_fract_y
_atom_site_fract_z
Si Si1 0.148413 0.121011 0.761444
Si Si2 0.733153 0.737869 0.529892
Si Si3 0.551215 0.270817 0.396055
Si Si4 0.079876 0.832447 0.863475
Si Si5 0.000000 0.500000 0.000000
Si Si6 0.946827 0.301670 0.787489
Si Si7 0.549395 0.193726 0.090950
Si Si8 0.441221 0.558676 0.206648
O O1 0.174141 0.168216 0.585210
O O2 0.080478 0.235778 0.778391
O O3 0.015427 0.977988 0.750556
O O4 0.357146 0.101114 0.957012
O O5 0.593685 0.798303 0.537322
O O6 0.597097 0.618714 0.407327
O O7 0.915845 0.709535 0.754061
O O8 0.757902 0.314692 0.574594
O O9 0.565224 0.189502 0.282659
O O10 0.466827 0.406584 0.252026
O O11 0.261219 0.833785 0.867218
O O12 0.105887 0.806090 0.066248
O O13 0.041133 0.436434 0.877628
O O14 0.771448 0.435420 0.868160
O O15 0.523295 0.341324 0.953455
#
# Coordination Sequence:
#
# PCOD9063064 Si02
#       8
#     2   2   2   2   1   2   2   2
#     4  11  25  48  70 102 140 189 240 291 341 412
#     4  11  24  44  68 104 140 183 236 285 346 412
#     4  12  25  43  70 104 147 184 229 290 350 424
#     4  12  24  46  73 100 144 189 236 292 342 409
#     4  12  22  46  72 102 142 174 224 290 356 418
#     4  12  26  44  71 107 139 188 235 283 357 416
#     4  11  24  45  68 106 136 185 241 285 350 413
#     4  11  24  43  70 101 145 183 228 290 354 419
#
# _framework density 24.236584000000001
#
# number of rings (size 3 to 8) (size 9 to 14) (size 15 to 20)
#    0.000    0.533    2.667    6.000    1.867    1.067 
#    0.000    6.000    0.000    0.000    0.000    0.000 
#    0.000    0.000    0.000    0.000    0.000    0.000 
#
# Total GULP energy -83785.300444 kJ/mol
# GULP energy per Si atom -5585.686696 kJ/mol
# Density = 2.418142 g / cm^3
# Si number density = 24.236584 Si / 1000 Ang^3
#
#
#
# Elastic Constant Matrix: (Units=GPa)
#
#
# Indices 1 2 3 4 5 6 
#
# 1 122.3767 29.2875 41.9200 15.8375 -3.0650 -11.1769
# 2 29.2875 75.0416 3.0950 4.4394 -9.1388 3.0380
# 3 41.9200 3.0950 106.9412 28.5336 -0.6364 -18.0523
# 4 15.8375 4.4394 28.5336 29.6761 4.8418 -2.7449
# 5 -3.0650 -9.1388 -0.6364 4.8418 59.0227 2.7130
# 6 -11.1769 3.0380 -18.0523 -2.7449 2.7130 24.0865
#
#
#
# Elastic Compliance Matrix: (Units=1/GPa)
#
#
# Indices 1 2 3 4 5 6 
#
# 1 0.010713 -0.004076 -0.003087 -0.001849 -0.000093 0.002971
# 2 -0.004076 0.015433 0.001079 -0.001907 0.002508 -0.003529
# 3 -0.003087 0.001079 0.015309 -0.012592 0.000820 0.008378
# 4 -0.001849 -0.001907 -0.012592 0.047379 -0.004221 -0.004180
# 5 -0.000093 0.002508 0.000820 -0.004221 0.017784 -0.002229
# 6 0.002971 -0.003529 0.008378 -0.004180 -0.002229 0.049394
#
#
# Mechanical properties :
#
#
# Convention : Reuss Voigt Hill
#
# Bulk Modulus (GPa) = 34.14483 50.32940 42.23711
# Shear Modulus (GPa) = 28.09915 37.89420 32.99667
#
# Velocity S-wave (km/s) = 3.40864 3.95842 3.69377
# Velocity P-wave (km/s) = 5.44156 6.45779 5.97133
#
# Compressibility (1/GPa) = 0.02928701
#
# Stress axis : x y z
#
# Youngs Moduli (GPa) = 93.34691 64.79491 65.32297
#
# Poissons Ratio (x) = 0.26410 0.20164
# Poissons Ratio (y) = 0.38047 -0.07048
# Poissons Ratio (z) = 0.28815 -0.06991
#
# Static dielectric constant tensor:
#      x y z
#    x 1.902380 -0.000790 0.006390 
#    y -0.000790 1.863350 0.074600 
#    z 0.006390 0.074600 1.833690 
# 
# From -- ./inp_files/187093.got.cif
#   From: 2010.05.17/outbox.cif.g08.bks.cpg/sg2_94_cif.got.tgz:187093.got - 2010.06.03 11:33:40.
