data_PCOD9063605
_publ_section_title
;
Structure prediction by ZEFSAII (Michael W. Deem and Ramdas Pophale) SiO2 
 PCOD9063605
Probable space group: P -1
;
_chemical_formula_sum "Si O2"
_cell_formula_units_Z 14
_cell_length_a 7.232259
_cell_length_b 13.306438
_cell_length_c 12.778328
_cell_angle_alpha 62.120987
_cell_angle_beta 81.276528
_cell_angle_gamma 38.360658
_cell_volume 620.639224
_symmetry_space_group_name_H-M "P -1"
_symmetry_group_IT_number 2
_symmetry_cell_setting 'triclinic'
loop_
_space_group_symop_operation_xyz
x,y,z
-x,-y,-z
loop_
_atom_site_type_symbol
_atom_site_label
_atom_site_fract_x
_atom_site_fract_y
_atom_site_fract_z
Si Si1 0.439550 0.511338 0.172607
Si Si2 0.710313 0.454484 0.596050
Si Si3 0.282249 0.883936 0.445825
Si Si4 0.694061 0.615392 0.039500
Si Si5 0.553494 0.976730 0.309911
Si Si6 0.277715 0.858673 0.764779
Si Si7 0.751449 0.820630 0.989128
O O1 0.353362 0.568022 0.273620
O O2 0.685953 0.490077 0.134691
O O3 0.577717 0.319298 0.224652
O O4 0.113727 0.681194 0.049142
O O5 0.500000 0.500000 0.500000
O O6 0.579129 0.648311 0.532451
O O7 0.086735 0.248909 0.637187
O O8 0.385940 0.963379 0.400039
O O9 0.000000 0.000000 0.500000
O O10 0.099976 0.954428 0.316655
O O11 0.380295 0.790570 0.908754
O O12 0.717133 0.703402 0.078007
O O13 0.000000 0.500000 0.000000
O O14 0.585258 0.085733 0.305624
O O15 0.361764 0.094097 0.160392
O O16 0.500000 0.000000 0.000000
#
# Coordination Sequence:
#
# PCOD9063605 Si02
#       7
#     2   2   2   2   2   2   2
#     4  12  25  46  71 103 144 178 232 291 343 416
#     4  12  26  50  68 103 141 189 234 287 344 408
#     4  12  26  46  70 102 137 190 235 282 344 408
#     4  11  25  42  70 108 138 177 224 287 355 410
#     4  11  26  47  73 102 141 179 237 290 342 414
#     4  11  24  44  72 104 138 180 232 288 347 408
#     4  11  24  44  71 105 136 183 227 281 359 408
#
# _framework density 22.557388
#
# number of rings (size 3 to 8) (size 9 to 14) (size 15 to 20)
#    0.000    0.571    5.714    1.714    4.000    2.286 
#    5.143    0.000    0.000    0.000    0.000    0.000 
#    0.000    0.000    0.000    0.000    0.000    0.000 
#
# Total GULP energy -78243.285168 kJ/mol
# GULP energy per Si atom -5588.806083 kJ/mol
# Density = 2.250605 g / cm^3
# Si number density = 22.557388 Si / 1000 Ang^3
#
#
#
# Elastic Constant Matrix: (Units=GPa)
#
#
# Indices 1 2 3 4 5 6 
#
# 1 188.9151 66.4277 45.5867 -6.5939 -42.2568 12.5529
# 2 66.4277 107.3189 20.2052 -18.0420 -26.9913 7.7169
# 3 45.5867 20.2052 80.4795 -17.2853 -0.2861 -12.5918
# 4 -6.5939 -18.0420 -17.2853 37.0367 2.5791 1.0300
# 5 -42.2568 -26.9913 -0.2861 2.5791 44.2331 -9.0227
# 6 12.5529 7.7169 -12.5918 1.0300 -9.0227 36.4793
#
#
#
# Elastic Compliance Matrix: (Units=1/GPa)
#
#
# Indices 1 2 3 4 5 6 
#
# 1 0.009323 -0.003435 -0.005446 -0.002925 0.006396 -0.002697
# 2 -0.003435 0.013664 -0.000413 0.005560 0.004550 -0.000883
# 3 -0.005446 -0.000413 0.018299 0.007478 -0.004346 0.006992
# 4 -0.002925 0.005560 0.007478 0.032714 -0.001008 0.001239
# 5 0.006396 0.004550 -0.004346 -0.001008 0.032204 0.003330
# 6 -0.002697 -0.000883 0.006992 0.001239 0.003330 0.031730
#
#
# Mechanical properties :
#
#
# Convention : Reuss Voigt Hill
#
# Bulk Modulus (GPa) = 44.05573 71.23920 57.64747
# Shear Modulus (GPa) = 30.47177 39.84941 35.16059
#
# Velocity S-wave (km/s) = 3.67939 4.20763 3.95234
# Velocity P-wave (km/s) = 6.13379 7.43340 6.81465
#
# Compressibility (1/GPa) = 0.02269852
#
# Stress axis : x y z
#
# Youngs Moduli (GPa) = 107.26111 73.18390 54.64909
#
# Poissons Ratio (x) = 0.25136 0.29763
# Poissons Ratio (y) = 0.36840 0.02256
# Poissons Ratio (z) = 0.58416 0.03021
#
# Static dielectric constant tensor:
#      x y z
#    x 1.843600 0.014840 0.001060 
#    y 0.014840 1.795460 -0.014520 
#    z 0.001060 -0.014520 1.912480 
# 
# From -- ./inp_files/482724.got.cif
#   From: 2010.05.17/outbox.cif.g08.bks.cpg/sg2_242_cif.got.tgz:482724.got - 2010.06.03 11:33:40.
