data_PCOD9063703
_publ_section_title
;
Structure prediction by ZEFSAII (Michael W. Deem and Ramdas Pophale) SiO2 
 PCOD9063703
Probable space group: P -1
;
_chemical_formula_sum "Si O2"
_cell_formula_units_Z 14
_cell_length_a 8.988670
_cell_length_b 8.438578
_cell_length_c 15.182674
_cell_angle_alpha 113.973489
_cell_angle_beta 43.057796
_cell_angle_gamma 93.545824
_cell_volume 665.492888
_symmetry_space_group_name_H-M "P -1"
_symmetry_group_IT_number 2
_symmetry_cell_setting 'triclinic'
loop_
_space_group_symop_operation_xyz
x,y,z
-x,-y,-z
loop_
_atom_site_type_symbol
_atom_site_label
_atom_site_fract_x
_atom_site_fract_y
_atom_site_fract_z
Si Si1 0.271548 0.667568 0.100557
Si Si2 0.074361 0.047919 0.385905
Si Si3 0.896707 0.521300 0.151844
Si Si4 0.305528 0.944012 0.020834
Si Si5 0.528920 0.791695 0.717035
Si Si6 0.810540 0.251084 0.274866
Si Si7 0.369423 0.630554 0.432073
O O1 0.058154 0.602185 0.157439
O O2 0.193022 0.854205 0.236900
O O3 0.500000 0.500000 0.000000
O O4 0.332755 0.742579 0.999662
O O5 0.252301 0.149122 0.353482
O O6 0.844933 0.196053 0.473398
O O7 0.000000 0.000000 0.500000
O O8 0.887139 0.348249 0.179201
O O9 0.617738 0.647196 0.304023
O O10 0.000000 0.500000 0.000000
O O11 0.349580 0.923278 0.894408
O O12 0.500000 0.000000 0.000000
O O13 0.043948 0.093783 0.177335
O O14 0.384975 0.821042 0.695435
O O15 0.609180 0.572776 0.657401
O O16 0.688883 0.374817 0.440114
#
# Coordination Sequence:
#
# PCOD9063703 Si02
#       7
#     2   2   2   2   2   2   2
#     4  12  27  46  69 101 143 181 232 291 355 411
#     4  12  29  43  69 106 140 186 231 292 353 412
#     4  11  26  45  75 106 140 185 230 294 356 416
#     4  12  23  45  69 102 136 187 237 284 345 423
#     4  11  24  44  72  99 139 182 233 286 347 426
#     4  11  24  46  74 103 138 186 239 289 348 417
#     4  11  25  50  71 102 141 186 238 287 351 418
#
# _framework density 21.037042
#
# number of rings (size 3 to 8) (size 9 to 14) (size 15 to 20)
#    0.000    0.571    2.857    5.143    8.000    1.714 
#    0.000    0.000    0.000    0.000    0.000    0.000 
#    0.000    0.000    0.000    0.000    0.000    0.000 
#
# Total GULP energy -78098.519244 kJ/mol
# GULP energy per Si atom -5578.465660 kJ/mol
# Density = 2.098916 g / cm^3
# Si number density = 21.037042 Si / 1000 Ang^3
#
#
#
# Elastic Constant Matrix: (Units=GPa)
#
#
# Indices 1 2 3 4 5 6 
#
# 1 151.0740 73.6220 66.4475 12.3299 -31.6867 13.0082
# 2 73.6220 87.6102 47.9970 -1.1512 -27.5397 4.9619
# 3 66.4475 47.9970 137.0372 -0.2916 -13.7518 4.1088
# 4 12.3299 -1.1512 -0.2916 35.8784 -6.3413 2.9223
# 5 -31.6867 -27.5397 -13.7518 -6.3413 49.2819 -1.7507
# 6 13.0082 4.9619 4.1088 2.9223 -1.7507 47.5537
#
#
#
# Elastic Compliance Matrix: (Units=1/GPa)
#
#
# Indices 1 2 3 4 5 6 
#
# 1 0.013166 -0.008630 -0.003091 -0.004275 0.002155 -0.002092
# 2 -0.008630 0.022512 -0.003012 0.004851 0.006823 0.000225
# 3 -0.003091 -0.003012 0.009763 0.000880 -0.000825 0.000232
# 4 -0.004275 0.004851 0.000880 0.030315 0.004069 -0.001126
# 5 0.002155 0.006823 -0.000825 0.004069 0.025765 -0.000532
# 6 -0.002092 0.000225 0.000232 -0.001126 -0.000532 0.021607
#
#
# Mechanical properties :
#
#
# Convention : Reuss Voigt Hill
#
# Bulk Modulus (GPa) = 62.59973 83.53938 73.06955
# Shear Modulus (GPa) = 31.66164 39.05315 35.35739
#
# Velocity S-wave (km/s) = 3.88370 4.31327 4.10411
# Velocity P-wave (km/s) = 7.06628 8.03757 7.56752
#
# Compressibility (1/GPa) = 0.01597451
#
# Stress axis : x y z
#
# Youngs Moduli (GPa) = 75.95445 44.41982 102.42479
#
# Poissons Ratio (x) = 0.38336 0.31662
# Poissons Ratio (y) = 0.65551 0.30850
# Poissons Ratio (z) = 0.23479 0.13379
#
# Static dielectric constant tensor:
#      x y z
#    x 1.219460 -0.188400 -0.573330 
#    y -0.188400 1.709130 -0.198050 
#    z -0.573330 -0.198050 0.991670 
# 
# From -- ./inp_files/176772.got.cif
#   From: 2010.05.17/outbox.cif.g08.bks.cpg/sg2_89_cif.got.tgz:176772.got - 2010.06.03 11:33:40.
