data_PCOD9063810
_publ_section_title
;
Structure prediction by ZEFSAII (Michael W. Deem and Ramdas Pophale) SiO2 
 PCOD9063810
Probable space group: P -1
;
_chemical_formula_sum "Si O2"
_cell_formula_units_Z 14
_cell_length_a 15.167101
_cell_length_b 9.381573
_cell_length_c 11.903290
_cell_angle_alpha 55.651570
_cell_angle_beta 47.625944
_cell_angle_gamma 28.384771
_cell_volume 592.847154
_symmetry_space_group_name_H-M "P -1"
_symmetry_group_IT_number 2
_symmetry_cell_setting 'triclinic'
loop_
_space_group_symop_operation_xyz
x,y,z
-x,-y,-z
loop_
_atom_site_type_symbol
_atom_site_label
_atom_site_fract_x
_atom_site_fract_y
_atom_site_fract_z
Si Si1 0.079670 0.022928 0.317767
Si Si2 0.136507 0.671020 0.267454
Si Si3 0.522263 0.903746 0.647824
Si Si4 0.938159 0.569909 0.151065
Si Si5 0.695067 0.053853 0.489644
Si Si6 0.304476 0.362976 0.023415
Si Si7 0.512902 0.422372 0.706947
O O1 0.961554 0.345527 0.274214
O O2 0.052269 0.957993 0.250675
O O3 0.322184 0.771485 0.247611
O O4 0.000000 0.000000 0.500000
O O5 0.289964 0.447017 0.337861
O O6 0.267821 0.488187 0.122803
O O7 0.941640 0.772165 0.387357
O O8 0.500000 0.000000 0.500000
O O9 0.300776 0.092237 0.787592
O O10 0.593835 0.987064 0.619324
O O11 0.097327 0.502244 0.110569
O O12 0.000000 0.500000 0.000000
O O13 0.641347 0.217091 0.577212
O O14 0.593776 0.272848 0.373066
O O15 0.345074 0.475164 0.855911
O O16 0.500000 0.000000 0.000000
#
# Coordination Sequence:
#
# PCOD9063810 Si02
#       7
#     2   2   2   2   2   2   2
#     4  12  25  47  76 111 145 192 247 313 369 439
#     4  12  27  45  76 109 149 189 252 305 370 439
#     4  12  26  45  71 107 146 192 246 302 368 442
#     4  12  27  48  76 104 152 197 244 303 376 445
#     4  11  24  44  74 108 137 196 246 308 359 444
#     4  12  26  49  72 108 148 200 240 305 371 442
#     4  11  24  44  75 102 150 183 249 300 376 434
#
# _framework density 23.614856
#
# number of rings (size 3 to 8) (size 9 to 14) (size 15 to 20)
#    0.000    0.286    2.857    6.429    4.000    1.143 
#    2.571    0.000    0.000    0.000    0.000    0.000 
#    0.000    0.000    0.000    0.000    0.000    0.000 
#
# Total GULP energy -78408.575400 kJ/mol
# GULP energy per Si atom -5600.612529 kJ/mol
# Density = 2.356111 g / cm^3
# Si number density = 23.614856 Si / 1000 Ang^3
#
#
#
# Elastic Constant Matrix: (Units=GPa)
#
#
# Indices 1 2 3 4 5 6 
#
# 1 89.3873 17.3476 2.1784 16.7977 -5.6748 0.6981
# 2 17.3476 63.1653 18.6112 10.4218 -11.2079 -9.3478
# 3 2.1784 18.6112 104.2844 16.5098 2.7280 2.8388
# 4 16.7977 10.4218 16.5098 45.8507 1.2845 -9.1825
# 5 -5.6748 -11.2079 2.7280 1.2845 49.0838 3.9622
# 6 0.6981 -9.3478 2.8388 -9.1825 3.9622 42.6018
#
#
#
# Elastic Compliance Matrix: (Units=1/GPa)
#
#
# Indices 1 2 3 4 5 6 
#
# 1 0.012756 -0.003170 0.001090 -0.004794 0.000986 -0.002102
# 2 -0.003170 0.019172 -0.003351 -0.001333 0.003923 0.003830
# 3 0.001090 -0.003351 0.010881 -0.003978 -0.000959 -0.002247
# 4 -0.004794 -0.001333 -0.003978 0.026542 -0.001812 0.005941
# 5 0.000986 0.003923 -0.000959 -0.001812 0.021604 -0.001491
# 6 -0.002102 0.003830 -0.002247 0.005941 -0.001491 0.025917
#
#
# Mechanical properties :
#
#
# Convention : Reuss Voigt Hill
#
# Bulk Modulus (GPa) = 31.30292 37.01240 34.15766
# Shear Modulus (GPa) = 36.13173 42.08726 39.10949
#
# Velocity S-wave (km/s) = 3.91582 4.22623 4.07398
# Velocity P-wave (km/s) = 5.80769 6.28666 6.05192
#
# Compressibility (1/GPa) = 0.03194591
#
# Stress axis : x y z
#
# Youngs Moduli (GPa) = 78.39679 52.15881 91.90710
#
# Poissons Ratio (x) = 0.16532 -0.10014
# Poissons Ratio (y) = 0.24848 0.30801
# Poissons Ratio (z) = -0.08542 0.17480
#
# Static dielectric constant tensor:
#      x y z
#    x 1.938960 0.062060 0.005440 
#    y 0.062060 1.898570 -0.030020 
#    z 0.005440 -0.030020 1.838420 
# 
# From -- ./inp_files/160122.got.cif
#   From: 2010.05.17/outbox.cif.g08.bks.cpg/sg2_81_cif.got.tgz:160122.got - 2010.06.03 11:33:40.
