data_PCOD9063887
_publ_section_title
;
Structure prediction by ZEFSAII (Michael W. Deem and Ramdas Pophale) SiO2 
 PCOD9063887
Probable space group: P -1
;
_chemical_formula_sum "Si O2"
_cell_formula_units_Z 16
_cell_length_a 9.709707
_cell_length_b 18.830372
_cell_length_c 12.759921
_cell_angle_alpha 151.762222
_cell_angle_beta 140.283402
_cell_angle_gamma 43.155743
_cell_volume 694.885057
_symmetry_space_group_name_H-M "P -1"
_symmetry_group_IT_number 2
_symmetry_cell_setting 'triclinic'
loop_
_space_group_symop_operation_xyz
x,y,z
-x,-y,-z
loop_
_atom_site_type_symbol
_atom_site_label
_atom_site_fract_x
_atom_site_fract_y
_atom_site_fract_z
Si Si1 0.094480 0.889472 0.257625
Si Si2 0.964297 0.827546 0.755158
Si Si3 0.059909 0.339190 0.269270
Si Si4 0.347493 0.981940 0.716192
Si Si5 0.530851 0.308656 0.449671
Si Si6 0.419534 0.738623 0.815453
Si Si7 0.744993 0.573561 0.949487
Si Si8 0.723122 0.876156 0.465859
O O1 0.280806 0.901799 0.467681
O O2 0.105293 0.030028 0.367241
O O3 0.870349 0.918095 0.230461
O O4 0.106996 0.735496 0.997538
O O5 0.207425 0.733522 0.754975
O O6 0.880151 0.777569 0.750975
O O7 0.806088 0.817484 0.552063
O O8 0.000000 0.000000 0.000000
O O9 0.272018 0.348123 0.336424
O O10 0.000000 0.500000 0.500000
O O11 0.422598 0.853333 0.677976
O O12 0.515579 0.093507 0.932696
O O13 0.635665 0.299231 0.384311
O O14 0.620382 0.437910 0.736137
O O15 0.628960 0.629921 0.844869
O O16 0.705021 0.727414 0.194102
O O17 0.000000 0.500000 0.000000
O O18 0.500000 0.000000 0.500000
#
# Coordination Sequence:
#
# PCOD9063887 Si02
#       8
#     2   2   2   2   2   2   2   2
#     4  11  24  45  73 101 148 182 241 297 364 430
#     4  12  25  45  75 106 144 192 248 298 361 439
#     4  12  28  46  68 107 149 190 236 304 375 428
#     4  11  24  44  76 111 136 188 246 305 364 431
#     4  12  27  44  74 107 148 185 245 301 367 435
#     4  12  24  47  75 107 146 196 250 299 359 446
#     4  12  27  47  72 110 147 191 245 306 366 426
#     4  12  27  47  74 104 146 199 245 296 362 450
#
# _framework density 23.025390999999999
#
# number of rings (size 3 to 8) (size 9 to 14) (size 15 to 20)
#    0.000    0.250    3.750    5.250    5.250    2.000 
#    0.000    1.250    0.000    0.000    0.000    0.000 
#    0.000    0.000    0.000    0.000    0.000    0.000 
#
# Total GULP energy -89568.322457 kJ/mol
# GULP energy per Si atom -5598.020154 kJ/mol
# Density = 2.297298 g / cm^3
# Si number density = 23.025391 Si / 1000 Ang^3
#
#
#
# Elastic Constant Matrix: (Units=GPa)
#
#
# Indices 1 2 3 4 5 6 
#
# 1 73.9853 5.1158 5.4883 -4.9518 3.3583 -7.6915
# 2 5.1158 100.5446 28.6662 4.5216 -9.2693 -5.8760
# 3 5.4883 28.6662 166.5189 2.6110 -7.0954 -8.8805
# 4 -4.9518 4.5216 2.6110 32.1537 8.5658 -1.2295
# 5 3.3583 -9.2693 -7.0954 8.5658 35.4446 -2.1091
# 6 -7.6915 -5.8760 -8.8805 -1.2295 -2.1091 30.7061
#
#
#
# Elastic Compliance Matrix: (Units=1/GPa)
#
#
# Indices 1 2 3 4 5 6 
#
# 1 0.014236 -0.000780 -0.000298 0.003024 -0.002147 0.003304
# 2 -0.000780 0.010940 -0.001598 -0.002341 0.003274 0.001567
# 3 -0.000298 -0.001598 0.006429 -0.000586 0.001130 0.001533
# 4 0.003024 -0.002341 -0.000586 0.034452 -0.009289 0.000882
# 5 -0.002147 0.003274 0.001130 -0.009289 0.031877 0.002233
# 6 0.003304 0.001567 0.001533 0.000882 0.002233 0.034326
#
#
# Mechanical properties :
#
#
# Convention : Reuss Voigt Hill
#
# Bulk Modulus (GPa) = 38.09033 46.62106 42.35570
# Shear Modulus (GPa) = 34.16193 39.77946 36.97069
#
# Velocity S-wave (km/s) = 3.85601 4.16099 4.01140
# Velocity P-wave (km/s) = 6.03355 6.58610 6.31587
#
# Compressibility (1/GPa) = 0.02625338
#
# Stress axis : x y z
#
# Youngs Moduli (GPa) = 70.24651 91.40957 155.53794
#
# Poissons Ratio (x) = 0.07133 0.04628
# Poissons Ratio (y) = 0.05481 0.24851
# Poissons Ratio (z) = 0.02090 0.14605
#
# Static dielectric constant tensor:
#      x y z
#    x 1.855130 -0.019940 -0.029760 
#    y -0.019940 1.889040 -0.002750 
#    z -0.029760 -0.002750 1.891170 
# 
# From -- ./inp_files/403630.got.cif
#   From: 2010.05.17/outbox.cif.g08.bks.cpg/sg2_202_cif.got.tgz:403630.got - 2010.06.03 11:33:40.
