data_PCOD9063644
_publ_section_title
;
Structure prediction by ZEFSAII (Michael W. Deem and Ramdas Pophale) SiO2 
 PCOD9063644
Probable space group: P -1
;
_chemical_formula_sum "Si O2"
_cell_formula_units_Z 15
_cell_length_a 13.350559
_cell_length_b 10.120085
_cell_length_c 14.412822
_cell_angle_alpha 63.947565
_cell_angle_beta 44.632022
_cell_angle_gamma 34.297348
_cell_volume 714.441433
_symmetry_space_group_name_H-M "P -1"
_symmetry_group_IT_number 2
_symmetry_cell_setting 'triclinic'
loop_
_space_group_symop_operation_xyz
x,y,z
-x,-y,-z
loop_
_atom_site_type_symbol
_atom_site_label
_atom_site_fract_x
_atom_site_fract_y
_atom_site_fract_z
Si Si1 0.810113 0.997024 0.786605
Si Si2 0.009134 0.317867 0.568273
Si Si3 0.545881 0.848678 0.432024
Si Si4 0.787868 0.279032 0.858552
Si Si5 0.000000 0.000000 0.000000
Si Si6 0.780382 0.369609 0.520267
Si Si7 0.099394 0.505552 0.845375
Si Si8 0.384781 0.461063 0.810016
O O1 0.006238 0.858920 0.618541
O O2 0.888819 0.778964 0.850824
O O3 0.843210 0.103235 0.803081
O O4 0.537705 0.228386 0.851488
O O5 0.852284 0.381383 0.737281
O O6 0.904501 0.328935 0.542927
O O7 0.000000 0.500000 0.500000
O O8 0.289802 0.044211 0.488419
O O9 0.636626 0.621713 0.486884
O O10 0.755497 0.711894 0.260277
O O11 0.500000 0.000000 0.500000
O O12 0.500000 0.500000 0.000000
O O13 0.937284 0.124082 0.900862
O O14 0.166782 0.728832 0.923005
O O15 0.584738 0.412660 0.662884
O O16 0.289568 0.458465 0.782483
O O17 0.000000 0.500000 0.000000
#
# Coordination Sequence:
#
# PCOD9063644 Si02
#       8
#     2   2   2   2   1   2   2   2
#     4  11  24  44  72 100 135 184 242 291 363 427
#     4  12  25  45  72 108 142 187 239 301 364 431
#     4  11  25  46  69 101 142 192 236 298 367 433
#     4  12  25  45  71 106 142 191 241 299 358 440
#     4  12  24  44  68 106 142 190 240 290 362 430
#     4  11  24  44  72 104 137 178 244 295 357 427
#     4  11  28  46  68 103 145 189 241 301 370 437
#     4  12  24  44  74 100 139 185 235 302 353 433
#
# _framework density 20.995422999999999
#
# number of rings (size 3 to 8) (size 9 to 14) (size 15 to 20)
#    0.000    0.533    5.333    2.000    1.867    4.800 
#    0.000    0.000    0.000    0.000    0.000    0.000 
#    0.000    0.000    0.000    0.000    0.000    0.000 
#
# Total GULP energy -83640.268061 kJ/mol
# GULP energy per Si atom -5576.017871 kJ/mol
# Density = 2.094764 g / cm^3
# Si number density = 20.995423 Si / 1000 Ang^3
#
#
#
# Elastic Constant Matrix: (Units=GPa)
#
#
# Indices 1 2 3 4 5 6 
#
# 1 82.8723 41.1978 44.1633 3.4721 23.8850 -2.0097
# 2 41.1978 124.4492 69.0888 0.2975 13.8209 -19.5824
# 3 44.1633 69.0888 118.0195 -14.5363 18.7845 8.5625
# 4 3.4721 0.2975 -14.5363 33.0445 -1.0413 11.3149
# 5 23.8850 13.8209 18.7845 -1.0413 36.6420 1.7736
# 6 -2.0097 -19.5824 8.5625 11.3149 1.7736 37.8551
#
#
#
# Elastic Compliance Matrix: (Units=1/GPa)
#
#
# Indices 1 2 3 4 5 6 
#
# 1 0.018839 -0.001347 -0.005848 -0.006162 -0.009138 0.003896
# 2 -0.001347 0.017649 -0.012110 -0.010486 -0.000593 0.014960
# 3 -0.005848 -0.012110 0.020977 0.015342 -0.001171 -0.015851
# 4 -0.006162 -0.010486 0.015342 0.045709 0.002519 -0.023002
# 5 -0.009138 -0.000593 -0.001171 0.002519 0.034282 -0.002886
# 6 0.003896 0.014960 -0.015851 -0.023002 -0.002886 0.044958
#
#
# Mechanical properties :
#
#
# Convention : Reuss Voigt Hill
#
# Bulk Modulus (GPa) = 53.03934 70.47119 61.75527
# Shear Modulus (GPa) = 21.99625 32.90105 27.44865
#
# Velocity S-wave (km/s) = 3.24028 3.96290 3.61967
# Velocity P-wave (km/s) = 6.27028 7.38765 6.85178
#
# Compressibility (1/GPa) = 0.01885393
#
# Stress axis : x y z
#
# Youngs Moduli (GPa) = 53.08014 56.65908 47.67122
#
# Poissons Ratio (x) = 0.07634 0.27879
# Poissons Ratio (y) = 0.07152 0.57732
# Poissons Ratio (z) = 0.31043 0.68616
#
# Static dielectric constant tensor:
#      x y z
#    x 1.711350 0.024960 0.083440 
#    y 0.024960 1.756730 -0.059890 
#    z 0.083440 -0.059890 1.492070 
# 
# From -- ./inp_files/532465.got.cif
#   From: 2010.05.17/outbox.cif.g08.bks.cpg/sg2_267_cif.got.tgz:532465.got - 2010.06.03 11:33:40.
