data_PCOD9063631
_publ_section_title
;
Structure prediction by ZEFSAII (Michael W. Deem and Ramdas Pophale) SiO2 
 PCOD9063631
Probable space group: P -1
;
_chemical_formula_sum "Si O2"
_cell_formula_units_Z 15
_cell_length_a 9.859048
_cell_length_b 12.002827
_cell_length_c 8.745974
_cell_angle_alpha 64.366713
_cell_angle_beta 123.504723
_cell_angle_gamma 134.964037
_cell_volume 609.025960
_symmetry_space_group_name_H-M "P -1"
_symmetry_group_IT_number 2
_symmetry_cell_setting 'triclinic'
loop_
_space_group_symop_operation_xyz
x,y,z
-x,-y,-z
loop_
_atom_site_type_symbol
_atom_site_label
_atom_site_fract_x
_atom_site_fract_y
_atom_site_fract_z
Si Si1 0.770375 0.944933 0.521494
Si Si2 0.210799 0.442924 0.737651
Si Si3 0.135061 0.129984 0.877112
Si Si4 0.409385 0.403874 0.344898
Si Si5 0.976080 0.634033 0.889551
Si Si6 0.705938 0.017133 0.099667
Si Si7 0.500000 0.000000 0.500000
Si Si8 0.161982 0.687260 0.648601
O O1 0.733989 0.781498 0.598995
O O2 0.580274 0.911298 0.519776
O O3 0.765650 0.990624 0.318568
O O4 0.978715 0.075169 0.668318
O O5 0.211257 0.300454 0.877374
O O6 0.404605 0.541341 0.684523
O O7 0.211880 0.565518 0.769542
O O8 0.993999 0.360851 0.560910
O O9 0.301701 0.106943 0.939562
O O10 0.000000 0.000000 0.000000
O O11 0.500000 0.500000 0.500000
O O12 0.254756 0.435630 0.171850
O O13 0.128604 0.803584 0.967157
O O14 0.041410 0.680523 0.725052
O O15 0.000000 0.500000 0.000000
O O16 0.500000 0.000000 0.000000
O O17 0.366783 0.858609 0.630536
#
# Coordination Sequence:
#
# PCOD9063631 Si02
#       8
#     2   2   2   2   2   2   1   2
#     4  12  26  49  78 106 153 198 256 312 378 456
#     4  11  24  44  71 109 143 188 248 304 365 451
#     4  12  28  49  77 109 152 199 259 313 377 456
#     4  12  25  46  77 108 142 202 251 302 382 447
#     4  12  28  47  70 107 154 191 245 317 376 451
#     4  12  29  48  76 109 149 201 254 315 379 454
#     4  12  22  44  74 110 142 198 244 314 380 444
#     4  11  24  44  73 108 144 190 247 305 381 442
#
# _framework density 24.629491000000002
#
# number of rings (size 3 to 8) (size 9 to 14) (size 15 to 20)
#    0.000    0.267    6.667    1.200    7.467    0.000 
#    0.000    1.333    0.000    0.000    0.000    0.000 
#    0.000    0.000    0.000    0.000    0.000    0.000 
#
# Total GULP energy -83732.691454 kJ/mol
# GULP energy per Si atom -5582.179430 kJ/mol
# Density = 2.457343 g / cm^3
# Si number density = 24.629491 Si / 1000 Ang^3
#
#
#
# Elastic Constant Matrix: (Units=GPa)
#
#
# Indices 1 2 3 4 5 6 
#
# 1 154.8357 12.7283 24.9013 -3.4202 13.9541 -24.1817
# 2 12.7283 92.6528 26.0721 -26.1397 22.9265 -27.9460
# 3 24.9013 26.0721 86.7343 -21.9241 18.2660 -2.5613
# 4 -3.4202 -26.1397 -21.9241 35.5562 -8.3254 10.9287
# 5 13.9541 22.9265 18.2660 -8.3254 40.8369 -11.7846
# 6 -24.1817 -27.9460 -2.5613 10.9287 -11.7846 41.1397
#
#
#
# Elastic Compliance Matrix: (Units=1/GPa)
#
#
# Indices 1 2 3 4 5 6 
#
# 1 0.007663 0.000914 -0.002659 -0.002045 -0.000840 0.005262
# 2 0.000914 0.017290 -0.002243 0.007578 -0.004958 0.008709
# 3 -0.002659 -0.002243 0.016001 0.008588 -0.004905 -0.005777
# 4 -0.002045 0.007578 0.008588 0.040581 -0.001027 -0.006594
# 5 -0.000840 -0.004958 -0.004905 -0.001027 0.030980 0.004980
# 6 0.005262 0.008709 -0.005777 -0.006594 0.004980 0.036135
#
#
# Mechanical properties :
#
#
# Convention : Reuss Voigt Hill
#
# Bulk Modulus (GPa) = 30.32384 51.29181 40.80783
# Shear Modulus (GPa) = 29.82938 41.54129 35.68533
#
# Velocity S-wave (km/s) = 3.48390 4.11134 3.81055
# Velocity P-wave (km/s) = 5.34061 6.58848 5.99709
#
# Compressibility (1/GPa) = 0.03297735
#
# Stress axis : x y z
#
# Youngs Moduli (GPa) = 130.48980 57.83573 62.49802
#
# Poissons Ratio (x) = -0.05285 0.16621
# Poissons Ratio (y) = -0.11923 0.14017
# Poissons Ratio (z) = 0.34702 0.12972
#
# Static dielectric constant tensor:
#      x y z
#    x 1.871860 0.003540 -0.079690 
#    y 0.003540 1.965650 0.097960 
#    z -0.079690 0.097960 1.732490 
# 
# From -- ./inp_files/185428.got.cif
#   From: 2010.05.17/outbox.cif.g08.bks.cpg/sg2_93_cif.got.tgz:185428.got - 2010.06.03 11:33:40.
