data_PCOD9063600
_publ_section_title
;
Structure prediction by ZEFSAII (Michael W. Deem and Ramdas Pophale) SiO2 
 PCOD9063600
Probable space group: P -1
;
_chemical_formula_sum "Si O2"
_cell_formula_units_Z 16
_cell_length_a 11.526928
_cell_length_b 8.297359
_cell_length_c 9.962297
_cell_angle_alpha 94.017651
_cell_angle_beta 50.285716
_cell_angle_gamma 86.958125
_cell_volume 725.183010
_symmetry_space_group_name_H-M "P -1"
_symmetry_group_IT_number 2
_symmetry_cell_setting 'triclinic'
loop_
_space_group_symop_operation_xyz
x,y,z
-x,-y,-z
loop_
_atom_site_type_symbol
_atom_site_label
_atom_site_fract_x
_atom_site_fract_y
_atom_site_fract_z
Si Si1 0.537820 0.664493 0.414471
Si Si2 0.660687 0.672747 0.828370
Si Si3 0.570096 0.201798 0.771456
Si Si4 0.584567 0.858766 0.641420
Si Si5 0.932432 0.797275 0.749211
Si Si6 0.857196 0.324378 0.641113
Si Si7 0.934808 0.862814 0.305139
Si Si8 0.889609 0.667045 0.070840
O O1 0.500000 0.500000 0.500000
O O2 0.436540 0.709384 0.361673
O O3 0.511147 0.805552 0.555407
O O4 0.714514 0.648735 0.236324
O O5 0.587083 0.716600 0.741274
O O6 0.776250 0.803643 0.782428
O O7 0.759117 0.497394 0.747356
O O8 0.538437 0.694787 0.037446
O O9 0.738266 0.193804 0.705657
O O10 0.515890 0.027388 0.770410
O O11 0.758312 0.880457 0.478320
O O12 0.051798 0.678496 0.565733
O O13 0.902886 0.727119 0.912788
O O14 0.996200 0.968738 0.722565
O O15 0.972359 0.267785 0.671930
O O16 0.942371 0.796228 0.144500
O O17 0.000000 0.500000 0.000000
#
# Coordination Sequence:
#
# PCOD9063600 Si02
#       8
#     2   2   2   2   2   2   2   2
#     4  11  26  47  70 100 137 178 227 275 343 406
#     4  12  25  43  68 104 139 176 228 281 340 396
#     4  12  25  47  67 100 141 179 226 279 340 403
#     4  11  24  45  72 100 137 181 227 277 335 407
#     4  12  23  45  69 101 139 178 227 277 335 405
#     4  12  25  43  74  99 138 182 226 281 337 404
#     4  11  24  44  71 104 133 180 231 275 337 399
#     4  11  26  45  71 102 136 174 229 284 332 402
#
# _framework density 22.063395
#
# number of rings (size 3 to 8) (size 9 to 14) (size 15 to 20)
#    0.000    0.500    3.750    4.500    5.250    0.000 
#    2.250    0.000    0.000    0.000    0.000    0.000 
#    0.000    0.000    0.000    0.000    0.000    0.000 
#
# Total GULP energy -89605.814483 kJ/mol
# GULP energy per Si atom -5600.363405 kJ/mol
# Density = 2.201318 g / cm^3
# Si number density = 22.063395 Si / 1000 Ang^3
#
#
#
# Elastic Constant Matrix: (Units=GPa)
#
#
# Indices 1 2 3 4 5 6 
#
# 1 54.8959 -9.1083 28.8111 -4.8019 8.4558 9.2596
# 2 -9.1083 71.5832 26.9212 -5.9967 0.5209 -2.7643
# 3 28.8111 26.9212 139.0710 8.0652 21.2393 -1.4115
# 4 -4.8019 -5.9967 8.0652 30.9376 -3.7739 1.9553
# 5 8.4558 0.5209 21.2393 -3.7739 24.8658 -2.3785
# 6 9.2596 -2.7643 -1.4115 1.9553 -2.3785 33.9519
#
#
#
# Elastic Compliance Matrix: (Units=1/GPa)
#
#
# Indices 1 2 3 4 5 6 
#
# 1 0.024688 0.005805 -0.006267 0.006695 -0.002828 -0.007105
# 2 0.005805 0.017187 -0.005361 0.006043 0.003111 -0.000537
# 3 -0.006267 -0.005361 0.011112 -0.005982 -0.008011 0.001518
# 4 0.006695 0.006043 -0.005982 0.037276 0.008061 -0.003165
# 5 -0.002828 0.003111 -0.008011 0.008061 0.049532 0.003697
# 6 -0.007105 -0.000537 0.001518 -0.003165 0.003697 0.031852
#
#
# Mechanical properties :
#
#
# Convention : Reuss Voigt Hill
#
# Bulk Modulus (GPa) = 24.18786 39.86648 32.02717
# Shear Modulus (GPa) = 25.37120 32.54614 28.95867
#
# Velocity S-wave (km/s) = 3.39473 3.84489 3.62680
# Velocity P-wave (km/s) = 5.13345 6.14973 5.66443
#
# Compressibility (1/GPa) = 0.04134305
#
# Stress axis : x y z
#
# Youngs Moduli (GPa) = 40.50534 58.18210 89.98964
#
# Poissons Ratio (x) = -0.33776 0.56396
# Poissons Ratio (y) = -0.23514 0.48242
# Poissons Ratio (z) = 0.25384 0.31190
#
# Static dielectric constant tensor:
#      x y z
#    x 1.796770 0.026500 -0.004340 
#    y 0.026500 1.807550 0.008110 
#    z -0.004340 0.008110 1.785360 
# 
# From -- ./inp_files/158709.got.cif
#   From: 2010.05.17/outbox.cif.g08.bks.cpg/sg2_80_cif.got.tgz:158709.got - 2010.06.03 11:33:40.
