data_PCOD9063414
_publ_section_title
;
Structure prediction by ZEFSAII (Michael W. Deem and Ramdas Pophale) SiO2 
 PCOD9063414
Probable space group: P -1
;
_chemical_formula_sum "Si O2"
_cell_formula_units_Z 14
_cell_length_a 11.847677
_cell_length_b 9.453356
_cell_length_c 10.795904
_cell_angle_alpha 70.426345
_cell_angle_beta 35.366938
_cell_angle_gamma 66.860392
_cell_volume 643.320694
_symmetry_space_group_name_H-M "P -1"
_symmetry_group_IT_number 2
_symmetry_cell_setting 'triclinic'
loop_
_space_group_symop_operation_xyz
x,y,z
-x,-y,-z
loop_
_atom_site_type_symbol
_atom_site_label
_atom_site_fract_x
_atom_site_fract_y
_atom_site_fract_z
Si Si1 0.361594 0.454988 0.967237
Si Si2 0.915206 0.690305 0.897582
Si Si3 0.317399 0.023203 0.502253
Si Si4 0.315552 0.223569 0.671524
Si Si5 0.642325 0.460787 0.502556
Si Si6 0.550355 0.247033 0.078941
Si Si7 0.922219 0.009845 0.706157
O O1 0.540829 0.395512 0.726947
O O2 0.367761 0.628711 0.947503
O O3 0.170067 0.434115 0.068003
O O4 0.398070 0.350380 0.087694
O O5 0.845196 0.855583 0.848497
O O6 0.151858 0.644791 0.692030
O O7 0.834574 0.711471 0.102649
O O8 0.261365 0.097010 0.666415
O O9 0.441003 0.132141 0.285911
O O10 0.472682 0.860644 0.432776
O O11 0.115630 0.013693 0.615974
O O12 0.326215 0.371317 0.537115
O O13 0.500000 0.500000 0.500000
O O14 0.260217 0.850708 0.136613
O O15 0.000000 0.000000 0.500000
#
# Coordination Sequence:
#
# PCOD9063414 Si02
#       7
#     2   2   2   2   2   2   2
#     4  11  26  44  71 101 138 180 228 281 341 408
#     4  12  26  43  70 106 135 180 229 277 344 406
#     4  11  25  47  69 100 140 176 233 282 339 406
#     4  11  24  44  68 102 135 182 222 281 341 400
#     4  12  24  42  68 101 142 175 224 279 339 410
#     4  11  25  47  70 100 136 183 227 283 342 397
#     4  12  27  44  72 101 135 183 229 283 339 408
#
# _framework density 21.762084000000002
#
# number of rings (size 3 to 8) (size 9 to 14) (size 15 to 20)
#    0.000    0.571    4.286    3.000    4.000    1.714 
#    0.000    3.571    0.000    0.000    0.000    0.000 
#    0.000    0.000    0.000    0.000    0.000    0.000 
#
# Total GULP energy -78324.956970 kJ/mol
# GULP energy per Si atom -5594.639784 kJ/mol
# Density = 2.171255 g / cm^3
# Si number density = 21.762084 Si / 1000 Ang^3
#
#
#
# Elastic Constant Matrix: (Units=GPa)
#
#
# Indices 1 2 3 4 5 6 
#
# 1 55.5769 1.9695 9.1480 -0.4632 6.8394 17.7558
# 2 1.9695 72.8787 9.4765 5.3432 0.6278 3.2950
# 3 9.1480 9.4765 56.6404 1.6474 6.1257 10.9798
# 4 -0.4632 5.3432 1.6474 37.6102 -4.7045 5.7485
# 5 6.8394 0.6278 6.1257 -4.7045 31.6351 -2.1661
# 6 17.7558 3.2950 10.9798 5.7485 -2.1661 35.1937
#
#
#
# Elastic Compliance Matrix: (Units=1/GPa)
#
#
# Indices 1 2 3 4 5 6 
#
# 1 0.022520 -0.000032 -0.000842 0.001439 -0.005289 -0.011656
# 2 -0.000032 0.014166 -0.002234 -0.001885 -0.000144 -0.000314
# 3 -0.000842 -0.002234 0.019716 -0.000182 -0.004011 -0.005734
# 4 0.001439 -0.001885 -0.000182 0.028075 0.003604 -0.004857
# 5 -0.005289 -0.000144 -0.004011 0.003604 0.034444 0.005464
# 6 -0.011656 -0.000314 -0.005734 -0.004857 0.005464 0.037243
#
#
# Mechanical properties :
#
#
# Convention : Reuss Voigt Hill
#
# Bulk Modulus (GPa) = 19.92581 25.14267 22.53424
# Shear Modulus (GPa) = 27.91615 31.85458 29.88537
#
# Velocity S-wave (km/s) = 3.58549 3.83007 3.70980
# Velocity P-wave (km/s) = 5.13002 5.58012 5.35980
#
# Compressibility (1/GPa) = 0.05018615
#
# Stress axis : x y z
#
# Youngs Moduli (GPa) = 44.40555 70.58954 50.72119
#
# Poissons Ratio (x) = 0.00226 0.04271
# Poissons Ratio (y) = 0.00142 0.11330
# Poissons Ratio (z) = 0.03739 0.15768
#
# Static dielectric constant tensor:
#      x y z
#    x 1.787620 0.013880 0.018250 
#    y 0.013880 1.818080 -0.030820 
#    z 0.018250 -0.030820 1.791580 
# 
# From -- ./inp_files/419332.got.cif
#   From: 2010.05.17/outbox.cif.g08.bks.cpg/sg2_210_cif.got.tgz:419332.got - 2010.06.03 11:33:40.
