data_PCOD9063486
_publ_section_title
;
Structure prediction by ZEFSAII (Michael W. Deem and Ramdas Pophale) SiO2 
 PCOD9063486
Probable space group: P -1
;
_chemical_formula_sum "Si O2"
_cell_formula_units_Z 16
_cell_length_a 14.561047
_cell_length_b 5.824556
_cell_length_c 11.719509
_cell_angle_alpha 54.963764
_cell_angle_beta 125.913490
_cell_angle_gamma 97.454353
_cell_volume 626.191597
_symmetry_space_group_name_H-M "P -1"
_symmetry_group_IT_number 2
_symmetry_cell_setting 'triclinic'
loop_
_space_group_symop_operation_xyz
x,y,z
-x,-y,-z
loop_
_atom_site_type_symbol
_atom_site_label
_atom_site_fract_x
_atom_site_fract_y
_atom_site_fract_z
Si Si1 0.735585 0.206345 0.741419
Si Si2 0.528089 0.381554 0.186550
Si Si3 0.858785 0.564789 0.892438
Si Si4 0.106103 0.730896 0.766728
Si Si5 0.375939 0.851363 0.081971
Si Si6 0.760680 0.539479 0.281986
Si Si7 0.620723 0.777527 0.374453
Si Si8 0.883549 0.696094 0.501960
O O1 0.810998 0.416288 0.791454
O O2 0.673911 0.131681 0.831557
O O3 0.640877 0.449474 0.526330
O O4 0.799932 0.908395 0.798250
O O5 0.412647 0.545587 0.128911
O O6 0.653068 0.443886 0.278122
O O7 0.566729 0.039273 0.348866
O O8 0.500000 0.500000 0.000000
O O9 0.846348 0.361617 0.047683
O O10 0.000000 0.500000 0.000000
O O11 0.197097 0.575621 0.778422
O O12 0.987377 0.632906 0.688013
O O13 0.083472 0.068693 0.621860
O O14 0.508967 0.884163 0.175989
O O15 0.290600 0.109815 0.872055
O O16 0.868667 0.446247 0.477396
O O17 0.748929 0.805001 0.422649
#
# Coordination Sequence:
#
# PCOD9063486 Si02
#       8
#     2   2   2   2   2   2   2   2
#     4  12  30  49  80 112 150 203 260 313 376 455
#     4  12  25  41  73 108 151 201 248 310 382 453
#     4  12  28  56  81 110 151 204 255 316 381 458
#     4  11  25  45  74 104 145 190 251 316 382 452
#     4  12  26  45  73 107 153 201 253 312 370 463
#     4  12  22  43  71 107 146 192 248 308 384 453
#     4  12  26  47  70 107 153 197 256 308 381 449
#     4  11  24  44  69 109 142 190 247 316 384 451
#
# _framework density 25.551285
#
# number of rings (size 3 to 8) (size 9 to 14) (size 15 to 20)
#    0.000    0.250    5.000    3.750    5.250    0.500 
#    4.500    0.000    0.000    0.000    0.000    0.000 
#    0.000    0.000    0.000    0.000    0.000    0.000 
#
# Total GULP energy -89291.275996 kJ/mol
# GULP energy per Si atom -5580.704750 kJ/mol
# Density = 2.549313 g / cm^3
# Si number density = 25.551285 Si / 1000 Ang^3
#
#
#
# Elastic Constant Matrix: (Units=GPa)
#
#
# Indices 1 2 3 4 5 6 
#
# 1 106.2740 29.0225 4.5542 -0.7076 25.4813 -5.4904
# 2 29.0225 89.7574 25.6983 -13.7640 15.8271 -13.0176
# 3 4.5542 25.6983 82.2906 3.8292 4.5935 5.1834
# 4 -0.7076 -13.7640 3.8292 57.0707 3.3118 18.3734
# 5 25.4813 15.8271 4.5935 3.3118 37.9227 -2.9206
# 6 -5.4904 -13.0176 5.1834 18.3734 -2.9206 44.3117
#
#
#
# Elastic Compliance Matrix: (Units=1/GPa)
#
#
# Indices 1 2 3 4 5 6 
#
# 1 0.011783 -0.002788 0.000595 -0.000245 -0.006787 0.000226
# 2 -0.002788 0.014973 -0.004644 0.003132 -0.003852 0.003044
# 3 0.000595 -0.004644 0.013790 -0.001254 -0.000207 -0.002397
# 4 -0.000245 0.003132 -0.001254 0.021117 -0.003447 -0.007947
# 5 -0.006787 -0.003852 -0.000207 -0.003447 0.032991 0.001655
# 6 0.000226 0.003044 -0.002397 -0.007947 0.001655 0.027174
#
#
# Mechanical properties :
#
#
# Convention : Reuss Voigt Hill
#
# Bulk Modulus (GPa) = 37.21467 44.09690 40.65578
# Shear Modulus (GPa) = 34.61136 42.46415 38.53775
#
# Velocity S-wave (km/s) = 3.68446 4.08109 3.88783
# Velocity P-wave (km/s) = 5.71810 6.28512 6.00830
#
# Compressibility (1/GPa) = 0.02687113
#
# Stress axis : x y z
#
# Youngs Moduli (GPa) = 84.86867 66.78522 72.51444
#
# Poissons Ratio (x) = 0.18622 -0.04312
# Poissons Ratio (y) = 0.23664 0.33677
# Poissons Ratio (z) = -0.05047 0.31016
#
# Static dielectric constant tensor:
#      x y z
#    x 1.992690 0.031220 0.008220 
#    y 0.031220 2.472300 0.036020 
#    z 0.008220 0.036020 2.022170 
# 
# From -- ./inp_files/441660.got.cif
#   From: 2010.05.17/outbox.cif.g08.bks.cpg/sg2_221_cif.got.tgz:441660.got - 2010.06.03 11:33:40.
