data_PCOD9063728
_publ_section_title
;
Structure prediction by ZEFSAII (Michael W. Deem and Ramdas Pophale) SiO2 
 PCOD9063728
Probable space group: P -1
;
_chemical_formula_sum "Si O2"
_cell_formula_units_Z 14
_cell_length_a 11.360200
_cell_length_b 16.147750
_cell_length_c 8.161192
_cell_angle_alpha 124.906032
_cell_angle_beta 94.699963
_cell_angle_gamma 41.958902
_cell_volume 639.724278
_symmetry_space_group_name_H-M "P -1"
_symmetry_group_IT_number 2
_symmetry_cell_setting 'triclinic'
loop_
_space_group_symop_operation_xyz
x,y,z
-x,-y,-z
loop_
_atom_site_type_symbol
_atom_site_label
_atom_site_fract_x
_atom_site_fract_y
_atom_site_fract_z
Si Si1 0.299308 0.221419 0.194837
Si Si2 0.105667 0.611304 0.525372
Si Si3 0.309864 0.591926 0.964774
Si Si4 0.000764 0.100530 0.004678
Si Si5 0.120120 0.555099 0.090934
Si Si6 0.523037 0.713343 0.584419
Si Si7 0.660173 0.796936 0.205237
O O1 0.342072 0.279495 0.397061
O O2 0.062161 0.337095 0.327118
O O3 0.353612 0.210897 0.000638
O O4 0.500000 0.000000 0.000000
O O5 0.059972 0.613360 0.339071
O O6 0.370010 0.404401 0.364964
O O7 0.052371 0.765287 0.734431
O O8 0.414760 0.423332 0.681497
O O9 0.172588 0.763463 0.015845
O O10 0.500000 0.500000 0.000000
O O11 0.147747 0.646492 0.126050
O O12 0.259612 0.925115 0.780773
O O13 0.000000 0.000000 0.000000
O O14 0.911615 0.656711 0.092928
O O15 0.329562 0.322332 0.845281
O O16 0.500000 0.000000 0.500000
#
# Coordination Sequence:
#
# PCOD9063728 Si02
#       7
#     2   2   2   2   2   2   2
#     4  12  23  42  71 104 145 187 233 283 356 429
#     4  11  24  44  73 104 143 190 235 292 355 430
#     4  11  29  50  72 101 143 186 238 307 365 413
#     4  11  27  48  75 104 134 190 251 293 352 432
#     4  11  26  43  67 104 142 183 235 289 359 418
#     4  11  25  45  74 100 141 188 235 293 351 435
#     4  11  25  42  68 105 147 184 227 289 353 425
#
# _framework density 21.884429000000001
#
# number of rings (size 3 to 8) (size 9 to 14) (size 15 to 20)
#    0.000    0.857    2.857    3.000   10.000    1.714 
#    0.000    0.000    0.000    0.000    0.000    0.000 
#    0.000    0.000    0.000    0.000    0.000    0.000 
#
# Total GULP energy -78066.989551 kJ/mol
# GULP energy per Si atom -5576.213539 kJ/mol
# Density = 2.183462 g / cm^3
# Si number density = 21.884429 Si / 1000 Ang^3
#
#
#
# Elastic Constant Matrix: (Units=GPa)
#
#
# Indices 1 2 3 4 5 6 
#
# 1 112.0193 60.2645 18.6445 5.0192 27.3532 5.6638
# 2 60.2645 149.6013 58.4122 12.0426 12.4973 -1.6107
# 3 18.6445 58.4122 94.3218 1.3050 22.0073 -1.9008
# 4 5.0192 12.0426 1.3050 40.0611 -0.7675 3.6938
# 5 27.3532 12.4973 22.0073 -0.7675 25.9794 -0.9109
# 6 5.6638 -1.6107 -1.9008 3.6938 -0.9109 40.7988
#
#
#
# Elastic Compliance Matrix: (Units=1/GPa)
#
#
# Indices 1 2 3 4 5 6 
#
# 1 0.016722 -0.007365 0.005618 -0.000173 -0.018924 -0.002757
# 2 -0.007365 0.012319 -0.008138 -0.002491 0.008702 0.001549
# 3 0.005618 -0.008138 0.018660 0.000859 -0.017806 -0.000707
# 4 -0.000173 -0.002491 0.000859 0.025947 0.001337 -0.002354
# 5 -0.018924 0.008702 -0.017806 0.001337 0.069479 0.003571
# 6 -0.002757 0.001549 -0.000707 -0.002354 0.003571 0.025214
#
#
# Mechanical properties :
#
#
# Convention : Reuss Voigt Hill
#
# Bulk Modulus (GPa) = 35.80272 70.06499 52.93386
# Shear Modulus (GPa) = 25.32653 35.94259 30.63456
#
# Velocity S-wave (km/s) = 3.40558 4.05703 3.74549
# Velocity P-wave (km/s) = 5.64441 7.35060 6.55327
#
# Compressibility (1/GPa) = 0.02793084
#
# Stress axis : x y z
#
# Youngs Moduli (GPa) = 59.80089 81.17629 53.59143
#
# Poissons Ratio (x) = 0.59783 -0.30105
# Poissons Ratio (y) = 0.44041 0.43612
# Poissons Ratio (z) = -0.33593 0.66061
#
# Static dielectric constant tensor:
#      x y z
#    x 1.999760 0.000820 0.084230 
#    y 0.000820 1.835180 -0.004960 
#    z 0.084230 -0.004960 1.823700 
# 
# From -- ./inp_files/279876.got.cif
#   From: 2010.05.17/outbox.cif.g08.bks.cpg/sg2_140_cif.got.tgz:279876.got - 2010.06.03 11:33:40.
