data_PCOD9063312
_publ_section_title
;
Structure prediction by ZEFSAII (Michael W. Deem and Ramdas Pophale) SiO2 
 PCOD9063312
Probable space group: P -1
;
_chemical_formula_sum "Si O2"
_cell_formula_units_Z 14
_cell_length_a 5.755092
_cell_length_b 7.206458
_cell_length_c 20.578270
_cell_angle_alpha 71.255406
_cell_angle_beta 43.501811
_cell_angle_gamma 83.041265
_cell_volume 548.077667
_symmetry_space_group_name_H-M "P -1"
_symmetry_group_IT_number 2
_symmetry_cell_setting 'triclinic'
loop_
_space_group_symop_operation_xyz
x,y,z
-x,-y,-z
loop_
_atom_site_type_symbol
_atom_site_label
_atom_site_fract_x
_atom_site_fract_y
_atom_site_fract_z
Si Si1 0.170299 0.501549 0.610826
Si Si2 0.799761 0.050500 0.734214
Si Si3 0.922242 0.766400 0.853151
Si Si4 0.152636 0.422288 0.913816
Si Si5 0.107654 0.924683 0.556752
Si Si6 0.125190 0.557577 0.194739
Si Si7 0.984763 0.925234 0.101270
O O1 0.500000 0.500000 0.500000
O O2 0.030094 0.688017 0.590490
O O3 0.965220 0.280654 0.672958
O O4 0.165965 0.544580 0.684989
O O5 0.394206 0.022920 0.830199
O O6 0.978695 0.936149 0.767114
O O7 0.867164 0.974392 0.657709
O O8 0.184511 0.621752 0.839942
O O9 0.719263 0.584379 0.872496
O O10 0.804167 0.878073 0.928323
O O11 0.527408 0.370127 0.845655
O O12 0.936097 0.202910 0.963146
O O13 0.000000 0.500000 0.000000
O O14 0.500000 0.000000 0.500000
O O15 0.000000 0.000000 0.500000
O O16 0.990495 0.742458 0.170358
#
# Coordination Sequence:
#
# PCOD9063312 Si02
#       7
#     2   2   2   2   2   2   2
#     4  12  25  45  73 105 147 194 254 305 371 446
#     4  12  25  45  71 104 148 199 251 303 384 446
#     4  11  24  43  76 104 144 189 246 305 382 448
#     4  11  26  48  75 109 145 189 244 309 379 462
#     4  12  30  47  70 110 153 200 263 324 377 451
#     4  11  24  46  70 104 144 190 242 304 375 441
#     4  11  24  43  76 103 145 193 242 303 382 457
#
# _framework density 25.543824999999998
#
# number of rings (size 3 to 8) (size 9 to 14) (size 15 to 20)
#    0.000    0.571    5.714    0.857    4.000    4.571 
#    0.000    3.571    0.000    0.000    0.000    0.000 
#    0.000    0.000    0.000    0.000    0.000    0.000 
#
# Total GULP energy -77981.793539 kJ/mol
# GULP energy per Si atom -5570.128110 kJ/mol
# Density = 2.548569 g / cm^3
# Si number density = 25.543825 Si / 1000 Ang^3
#
#
#
# Elastic Constant Matrix: (Units=GPa)
#
#
# Indices 1 2 3 4 5 6 
#
# 1 90.6415 39.7332 76.5640 1.1678 15.7039 -5.4872
# 2 39.7332 223.1370 49.9006 18.5310 14.6322 5.7369
# 3 76.5640 49.9006 136.0364 22.0563 11.2632 -7.8316
# 4 1.1678 18.5310 22.0563 59.5225 8.8718 21.7052
# 5 15.7039 14.6322 11.2632 8.8718 28.4550 -12.9115
# 6 -5.4872 5.7369 -7.8316 21.7052 -12.9115 47.0294
#
#
#
# Elastic Compliance Matrix: (Units=1/GPa)
#
#
# Indices 1 2 3 4 5 6 
#
# 1 0.026731 -0.000924 -0.015727 0.011092 -0.015485 -0.008758
# 2 -0.000924 0.005120 -0.001211 -0.000290 -0.002189 -0.001401
# 3 -0.015727 -0.001211 0.018100 -0.010661 0.009476 0.008849
# 4 0.011092 -0.000290 -0.010661 0.031231 -0.020827 -0.020578
# 5 -0.015485 -0.002189 0.009476 -0.020827 0.059327 0.025939
# 6 -0.008758 -0.001401 0.008849 -0.020578 0.025939 0.038504
#
#
# Mechanical properties :
#
#
# Convention : Reuss Voigt Hill
#
# Bulk Modulus (GPa) = 70.27786 86.91228 78.59507
# Shear Modulus (GPa) = 22.78119 45.90918 34.34519
#
# Velocity S-wave (km/s) = 2.98962 4.24402 3.67080
# Velocity P-wave (km/s) = 6.28407 7.62327 6.98583
#
# Compressibility (1/GPa) = 0.01422923
#
# Stress axis : x y z
#
# Youngs Moduli (GPa) = 37.40953 195.29428 55.24971
#
# Poissons Ratio (x) = 0.18036 0.86889
# Poissons Ratio (y) = 0.03455 0.06690
# Poissons Ratio (z) = 0.58833 0.23647
#
# Static dielectric constant tensor:
#      x y z
#    x 2.255140 0.120070 0.078440 
#    y 0.120070 2.032810 0.114860 
#    z 0.078440 0.114860 2.181230 
# 
# From -- ./inp_files/581927.got.cif
#   From: 2010.05.17/outbox.cif.g08.bks.cpg/sg2_291_cif.got.tgz:581927.got - 2010.06.03 11:33:40.
