data_PCOD9063839
_publ_section_title
;
Structure prediction by ZEFSAII (Michael W. Deem and Ramdas Pophale) SiO2 
 PCOD9063839
Probable space group: P -1
;
_chemical_formula_sum "Si O2"
_cell_formula_units_Z 16
_cell_length_a 8.630953
_cell_length_b 12.538455
_cell_length_c 19.038777
_cell_angle_alpha 27.143186
_cell_angle_beta 129.763725
_cell_angle_gamma 129.986462
_cell_volume 706.526143
_symmetry_space_group_name_H-M "P -1"
_symmetry_group_IT_number 2
_symmetry_cell_setting 'triclinic'
loop_
_space_group_symop_operation_xyz
x,y,z
-x,-y,-z
loop_
_atom_site_type_symbol
_atom_site_label
_atom_site_fract_x
_atom_site_fract_y
_atom_site_fract_z
Si Si1 0.917474 0.755039 0.817416
Si Si2 0.515493 0.426592 0.263293
Si Si3 0.947563 0.556156 0.371449
Si Si4 0.969033 0.902298 0.892987
Si Si5 0.317749 0.093762 0.670537
Si Si6 0.699564 0.435193 0.645658
Si Si7 0.655356 0.242314 0.887202
Si Si8 0.570924 0.684554 0.976148
O O1 0.710256 0.738806 0.720187
O O2 0.852768 0.867714 0.805436
O O3 0.108669 0.947746 0.728594
O O4 0.000000 0.500000 0.000000
O O5 0.745348 0.393182 0.370909
O O6 0.463648 0.560446 0.239427
O O7 0.538393 0.579153 0.107253
O O8 0.000000 0.500000 0.500000
O O9 0.145984 0.561717 0.376143
O O10 0.926209 0.831796 0.209794
O O11 0.810735 0.788456 0.972828
O O12 0.145346 0.760579 0.008091
O O13 0.466417 0.287406 0.650058
O O14 0.281472 0.287737 0.489061
O O15 0.450246 0.898798 0.805308
O O16 0.750804 0.281906 0.814986
O O17 0.500000 0.000000 0.000000
O O18 0.500000 0.500000 0.000000
#
# Coordination Sequence:
#
# PCOD9063839 Si02
#       8
#     2   2   2   2   2   2   2   2
#     4  12  22  44  71 109 146 191 244 303 371 457
#     4  12  26  42  73 107 146 191 251 305 371 443
#     4  12  28  47  72 107 147 194 251 314 372 435
#     4  12  23  40  73 102 143 186 247 311 368 427
#     4  11  24  44  75 104 148 199 246 303 381 441
#     4  11  26  47  72 104 151 199 252 307 376 443
#     4  12  24  41  72 110 143 189 253 308 367 448
#     4  12  23  43  73 111 148 190 245 315 371 445
#
# _framework density 22.646011999999999
#
# number of rings (size 3 to 8) (size 9 to 14) (size 15 to 20)
#    0.000    0.250    6.250    3.000    3.500    1.000 
#    0.000    3.125    2.750    0.000    0.000    0.000 
#    0.000    0.000    0.000    0.000    0.000    0.000 
#
# Total GULP energy -89134.110016 kJ/mol
# GULP energy per Si atom -5570.881876 kJ/mol
# Density = 2.259447 g / cm^3
# Si number density = 22.646012 Si / 1000 Ang^3
#
#
#
# Elastic Constant Matrix: (Units=GPa)
#
#
# Indices 1 2 3 4 5 6 
#
# 1 144.8851 50.2033 44.8098 -0.5296 -13.0150 23.2307
# 2 50.2033 100.6606 33.4830 0.5679 -10.0985 28.0794
# 3 44.8098 33.4830 84.3338 -9.5820 -16.6615 7.5678
# 4 -0.5296 0.5679 -9.5820 30.9678 3.8935 -0.7608
# 5 -13.0150 -10.0985 -16.6615 3.8935 34.9407 0.7668
# 6 23.2307 28.0794 7.5678 -0.7608 0.7668 45.9003
#
#
#
# Elastic Compliance Matrix: (Units=1/GPa)
#
#
# Indices 1 2 3 4 5 6 
#
# 1 0.009469 -0.002660 -0.003630 -0.001129 0.001210 -0.002605
# 2 -0.002660 0.014630 -0.003597 -0.001837 0.001882 -0.007072
# 3 -0.003630 -0.003597 0.016601 0.004545 0.004989 0.001293
# 4 -0.001129 -0.001837 0.004545 0.034079 -0.002616 0.001554
# 5 0.001210 0.001882 0.004989 -0.002616 0.032355 -0.003170
# 6 -0.002605 -0.007072 0.001293 0.001554 -0.003170 0.027297
#
#
# Mechanical properties :
#
#
# Convention : Reuss Voigt Hill
#
# Bulk Modulus (GPa) = 47.79295 65.20796 56.50045
# Shear Modulus (GPa) = 31.02106 35.78731 33.40418
#
# Velocity S-wave (km/s) = 3.70513 3.97960 3.84481
# Velocity P-wave (km/s) = 6.28125 7.06918 6.68683
#
# Compressibility (1/GPa) = 0.02092359
#
# Stress axis : x y z
#
# Youngs Moduli (GPa) = 105.60822 68.35418 60.23782
#
# Poissons Ratio (x) = 0.18186 0.21868
# Poissons Ratio (y) = 0.28097 0.21668
# Poissons Ratio (z) = 0.38339 0.24588
#
# Static dielectric constant tensor:
#      x y z
#    x 1.808320 0.020410 0.073060 
#    y 0.020410 1.906940 0.057660 
#    z 0.073060 0.057660 2.001390 
# 
# From -- ./inp_files/559596.got.cif
#   From: 2010.05.17/outbox.cif.g08.bks.cpg/sg2_280_cif.got.tgz:559596.got - 2010.06.03 11:33:40.
