data_PCOD9063922
_publ_section_title
;
Structure prediction by ZEFSAII (Michael W. Deem and Ramdas Pophale) SiO2 
 PCOD9063922
Probable space group: P -1
;
_chemical_formula_sum "Si O2"
_cell_formula_units_Z 14
_cell_length_a 4.907004
_cell_length_b 14.759197
_cell_length_c 7.405257
_cell_angle_alpha 96.698596
_cell_angle_beta 73.655795
_cell_angle_gamma 81.341026
_cell_volume 501.576662
_symmetry_space_group_name_H-M "P -1"
_symmetry_group_IT_number 2
_symmetry_cell_setting 'triclinic'
loop_
_space_group_symop_operation_xyz
x,y,z
-x,-y,-z
loop_
_atom_site_type_symbol
_atom_site_label
_atom_site_fract_x
_atom_site_fract_y
_atom_site_fract_z
Si Si1 0.002992 0.610231 0.526243
Si Si2 0.155355 0.872299 0.280732
Si Si3 0.352423 0.056849 0.330490
Si Si4 0.739241 0.466191 0.132209
Si Si5 0.650215 0.314831 0.315089
Si Si6 0.310223 0.655880 0.221716
Si Si7 0.074183 0.883773 0.882694
O O1 0.256804 0.682989 0.490761
O O2 0.982752 0.637005 0.315822
O O3 0.000000 0.500000 0.500000
O O4 0.683083 0.664521 0.655807
O O5 0.323091 0.765655 0.213869
O O6 0.875748 0.886797 0.469709
O O7 0.341674 0.948137 0.330922
O O8 0.062703 0.904289 0.100893
O O9 0.667396 0.081531 0.265899
O O10 0.218989 0.085473 0.164319
O O11 0.816215 0.404244 0.285902
O O12 0.496479 0.553755 0.241168
O O13 0.636391 0.387122 0.011376
O O14 0.000000 0.500000 0.000000
O O15 0.834476 0.226409 0.174547
#
# Coordination Sequence:
#
# PCOD9063922 Si02
#       7
#     2   2   2   2   2   2   2
#     4  12  25  44  70 100 144 192 240 302 364 427
#     4  11  25  49  77 110 150 202 249 316 384 445
#     4  11  28  50  76 114 152 192 262 315 373 462
#     4  11  25  42  65 100 143 182 234 293 348 449
#     4  12  25  44  69 101 140 187 245 293 359 448
#     4  11  24  45  66 101 142 188 239 292 369 437
#     4  12  25  50  76 109 152 201 248 315 384 441
#
# _framework density 27.911984
#
# number of rings (size 3 to 8) (size 9 to 14) (size 15 to 20)
#    0.000    0.571    2.857    4.714    4.000    4.571 
#    5.143    0.000    0.000    0.000    0.000    0.000 
#    0.000    0.000    0.000    0.000    0.000    0.000 
#
# Total GULP energy -78180.853556 kJ/mol
# GULP energy per Si atom -5584.346683 kJ/mol
# Density = 2.784845 g / cm^3
# Si number density = 27.911984 Si / 1000 Ang^3
#
#
#
# Elastic Constant Matrix: (Units=GPa)
#
#
# Indices 1 2 3 4 5 6 
#
# 1 102.1803 16.9981 -7.2135 1.8869 5.2890 -10.6427
# 2 16.9981 115.4021 10.9622 29.3371 2.3729 -5.3312
# 3 -7.2135 10.9622 108.7069 -0.2564 2.1954 7.0650
# 4 1.8869 29.3371 -0.2564 77.4958 2.9652 4.7167
# 5 5.2890 2.3729 2.1954 2.9652 42.0148 -6.4369
# 6 -10.6427 -5.3312 7.0650 4.7167 -6.4369 34.0616
#
#
#
# Elastic Compliance Matrix: (Units=1/GPa)
#
#
# Indices 1 2 3 4 5 6 
#
# 1 0.010406 -0.001504 0.000686 0.000188 -0.000863 0.002685
# 2 -0.001504 0.010087 -0.001259 -0.003916 0.000262 0.001962
# 3 0.000686 -0.001259 0.009536 0.000661 -0.000901 -0.002223
# 4 0.000188 -0.003916 0.000661 0.014615 -0.001323 -0.002965
# 5 -0.000863 0.000262 -0.000901 -0.001323 0.024774 0.004823
# 6 0.002685 0.001962 -0.002223 -0.002965 0.004823 0.032288
#
#
# Mechanical properties :
#
#
# Convention : Reuss Voigt Hill
#
# Bulk Modulus (GPa) = 38.64862 40.86478 39.75670
# Shear Modulus (GPa) = 43.67384 51.08394 47.37889
#
# Velocity S-wave (km/s) = 3.95992 4.28270 4.12447
# Velocity P-wave (km/s) = 5.89785 6.25522 6.07916
#
# Compressibility (1/GPa) = 0.02587414
#
# Stress axis : x y z
#
# Youngs Moduli (GPa) = 96.09824 99.13645 104.86918
#
# Poissons Ratio (x) = 0.14909 -0.07189
# Poissons Ratio (y) = 0.14452 0.13203
# Poissons Ratio (z) = -0.06588 0.12482
#
# Static dielectric constant tensor:
#      x y z
#    x 2.442490 0.140770 -0.186990 
#    y 0.140770 2.394470 -0.306470 
#    z -0.186990 -0.306470 2.877840 
# 
# From -- ./inp_files/134326.got.cif
#   From: 2010.05.17/outbox.cif.g08.bks.cpg/sg2_68_cif.got.tgz:134326.got - 2010.06.03 11:33:40.
