data_PCOD9063485
_publ_section_title
;
Structure prediction by ZEFSAII (Michael W. Deem and Ramdas Pophale) SiO2 
 PCOD9063485
Probable space group: P -1
;
_chemical_formula_sum "Si O2"
_cell_formula_units_Z 15
_cell_length_a 9.372948
_cell_length_b 14.315334
_cell_length_c 11.495182
_cell_angle_alpha 29.560800
_cell_angle_beta 122.665265
_cell_angle_gamma 125.122033
_cell_volume 619.429601
_symmetry_space_group_name_H-M "P -1"
_symmetry_group_IT_number 2
_symmetry_cell_setting 'triclinic'
loop_
_space_group_symop_operation_xyz
x,y,z
-x,-y,-z
loop_
_atom_site_type_symbol
_atom_site_label
_atom_site_fract_x
_atom_site_fract_y
_atom_site_fract_z
Si Si1 0.934558 0.193921 0.902281
Si Si2 0.203358 0.954720 0.247869
Si Si3 0.014430 0.540361 0.711439
Si Si4 0.295858 0.571676 0.122380
Si Si5 0.351566 0.080302 0.785054
Si Si6 0.500000 0.500000 0.500000
Si Si7 0.390285 0.991169 0.630773
Si Si8 0.323830 0.368345 0.121097
O O1 0.826243 0.119393 0.818670
O O2 0.928532 0.414199 0.696193
O O3 0.834177 0.058055 0.109068
O O4 0.119898 0.140239 0.022403
O O5 0.090262 0.767274 0.471753
O O6 0.406824 0.991565 0.326690
O O7 0.878496 0.499392 0.801143
O O8 0.165922 0.434388 0.921360
O O9 0.453725 0.620808 0.232509
O O10 0.320770 0.423686 0.195091
O O11 0.289688 0.764812 0.836437
O O12 0.380173 0.299767 0.605735
O O13 0.379515 0.061912 0.681427
O O14 0.500000 0.000000 0.000000
O O15 0.316696 0.139480 0.359169
O O16 0.500000 0.500000 0.000000
#
# Coordination Sequence:
#
# PCOD9063485 Si02
#       8
#     2   2   2   2   2   1   2   2
#     4  11  24  44  69 108 144 184 232 293 362 420
#     4  11  25  42  70 105 148 179 232 293 362 423
#     4  12  26  48  70 102 142 193 236 294 347 424
#     4  12  27  45  78 107 140 186 239 295 356 424
#     4  12  21  42  71 107 142 181 236 288 359 423
#     4  12  22  40  76 110 142 176 226 292 356 412
#     4  12  25  46  72 103 138 188 237 296 348 425
#     4  12  29  50  71 103 142 191 245 294 353 423
#
# _framework density 24.215827999999998
#
# number of rings (size 3 to 8) (size 9 to 14) (size 15 to 20)
#    0.000    0.267    6.667    1.600    1.867    3.200 
#    4.800    0.000    0.000    0.000    0.000    0.000 
#    0.000    0.000    0.000    0.000    0.000    0.000 
#
# Total GULP energy -83795.660884 kJ/mol
# GULP energy per Si atom -5586.377392 kJ/mol
# Density = 2.416071 g / cm^3
# Si number density = 24.215828 Si / 1000 Ang^3
#
#
#
# Elastic Constant Matrix: (Units=GPa)
#
#
# Indices 1 2 3 4 5 6 
#
# 1 124.1062 17.5792 19.2405 -12.0972 -18.0452 -4.4407
# 2 17.5792 42.8426 -9.6235 0.6804 -8.2639 -17.8348
# 3 19.2405 -9.6235 115.1863 -20.0938 6.8551 -5.0140
# 4 -12.0972 0.6804 -20.0938 42.1937 10.4367 0.9702
# 5 -18.0452 -8.2639 6.8551 10.4367 31.5460 9.1029
# 6 -4.4407 -17.8348 -5.0140 0.9702 9.1029 30.8758
#
#
#
# Elastic Compliance Matrix: (Units=1/GPa)
#
#
# Indices 1 2 3 4 5 6 
#
# 1 0.009911 -0.005016 -0.002514 0.000368 0.005821 -0.003608
# 2 -0.005016 0.034782 0.004644 -0.000109 -0.000589 0.020301
# 3 -0.002514 0.004644 0.011151 0.005935 -0.006281 0.005797
# 4 0.000368 -0.000109 0.005935 0.029492 -0.011884 0.003531
# 5 0.005821 -0.000589 -0.006281 -0.011884 0.043954 -0.013108
# 6 -0.003608 0.020301 0.005797 0.003531 -0.013108 0.048290
#
#
# Mechanical properties :
#
#
# Convention : Reuss Voigt Hill
#
# Bulk Modulus (GPa) = 19.97191 37.39195 28.68193
# Shear Modulus (GPa) = 24.99451 37.91902 31.45677
#
# Velocity S-wave (km/s) = 3.21620 3.96141 3.60810
# Velocity P-wave (km/s) = 4.69652 6.03310 5.40628
#
# Compressibility (1/GPa) = 0.05007033
#
# Stress axis : x y z
#
# Youngs Moduli (GPa) = 100.89727 28.75076 89.67854
#
# Poissons Ratio (x) = 0.14423 0.22544
# Poissons Ratio (y) = 0.50615 -0.41643
# Poissons Ratio (z) = 0.25364 -0.13351
#
# Static dielectric constant tensor:
#      x y z
#    x 1.888980 0.001880 0.033990 
#    y 0.001880 1.952880 0.016410 
#    z 0.033990 0.016410 1.967590 
# 
# From -- ./inp_files/383282.got.cif
#   From: 2010.05.17/outbox.cif.g08.bks.cpg/sg2_192_cif.got.tgz:383282.got - 2010.06.03 11:33:40.
