data_PCOD9063404
_publ_section_title
;
Structure prediction by ZEFSAII (Michael W. Deem and Ramdas Pophale) SiO2 
 PCOD9063404
Probable space group: P -1
;
_chemical_formula_sum "Si O2"
_cell_formula_units_Z 16
_cell_length_a 9.618705
_cell_length_b 22.227173
_cell_length_c 8.975801
_cell_angle_alpha 30.722032
_cell_angle_beta 43.270187
_cell_angle_gamma 43.093375
_cell_volume 641.480166
_symmetry_space_group_name_H-M "P -1"
_symmetry_group_IT_number 2
_symmetry_cell_setting 'triclinic'
loop_
_space_group_symop_operation_xyz
x,y,z
-x,-y,-z
loop_
_atom_site_type_symbol
_atom_site_label
_atom_site_fract_x
_atom_site_fract_y
_atom_site_fract_z
Si Si1 0.423623 0.305290 0.149878
Si Si2 0.185844 0.610638 0.258113
Si Si3 0.895163 0.611013 0.028931
Si Si4 0.342332 0.918705 0.769927
Si Si5 0.555968 0.775605 0.161942
Si Si6 0.251942 0.675098 0.749699
Si Si7 0.761833 0.827019 0.176367
Si Si8 0.929457 0.036217 0.650345
O O1 0.551702 0.189504 0.197460
O O2 0.361054 0.247132 0.470975
O O3 0.584822 0.383907 0.879886
O O4 0.213374 0.378969 0.068047
O O5 0.111377 0.509914 0.620319
O O6 0.003106 0.739107 0.158924
O O7 0.210973 0.598625 0.085756
O O8 0.739747 0.719921 0.018409
O O9 0.118401 0.638594 0.799982
O O10 0.500000 0.000000 0.500000
O O11 0.350842 0.854133 0.061773
O O12 0.120455 0.992570 0.712736
O O13 0.485905 0.666490 0.528481
O O14 0.652666 0.844969 0.061794
O O15 0.169835 0.817685 0.565781
O O16 0.770491 0.953618 0.974107
O O17 0.000000 0.000000 0.500000
#
# Coordination Sequence:
#
# PCOD9063404 Si02
#       8
#     2   2   2   2   2   2   2   2
#     4  11  25  45  68 105 135 177 229 277 345 406
#     4  12  24  47  71  99 137 181 228 287 335 400
#     4  11  26  46  71  98 140 175 230 289 337 396
#     4  11  24  44  67  98 142 179 222 278 335 403
#     4  11  26  44  67 101 138 178 231 274 340 403
#     4  12  25  43  68 103 134 179 229 276 340 404
#     4  12  25  43  71 102 138 183 226 273 343 408
#     4  12  23  43  69  98 143 177 220 281 339 406
#
# _framework density 24.942315000000001
#
# number of rings (size 3 to 8) (size 9 to 14) (size 15 to 20)
#    0.000    0.500    5.000    3.000    3.500    3.000 
#    0.000    0.000    0.000    0.000    0.000    0.000 
#    0.000    0.000    0.000    0.000    0.000    0.000 
#
# Total GULP energy -89674.397628 kJ/mol
# GULP energy per Si atom -5604.649852 kJ/mol
# Density = 2.488555 g / cm^3
# Si number density = 24.942315 Si / 1000 Ang^3
#
#
#
# Elastic Constant Matrix: (Units=GPa)
#
#
# Indices 1 2 3 4 5 6 
#
# 1 176.7700 26.2193 32.8170 -12.0228 -11.4399 1.9398
# 2 26.2193 41.1680 8.3702 -7.3976 8.8233 -4.3966
# 3 32.8170 8.3702 109.4963 -6.9462 -5.9131 3.3130
# 4 -12.0228 -7.3976 -6.9462 35.4437 -2.5607 6.1459
# 5 -11.4399 8.8233 -5.9131 -2.5607 55.0318 1.8068
# 6 1.9398 -4.3966 3.3130 6.1459 1.8068 23.6667
#
#
#
# Elastic Compliance Matrix: (Units=1/GPa)
#
#
# Indices 1 2 3 4 5 6 
#
# 1 0.006844 -0.004420 -0.001447 0.001571 0.002106 -0.001748
# 2 -0.004420 0.029779 -0.001248 0.003054 -0.005873 0.005724
# 3 -0.001447 -0.001248 0.009884 0.001612 0.001102 -0.002000
# 4 0.001571 0.003054 0.001612 0.031216 0.001726 -0.008025
# 5 0.002106 -0.005873 0.001102 0.001726 0.019861 -0.003382
# 6 -0.001748 0.005724 -0.002000 -0.008025 -0.003382 0.046082
#
#
# Mechanical properties :
#
#
# Convention : Reuss Voigt Hill
#
# Bulk Modulus (GPa) = 30.98318 51.36080 41.17199
# Shear Modulus (GPa) = 29.64630 40.16361 34.90496
#
# Velocity S-wave (km/s) = 3.45134 4.01716 3.74495
# Velocity P-wave (km/s) = 5.32271 6.49256 5.93652
#
# Compressibility (1/GPa) = 0.03227557
#
# Stress axis : x y z
#
# Youngs Moduli (GPa) = 146.12071 33.58103 101.17271
#
# Poissons Ratio (x) = 0.14844 0.14639
# Poissons Ratio (y) = 0.64591 0.12628
# Poissons Ratio (z) = 0.21142 0.04191
#
# Static dielectric constant tensor:
#      x y z
#    x 1.978030 -0.034680 0.033510 
#    y -0.034680 2.000050 -0.002630 
#    z 0.033510 -0.002630 2.000500 
# 
# From -- ./inp_files/188887.got.cif
#   From: 2010.05.17/outbox.cif.g08.bks.cpg/sg2_95_cif.got.tgz:188887.got - 2010.06.03 11:33:40.
