data_PCOD9063837
_publ_section_title
;
Structure prediction by ZEFSAII (Michael W. Deem and Ramdas Pophale) SiO2 
 PCOD9063837
Probable space group: P -1
;
_chemical_formula_sum "Si O2"
_cell_formula_units_Z 14
_cell_length_a 5.701450
_cell_length_b 12.016193
_cell_length_c 15.293439
_cell_angle_alpha 132.095895
_cell_angle_beta 59.113385
_cell_angle_gamma 95.336845
_cell_volume 613.130596
_symmetry_space_group_name_H-M "P -1"
_symmetry_group_IT_number 2
_symmetry_cell_setting 'triclinic'
loop_
_space_group_symop_operation_xyz
x,y,z
-x,-y,-z
loop_
_atom_site_type_symbol
_atom_site_label
_atom_site_fract_x
_atom_site_fract_y
_atom_site_fract_z
Si Si1 0.735237 0.434777 0.500484
Si Si2 0.842912 0.969888 0.427532
Si Si3 0.836239 0.797331 0.075511
Si Si4 0.587559 0.857302 0.979393
Si Si5 0.374723 0.660392 0.166668
Si Si6 0.514966 0.460596 0.207044
Si Si7 0.028984 0.934190 0.719893
O O1 0.500000 0.500000 0.500000
O O2 0.547030 0.471977 0.646998
O O3 0.904314 0.241883 0.348043
O O4 0.000000 0.500000 0.500000
O O5 0.042283 0.780834 0.268004
O O6 0.500000 0.000000 0.500000
O O7 0.892519 0.084214 0.405458
O O8 0.000000 0.000000 0.500000
O O9 0.589538 0.750884 0.146791
O O10 0.799288 0.969376 0.214519
O O11 0.843727 0.827230 0.984666
O O12 0.145665 0.640350 0.942312
O O13 0.614078 0.681976 0.848648
O O14 0.500000 0.000000 0.000000
O O15 0.304501 0.935333 0.138286
O O16 0.380682 0.601417 0.234314
O O17 0.500000 0.500000 0.000000
#
# Coordination Sequence:
#
# PCOD9063837 Si02
#       7
#     2   2   2   2   2   2   2
#     4  12  31  50  75 107 155 203 258 313 375 449
#     4  12  27  47  74 111 152 204 248 305 384 466
#     4  11  24  46  78 110 148 198 252 316 390 455
#     4  11  24  44  75 104 147 192 258 306 379 447
#     4  12  23  47  77 113 153 192 258 320 389 453
#     4  11  26  45  74 114 148 201 250 322 381 449
#     4  11  26  47  71 107 146 200 247 310 376 457
#
# _framework density 22.833634
#
# number of rings (size 3 to 8) (size 9 to 14) (size 15 to 20)
#    0.000    0.571    2.857    3.857    8.000    4.571 
#    0.000    0.000    0.000    0.000    0.000    0.000 
#    0.000    0.000    0.000    0.000    0.000    0.000 
#
# Total GULP energy -78163.435435 kJ/mol
# GULP energy per Si atom -5583.102531 kJ/mol
# Density = 2.278166 g / cm^3
# Si number density = 22.833634 Si / 1000 Ang^3
#
#
#
# Elastic Constant Matrix: (Units=GPa)
#
#
# Indices 1 2 3 4 5 6 
#
# 1 102.1730 45.0544 38.2726 5.6247 -1.2101 -7.9658
# 2 45.0544 128.3729 19.7673 7.0318 -1.8068 -16.2348
# 3 38.2726 19.7673 116.1807 13.6903 2.9522 0.0092
# 4 5.6247 7.0318 13.6903 54.0357 -3.0538 5.2495
# 5 -1.2101 -1.8068 2.9522 -3.0538 36.9304 -1.7335
# 6 -7.9658 -16.2348 0.0092 5.2495 -1.7335 40.1287
#
#
#
# Elastic Compliance Matrix: (Units=1/GPa)
#
#
# Indices 1 2 3 4 5 6 
#
# 1 0.012923 -0.003839 -0.003619 0.000003 0.000574 0.001037
# 2 -0.003839 0.009662 -0.000262 -0.001088 0.000433 0.003308
# 3 -0.003619 -0.000262 0.010128 -0.002162 -0.001148 -0.000593
# 4 0.000003 -0.001088 -0.002162 0.019571 0.001600 -0.002930
# 5 0.000574 0.000433 -0.001148 0.001600 0.027401 0.001264
# 6 0.001037 0.003308 -0.000593 -0.002930 0.001264 0.026902
#
#
# Mechanical properties :
#
#
# Convention : Reuss Voigt Hill
#
# Bulk Modulus (GPa) = 57.89658 61.43503 59.66581
# Shear Modulus (GPa) = 39.12802 42.46111 40.79456
#
# Velocity S-wave (km/s) = 4.14407 4.31697 4.23140
# Velocity P-wave (km/s) = 6.95044 7.19807 7.07534
#
# Compressibility (1/GPa) = 0.01727218
#
# Stress axis : x y z
#
# Youngs Moduli (GPa) = 77.37850 103.50192 98.73512
#
# Poissons Ratio (x) = 0.39738 0.35733
# Poissons Ratio (y) = 0.29708 0.02588
# Poissons Ratio (z) = 0.28004 0.02713
#
# Static dielectric constant tensor:
#      x y z
#    x 1.964850 0.017780 0.029380 
#    y 0.017780 1.841060 -0.050650 
#    z 0.029380 -0.050650 1.875550 
# 
# From -- ./inp_files/101114.got.cif
#   From: 2010.05.17/outbox.cif.g08.bks.cpg/sg2_51_cif.got.tgz:101114.got - 2010.06.03 11:33:40.
