data_PCOD9063457
_publ_section_title
;
Structure prediction by ZEFSAII (Michael W. Deem and Ramdas Pophale) SiO2 
 PCOD9063457
Probable space group: P -1
;
_chemical_formula_sum "Si O2"
_cell_formula_units_Z 14
_cell_length_a 8.840770
_cell_length_b 9.562022
_cell_length_c 12.757709
_cell_angle_alpha 52.298418
_cell_angle_beta 49.558717
_cell_angle_gamma 76.885690
_cell_volume 623.069783
_symmetry_space_group_name_H-M "P -1"
_symmetry_group_IT_number 2
_symmetry_cell_setting 'triclinic'
loop_
_space_group_symop_operation_xyz
x,y,z
-x,-y,-z
loop_
_atom_site_type_symbol
_atom_site_label
_atom_site_fract_x
_atom_site_fract_y
_atom_site_fract_z
Si Si1 0.679106 0.261329 0.810867
Si Si2 0.611408 0.980614 0.604441
Si Si3 0.247557 0.082919 0.969869
Si Si4 0.729740 0.629250 0.359670
Si Si5 0.115061 0.714775 0.515473
Si Si6 0.347862 0.394272 0.205838
Si Si7 0.197757 0.055004 0.673644
O O1 0.835542 0.274699 0.636239
O O2 0.683674 0.456099 0.767086
O O3 0.725342 0.125205 0.942495
O O4 0.447350 0.185379 0.902086
O O5 0.546542 0.761479 0.739502
O O6 0.782128 0.011092 0.422364
O O7 0.712770 0.109372 0.595963
O O8 0.403459 0.027936 0.645888
O O9 0.238156 0.203302 0.815320
O O10 0.024544 0.057522 0.133285
O O11 0.500000 0.500000 0.500000
O O12 0.859617 0.480611 0.365039
O O13 0.771633 0.731167 0.406585
O O14 0.891069 0.720128 0.653854
O O15 0.500000 0.500000 0.000000
#
# Coordination Sequence:
#
# PCOD9063457 Si02
#       7
#     2   2   2   2   2   2   2
#     4  11  25  47  72 103 134 186 232 279 336 410
#     4  11  26  45  68 100 143 181 222 281 353 406
#     4  11  25  41  77  97 140 174 240 277 337 402
#     4  12  23  43  72 103 133 176 232 283 335 409
#     4  12  25  48  74  97 139 186 230 278 343 409
#     4  12  29  42  70 103 142 176 232 282 343 404
#     4  11  24  44  69 100 139 181 224 283 346 401
#
# _framework density 22.469393
#
# number of rings (size 3 to 8) (size 9 to 14) (size 15 to 20)
#    0.000    0.571    2.857    3.857   10.000    0.000 
#    0.000    1.429    0.000    0.000    0.000    0.000 
#    0.000    0.000    0.000    0.000    0.000    0.000 
#
# Total GULP energy -78156.309460 kJ/mol
# GULP energy per Si atom -5582.593533 kJ/mol
# Density = 2.241825 g / cm^3
# Si number density = 22.469393 Si / 1000 Ang^3
#
#
#
# Elastic Constant Matrix: (Units=GPa)
#
#
# Indices 1 2 3 4 5 6 
#
# 1 57.6388 27.3991 29.9288 1.6127 0.0243 7.7067
# 2 27.3991 109.0637 33.6998 -1.6185 20.4769 1.1402
# 3 29.9288 33.6998 136.0980 7.6341 -4.0401 -5.2562
# 4 1.6127 -1.6185 7.6341 33.0238 -11.4630 3.2501
# 5 0.0243 20.4769 -4.0401 -11.4630 38.0750 -8.7957
# 6 7.7067 1.1402 -5.2562 3.2501 -8.7957 16.4181
#
#
#
# Elastic Compliance Matrix: (Units=1/GPa)
#
#
# Indices 1 2 3 4 5 6 
#
# 1 0.023454 -0.004078 -0.004717 0.000630 -0.001128 -0.012965
# 2 -0.004078 0.012560 -0.002553 -0.001072 -0.008269 -0.003993
# 3 -0.004717 -0.002553 0.009514 -0.001571 0.003698 0.007730
# 4 0.000630 -0.001072 -0.001571 0.034327 0.010279 -0.002012
# 5 -0.001128 -0.008269 0.003698 0.010279 0.039096 0.021197
# 6 -0.012965 -0.003993 0.007730 -0.002012 0.021197 0.081501
#
#
# Mechanical properties :
#
#
# Convention : Reuss Voigt Hill
#
# Bulk Modulus (GPa) = 43.79912 53.87289 48.83600
# Shear Modulus (GPa) = 21.66773 31.62156 26.64465
#
# Velocity S-wave (km/s) = 3.10872 3.75549 3.44731
# Velocity P-wave (km/s) = 5.69391 6.54470 6.13408
#
# Compressibility (1/GPa) = 0.02283151
#
# Stress axis : x y z
#
# Youngs Moduli (GPa) = 42.63719 79.61473 105.11246
#
# Poissons Ratio (x) = 0.32465 0.49586
# Poissons Ratio (y) = 0.17386 0.26835
# Poissons Ratio (z) = 0.20114 0.20325
#
# Static dielectric constant tensor:
#      x y z
#    x 1.888230 0.037910 -0.022430 
#    y 0.037910 1.701340 0.144170 
#    z -0.022430 0.144170 1.664780 
# 
# From -- ./inp_files/159346.got.cif
#   From: 2010.05.17/outbox.cif.g08.bks.cpg/sg2_80_cif.got.tgz:159346.got - 2010.06.03 11:33:40.
