data_PCOD9063667
_publ_section_title
;
Structure prediction by ZEFSAII (Michael W. Deem and Ramdas Pophale) SiO2 
 PCOD9063667
Probable space group: P -1
;
_chemical_formula_sum "Si O2"
_cell_formula_units_Z 13
_cell_length_a 8.221768
_cell_length_b 15.289973
_cell_length_c 11.257885
_cell_angle_alpha 29.096016
_cell_angle_beta 100.766172
_cell_angle_gamma 85.075737
_cell_volume 576.918739
_symmetry_space_group_name_H-M "P -1"
_symmetry_group_IT_number 2
_symmetry_cell_setting 'triclinic'
loop_
_space_group_symop_operation_xyz
x,y,z
-x,-y,-z
loop_
_atom_site_type_symbol
_atom_site_label
_atom_site_fract_x
_atom_site_fract_y
_atom_site_fract_z
Si Si1 0.174592 0.847643 0.790116
Si Si2 0.232613 0.699316 0.439366
Si Si3 0.574308 0.575432 0.806739
Si Si4 0.228699 0.333651 0.755678
Si Si5 0.521096 0.001024 0.361399
Si Si6 0.500000 0.000000 0.000000
Si Si7 0.850947 0.988945 0.158805
O O1 0.114570 0.896054 0.862737
O O2 0.341188 0.904596 0.743988
O O3 0.260447 0.619080 0.014910
O O4 0.000000 0.000000 0.500000
O O5 0.396708 0.684594 0.561981
O O6 0.299895 0.485005 0.634280
O O7 0.189955 0.869399 0.131589
O O8 0.046199 0.771127 0.411859
O O9 0.617091 0.755936 0.631191
O O10 0.500000 0.500000 0.000000
O O11 0.328609 0.207999 0.799022
O O12 0.000000 0.500000 0.500000
O O13 0.315514 0.149338 0.087810
O O14 0.500000 0.000000 0.500000
O O15 0.340638 0.024058 0.846788
#
# Coordination Sequence:
#
# PCOD9063667 Si02
#       7
#     2   2   2   2   2   1   2
#     4  12  27  48  72 110 149 193 257 315 371 457
#     4  11  24  44  72 103 146 201 239 307 388 439
#     4  12  24  47  77 102 147 198 247 311 383 448
#     4  12  25  45  73 113 151 194 250 312 380 449
#     4  12  26  48  75 107 145 201 254 305 382 458
#     4  12  22  44  70 104 148 184 252 310 364 452
#     4  11  25  43  70 108 145 191 253 305 373 450
#
# _framework density 22.533501999999999
#
# number of rings (size 3 to 8) (size 9 to 14) (size 15 to 20)
#    0.000    0.308    6.154    1.846    2.154    4.308 
#    0.000    0.000    0.000    0.000    0.000    0.000 
#    0.000    0.000    0.000    0.000    0.000    0.000 
#
# Total GULP energy -72367.533230 kJ/mol
# GULP energy per Si atom -5566.733325 kJ/mol
# Density = 2.248221 g / cm^3
# Si number density = 22.533502 Si / 1000 Ang^3
#
#
#
# Elastic Constant Matrix: (Units=GPa)
#
#
# Indices 1 2 3 4 5 6 
#
# 1 32.6557 9.3022 25.4968 -7.1399 22.1525 6.3907
# 2 9.3022 175.6315 63.9053 -18.2274 18.5453 8.6752
# 3 25.4968 63.9053 124.4157 -12.8355 25.9510 1.4898
# 4 -7.1399 -18.2274 -12.8355 56.8309 4.1769 -2.5910
# 5 22.1525 18.5453 25.9510 4.1769 46.8315 -2.3359
# 6 6.3907 8.6752 1.4898 -2.5910 -2.3359 34.7773
#
#
#
# Elastic Compliance Matrix: (Units=1/GPa)
#
#
# Indices 1 2 3 4 5 6 
#
# 1 0.056738 0.003773 -0.007242 0.008032 -0.025643 -0.012181
# 2 0.003773 0.007522 -0.003762 0.002145 -0.002992 -0.002450
# 3 -0.007242 -0.003762 0.011853 0.000759 -0.001635 0.001708
# 4 0.008032 0.002145 0.000759 0.019925 -0.006897 -0.001022
# 5 -0.025643 -0.002992 -0.001635 -0.006897 0.036562 0.007471
# 6 -0.012181 -0.002450 0.001708 -0.001022 0.007471 0.031956
#
#
# Mechanical properties :
#
#
# Convention : Reuss Voigt Hill
#
# Bulk Modulus (GPa) = 16.22046 58.90128 37.56087
# Shear Modulus (GPa) = 25.05394 43.28784 34.17089
#
# Velocity S-wave (km/s) = 3.33806 4.38773 3.89838
# Velocity P-wave (km/s) = 4.69797 7.20178 6.08016
#
# Compressibility (1/GPa) = 0.06165054
#
# Stress axis : x y z
#
# Youngs Moduli (GPa) = 17.62494 132.93524 84.36650
#
# Poissons Ratio (x) = -0.50157 0.61100
# Poissons Ratio (y) = -0.06650 0.31741
# Poissons Ratio (z) = 0.12764 0.50014
#
# Static dielectric constant tensor:
#      x y z
#    x 1.924040 -0.040800 -0.005150 
#    y -0.040800 1.821940 0.001300 
#    z -0.005150 0.001300 1.857030 
# 
# From -- ./inp_files/172605.got.cif
#   From: 2010.05.17/outbox.cif.g08.bks.cpg/sg2_87_cif.got.tgz:172605.got - 2010.06.03 11:33:40.
