data_PCOD9063328
_publ_section_title
;
Structure prediction by ZEFSAII (Michael W. Deem and Ramdas Pophale) SiO2 
 PCOD9063328
Probable space group: P -1
;
_chemical_formula_sum "Si O2"
_cell_formula_units_Z 14
_cell_length_a 9.551483
_cell_length_b 27.028377
_cell_length_c 9.574514
_cell_angle_alpha 28.761652
_cell_angle_beta 150.915473
_cell_angle_gamma 151.884619
_cell_volume 502.148753
_symmetry_space_group_name_H-M "P -1"
_symmetry_group_IT_number 2
_symmetry_cell_setting 'triclinic'
loop_
_space_group_symop_operation_xyz
x,y,z
-x,-y,-z
loop_
_atom_site_type_symbol
_atom_site_label
_atom_site_fract_x
_atom_site_fract_y
_atom_site_fract_z
Si Si1 0.037766 0.120993 0.599278
Si Si2 0.530111 0.996371 0.788120
Si Si3 0.991795 0.714346 0.609161
Si Si4 0.371587 0.270429 0.259961
Si Si5 0.182542 0.489970 0.818390
Si Si6 0.807243 0.159409 0.862503
Si Si7 0.641305 0.405925 0.844044
O O1 0.320106 0.083891 0.941207
O O2 0.956047 0.170587 0.542945
O O3 0.164469 0.225707 0.333473
O O4 0.716594 0.008635 0.533126
O O5 0.272109 0.933548 0.850354
O O6 0.806663 0.108620 0.836822
O O7 0.630312 0.661315 0.355276
O O8 0.978826 0.622752 0.945514
O O9 0.274103 0.705847 0.784260
O O10 0.688445 0.395933 0.253753
O O11 0.503962 0.182111 0.561176
O O12 0.155430 0.271408 0.938035
O O13 0.000000 0.500000 0.500000
O O14 0.500000 0.500000 0.000000
O O15 0.500000 0.500000 0.500000
O O16 0.000000 0.500000 0.000000
#
# Coordination Sequence:
#
# PCOD9063328 Si02
#       7
#     2   2   2   2   2   2   2
#     4  10  18  27  45  67  95 125 161 200 239 283
#     4   9  17  27  41  62  84 122 172 208 235 274
#     4  11  20  33  52  73 100 134 161 203 247 286
#     4  10  19  30  42  61  94 135 172 201 222 266
#     4  12  23  32  46  71 105 141 172 200 229 276
#     4   9  17  29  42  55  84 129 175 209 233 257
#     4   9  20  37  54  70  90 125 166 207 259 303
#
# _framework density 27.880185999999998
#
# number of rings (size 3 to 8) (size 9 to 14) (size 15 to 20)
#    0.000    2.000    1.429    3.429    4.000    3.429 
#    0.000    0.000    0.000    0.000    0.000    0.000 
#    0.000    0.000    0.000  324.000    0.000    0.000 
#
# Total GULP energy -77975.895247 kJ/mol
# GULP energy per Si atom -5569.706803 kJ/mol
# Density = 2.781673 g / cm^3
# Si number density = 27.880186 Si / 1000 Ang^3
#
#
#
# Elastic Constant Matrix: (Units=GPa)
#
#
# Indices 1 2 3 4 5 6 
#
# 1 136.4821 31.8463 31.0041 7.7542 -4.2685 -20.3860
# 2 31.8463 138.6825 60.0566 13.2907 5.8383 -47.9765
# 3 31.0041 60.0566 191.8262 42.9352 24.3502 -15.3319
# 4 7.7542 13.2907 42.9352 57.0707 -8.5076 -3.4072
# 5 -4.2685 5.8383 24.3502 -8.5076 45.0913 -9.9030
# 6 -20.3860 -47.9765 -15.3319 -3.4072 -9.9030 37.0265
#
#
#
# Elastic Compliance Matrix: (Units=1/GPa)
#
#
# Indices 1 2 3 4 5 6 
#
# 1 0.008447 0.000425 -0.001599 0.000714 0.002926 0.005387
# 2 0.000425 0.015597 -0.004326 0.001523 0.005069 0.020149
# 3 -0.001599 -0.004326 0.008755 -0.006681 -0.006739 -0.005277
# 4 0.000714 0.001523 -0.006681 0.023664 0.008854 0.004145
# 5 0.002926 0.005069 -0.006739 0.008854 0.030246 0.014293
# 6 0.005387 0.020149 -0.005277 0.004145 0.014293 0.058100
#
#
# Mechanical properties :
#
#
# Convention : Reuss Voigt Hill
#
# Bulk Modulus (GPa) = 45.87307 79.20054 62.53680
# Shear Modulus (GPa) = 30.66055 50.77661 40.71858
#
# Velocity S-wave (km/s) = 3.31981 4.27223 3.82577
# Velocity P-wave (km/s) = 5.58428 7.26671 6.48033
#
# Compressibility (1/GPa) = 0.02179928
#
# Stress axis : x y z
#
# Youngs Moduli (GPa) = 118.38995 64.11296 114.22269
#
# Poissons Ratio (x) = -0.02724 0.18262
# Poissons Ratio (y) = -0.05029 0.49410
# Poissons Ratio (z) = 0.18929 0.27734
#
# Static dielectric constant tensor:
#      x y z
#    x 2.147320 0.216980 0.078860 
#    y 0.216980 2.418990 0.007070 
#    z 0.078860 0.007070 2.116790 
# 
# From -- ./inp_files/432912.got.cif
#   From: 2010.05.17/outbox.cif.g08.bks.cpg/sg2_217_cif.got.tgz:432912.got - 2010.06.03 11:33:40.
