data_PCOD9063137
_publ_section_title
;
Structure prediction by ZEFSAII (Michael W. Deem and Ramdas Pophale) SiO2 
 PCOD9063137
Probable space group: P -1
;
_chemical_formula_sum "Si O2"
_cell_formula_units_Z 16
_cell_length_a 8.329851
_cell_length_b 16.391203
_cell_length_c 13.734892
_cell_angle_alpha 152.936069
_cell_angle_beta 70.147093
_cell_angle_gamma 123.401612
_cell_volume 653.915498
_symmetry_space_group_name_H-M "P -1"
_symmetry_group_IT_number 2
_symmetry_cell_setting 'triclinic'
loop_
_space_group_symop_operation_xyz
x,y,z
-x,-y,-z
loop_
_atom_site_type_symbol
_atom_site_label
_atom_site_fract_x
_atom_site_fract_y
_atom_site_fract_z
Si Si1 0.293610 0.761586 0.301701
Si Si2 0.322121 0.473371 0.441170
Si Si3 0.109046 0.701207 0.962356
Si Si4 0.046723 0.749663 0.566979
Si Si5 0.797160 0.768795 0.994489
Si Si6 0.470262 0.355178 0.722192
Si Si7 0.471378 0.865802 0.696251
Si Si8 0.936016 0.700987 0.208403
O O1 0.373398 0.675512 0.279872
O O2 0.109357 0.797438 0.359558
O O3 0.500000 0.000000 0.500000
O O4 0.210315 0.565216 0.032987
O O5 0.500000 0.500000 0.500000
O O6 0.284615 0.328117 0.199399
O O7 0.395447 0.715325 0.647693
O O8 0.112136 0.345431 0.411390
O O9 0.044472 0.454612 0.704889
O O10 0.967111 0.722064 0.937082
O O11 0.050758 0.746739 0.128796
O O12 0.347278 0.876918 0.067893
O O13 0.268966 0.820434 0.637142
O O14 0.091795 0.972505 0.751666
O O15 0.605508 0.615512 0.945520
O O16 0.437380 0.234547 0.498952
O O17 0.241233 0.253415 0.705151
#
# Coordination Sequence:
#
# PCOD9063137 Si02
#       8
#     2   2   2   2   2   2   2   2
#     4  11  24  43  71 104 142 198 262 313 380 446
#     4  11  25  51  79 117 148 194 252 306 390 465
#     4  12  26  50  74 113 153 198 258 306 385 455
#     4  12  26  49  81 109 153 198 246 315 385 456
#     4  11  26  50  76 110 154 196 250 315 381 455
#     4  11  24  53  73 108 161 203 261 325 377 450
#     4  11  26  48  76 112 150 197 254 315 383 457
#     4  11  26  48  72 107 153 204 260 313 376 455
#
# _framework density 24.467993
#
# number of rings (size 3 to 8) (size 9 to 14) (size 15 to 20)
#    0.000    0.750    3.750    2.625    1.750    6.500 
#   15.750    0.000    0.000    0.750    0.000    0.000 
#    0.000    0.000    0.000    0.000    0.000    0.000 
#
# Total GULP energy -89473.539938 kJ/mol
# GULP energy per Si atom -5592.096246 kJ/mol
# Density = 2.441230 g / cm^3
# Si number density = 24.467993 Si / 1000 Ang^3
#
#
#
# Elastic Constant Matrix: (Units=GPa)
#
#
# Indices 1 2 3 4 5 6 
#
# 1 107.1851 50.5318 56.8302 6.4166 25.0353 9.3237
# 2 50.5318 115.8722 73.3102 14.1073 2.1792 -3.9702
# 3 56.8302 73.3102 153.9547 38.9944 14.8981 -3.1763
# 4 6.4166 14.1073 38.9944 43.9857 -1.7532 4.9561
# 5 25.0353 2.1792 14.8981 -1.7532 44.7943 5.7975
# 6 9.3237 -3.9702 -3.1763 4.9561 5.7975 33.7259
#
#
#
# Elastic Compliance Matrix: (Units=1/GPa)
#
#
# Indices 1 2 3 4 5 6 
#
# 1 0.015119 -0.004760 -0.003445 0.002609 -0.006408 -0.004346
# 2 -0.004760 0.014059 -0.005516 0.001032 0.003635 0.001675
# 3 -0.003445 -0.005516 0.013313 -0.010056 -0.003089 0.003566
# 4 0.002609 0.001032 -0.010056 0.031875 0.003978 -0.006915
# 5 -0.006408 0.003635 -0.003089 0.003978 0.027349 -0.003378
# 6 -0.004346 0.001675 0.003566 -0.006915 -0.003378 0.032982
#
#
# Mechanical properties :
#
#
# Convention : Reuss Voigt Hill
#
# Bulk Modulus (GPa) = 66.44720 82.03961 74.24341
# Shear Modulus (GPa) = 29.91216 37.59050 33.75133
#
# Velocity S-wave (km/s) = 3.50022 3.92384 3.71807
# Velocity P-wave (km/s) = 6.59933 7.35736 6.98863
#
# Compressibility (1/GPa) = 0.01504954
#
# Stress axis : x y z
#
# Youngs Moduli (GPa) = 66.14345 71.12661 75.11375
#
# Poissons Ratio (x) = 0.33856 0.25875
# Poissons Ratio (y) = 0.31484 0.41434
# Poissons Ratio (z) = 0.22785 0.39235
#
# Static dielectric constant tensor:
#      x y z
#    x 1.943280 0.033610 -0.045090 
#    y 0.033610 2.018380 -0.010880 
#    z -0.045090 -0.010880 1.979250 
# 
# From -- ./inp_files/505846.got.cif
#   From: 2010.05.17/outbox.cif.g08.bks.cpg/sg2_253_cif.got.tgz:505846.got - 2010.06.03 11:33:40.
