data_PCOD9063663
_publ_section_title
;
Structure prediction by ZEFSAII (Michael W. Deem and Ramdas Pophale) SiO2 
 PCOD9063663
Probable space group: P -1
;
_chemical_formula_sum "Si O2"
_cell_formula_units_Z 16
_cell_length_a 9.153802
_cell_length_b 11.268986
_cell_length_c 14.346402
_cell_angle_alpha 149.374473
_cell_angle_beta 84.378101
_cell_angle_gamma 85.034737
_cell_volume 706.379177
_symmetry_space_group_name_H-M "P -1"
_symmetry_group_IT_number 2
_symmetry_cell_setting 'triclinic'
loop_
_space_group_symop_operation_xyz
x,y,z
-x,-y,-z
loop_
_atom_site_type_symbol
_atom_site_label
_atom_site_fract_x
_atom_site_fract_y
_atom_site_fract_z
Si Si1 0.480106 0.763676 0.633413
Si Si2 0.262812 0.488826 0.967169
Si Si3 0.957698 0.795971 0.803094
Si Si4 0.358975 0.155652 0.048420
Si Si5 0.542412 0.491873 0.849582
Si Si6 0.972779 0.015214 0.622862
Si Si7 0.176361 0.237808 0.403899
Si Si8 0.308133 0.923638 0.562938
O O1 0.500000 0.500000 0.500000
O O2 0.642236 0.818060 0.665190
O O3 0.424930 0.800631 0.555769
O O4 0.352526 0.971115 0.841187
O O5 0.360292 0.569160 0.935066
O O6 0.262146 0.218436 0.761051
O O7 0.369670 0.458236 0.031954
O O8 0.103241 0.702999 0.146529
O O9 0.805522 0.755132 0.830128
O O10 0.905575 0.859203 0.741467
O O11 0.096963 0.534616 0.615883
O O12 0.000000 0.000000 0.000000
O O13 0.410731 0.368909 0.143963
O O14 0.500000 0.000000 0.000000
O O15 0.613544 0.204112 0.623833
O O16 0.857926 0.879906 0.578077
O O17 0.000000 0.000000 0.500000
O O18 0.144525 0.882417 0.562868
#
# Coordination Sequence:
#
# PCOD9063663 Si02
#       8
#     2   2   2   2   2   2   2   2
#     4  12  26  46  74 109 147 190 242 294 363 443
#     4  11  25  46  71 102 144 183 246 299 356 424
#     4  11  26  46  74 106 145 191 241 296 369 429
#     4  12  23  44  72 103 146 187 234 296 365 426
#     4  11  24  44  72 103 139 190 237 299 359 425
#     4  12  27  49  75 104 149 194 241 304 368 422
#     4  11  27  49  71 105 151 187 239 307 357 429
#     4  12  26  46  74 104 143 190 245 300 359 434
#
# _framework density 22.650725000000001
#
# number of rings (size 3 to 8) (size 9 to 14) (size 15 to 20)
#    0.000    0.500    3.750    3.750    7.000    1.000 
#    2.250    0.000    0.000    0.000    0.000    0.000 
#    0.000    0.000    0.000    0.000    0.000    0.000 
#
# Total GULP energy -89556.375071 kJ/mol
# GULP energy per Si atom -5597.273442 kJ/mol
# Density = 2.259917 g / cm^3
# Si number density = 22.650725 Si / 1000 Ang^3
#
#
#
# Elastic Constant Matrix: (Units=GPa)
#
#
# Indices 1 2 3 4 5 6 
#
# 1 78.3392 27.9632 13.9171 -5.2219 -11.0736 5.9445
# 2 27.9632 92.7964 10.2400 1.0533 2.7350 22.5251
# 3 13.9171 10.2400 123.8526 -5.5578 -3.8368 8.8033
# 4 -5.2219 1.0533 -5.5578 32.2963 4.1784 -7.9844
# 5 -11.0736 2.7350 -3.8368 4.1784 42.6721 -5.1707
# 6 5.9445 22.5251 8.8033 -7.9844 -5.1707 27.6107
#
#
#
# Elastic Compliance Matrix: (Units=1/GPa)
#
#
# Indices 1 2 3 4 5 6 
#
# 1 0.015490 -0.005438 -0.001256 0.002665 0.004369 0.003091
# 2 -0.005438 0.015911 -0.000036 -0.004325 -0.003675 -0.013737
# 3 -0.001256 -0.000036 0.008406 0.000698 0.000102 -0.002160
# 4 0.002665 -0.004325 0.000698 0.034896 -0.000851 0.012664
# 5 0.004369 -0.003675 0.000102 -0.000851 0.025695 0.006591
# 6 0.003091 -0.013737 -0.002160 0.012664 0.006591 0.052344
#
#
# Mechanical properties :
#
#
# Convention : Reuss Voigt Hill
#
# Bulk Modulus (GPa) = 37.95513 44.35876 41.15694
# Shear Modulus (GPa) = 28.57387 36.70701 32.64044
#
# Velocity S-wave (km/s) = 3.55561 4.02999 3.80021
# Velocity P-wave (km/s) = 5.80083 6.42501 6.12088
#
# Compressibility (1/GPa) = 0.02634690
#
# Stress axis : x y z
#
# Youngs Moduli (GPa) = 64.55781 62.84982 118.96028
#
# Poissons Ratio (x) = 0.34181 0.14938
# Poissons Ratio (y) = 0.35110 0.00427
# Poissons Ratio (z) = 0.08107 0.00226
#
# Static dielectric constant tensor:
#      x y z
#    x 1.815990 0.014020 0.016560 
#    y 0.014020 1.888100 -0.032130 
#    z 0.016560 -0.032130 1.910510 
# 
# From -- ./inp_files/501136.got.cif
#   From: 2010.05.17/outbox.cif.g08.bks.cpg/sg2_251_cif.got.tgz:501136.got - 2010.06.03 11:33:40.
