data_PCOD9063771
_publ_section_title
;
Structure prediction by ZEFSAII (Michael W. Deem and Ramdas Pophale) SiO2 
 PCOD9063771
Probable space group: P -1
;
_chemical_formula_sum "Si O2"
_cell_formula_units_Z 16
_cell_length_a 11.681700
_cell_length_b 9.783791
_cell_length_c 18.008506
_cell_angle_alpha 128.859204
_cell_angle_beta 138.332170
_cell_angle_gamma 83.525048
_cell_volume 773.737208
_symmetry_space_group_name_H-M "P -1"
_symmetry_group_IT_number 2
_symmetry_cell_setting 'triclinic'
loop_
_space_group_symop_operation_xyz
x,y,z
-x,-y,-z
loop_
_atom_site_type_symbol
_atom_site_label
_atom_site_fract_x
_atom_site_fract_y
_atom_site_fract_z
Si Si1 0.766431 0.142127 0.701576
Si Si2 0.062611 0.502814 0.446872
Si Si3 0.235697 0.643027 0.081773
Si Si4 0.610961 0.599557 0.843031
Si Si5 0.548213 0.045657 0.850933
Si Si6 0.768961 0.738792 0.582667
Si Si7 0.024801 0.928083 0.907489
Si Si8 0.570000 0.232760 0.073483
O O1 0.789640 0.218177 0.824243
O O2 0.500000 0.000000 0.500000
O O3 0.808119 0.965343 0.653951
O O4 0.971617 0.395704 0.845892
O O5 0.043109 0.279454 0.353637
O O6 0.000000 0.500000 0.500000
O O7 0.855092 0.445102 0.279708
O O8 0.323052 0.756731 0.639663
O O9 0.346087 0.556367 0.150401
O O10 0.395386 0.817148 0.151108
O O11 0.450403 0.469217 0.647050
O O12 0.847652 0.846926 0.008896
O O13 0.515332 0.668731 0.882135
O O14 0.788477 0.102814 0.005897
O O15 0.487189 0.143945 0.919080
O O16 0.779903 0.725871 0.673758
O O17 0.000000 0.000000 0.000000
O O18 0.500000 0.000000 0.000000
#
# Coordination Sequence:
#
# PCOD9063771 Si02
#       8
#     2   2   2   2   2   2   2   2
#     4  11  24  44  73  91 137 195 229 280 342 423
#     4  12  22  41  71 104 131 178 233 291 347 405
#     4  11  27  47  64 103 145 182 235 281 354 419
#     4  12  24  45  72 101 135 186 235 281 349 426
#     4  12  26  43  68 104 146 179 229 297 344 416
#     4  12  22  42  71 100 127 181 237 282 342 406
#     4  12  25  42  67 102 138 180 231 289 344 405
#     4  12  22  43  73 101 136 181 231 290 352 405
#
# _framework density 20.678856
#
# number of rings (size 3 to 8) (size 9 to 14) (size 15 to 20)
#    0.000    0.250    8.750    0.750    1.750    2.000 
#    2.250    0.625    0.000    0.000    0.000    0.000 
#    0.000    0.000    0.000    0.000    0.000    0.000 
#
# Total GULP energy -89286.173709 kJ/mol
# GULP energy per Si atom -5580.385857 kJ/mol
# Density = 2.063179 g / cm^3
# Si number density = 20.678856 Si / 1000 Ang^3
#
#
#
# Elastic Constant Matrix: (Units=GPa)
#
#
# Indices 1 2 3 4 5 6 
#
# 1 123.6681 50.2160 41.8873 14.4881 -15.8142 -3.4497
# 2 50.2160 98.5787 33.8628 -0.4386 1.6056 0.4161
# 3 41.8873 33.8628 110.1860 0.8088 0.6525 -4.5551
# 4 14.4881 -0.4386 0.8088 25.9031 -4.9956 -3.6190
# 5 -15.8142 1.6056 0.6525 -4.9956 36.8157 6.5672
# 6 -3.4497 0.4161 -4.5551 -3.6190 6.5672 35.1691
#
#
#
# Elastic Compliance Matrix: (Units=1/GPa)
#
#
# Indices 1 2 3 4 5 6 
#
# 1 0.012759 -0.005519 -0.003166 -0.006252 0.005050 -0.000680
# 2 -0.005519 0.013746 -0.002142 0.002873 -0.002503 -0.000218
# 3 -0.003166 -0.002142 0.011002 0.001308 -0.001564 0.001566
# 4 -0.006252 0.002873 0.001308 0.043060 0.002383 0.003508
# 5 0.005050 -0.002503 -0.001564 0.002383 0.030714 -0.005168
# 6 -0.000680 -0.000218 0.001566 0.003508 -0.005168 0.029899
#
#
# Mechanical properties :
#
#
# Convention : Reuss Voigt Hill
#
# Bulk Modulus (GPa) = 63.08103 64.92945 64.00524
# Shear Modulus (GPa) = 29.74128 33.34201 31.54164
#
# Velocity S-wave (km/s) = 3.79654 4.01979 3.90976
# Velocity P-wave (km/s) = 7.05617 7.28094 7.16944
#
# Compressibility (1/GPa) = 0.01585263
#
# Stress axis : x y z
#
# Youngs Moduli (GPa) = 78.37693 72.75024 90.89400
#
# Poissons Ratio (x) = 0.40150 0.28780
# Poissons Ratio (y) = 0.43255 0.19466
# Poissons Ratio (z) = 0.24817 0.15580
#
# Static dielectric constant tensor:
#      x y z
#    x 1.745620 -0.026610 -0.012950 
#    y -0.026610 1.719890 -0.049340 
#    z -0.012950 -0.049340 1.934880 
# 
# From -- ./inp_files/566965.got.cif
#   From: 2010.05.17/outbox.cif.g08.bks.cpg/sg2_284_cif.got.tgz:566965.got - 2010.06.03 11:33:40.
