data_PCOD9063393
_publ_section_title
;
Structure prediction by ZEFSAII (Michael W. Deem and Ramdas Pophale) SiO2 
 PCOD9063393
Probable space group: P -1
;
_chemical_formula_sum "Si O2"
_cell_formula_units_Z 14
_cell_length_a 5.918414
_cell_length_b 9.536459
_cell_length_c 18.104108
_cell_angle_alpha 133.416497
_cell_angle_beta 59.025904
_cell_angle_gamma 122.739915
_cell_volume 606.978950
_symmetry_space_group_name_H-M "P -1"
_symmetry_group_IT_number 2
_symmetry_cell_setting 'triclinic'
loop_
_space_group_symop_operation_xyz
x,y,z
-x,-y,-z
loop_
_atom_site_type_symbol
_atom_site_label
_atom_site_fract_x
_atom_site_fract_y
_atom_site_fract_z
Si Si1 0.208305 0.031671 0.581096
Si Si2 0.407554 0.175841 0.752374
Si Si3 0.699119 0.911384 0.106444
Si Si4 0.186608 0.747419 0.901940
Si Si5 0.986165 0.624237 0.315173
Si Si6 0.679677 0.413236 0.037758
Si Si7 0.157056 0.429381 0.521048
O O1 0.209904 0.106857 0.692050
O O2 0.201345 0.226518 0.605257
O O3 0.500000 0.000000 0.500000
O O4 0.969554 0.816592 0.542544
O O5 0.306954 0.033707 0.787721
O O6 0.416298 0.395342 0.859422
O O7 0.715648 0.211769 0.685915
O O8 0.675570 0.090963 0.124142
O O9 0.446006 0.718927 0.058617
O O10 0.957279 0.834894 0.010535
O O11 0.069706 0.537262 0.800797
O O12 0.378003 0.719659 0.926309
O O13 0.953204 0.514663 0.360578
O O14 0.000000 0.500000 0.000000
O O15 0.500000 0.500000 0.500000
O O16 0.000000 0.500000 0.500000
#
# Coordination Sequence:
#
# PCOD9063393 Si02
#       7
#     2   2   2   2   2   2   2
#     4  12  27  51  79 109 148 203 265 322 390 472
#     4  12  25  43  75 106 142 198 261 305 378 467
#     4  11  25  42  68 105 151 188 240 310 371 444
#     4  11  24  44  67 105 148 191 240 309 376 443
#     4  12  26  48  77 106 147 200 260 315 385 474
#     4  12  22  43  68 104 145 199 248 301 371 454
#     4  12  30  52  79 115 158 199 256 337 404 462
#
# _framework density 23.065051
#
# number of rings (size 3 to 8) (size 9 to 14) (size 15 to 20)
#    0.000    0.286    5.714    3.000    4.000    0.000 
#    0.000    0.000    0.000    0.000    0.000    0.000 
#    0.000    0.000    0.000    0.000    0.000    0.000 
#
# Total GULP energy -78158.827414 kJ/mol
# GULP energy per Si atom -5582.773387 kJ/mol
# Density = 2.301255 g / cm^3
# Si number density = 23.065051 Si / 1000 Ang^3
#
#
#
# Elastic Constant Matrix: (Units=GPa)
#
#
# Indices 1 2 3 4 5 6 
#
# 1 82.7658 36.8217 33.8855 -9.8196 19.8527 -14.5966
# 2 36.8217 103.6190 36.4154 -13.7060 15.7428 -18.9393
# 3 33.8855 36.4154 62.6233 -10.7775 19.1742 -13.2753
# 4 -9.8196 -13.7060 -10.7775 40.5942 0.9224 18.7349
# 5 19.8527 15.7428 19.1742 0.9224 46.9498 -11.5059
# 6 -14.5966 -18.9393 -13.2753 18.7349 -11.5059 48.6020
#
#
#
# Elastic Compliance Matrix: (Units=1/GPa)
#
#
# Indices 1 2 3 4 5 6 
#
# 1 0.017049 -0.003104 -0.005936 0.001103 -0.003513 0.001032
# 2 -0.003104 0.013219 -0.005159 0.001354 -0.000508 0.002168
# 3 -0.005936 -0.005159 0.024592 0.003367 -0.005808 0.000251
# 4 0.001103 0.001354 0.003367 0.031871 -0.005835 -0.011888
# 5 -0.003513 -0.000508 -0.005808 -0.005835 0.026855 0.005768
# 6 0.001032 0.002168 0.000251 -0.011888 0.005768 0.027747
#
#
# Mechanical properties :
#
#
# Convention : Reuss Voigt Hill
#
# Bulk Modulus (GPa) = 37.79083 51.47261 44.63172
# Shear Modulus (GPa) = 28.00298 36.68823 32.34560
#
# Velocity S-wave (km/s) = 3.48816 3.99261 3.74888
# Velocity P-wave (km/s) = 5.71340 6.60449 6.17504
#
# Compressibility (1/GPa) = 0.02646145
#
# Stress axis : x y z
#
# Youngs Moduli (GPa) = 58.65408 75.64590 40.66443
#
# Poissons Ratio (x) = 0.23481 0.24138
# Poissons Ratio (y) = 0.18207 0.20980
# Poissons Ratio (z) = 0.34817 0.39028
#
# Static dielectric constant tensor:
#      x y z
#    x 1.999590 -0.019370 -0.040720 
#    y -0.019370 1.875710 -0.013910 
#    z -0.040720 -0.013910 1.877320 
# 
# From -- ./inp_files/28156.got.cif
#   From: 2010.05.17/outbox.cif.g08.bks.cpg/sg2_15_cif.got.tgz:28156.got - 2010.06.03 11:33:40.
