data_PCOD9063975
_publ_section_title
;
Structure prediction by ZEFSAII (Michael W. Deem and Ramdas Pophale) SiO2 
 PCOD9063975
Probable space group: P -1
;
_chemical_formula_sum "Si O2"
_cell_formula_units_Z 16
_cell_length_a 5.143145
_cell_length_b 24.600597
_cell_length_c 25.194811
_cell_angle_alpha 168.820513
_cell_angle_beta 92.091456
_cell_angle_gamma 89.013970
_cell_volume 614.790473
_symmetry_space_group_name_H-M "P -1"
_symmetry_group_IT_number 2
_symmetry_cell_setting 'triclinic'
loop_
_space_group_symop_operation_xyz
x,y,z
-x,-y,-z
loop_
_atom_site_type_symbol
_atom_site_label
_atom_site_fract_x
_atom_site_fract_y
_atom_site_fract_z
Si Si1 0.797299 0.932818 0.643809
Si Si2 0.904702 0.646677 0.527084
Si Si3 0.931442 0.654759 0.047439
Si Si4 0.779278 0.348028 0.130640
Si Si5 0.573329 0.945196 0.081556
Si Si6 0.576683 0.301091 0.263607
Si Si7 0.239085 0.957384 0.422147
Si Si8 0.412059 0.882417 0.507397
O O1 0.838031 0.607812 0.340099
O O2 0.503247 0.907999 0.593441
O O3 0.952030 0.142745 0.804909
O O4 0.845405 0.076556 0.838793
O O5 0.898290 0.459596 0.294277
O O6 0.666747 0.851882 0.726668
O O7 0.862518 0.430733 0.369500
O O8 0.165914 0.851946 0.725486
O O9 0.134165 0.675644 0.118043
O O10 0.690264 0.821802 0.225445
O O11 0.808408 0.361209 0.742689
O O12 0.480396 0.250118 0.053753
O O13 0.561137 0.739188 0.833539
O O14 0.500000 0.500000 0.500000
O O15 0.500000 0.000000 0.000000
O O16 0.500000 0.000000 0.500000
O O17 0.333764 0.160555 0.567716
O O18 0.000000 0.000000 0.500000
#
# Coordination Sequence:
#
# PCOD9063975 Si02
#       8
#     2   2   2   2   2   2   2   2
#     4  11  24  45  68 107 138 192 238 306 364 440
#     4  11  26  49  73 108 148 193 247 305 365 441
#     4  11  25  46  72 107 147 190 242 302 364 440
#     4  11  24  46  70 107 140 193 242 304 366 438
#     4  11  26  49  73 108 148 193 247 305 365 441
#     4  11  24  47  74 111 148 198 246 304 368 438
#     4  11  24  48  76 111 146 197 244 300 366 438
#     4  11  25  46  72 107 147 190 242 302 364 440
#
# _framework density 26.025126
#
# number of rings (size 3 to 8) (size 9 to 14) (size 15 to 20)
#    0.000    1.000    3.750    1.500    0.000   12.000 
#    4.500    0.000    0.000    0.000    0.000    0.000 
#    0.000    0.000    0.000    0.000    0.000    0.000 
#
# Total GULP energy -89376.916529 kJ/mol
# GULP energy per Si atom -5586.057283 kJ/mol
# Density = 2.596589 g / cm^3
# Si number density = 26.025126 Si / 1000 Ang^3
#
#
#
# Elastic Constant Matrix: (Units=GPa)
#
#
# Indices 1 2 3 4 5 6 
#
# 1 148.0093 33.1117 55.0404 -12.7307 29.5365 20.4740
# 2 33.1117 121.7119 28.6472 -11.7754 14.3845 27.7884
# 3 55.0404 28.6472 168.7133 -14.6750 26.0063 6.5794
# 4 -12.7307 -11.7754 -14.6750 54.7079 4.8606 9.2597
# 5 29.5365 14.3845 26.0063 4.8606 44.2778 9.4591
# 6 20.4740 27.7884 6.5794 9.2597 9.4591 39.2341
#
#
#
# Elastic Compliance Matrix: (Units=1/GPa)
#
#
# Indices 1 2 3 4 5 6 
#
# 1 0.009151 -0.000444 -0.001874 0.002543 -0.004348 -0.003698
# 2 -0.000444 0.010810 -0.000871 0.003427 -0.001426 -0.007744
# 3 -0.001874 -0.000871 0.007254 0.001463 -0.003053 0.000769
# 4 0.002543 0.003427 0.001463 0.021755 -0.004329 -0.008091
# 5 -0.004348 -0.001426 -0.003053 -0.004329 0.028665 -0.002098
# 6 -0.003698 -0.007744 0.000769 -0.008091 -0.002098 0.035189
#
#
# Mechanical properties :
#
#
# Convention : Reuss Voigt Hill
#
# Bulk Modulus (GPa) = 47.99095 74.67034 61.33065
# Shear Modulus (GPa) = 39.63610 49.08631 44.36120
#
# Velocity S-wave (km/s) = 3.90679 4.34765 4.13310
# Velocity P-wave (km/s) = 6.23145 7.34552 6.81130
#
# Compressibility (1/GPa) = 0.02083726
#
# Stress axis : x y z
#
# Youngs Moduli (GPa) = 109.28114 92.50718 137.84830
#
# Poissons Ratio (x) = 0.04107 0.25835
# Poissons Ratio (y) = 0.04852 0.12003
# Poissons Ratio (z) = 0.20481 0.08055
#
# Static dielectric constant tensor:
#      x y z
#    x 2.175010 -0.006820 -0.063880 
#    y -0.006820 2.108410 0.052210 
#    z -0.063880 0.052210 2.016180 
# 
# From -- ./inp_files/616030.got.cif
#   From: 2010.05.17/outbox.cif.g08.bks.cpg/sg2_309_cif.got.tgz:616030.got - 2010.06.03 11:33:40.
