data_PCOD9063219
_publ_section_title
;
Structure prediction by ZEFSAII (Michael W. Deem and Ramdas Pophale) SiO2 
 PCOD9063219
Probable space group: P -1
;
_chemical_formula_sum "Si O2"
_cell_formula_units_Z 14
_cell_length_a 8.622806
_cell_length_b 9.377475
_cell_length_c 15.059584
_cell_angle_alpha 108.574298
_cell_angle_beta 65.160935
_cell_angle_gamma 148.903377
_cell_volume 568.543700
_symmetry_space_group_name_H-M "P -1"
_symmetry_group_IT_number 2
_symmetry_cell_setting 'triclinic'
loop_
_space_group_symop_operation_xyz
x,y,z
-x,-y,-z
loop_
_atom_site_type_symbol
_atom_site_label
_atom_site_fract_x
_atom_site_fract_y
_atom_site_fract_z
Si Si1 0.241970 0.567021 0.003719
Si Si2 0.571174 0.305903 0.716962
Si Si3 0.611299 0.504993 0.219046
Si Si4 0.730720 0.982941 0.454276
Si Si5 0.935962 0.563723 0.412182
Si Si6 0.181098 0.979967 0.925549
Si Si7 0.889795 0.030358 0.674969
O O1 0.349909 0.531905 0.894521
O O2 0.551181 0.861380 0.034179
O O3 0.000000 0.500000 0.000000
O O4 0.064125 0.337616 0.075442
O O5 0.612237 0.514357 0.732979
O O6 0.395586 0.109945 0.633864
O O7 0.893089 0.452701 0.674138
O O8 0.352750 0.125295 0.819485
O O9 0.935757 0.804272 0.241213
O O10 0.464848 0.271837 0.273305
O O11 0.957156 0.006251 0.409848
O O12 0.430246 0.730628 0.539652
O O13 0.908438 0.264207 0.498187
O O14 0.027817 0.771157 0.368323
O O15 0.000000 0.000000 0.000000
#
# Coordination Sequence:
#
# PCOD9063219 Si02
#       7
#     2   2   2   2   2   2   2
#     4  12  28  47  77 104 152 184 243 299 362 425
#     4  11  27  44  73 101 144 182 238 288 359 421
#     4  11  25  45  68 102 142 188 228 287 364 422
#     4  11  24  45  66 102 140 185 227 294 356 416
#     4  12  25  43  71 102 137 182 241 290 346 419
#     4  12  27  50  75 111 144 191 239 297 360 436
#     4  11  24  43  72  99 138 185 234 289 352 425
#
# _framework density 24.624319
#
# number of rings (size 3 to 8) (size 9 to 14) (size 15 to 20)
#    0.000    0.571    1.429    6.000    6.000    4.571 
#    0.000    0.000    0.000    0.000    0.000    0.000 
#    0.000    0.000    0.000    0.000    0.000    0.000 
#
# Total GULP energy -78540.025560 kJ/mol
# GULP energy per Si atom -5610.001826 kJ/mol
# Density = 2.456827 g / cm^3
# Si number density = 24.624319 Si / 1000 Ang^3
#
#
#
# Elastic Constant Matrix: (Units=GPa)
#
#
# Indices 1 2 3 4 5 6 
#
# 1 74.7418 -2.8679 15.3224 -4.2762 -2.4827 -13.4627
# 2 -2.8679 110.8840 19.9280 -13.5922 -4.7446 -1.5648
# 3 15.3224 19.9280 120.3559 -11.8486 10.2771 -4.3919
# 4 -4.2762 -13.5922 -11.8486 41.8053 -4.3496 7.9602
# 5 -2.4827 -4.7446 10.2771 -4.3496 27.9158 -0.7995
# 6 -13.4627 -1.5648 -4.3919 7.9602 -0.7995 32.5415
#
#
#
# Elastic Compliance Matrix: (Units=1/GPa)
#
#
# Indices 1 2 3 4 5 6 
#
# 1 0.015011 0.000994 -0.002030 0.000410 0.002485 0.005945
# 2 0.000994 0.009855 -0.001697 0.003132 0.002875 -0.000039
# 3 -0.002030 -0.001697 0.009306 0.001521 -0.003662 -0.000128
# 4 0.000410 0.003132 0.001521 0.026969 0.004040 -0.005972
# 5 0.002485 0.002875 -0.003662 0.004040 0.038527 0.000631
# 6 0.005945 -0.000039 -0.000128 -0.005972 0.000631 0.034647
#
#
# Mechanical properties :
#
#
# Convention : Reuss Voigt Hill
#
# Bulk Modulus (GPa) = 34.83802 41.19407 38.01605
# Shear Modulus (GPa) = 33.47828 38.69247 36.08537
#
# Velocity S-wave (km/s) = 3.69122 3.96828 3.83225
# Velocity P-wave (km/s) = 5.68730 6.14505 5.92060
#
# Compressibility (1/GPa) = 0.02870427
#
# Stress axis : x y z
#
# Youngs Moduli (GPa) = 66.61998 101.46677 107.45833
#
# Poissons Ratio (x) = -0.10082 0.21819
# Poissons Ratio (y) = -0.06619 0.18235
# Poissons Ratio (z) = 0.13527 0.17218
#
# Static dielectric constant tensor:
#      x y z
#    x 1.999430 0.020980 0.038650 
#    y 0.020980 1.888230 0.003480 
#    z 0.038650 0.003480 1.914480 
# 
# From -- ./inp_files/328262.got.cif
#   From: 2010.05.17/outbox.cif.g08.bks.cpg/sg2_165_cif.got.tgz:328262.got - 2010.06.03 11:33:40.
