data_PCOD9063474
_publ_section_title
;
Structure prediction by ZEFSAII (Michael W. Deem and Ramdas Pophale) SiO2 
 PCOD9063474
Probable space group: P -1
;
_chemical_formula_sum "Si O2"
_cell_formula_units_Z 15
_cell_length_a 10.853334
_cell_length_b 8.667674
_cell_length_c 14.343019
_cell_angle_alpha 106.151863
_cell_angle_beta 126.883357
_cell_angle_gamma 41.023898
_cell_volume 668.056797
_symmetry_space_group_name_H-M "P -1"
_symmetry_group_IT_number 2
_symmetry_cell_setting 'triclinic'
loop_
_space_group_symop_operation_xyz
x,y,z
-x,-y,-z
loop_
_atom_site_type_symbol
_atom_site_label
_atom_site_fract_x
_atom_site_fract_y
_atom_site_fract_z
Si Si1 0.745285 0.270836 0.021258
Si Si2 0.350720 0.750756 0.417739
Si Si3 0.174485 0.118488 0.537336
Si Si4 0.500000 0.000000 0.000000
Si Si5 0.846689 0.262986 0.856514
Si Si6 0.986156 0.410279 0.176374
Si Si7 0.625914 0.781612 0.815886
Si Si8 0.217003 0.378875 0.460279
O O1 0.915265 0.281052 0.132183
O O2 0.500000 0.500000 0.000000
O O3 0.737583 0.285897 0.908171
O O4 0.871299 0.003447 0.060205
O O5 0.500000 0.500000 0.500000
O O6 0.256356 0.743592 0.281069
O O7 0.526525 0.756893 0.472970
O O8 0.152104 0.987863 0.434396
O O9 0.226574 0.238244 0.521559
O O10 0.940062 0.346544 0.527927
O O11 0.399948 0.910653 0.671744
O O12 0.247680 0.305772 0.915166
O O13 0.529211 0.937026 0.891580
O O14 0.781772 0.499600 0.860747
O O15 0.198602 0.249310 0.170656
O O16 0.087020 0.405681 0.316502
#
# Coordination Sequence:
#
# PCOD9063474 Si02
#       8
#     2   2   2   1   2   2   2   2
#     4  11  28  48  71 104 145 191 232 294 361 419
#     4  12  24  45  71 102 144 186 226 294 356 415
#     4  11  24  44  69 103 140 183 239 286 350 415
#     4  12  26  42  74 104 140 182 238 296 354 406
#     4  11  26  47  70 105 143 187 238 290 357 426
#     4  12  25  45  76 104 137 188 241 295 347 427
#     4  12  25  47  73 104 139 184 242 295 351 422
#     4  11  25  44  73 107 136 188 240 290 346 421
#
# _framework density 22.453181000000001
#
# number of rings (size 3 to 8) (size 9 to 14) (size 15 to 20)
#    0.000    0.533    5.333    1.600    3.733    4.800 
#    2.400    0.000    0.000    0.000    0.000    0.000 
#    0.000    0.000    0.000    0.000    0.000    0.000 
#
# Total GULP energy -83778.111650 kJ/mol
# GULP energy per Si atom -5585.207443 kJ/mol
# Density = 2.240208 g / cm^3
# Si number density = 22.453181 Si / 1000 Ang^3
#
#
#
# Elastic Constant Matrix: (Units=GPa)
#
#
# Indices 1 2 3 4 5 6 
#
# 1 27.3160 24.3356 22.9572 11.6363 -7.8320 -12.9411
# 2 24.3356 146.8910 23.5807 19.1583 -6.7470 -34.7643
# 3 22.9572 23.5807 88.8539 29.7076 -20.8296 -18.2344
# 4 11.6363 19.1583 29.7076 53.1476 -0.9543 -12.1534
# 5 -7.8320 -6.7470 -20.8296 -0.9543 24.5410 3.7959
# 6 -12.9411 -34.7643 -18.2344 -12.1534 3.7959 37.5829
#
#
#
# Elastic Compliance Matrix: (Units=1/GPa)
#
#
# Indices 1 2 3 4 5 6 
#
# 1 0.055998 -0.005070 -0.008239 -0.003721 0.008012 0.008582
# 2 -0.005070 0.009308 0.000698 -0.001070 0.000438 0.006812
# 3 -0.008239 0.000698 0.019955 -0.008595 0.013650 0.003333
# 4 -0.003721 -0.001070 -0.008595 0.025257 -0.008190 0.002554
# 5 0.008012 0.000438 0.013650 -0.008190 0.054439 0.001640
# 6 0.008582 0.006812 0.003333 0.002554 0.001640 0.038141
#
#
# Mechanical properties :
#
#
# Convention : Reuss Voigt Hill
#
# Bulk Modulus (GPa) = 16.65587 44.97865 30.81726
# Shear Modulus (GPa) = 20.13415 35.86679 28.00047
#
# Velocity S-wave (km/s) = 2.99777 4.00109 3.53521
# Velocity P-wave (km/s) = 4.40640 6.43589 5.51530
#
# Compressibility (1/GPa) = 0.06003889
#
# Stress axis : x y z
#
# Youngs Moduli (GPa) = 17.85771 107.43977 50.11155
#
# Poissons Ratio (x) = 0.54474 0.41288
# Poissons Ratio (y) = 0.09054 -0.03499
# Poissons Ratio (z) = 0.14713 -0.07502
#
# Static dielectric constant tensor:
#      x y z
#    x 1.853300 -0.013170 -0.004100 
#    y -0.013170 1.832090 -0.017330 
#    z -0.004100 -0.017330 1.805650 
# 
# From -- ./inp_files/307956.got.cif
#   From: 2010.05.17/outbox.cif.g08.bks.cpg/sg2_154_cif.got.tgz:307956.got - 2010.06.03 11:33:40.
