data_PCOD9063125
_publ_section_title
;
Structure prediction by ZEFSAII (Michael W. Deem and Ramdas Pophale) SiO2 
 PCOD9063125
Probable space group: P -1
;
_chemical_formula_sum "Si O2"
_cell_formula_units_Z 14
_cell_length_a 12.713661
_cell_length_b 12.080235
_cell_length_c 11.225268
_cell_angle_alpha 87.347361
_cell_angle_beta 63.491116
_cell_angle_gamma 143.488850
_cell_volume 595.815004
_symmetry_space_group_name_H-M "P -1"
_symmetry_group_IT_number 2
_symmetry_cell_setting 'triclinic'
loop_
_space_group_symop_operation_xyz
x,y,z
-x,-y,-z
loop_
_atom_site_type_symbol
_atom_site_label
_atom_site_fract_x
_atom_site_fract_y
_atom_site_fract_z
Si Si1 0.623707 0.455824 0.204216
Si Si2 0.402989 0.353149 0.935812
Si Si3 0.512126 0.062710 0.839816
Si Si4 0.909467 0.495379 0.934317
Si Si5 0.974492 0.190207 0.511963
Si Si6 0.976996 0.192029 0.793974
Si Si7 0.176452 0.712416 0.544453
O O1 0.695018 0.639192 0.109629
O O2 0.808263 0.527258 0.027421
O O3 0.728648 0.535010 0.284186
O O4 0.271088 0.119639 0.375885
O O5 0.700854 0.552834 0.722404
O O6 0.500000 0.500000 0.000000
O O7 0.152390 0.043683 0.107763
O O8 0.559168 0.119093 0.670214
O O9 0.854655 0.375050 0.694756
O O10 0.386059 0.831007 0.943145
O O11 0.275196 0.943754 0.017797
O O12 0.000000 0.500000 0.000000
O O13 0.159148 0.707896 0.694560
O O14 0.014942 0.241150 0.630988
O O15 0.843968 0.184494 0.510671
#
# Coordination Sequence:
#
# PCOD9063125 Si02
#       7
#     2   2   2   2   2   2   2
#     4  12  26  48  74 109 145 191 242 301 361 424
#     4  12  26  52  75 103 148 192 245 301 360 430
#     4  11  24  43  71 102 142 188 244 291 352 438
#     4  12  25  46  68 102 149 183 234 302 353 428
#     4  12  26  50  75 108 146 192 242 301 362 433
#     4  12  27  48  75 107 148 192 245 298 361 429
#     4  11  25  42  73 105 141 198 236 291 368 424
#
# _framework density 23.497225
#
# number of rings (size 3 to 8) (size 9 to 14) (size 15 to 20)
#    0.000    0.286    5.714    3.000    4.000    1.143 
#    7.714    0.000    0.000    0.000    0.000    0.000 
#    0.000    0.000    0.000    0.000    0.000    0.000 
#
# Total GULP energy -78404.163361 kJ/mol
# GULP energy per Si atom -5600.297383 kJ/mol
# Density = 2.344374 g / cm^3
# Si number density = 23.497225 Si / 1000 Ang^3
#
#
#
# Elastic Constant Matrix: (Units=GPa)
#
#
# Indices 1 2 3 4 5 6 
#
# 1 69.6495 1.5754 -2.2905 7.2918 21.0692 -4.1985
# 2 1.5754 113.5552 20.9665 13.1342 16.9148 16.0687
# 3 -2.2905 20.9665 107.2154 25.0016 24.1801 9.9446
# 4 7.2918 13.1342 25.0016 36.7459 8.6356 10.4207
# 5 21.0692 16.9148 24.1801 8.6356 35.5790 6.9983
# 6 -4.1985 16.0687 9.9446 10.4207 6.9983 45.0774
#
#
#
# Elastic Compliance Matrix: (Units=1/GPa)
#
#
# Indices 1 2 3 4 5 6 
#
# 1 0.019656 0.001136 0.004283 -0.004874 -0.014672 0.003886
# 2 0.001136 0.010038 -0.000298 -0.001947 -0.004320 -0.002286
# 3 0.004283 -0.000298 0.013430 -0.007827 -0.009793 0.000872
# 4 -0.004874 -0.001947 -0.007827 0.035644 0.001768 -0.006548
# 5 -0.014672 -0.004320 -0.009793 0.001768 0.046104 -0.005232
# 6 0.003886 -0.002286 0.000872 -0.006548 -0.005232 0.025494
#
#
# Mechanical properties :
#
#
# Convention : Reuss Voigt Hill
#
# Bulk Modulus (GPa) = 18.73930 36.76921 27.75425
# Shear Modulus (GPa) = 31.66313 41.49170 36.57741
#
# Velocity S-wave (km/s) = 3.67485 4.20672 3.94975
# Velocity P-wave (km/s) = 5.09887 6.26718 5.71297
#
# Compressibility (1/GPa) = 0.05336379
#
# Stress axis : x y z
#
# Youngs Moduli (GPa) = 50.87630 99.62414 74.46165
#
# Poissons Ratio (x) = -0.11317 -0.31891
# Poissons Ratio (y) = -0.05779 0.02222
# Poissons Ratio (z) = -0.21790 0.02973
#
# Static dielectric constant tensor:
#      x y z
#    x 1.892180 0.047360 0.008530 
#    y 0.047360 2.041970 0.010650 
#    z 0.008530 0.010650 1.881650 
# 
# From -- ./inp_files/46238.got.cif
#   From: 2010.05.17/outbox.cif.g08.bks.cpg/sg2_24_cif.got.tgz:46238.got - 2010.06.03 11:33:40.
