data_PCOD9063004
_publ_section_title
;
Structure prediction by ZEFSAII (Michael W. Deem and Ramdas Pophale) SiO2 
 PCOD9063004
Probable space group: P -1
;
_chemical_formula_sum "Si O2"
_cell_formula_units_Z 16
_cell_length_a 5.952568
_cell_length_b 9.376983
_cell_length_c 17.957878
_cell_angle_alpha 104.316370
_cell_angle_beta 76.109787
_cell_angle_gamma 129.731072
_cell_volume 742.389763
_symmetry_space_group_name_H-M "P -1"
_symmetry_group_IT_number 2
_symmetry_cell_setting 'triclinic'
loop_
_space_group_symop_operation_xyz
x,y,z
-x,-y,-z
loop_
_atom_site_type_symbol
_atom_site_label
_atom_site_fract_x
_atom_site_fract_y
_atom_site_fract_z
Si Si1 0.525677 0.627368 0.809450
Si Si2 0.179783 0.927517 0.793679
Si Si3 0.300458 0.019852 0.959230
Si Si4 0.200100 0.617403 0.695310
Si Si5 0.344388 0.294235 0.455076
Si Si6 0.548250 0.290872 0.716815
Si Si7 0.711584 0.962032 0.441614
Si Si8 0.661430 0.419654 0.011165
O O1 0.300763 0.606293 0.766994
O O2 0.531228 0.455464 0.765075
O O3 0.438817 0.615078 0.899773
O O4 0.836609 0.834177 0.802300
O O5 0.192533 0.789653 0.723437
O O6 0.228091 0.906581 0.874384
O O7 0.413162 0.138179 0.773794
O O8 0.522414 0.235757 0.950446
O O9 0.500000 0.000000 0.000000
O O10 0.000000 0.000000 0.000000
O O11 0.436320 0.673340 0.621670
O O12 0.890009 0.415192 0.682267
O O13 0.500000 0.500000 0.500000
O O14 0.294333 0.166133 0.511587
O O15 0.017612 0.168336 0.430884
O O16 0.376992 0.160238 0.641818
O O17 0.500000 0.000000 0.500000
O O18 0.500000 0.500000 0.000000
O O19 0.000000 0.500000 0.000000
#
# Coordination Sequence:
#
# PCOD9063004 Si02
#       8
#     2   2   2   2   2   2   2   2
#     4  11  25  45  68  95 141 179 230 289 351 419
#     4  11  25  44  68  97 137 182 230 288 350 421
#     4  12  25  46  72 103 141 189 244 298 363 428
#     4  11  25  43  66 100 136 178 225 285 350 416
#     4  11  24  43  69 100 136 177 224 281 344 412
#     4  11  25  43  67 101 134 179 229 280 351 418
#     4  11  24  43  69 100 135 175 229 278 339 421
#     4  12  27  46  73 104 143 188 243 303 362 429
#
# _framework density 21.552019999999999
#
# number of rings (size 3 to 8) (size 9 to 14) (size 15 to 20)
#    0.000    0.750    1.250    5.250    5.250    8.000 
#    0.000    0.000    0.000    0.000    0.000    0.000 
#    0.000    0.000    0.000    0.000    0.000    0.000 
#
# Total GULP energy -89150.982587 kJ/mol
# GULP energy per Si atom -5571.936412 kJ/mol
# Density = 2.150297 g / cm^3
# Si number density = 21.552020 Si / 1000 Ang^3
#
#
#
# Elastic Constant Matrix: (Units=GPa)
#
#
# Indices 1 2 3 4 5 6 
#
# 1 91.1939 45.8962 16.8948 -5.4053 -8.9840 18.7345
# 2 45.8962 145.9796 20.4828 4.2238 -8.4843 26.2408
# 3 16.8948 20.4828 116.1844 5.5208 -12.5839 9.8891
# 4 -5.4053 4.2238 5.5208 36.7421 5.2075 5.5451
# 5 -8.9840 -8.4843 -12.5839 5.2075 39.8104 -9.1022
# 6 18.7345 26.2408 9.8891 5.5451 -9.1022 42.8613
#
#
#
# Elastic Compliance Matrix: (Units=1/GPa)
#
#
# Indices 1 2 3 4 5 6 
#
# 1 0.014055 -0.003601 -0.001145 0.003142 0.000734 -0.003925
# 2 -0.003601 0.008735 -0.000658 -0.000936 0.000171 -0.003464
# 3 -0.001145 -0.000658 0.009303 -0.001803 0.002677 -0.000441
# 4 0.003142 -0.000936 -0.001803 0.029587 -0.005143 -0.005304
# 5 0.000734 0.000171 0.002677 -0.005143 0.028119 0.005594
# 6 -0.003925 -0.003464 -0.000441 -0.005304 0.005594 0.029143
#
#
# Mechanical properties :
#
#
# Convention : Reuss Voigt Hill
#
# Bulk Modulus (GPa) = 46.98297 57.76728 52.37513
# Shear Modulus (GPa) = 36.53783 41.88836 39.21310
#
# Velocity S-wave (km/s) = 4.12191 4.41340 4.27014
# Velocity P-wave (km/s) = 6.67088 7.26861 6.97615
#
# Compressibility (1/GPa) = 0.02128431
#
# Stress axis : x y z
#
# Youngs Moduli (GPa) = 71.14943 114.48803 107.49567
#
# Poissons Ratio (x) = 0.41226 0.12304
# Poissons Ratio (y) = 0.25621 0.07077
# Poissons Ratio (z) = 0.08144 0.07537
#
# Static dielectric constant tensor:
#      x y z
#    x 1.891720 0.002990 0.027910 
#    y 0.002990 1.765860 -0.013370 
#    z 0.027910 -0.013370 1.749750 
# 
# From -- ./inp_files/53612.got.cif
#   From: 2010.05.17/outbox.cif.g08.bks.cpg/sg2_27_cif.got.tgz:53612.got - 2010.06.03 11:33:40.
