data_PCOD9063071
_publ_section_title
;
Structure prediction by ZEFSAII (Michael W. Deem and Ramdas Pophale) SiO2 
 PCOD9063071
Probable space group: P -1
;
_chemical_formula_sum "Si O2"
_cell_formula_units_Z 16
_cell_length_a 13.603831
_cell_length_b 8.050583
_cell_length_c 8.748678
_cell_angle_alpha 106.785661
_cell_angle_beta 72.184776
_cell_angle_gamma 63.147743
_cell_volume 703.535616
_symmetry_space_group_name_H-M "P -1"
_symmetry_group_IT_number 2
_symmetry_cell_setting 'triclinic'
loop_
_space_group_symop_operation_xyz
x,y,z
-x,-y,-z
loop_
_atom_site_type_symbol
_atom_site_label
_atom_site_fract_x
_atom_site_fract_y
_atom_site_fract_z
Si Si1 0.704179 0.679709 0.864993
Si Si2 0.135979 0.332196 0.967891
Si Si3 0.695949 0.095971 0.930682
Si Si4 0.384067 0.613644 0.699766
Si Si5 0.352429 0.115039 0.552026
Si Si6 0.511199 0.275061 0.817832
Si Si7 0.226942 0.554489 0.539537
Si Si8 0.046706 0.090701 0.129816
O O1 0.725136 0.521376 0.676481
O O2 0.703028 0.879307 0.851227
O O3 0.819769 0.568871 0.903397
O O4 0.577387 0.763209 0.045983
O O5 0.252057 0.195237 0.757731
O O6 0.108685 0.185307 0.032206
O O7 0.000000 0.500000 0.000000
O O8 0.599169 0.279247 0.904790
O O9 0.830450 0.068161 0.862515
O O10 0.633983 0.189177 0.151794
O O11 0.500000 0.500000 0.500000
O O12 0.418983 0.448843 0.778602
O O13 0.270230 0.671491 0.657360
O O14 0.293124 0.329152 0.537590
O O15 0.500000 0.000000 0.500000
O O16 0.373848 0.926855 0.387940
O O17 0.073731 0.716617 0.666956
O O18 0.000000 0.000000 0.000000
#
# Coordination Sequence:
#
# PCOD9063071 Si02
#       8
#     2   2   2   2   2   2   2   2
#     4  11  25  42  73 107 140 179 238 301 350 410
#     4  11  24  43  70 102 141 187 242 284 354 419
#     4  11  25  44  69 102 142 183 234 291 354 417
#     4  12  27  43  69 101 145 188 233 288 365 424
#     4  12  23  41  72 107 138 187 236 294 348 423
#     4  12  25  43  72 105 145 179 240 297 355 416
#     4  12  24  44  72 102 144 184 234 289 361 420
#     4  11  25  45  69  98 142 192 230 288 350 426
#
# _framework density 22.742273999999998
#
# number of rings (size 3 to 8) (size 9 to 14) (size 15 to 20)
#    0.000    0.500    6.250    1.500    5.250    3.000 
#    0.000    0.000    0.000    3.000    0.000    0.000 
#    0.000    0.000    0.000    0.000    0.000    0.000 
#
# Total GULP energy -89271.657059 kJ/mol
# GULP energy per Si atom -5579.478566 kJ/mol
# Density = 2.269051 g / cm^3
# Si number density = 22.742274 Si / 1000 Ang^3
#
#
#
# Elastic Constant Matrix: (Units=GPa)
#
#
# Indices 1 2 3 4 5 6 
#
# 1 138.8348 27.1425 49.4188 -4.5624 5.2654 -40.2635
# 2 27.1425 48.9676 18.4851 0.2856 -4.1298 -28.7030
# 3 49.4188 18.4851 158.4046 1.4497 5.6142 -14.6763
# 4 -4.5624 0.2856 1.4497 31.1647 -4.1837 -4.2388
# 5 5.2654 -4.1298 5.6142 -4.1837 49.5559 5.0394
# 6 -40.2635 -28.7030 -14.6763 -4.2388 5.0394 40.9433
#
#
#
# Elastic Compliance Matrix: (Units=1/GPa)
#
#
# Indices 1 2 3 4 5 6 
#
# 1 0.011472 0.001432 -0.002611 0.003171 -0.001745 0.011892
# 2 0.001432 0.035719 -0.002274 0.003614 0.000752 0.025916
# 3 -0.002611 -0.002274 0.007280 -0.001003 -0.000661 -0.001575
# 4 0.003171 0.003614 -0.001003 0.034008 0.002079 0.008557
# 5 -0.001745 0.000752 -0.000661 0.002079 0.021065 -0.003804
# 6 0.011892 0.025916 -0.001575 0.008557 -0.003804 0.055076
#
#
# Mechanical properties :
#
#
# Convention : Reuss Voigt Hill
#
# Bulk Modulus (GPa) = 21.02387 59.58886 40.30637
# Shear Modulus (GPa) = 26.68367 41.07684 33.88026
#
# Velocity S-wave (km/s) = 3.42907 4.25454 3.86391
# Velocity P-wave (km/s) = 4.99425 7.09884 6.13743
#
# Compressibility (1/GPa) = 0.04756499
#
# Stress axis : x y z
#
# Youngs Moduli (GPa) = 87.17189 27.99600 137.36906
#
# Poissons Ratio (x) = -0.04010 0.35872
# Poissons Ratio (y) = -0.12485 0.31234
# Poissons Ratio (z) = 0.22764 0.06366
#
# Static dielectric constant tensor:
#      x y z
#    x 2.133080 -0.150370 0.033030 
#    y -0.150370 2.077610 0.033840 
#    z 0.033030 0.033840 1.863130 
# 
# From -- ./inp_files/244977.got.cif
#   From: 2010.05.17/outbox.cif.g08.bks.cpg/sg2_123_cif.got.tgz:244977.got - 2010.06.03 11:33:40.
