data_PCOD9063815
_publ_section_title
;
Structure prediction by ZEFSAII (Michael W. Deem and Ramdas Pophale) SiO2 
 PCOD9063815
Probable space group: P -1
;
_chemical_formula_sum "Si O2"
_cell_formula_units_Z 12
_cell_length_a 8.421612
_cell_length_b 14.988160
_cell_length_c 6.860483
_cell_angle_alpha 116.584132
_cell_angle_beta 78.413367
_cell_angle_gamma 139.089858
_cell_volume 492.996281
_symmetry_space_group_name_H-M "P -1"
_symmetry_group_IT_number 2
_symmetry_cell_setting 'triclinic'
loop_
_space_group_symop_operation_xyz
x,y,z
-x,-y,-z
loop_
_atom_site_type_symbol
_atom_site_label
_atom_site_fract_x
_atom_site_fract_y
_atom_site_fract_z
Si Si1 0.515804 0.124510 0.075022
Si Si2 0.181698 0.207526 0.768058
Si Si3 0.156755 0.115444 0.290151
Si Si4 0.285815 0.362250 0.268481
Si Si5 0.761851 0.169956 0.688429
Si Si6 0.930006 0.360303 0.462129
O O1 0.292565 0.097651 0.104583
O O2 0.647926 0.220587 0.331838
O O3 0.671425 0.200603 0.913019
O O4 0.500000 0.000000 0.000000
O O5 0.300167 0.226998 0.554999
O O6 0.945212 0.168539 0.726570
O O7 0.343439 0.341698 0.022020
O O8 0.074038 0.054785 0.735840
O O9 0.128493 0.202095 0.258122
O O10 0.500000 0.500000 0.500000
O O11 0.097734 0.364828 0.296704
O O12 0.923510 0.310895 0.632080
O O13 0.500000 0.000000 0.500000
O O14 0.000000 0.500000 0.500000
#
# Coordination Sequence:
#
# PCOD9063815 Si02
#       6
#     2   2   2   2   2   2
#     4  12  23  45  74 108 149 189 244 304 366 441
#     4  11  24  45  73 109 146 188 250 302 363 439
#     4  11  24  44  74 109 144 191 243 305 370 430
#     4  12  26  46  72 104 150 199 240 299 368 439
#     4  12  24  44  77 110 143 191 245 303 369 436
#     4  12  26  47  71 107 151 192 248 305 367 435
#
# _framework density 24.340952000000001
#
# number of rings (size 3 to 8) (size 9 to 14) (size 15 to 20)
#    0.000    0.333    6.667    1.500    0.000    5.333 
#    0.000    0.000    0.000    0.000    0.000    0.000 
#    0.000    0.000    0.000    0.000    0.000    0.000 
#
# Total GULP energy -66919.595743 kJ/mol
# GULP energy per Si atom -5576.632979 kJ/mol
# Density = 2.428555 g / cm^3
# Si number density = 24.340952 Si / 1000 Ang^3
#
#
#
# Elastic Constant Matrix: (Units=GPa)
#
#
# Indices 1 2 3 4 5 6 
#
# 1 97.5194 35.9303 39.2264 20.6665 -17.6518 -26.6300
# 2 35.9303 99.0773 26.9144 3.7331 -9.2949 -48.6087
# 3 39.2264 26.9144 169.7428 -3.7731 -10.3433 -5.0161
# 4 20.6665 3.7331 -3.7731 33.7492 7.9532 -5.3076
# 5 -17.6518 -9.2949 -10.3433 7.9532 53.9346 2.3749
# 6 -26.6300 -48.6087 -5.0161 -5.3076 2.3749 43.9291
#
#
#
# Elastic Compliance Matrix: (Units=1/GPa)
#
#
# Indices 1 2 3 4 5 6 
#
# 1 0.017640 -0.000407 -0.003640 -0.011379 0.006326 0.008111
# 2 -0.000407 0.023804 -0.002767 0.000845 0.002179 0.025761
# 3 -0.003640 -0.002767 0.007080 0.002811 -0.000545 -0.004091
# 4 -0.011379 0.000845 0.002811 0.038803 -0.008740 -0.000482
# 5 0.006326 0.002179 -0.000545 -0.008740 0.021998 0.003939
# 6 0.008111 0.025761 -0.004091 -0.000482 0.003939 0.055448
#
#
# Mechanical properties :
#
#
# Convention : Reuss Voigt Hill
#
# Bulk Modulus (GPa) = 28.65742 63.38686 46.02214
# Shear Modulus (GPa) = 26.31144 43.94046 35.12595
#
# Velocity S-wave (km/s) = 3.29135 4.25338 3.80291
# Velocity P-wave (km/s) = 5.12278 7.08657 6.18314
#
# Compressibility (1/GPa) = 0.03489498
#
# Stress axis : x y z
#
# Youngs Moduli (GPa) = 56.69092 42.00979 141.25166
#
# Poissons Ratio (x) = 0.01710 0.51411
# Poissons Ratio (y) = 0.02307 0.39091
# Poissons Ratio (z) = 0.20633 0.11626
#
# Static dielectric constant tensor:
#      x y z
#    x 1.981230 0.093880 0.128870 
#    y 0.093880 1.988570 0.041010 
#    z 0.128870 0.041010 2.060250 
# 
# From -- ./inp_files/40221.got.cif
#   From: 2010.05.17/outbox.cif.g08.bks.cpg/sg2_21_cif.got.tgz:40221.got - 2010.06.03 11:33:40.
