data_PCOD9063421
_publ_section_title
;
Structure prediction by ZEFSAII (Michael W. Deem and Ramdas Pophale) SiO2 
 PCOD9063421
Probable space group: P -1
;
_chemical_formula_sum "Si O2"
_cell_formula_units_Z 16
_cell_length_a 11.277487
_cell_length_b 9.675480
_cell_length_c 9.647570
_cell_angle_alpha 44.847433
_cell_angle_beta 74.534255
_cell_angle_gamma 84.775313
_cell_volume 708.025622
_symmetry_space_group_name_H-M "P -1"
_symmetry_group_IT_number 2
_symmetry_cell_setting 'triclinic'
loop_
_space_group_symop_operation_xyz
x,y,z
-x,-y,-z
loop_
_atom_site_type_symbol
_atom_site_label
_atom_site_fract_x
_atom_site_fract_y
_atom_site_fract_z
Si Si1 0.642242 0.615841 0.614766
Si Si2 0.712082 0.936726 0.588645
Si Si3 0.908884 0.745345 0.824222
Si Si4 0.499514 0.219304 0.015224
Si Si5 0.378967 0.158212 0.793828
Si Si6 0.109091 0.025330 0.058739
Si Si7 0.830173 0.368764 0.272966
Si Si8 0.139540 0.586639 0.441986
O O1 0.678360 0.818955 0.542312
O O2 0.561757 0.445520 0.850554
O O3 0.576060 0.680040 0.451326
O O4 0.762831 0.520122 0.598052
O O5 0.839431 0.869545 0.651531
O O6 0.732947 0.174097 0.409678
O O7 0.608473 0.856084 0.790491
O O8 0.937647 0.872632 0.863535
O O9 0.032113 0.683183 0.765248
O O10 0.818412 0.550866 0.044975
O O11 0.444875 0.204537 0.886980
O O12 0.594185 0.058584 0.106766
O O13 0.232037 0.149825 0.867918
O O14 0.150906 0.818665 0.238192
O O15 0.000000 0.000000 0.000000
O O16 0.832811 0.425377 0.393943
O O17 0.000000 0.500000 0.500000
#
# Coordination Sequence:
#
# PCOD9063421 Si02
#       8
#     2   2   2   2   2   2   2   2
#     4  12  27  44  74 106 140 185 242 295 353 417
#     4  12  26  45  72 102 145 187 232 299 353 422
#     4  11  24  44  68 103 142 189 231 284 366 419
#     4  11  25  48  71 101 145 187 242 292 348 428
#     4  11  24  46  73 105 137 192 236 290 353 417
#     4  12  24  43  73 105 145 181 238 293 352 427
#     4  11  25  43  68 100 142 186 234 288 352 431
#     4  12  24  43  69 106 142 182 237 291 351 427
#
# _framework density 22.598054999999999
#
# number of rings (size 3 to 8) (size 9 to 14) (size 15 to 20)
#    0.000    0.500    3.750    4.125    5.250    3.500 
#    0.000    0.000    0.000    0.000    0.000    0.000 
#    0.000    0.000    0.000    0.000    0.000    0.000 
#
# Total GULP energy -89625.953052 kJ/mol
# GULP energy per Si atom -5601.622066 kJ/mol
# Density = 2.254662 g / cm^3
# Si number density = 22.598055 Si / 1000 Ang^3
#
#
#
# Elastic Constant Matrix: (Units=GPa)
#
#
# Indices 1 2 3 4 5 6 
#
# 1 39.2768 7.9758 4.4055 -2.9847 2.6697 0.8574
# 2 7.9758 114.9097 35.1570 -5.9542 -3.6587 12.5651
# 3 4.4055 35.1570 116.4451 -22.8156 -7.6914 2.2461
# 4 -2.9847 -5.9542 -22.8156 36.0606 3.5585 -5.0326
# 5 2.6697 -3.6587 -7.6914 3.5585 32.3081 -2.9662
# 6 0.8574 12.5651 2.2461 -5.0326 -2.9662 27.2697
#
#
#
# Elastic Compliance Matrix: (Units=1/GPa)
#
#
# Indices 1 2 3 4 5 6 
#
# 1 0.026168 -0.001728 -0.000254 0.001990 -0.002631 0.000075
# 2 -0.001728 0.010233 -0.003135 -0.001101 0.000256 -0.004578
# 3 -0.000254 -0.003135 0.010884 0.006447 0.001724 0.001933
# 4 0.001990 -0.001101 0.006447 0.032779 -0.001835 0.005763
# 5 -0.002631 0.000256 0.001724 -0.001835 0.032084 0.002974
# 6 0.000075 -0.004578 0.001933 0.005763 0.002974 0.040006
#
#
# Mechanical properties :
#
#
# Convention : Reuss Voigt Hill
#
# Bulk Modulus (GPa) = 26.98849 40.63426 33.81138
# Shear Modulus (GPa) = 28.61464 34.00058 31.30761
#
# Velocity S-wave (km/s) = 3.56229 3.88310 3.72615
# Velocity P-wave (km/s) = 5.37482 6.17454 5.78851
#
# Compressibility (1/GPa) = 0.03705284
#
# Stress axis : x y z
#
# Youngs Moduli (GPa) = 38.21465 97.72153 91.88156
#
# Poissons Ratio (x) = 0.16882 0.02331
# Poissons Ratio (y) = 0.06602 0.28802
# Poissons Ratio (z) = 0.00970 0.30633
#
# Static dielectric constant tensor:
#      x y z
#    x 1.800360 0.006520 -0.027670 
#    y 0.006520 1.797130 -0.032010 
#    z -0.027670 -0.032010 1.852110 
# 
# From -- ./inp_files/242022.got.cif
#   From: 2010.05.17/outbox.cif.g08.bks.cpg/sg2_122_cif.got.tgz:242022.got - 2010.06.03 11:33:40.
