data_PCOD9063034
_publ_section_title
;
Structure prediction by ZEFSAII (Michael W. Deem and Ramdas Pophale) SiO2 
 PCOD9063034
Probable space group: P -1
;
_chemical_formula_sum "Si O2"
_cell_formula_units_Z 15
_cell_length_a 5.903412
_cell_length_b 21.012123
_cell_length_c 6.115619
_cell_angle_alpha 76.749294
_cell_angle_beta 87.305876
_cell_angle_gamma 59.689803
_cell_volume 635.336382
_symmetry_space_group_name_H-M "P -1"
_symmetry_group_IT_number 2
_symmetry_cell_setting 'triclinic'
loop_
_space_group_symop_operation_xyz
x,y,z
-x,-y,-z
loop_
_atom_site_type_symbol
_atom_site_label
_atom_site_fract_x
_atom_site_fract_y
_atom_site_fract_z
Si Si1 0.076902 0.038086 0.158336
Si Si2 0.848859 0.827462 0.902282
Si Si3 0.407552 0.234508 0.690202
Si Si4 0.879252 0.368710 0.503869
Si Si5 0.000000 0.500000 0.500000
Si Si6 0.397361 0.897435 0.525816
Si Si7 0.365092 0.685179 0.083532
Si Si8 0.579599 0.559555 0.859742
O O1 0.129043 0.104925 0.038621
O O2 0.831616 0.075650 0.306463
O O3 0.325692 0.970970 0.326682
O O4 0.000000 0.000000 0.000000
O O5 0.674075 0.860894 0.667297
O O6 0.140178 0.756247 0.904108
O O7 0.703367 0.799481 0.096437
O O8 0.601147 0.165568 0.582524
O O9 0.166804 0.297018 0.507617
O O10 0.523510 0.278975 0.778351
O O11 0.671103 0.381928 0.318876
O O12 0.892170 0.443661 0.477158
O O13 0.778794 0.350438 0.745990
O O14 0.174557 0.478404 0.280418
O O15 0.594235 0.613575 0.001587
O O16 0.500000 0.500000 0.000000
#
# Coordination Sequence:
#
# PCOD9063034 Si02
#       8
#     2   2   2   2   1   2   2   2
#     4  11  25  44  69 104 147 189 241 298 363 432
#     4  11  24  43  71 103 144 187 244 292 365 438
#     4  11  26  46  73 103 143 190 244 297 367 439
#     4  11  26  46  71 107 142 186 246 304 368 455
#     4  12  26  46  76 106 142 190 248 300 376 452
#     4  11  24  43  69 104 142 192 238 299 362 429
#     4  11  25  48  71 104 147 192 241 309 373 443
#     4  12  27  48  76 107 150 192 245 312 379 444
#
# _framework density 23.609541
#
# number of rings (size 3 to 8) (size 9 to 14) (size 15 to 20)
#    0.000    0.800    1.333    4.800    1.867   13.333 
#    0.000    0.000    0.000    0.000    0.000    0.000 
#    0.000    0.000    0.000    0.000    0.000    0.000 
#
# Total GULP energy -83799.464139 kJ/mol
# GULP energy per Si atom -5586.630943 kJ/mol
# Density = 2.355580 g / cm^3
# Si number density = 23.609541 Si / 1000 Ang^3
#
#
#
# Elastic Constant Matrix: (Units=GPa)
#
#
# Indices 1 2 3 4 5 6 
#
# 1 82.2727 48.3901 35.4558 -4.4535 -8.0765 16.7952
# 2 48.3901 142.8912 53.6387 41.8984 -1.0748 11.7581
# 3 35.4558 53.6387 64.7394 1.4092 -0.6445 -6.9942
# 4 -4.4535 41.8984 1.4092 48.7131 -15.1193 4.8221
# 5 -8.0765 -1.0748 -0.6445 -15.1193 39.8349 -10.9795
# 6 16.7952 11.7581 -6.9942 4.8221 -10.9795 55.0566
#
#
#
# Elastic Compliance Matrix: (Units=1/GPa)
#
#
# Indices 1 2 3 4 5 6 
#
# 1 0.022061 -0.008271 -0.005996 0.012089 0.007271 -0.005334
# 2 -0.008271 0.021354 -0.013222 -0.021645 -0.010616 -0.003938
# 3 -0.005996 -0.013222 0.030440 0.010760 0.005389 0.008652
# 4 0.012089 -0.021645 0.010760 0.045956 0.020114 0.002288
# 5 0.007271 -0.010616 0.005389 0.020114 0.035691 0.006090
# 6 -0.005334 -0.003938 0.008652 0.002288 0.006090 0.022744
#
#
# Mechanical properties :
#
#
# Convention : Reuss Voigt Hill
#
# Bulk Modulus (GPa) = 52.98031 62.76360 57.87196
# Shear Modulus (GPa) = 20.87542 38.88217 29.87880
#
# Velocity S-wave (km/s) = 2.97677 4.06258 3.56130
# Velocity P-wave (km/s) = 5.85694 6.97480 6.44017
#
# Compressibility (1/GPa) = 0.01887494
#
# Stress axis : x y z
#
# Youngs Moduli (GPa) = 45.32988 46.83019 32.85182
#
# Poissons Ratio (x) = 0.38734 0.19698
# Poissons Ratio (y) = 0.37493 0.43438
# Poissons Ratio (z) = 0.27180 0.61921
#
# Static dielectric constant tensor:
#      x y z
#    x 1.870760 -0.035270 0.033540 
#    y -0.035270 1.878820 -0.017060 
#    z 0.033540 -0.017060 1.941510 
# 
# From -- ./inp_files/10375.got.cif
#   From: 2010.05.17/outbox.cif.g08.bks.cpg/sg2_6_cif.got.tgz:10375.got - 2010.06.03 11:33:40.
