data_PCOD9063470
_publ_section_title
;
Structure prediction by ZEFSAII (Michael W. Deem and Ramdas Pophale) SiO2 
 PCOD9063470
Probable space group: P -1
;
_chemical_formula_sum "Si O2"
_cell_formula_units_Z 14
_cell_length_a 5.256671
_cell_length_b 15.636934
_cell_length_c 9.458140
_cell_angle_alpha 118.192679
_cell_angle_beta 116.881772
_cell_angle_gamma 87.004007
_cell_volume 598.155511
_symmetry_space_group_name_H-M "P -1"
_symmetry_group_IT_number 2
_symmetry_cell_setting 'triclinic'
loop_
_space_group_symop_operation_xyz
x,y,z
-x,-y,-z
loop_
_atom_site_type_symbol
_atom_site_label
_atom_site_fract_x
_atom_site_fract_y
_atom_site_fract_z
Si Si1 0.818555 0.776777 0.119101
Si Si2 0.088892 0.564417 0.434954
Si Si3 0.968337 0.421234 0.055653
Si Si4 0.737162 0.827130 0.650091
Si Si5 0.839849 0.011252 0.617844
Si Si6 0.643157 0.230173 0.229706
Si Si7 0.365206 0.317980 0.725523
O O1 0.804717 0.764742 0.275322
O O2 0.034224 0.877727 0.211589
O O3 0.518675 0.780930 0.968682
O O4 0.912767 0.677410 0.015183
O O5 0.328984 0.658915 0.614156
O O6 0.000000 0.500000 0.500000
O O7 0.144439 0.484249 0.274046
O O8 0.832046 0.610711 0.333383
O O9 0.619444 0.380006 0.935338
O O10 0.000000 0.500000 0.000000
O O11 0.548522 0.836461 0.749376
O O12 0.544565 0.745507 0.431397
O O13 0.030404 0.786286 0.721768
O O14 0.854783 0.928271 0.673818
O O15 0.500000 0.000000 0.500000
O O16 0.000000 0.000000 0.500000
#
# Coordination Sequence:
#
# PCOD9063470 Si02
#       7
#     2   2   2   2   2   2   2
#     4  12  28  45  72 108 141 190 249 302 361 442
#     4  11  25  44  70 103 146 198 241 299 367 433
#     4  12  25  42  69 101 144 190 247 300 357 427
#     4  11  25  49  74 104 151 188 241 305 370 427
#     4  12  26  47  81 112 142 190 246 302 370 438
#     4  11  28  47  72 108 149 193 240 302 368 434
#     4  11  24  44  69 102 142 190 249 300 359 436
#
# _framework density 23.405284999999999
#
# number of rings (size 3 to 8) (size 9 to 14) (size 15 to 20)
#    0.000    0.571    2.857    3.857   12.000    1.714 
#    0.000    0.000    0.000    0.000    0.000    0.000 
#    0.000    0.000    0.000    0.000    0.000    0.000 
#
# Total GULP energy -78328.856652 kJ/mol
# GULP energy per Si atom -5594.918332 kJ/mol
# Density = 2.335201 g / cm^3
# Si number density = 23.405285 Si / 1000 Ang^3
#
#
#
# Elastic Constant Matrix: (Units=GPa)
#
#
# Indices 1 2 3 4 5 6 
#
# 1 62.0739 -1.5291 4.7619 -6.4360 10.5419 7.8921
# 2 -1.5291 115.7434 24.1060 8.1684 5.4417 21.1582
# 3 4.7619 24.1060 61.9157 -10.3348 15.5918 0.7296
# 4 -6.4360 8.1684 -10.3348 38.1473 8.7989 -2.5621
# 5 10.5419 5.4417 15.5918 8.7989 39.4829 -5.6231
# 6 7.8921 21.1582 0.7296 -2.5621 -5.6231 37.2540
#
#
#
# Elastic Compliance Matrix: (Units=1/GPa)
#
#
# Indices 1 2 3 4 5 6 
#
# 1 0.018407 0.001085 0.000732 0.004348 -0.007077 -0.005299
# 2 0.001085 0.011235 -0.005089 -0.004083 0.000116 -0.006774
# 3 0.000732 -0.005089 0.022258 0.009701 -0.010244 0.001420
# 4 0.004348 -0.004083 0.009701 0.033240 -0.011588 0.001745
# 5 -0.007077 0.000116 -0.010244 -0.011588 0.034694 0.006073
# 6 -0.005299 -0.006774 0.001420 0.001745 0.006073 0.032822
#
#
# Mechanical properties :
#
#
# Convention : Reuss Voigt Hill
#
# Bulk Modulus (GPa) = 22.04710 32.71226 27.37968
# Shear Modulus (GPa) = 28.68334 37.13645 32.90989
#
# Velocity S-wave (km/s) = 3.50452 3.98762 3.75385
# Velocity P-wave (km/s) = 5.08092 5.93366 5.52377
#
# Compressibility (1/GPa) = 0.04535744
#
# Stress axis : x y z
#
# Youngs Moduli (GPa) = 54.32759 89.00749 44.92758
#
# Poissons Ratio (x) = -0.09660 -0.03289
# Poissons Ratio (y) = -0.05896 0.22862
# Poissons Ratio (z) = -0.03977 0.45293
#
# Static dielectric constant tensor:
#      x y z
#    x 1.937540 0.014600 -0.005440 
#    y 0.014600 1.873270 0.026850 
#    z -0.005440 0.026850 1.917090 
# 
# From -- ./inp_files/38386.got.cif
#   From: 2010.05.17/outbox.cif.g08.bks.cpg/sg2_20_cif.got.tgz:38386.got - 2010.06.03 11:33:40.
