data_PCOD9063598
_publ_section_title
;
Structure prediction by ZEFSAII (Michael W. Deem and Ramdas Pophale) SiO2 
 PCOD9063598
Probable space group: P -1
;
_chemical_formula_sum "Si O2"
_cell_formula_units_Z 16
_cell_length_a 14.893833
_cell_length_b 9.556643
_cell_length_c 9.319729
_cell_angle_alpha 68.988897
_cell_angle_beta 69.123821
_cell_angle_gamma 36.233053
_cell_volume 726.499603
_symmetry_space_group_name_H-M "P -1"
_symmetry_group_IT_number 2
_symmetry_cell_setting 'triclinic'
loop_
_space_group_symop_operation_xyz
x,y,z
-x,-y,-z
loop_
_atom_site_type_symbol
_atom_site_label
_atom_site_fract_x
_atom_site_fract_y
_atom_site_fract_z
Si Si1 0.318333 0.206014 0.514803
Si Si2 0.582751 0.554363 0.902741
Si Si3 0.854169 0.750490 0.170656
Si Si4 0.776635 0.355704 0.582130
Si Si5 0.845395 0.101189 0.080113
Si Si6 0.173767 0.246318 0.304593
Si Si7 0.628078 0.959732 0.998597
Si Si8 0.125371 0.988076 0.576636
O O1 0.254261 0.149902 0.667912
O O2 0.250065 0.442888 0.528448
O O3 0.252954 0.260545 0.371085
O O4 0.500000 0.000000 0.500000
O O5 0.652678 0.480726 0.731538
O O6 0.500000 0.500000 0.000000
O O7 0.723588 0.369711 0.997723
O O8 0.468205 0.820857 0.918818
O O9 0.023508 0.500417 0.221925
O O10 0.847575 0.934506 0.063999
O O11 0.779474 0.740508 0.089709
O O12 0.950282 0.140859 0.621136
O O13 0.773887 0.238358 0.501218
O O14 0.819885 0.091576 0.263438
O O15 0.000000 0.000000 0.000000
O O16 0.126686 0.153447 0.450377
O O17 0.297483 0.059872 0.179484
O O18 0.500000 0.000000 0.000000
#
# Coordination Sequence:
#
# PCOD9063598 Si02
#       8
#     2   2   2   2   2   2   2   2
#     4  12  25  45  74 106 150 192 236 299 373 430
#     4  12  25  48  70  99 150 192 234 297 370 433
#     4  12  25  47  74 107 144 193 249 296 367 436
#     4  11  24  44  71 103 145 184 236 302 353 427
#     4  12  26  44  75 106 142 193 242 295 364 436
#     4  12  25  48  75 103 146 192 250 300 350 439
#     4  12  28  48  71 110 148 191 242 303 372 433
#     4  11  24  45  72 108 136 182 249 295 350 423
#
# _framework density 22.023410999999999
#
# number of rings (size 3 to 8) (size 9 to 14) (size 15 to 20)
#    0.000    0.250    5.000    4.500    1.750    2.000 
#    0.000    1.875    0.000    0.000    0.000    0.000 
#    0.000    0.000    0.000    0.000    0.000    0.000 
#
# Total GULP energy -89411.574349 kJ/mol
# GULP energy per Si atom -5588.223397 kJ/mol
# Density = 2.197329 g / cm^3
# Si number density = 22.023411 Si / 1000 Ang^3
#
#
#
# Elastic Constant Matrix: (Units=GPa)
#
#
# Indices 1 2 3 4 5 6 
#
# 1 118.8102 35.4377 31.7475 6.2965 6.6558 -12.1334
# 2 35.4377 98.3682 18.8347 7.0510 5.5687 -6.7618
# 3 31.7475 18.8347 95.5646 12.1943 -6.8724 -9.5365
# 4 6.2965 7.0510 12.1943 38.5759 -11.2034 -2.0187
# 5 6.6558 5.5687 -6.8724 -11.2034 43.4949 -1.4684
# 6 -12.1334 -6.7618 -9.5365 -2.0187 -1.4684 40.8041
#
#
#
# Elastic Compliance Matrix: (Units=1/GPa)
#
#
# Indices 1 2 3 4 5 6 
#
# 1 0.010340 -0.002928 -0.002708 -0.000709 -0.001755 0.001858
# 2 -0.002928 0.011708 -0.001167 -0.001742 -0.001662 0.000651
# 3 -0.002708 -0.001167 0.012238 -0.002568 0.001897 0.001803
# 4 -0.000709 -0.001742 -0.002568 0.029384 0.007516 0.000625
# 5 -0.001755 -0.001662 0.001897 0.007516 0.025740 0.000944
# 6 0.001858 0.000651 0.001803 0.000625 0.000944 0.025654
#
#
# Mechanical properties :
#
#
# Convention : Reuss Voigt Hill
#
# Bulk Modulus (GPa) = 48.36006 53.86476 51.11241
# Shear Modulus (GPa) = 36.88323 39.68986 38.28655
#
# Velocity S-wave (km/s) = 4.09678 4.24980 4.17399
# Velocity P-wave (km/s) = 6.66216 6.97080 6.81823
#
# Compressibility (1/GPa) = 0.02067822
#
# Stress axis : x y z
#
# Youngs Moduli (GPa) = 96.71623 85.41180 81.71436
#
# Poissons Ratio (x) = 0.25013 0.22129
# Poissons Ratio (y) = 0.28323 0.09536
# Poissons Ratio (z) = 0.26191 0.09967
#
# Static dielectric constant tensor:
#      x y z
#    x 1.827660 -0.001130 0.030560 
#    y -0.001130 1.777870 -0.012280 
#    z 0.030560 -0.012280 1.794110 
# 
# From -- ./inp_files/297825.got.cif
#   From: 2010.05.17/outbox.cif.g08.bks.cpg/sg2_149_cif.got.tgz:297825.got - 2010.06.03 11:33:40.
