data_PCOD9063072
_publ_section_title
;
Structure prediction by ZEFSAII (Michael W. Deem and Ramdas Pophale) SiO2 
 PCOD9063072
Probable space group: P -1
;
_chemical_formula_sum "Si O2"
_cell_formula_units_Z 16
_cell_length_a 7.289228
_cell_length_b 12.463509
_cell_length_c 15.405754
_cell_angle_alpha 36.333087
_cell_angle_beta 119.475078
_cell_angle_gamma 102.098451
_cell_volume 672.904668
_symmetry_space_group_name_H-M "P -1"
_symmetry_group_IT_number 2
_symmetry_cell_setting 'triclinic'
loop_
_space_group_symop_operation_xyz
x,y,z
-x,-y,-z
loop_
_atom_site_type_symbol
_atom_site_label
_atom_site_fract_x
_atom_site_fract_y
_atom_site_fract_z
Si Si1 0.177499 0.668176 0.259020
Si Si2 0.645305 0.918624 0.722487
Si Si3 0.116036 0.142392 0.469630
Si Si4 0.522183 0.419553 0.777976
Si Si5 0.251385 0.229127 0.619951
Si Si6 0.659935 0.827835 0.974157
Si Si7 0.171825 0.377425 0.190537
Si Si8 0.862909 0.218054 0.633213
O O1 0.334992 0.683329 0.206620
O O2 0.248943 0.438384 0.451934
O O3 0.193460 0.768383 0.287426
O O4 0.918838 0.763963 0.105381
O O5 0.663966 0.786368 0.898529
O O6 0.690867 0.810269 0.712595
O O7 0.386386 0.063983 0.569308
O O8 0.814453 0.033860 0.703756
O O9 0.096100 0.178496 0.543255
O O10 0.035755 0.331248 0.268531
O O11 0.000000 0.000000 0.500000
O O12 0.673236 0.515769 0.803234
O O13 0.306141 0.591561 0.577881
O O14 0.450627 0.286963 0.914160
O O15 0.111634 0.227184 0.674921
O O16 0.489498 0.052676 0.794283
O O17 0.000000 0.500000 0.000000
#
# Coordination Sequence:
#
# PCOD9063072 Si02
#       8
#     2   2   2   2   2   2   2   2
#     4  12  26  53  76 108 152 196 251 306 370 445
#     4  11  26  48  68 108 145 190 250 293 373 440
#     4  11  24  43  70 102 142 195 236 299 366 441
#     4  12  26  48  76 110 150 194 247 312 369 439
#     4  11  25  48  74 109 154 191 251 302 376 443
#     4  11  28  48  73 113 150 195 249 307 368 444
#     4  12  26  43  72 104 146 189 241 301 364 439
#     4  12  26  49  79 105 147 202 244 311 374 438
#
# _framework density 23.777511000000001
#
# number of rings (size 3 to 8) (size 9 to 14) (size 15 to 20)
#    0.000    0.500    3.750    3.375    8.750    1.500 
#    0.000    0.000    0.000    0.000    0.000    0.000 
#    0.000    0.000    0.000    0.000    0.000    0.000 
#
# Total GULP energy -89609.329183 kJ/mol
# GULP energy per Si atom -5600.583074 kJ/mol
# Density = 2.372339 g / cm^3
# Si number density = 23.777511 Si / 1000 Ang^3
#
#
#
# Elastic Constant Matrix: (Units=GPa)
#
#
# Indices 1 2 3 4 5 6 
#
# 1 106.7219 6.0288 44.1600 -10.0513 -28.6683 -14.3168
# 2 6.0288 72.5333 16.7622 14.2137 -12.8407 -18.3771
# 3 44.1600 16.7622 133.8845 13.1775 -13.6527 -9.0206
# 4 -10.0513 14.2137 13.1775 19.6934 -7.1753 -4.8335
# 5 -28.6683 -12.8407 -13.6527 -7.1753 49.2492 0.9324
# 6 -14.3168 -18.3771 -9.0206 -4.8335 0.9324 29.9477
#
#
#
# Elastic Compliance Matrix: (Units=1/GPa)
#
#
# Indices 1 2 3 4 5 6 
#
# 1 0.018264 0.000690 -0.006169 0.019727 0.011784 0.010114
# 2 0.000690 0.018857 -0.000648 -0.009012 0.003634 0.010139
# 3 -0.006169 -0.000648 0.010279 -0.010934 -0.002467 -0.001939
# 4 0.019727 -0.009012 -0.010934 0.084654 0.018177 0.013705
# 5 0.011784 0.003634 -0.002467 0.018177 0.029904 0.009123
# 6 0.010114 0.010139 -0.001939 0.013705 0.009123 0.045792
#
#
# Mechanical properties :
#
#
# Convention : Reuss Voigt Hill
#
# Bulk Modulus (GPa) = 28.45197 49.67130 39.06163
# Shear Modulus (GPa) = 21.57787 36.19064 28.88425
#
# Velocity S-wave (km/s) = 3.01573 3.90558 3.48914
# Velocity P-wave (km/s) = 4.91101 6.42444 5.71802
#
# Compressibility (1/GPa) = 0.03514695
#
# Stress axis : x y z
#
# Youngs Moduli (GPa) = 54.75204 53.03016 97.28529
#
# Poissons Ratio (x) = -0.03661 0.60017
# Poissons Ratio (y) = -0.03780 0.06304
# Poissons Ratio (z) = 0.33778 0.03436
#
# Static dielectric constant tensor:
#      x y z
#    x 2.133740 -0.064440 0.128210 
#    y -0.064440 1.955850 -0.084980 
#    z 0.128210 -0.084980 2.013180 
# 
# From -- ./inp_files/499925.got.cif
#   From: 2010.05.17/outbox.cif.g08.bks.cpg/sg2_250_cif.got.tgz:499925.got - 2010.06.03 11:33:40.
