data_PCOD9063868
_publ_section_title
;
Structure prediction by ZEFSAII (Michael W. Deem and Ramdas Pophale) SiO2 
 PCOD9063868
Probable space group: P -1
;
_chemical_formula_sum "Si O2"
_cell_formula_units_Z 12
_cell_length_a 15.437934
_cell_length_b 9.572679
_cell_length_c 9.276911
_cell_angle_alpha 60.370065
_cell_angle_beta 58.559308
_cell_angle_gamma 27.975575
_cell_volume 546.738752
_symmetry_space_group_name_H-M "P -1"
_symmetry_group_IT_number 2
_symmetry_cell_setting 'triclinic'
loop_
_space_group_symop_operation_xyz
x,y,z
-x,-y,-z
loop_
_atom_site_type_symbol
_atom_site_label
_atom_site_fract_x
_atom_site_fract_y
_atom_site_fract_z
Si Si1 0.197751 0.316034 0.384089
Si Si2 0.019189 0.837037 0.787348
Si Si3 0.840799 0.367311 0.520150
Si Si4 0.669926 0.305427 0.059181
Si Si5 0.521830 0.329243 0.452568
Si Si6 0.316680 0.354531 0.003069
O O1 0.243981 0.381707 0.436186
O O2 0.188459 0.421046 0.187968
O O3 0.000000 0.500000 0.500000
O O4 0.362190 0.966006 0.420845
O O5 0.035317 0.731821 0.670568
O O6 0.973826 0.080299 0.652997
O O7 0.211988 0.540455 0.852135
O O8 0.856918 0.017597 0.951781
O O9 0.674455 0.478048 0.541221
O O10 0.642359 0.236292 0.260805
O O11 0.500000 0.500000 0.000000
O O12 0.655423 0.511383 0.012093
O O13 0.500000 0.500000 0.500000
O O14 0.500000 0.000000 0.000000
#
# Coordination Sequence:
#
# PCOD9063868 Si02
#       6
#     2   2   2   2   2   2
#     4  12  27  45  71 105 141 182 236 287 347 414
#     4  11  24  44  75  96 142 183 234 281 353 407
#     4  11  25  46  72 103 142 185 234 287 353 409
#     4  12  24  45  72 105 136 181 235 285 350 414
#     4  12  26  46  75 104 141 185 232 287 352 421
#     4  12  26  47  70 103 140 184 233 290 346 414
#
# _framework density 21.948326000000002
#
# number of rings (size 3 to 8) (size 9 to 14) (size 15 to 20)
#    0.000    0.333    3.333    5.000    7.000    2.667 
#    0.000    2.500    0.000    0.000    0.000    0.000 
#    0.000    0.000    0.000    0.000    0.000    0.000 
#
# Total GULP energy -67134.103037 kJ/mol
# GULP energy per Si atom -5594.508586 kJ/mol
# Density = 2.189837 g / cm^3
# Si number density = 21.948326 Si / 1000 Ang^3
#
#
#
# Elastic Constant Matrix: (Units=GPa)
#
#
# Indices 1 2 3 4 5 6 
#
# 1 69.0731 40.6444 40.1124 -13.0955 4.9426 -1.5896
# 2 40.6444 130.2956 33.8446 -11.4583 9.3561 -3.6557
# 3 40.1124 33.8446 159.5319 4.9143 12.0337 -4.2767
# 4 -13.0955 -11.4583 4.9143 54.0164 -2.6308 2.3599
# 5 4.9426 9.3561 12.0337 -2.6308 31.2600 4.8553
# 6 -1.5896 -3.6557 -4.2767 2.3599 4.8553 34.0577
#
#
#
# Elastic Compliance Matrix: (Units=1/GPa)
#
#
# Indices 1 2 3 4 5 6 
#
# 1 0.020725 -0.004991 -0.004324 0.004395 0.000323 -0.000462
# 2 -0.004991 0.009630 -0.000640 0.000756 -0.001929 0.000943
# 3 -0.004324 -0.000640 0.007774 -0.002065 -0.002478 0.001202
# 4 0.004395 0.000756 -0.002065 0.020086 0.001816 -0.001624
# 5 0.000323 -0.001929 -0.002478 0.001816 0.034484 -0.005545
# 6 -0.000462 0.000943 0.001202 -0.001624 -0.005545 0.030496
#
#
# Mechanical properties :
#
#
# Convention : Reuss Voigt Hill
#
# Bulk Modulus (GPa) = 54.89429 65.34482 60.11955
# Shear Modulus (GPa) = 33.51672 40.15344 36.83508
#
# Velocity S-wave (km/s) = 3.91202 4.28185 4.10111
# Velocity P-wave (km/s) = 6.74316 7.36766 7.06232
#
# Compressibility (1/GPa) = 0.01821683
#
# Stress axis : x y z
#
# Youngs Moduli (GPa) = 48.25028 103.84573 128.63017
#
# Poissons Ratio (x) = 0.51834 0.55624
# Poissons Ratio (y) = 0.24084 0.08237
# Poissons Ratio (z) = 0.20865 0.06650
#
# Static dielectric constant tensor:
#      x y z
#    x 1.806950 -0.008750 -0.030110 
#    y -0.008750 1.805350 0.060160 
#    z -0.030110 0.060160 1.864080 
# 
# From -- ./inp_files/151150.got.cif
#   From: 2010.05.17/outbox.cif.g08.bks.cpg/sg2_76_cif.got.tgz:151150.got - 2010.06.03 11:33:40.
