data_PCOD9063982
_publ_section_title
;
Structure prediction by ZEFSAII (Michael W. Deem and Ramdas Pophale) SiO2 
 PCOD9063982
Probable space group: P -1
;
_chemical_formula_sum "Si O2"
_cell_formula_units_Z 16
_cell_length_a 21.491297
_cell_length_b 9.543266
_cell_length_c 6.704452
_cell_angle_alpha 50.043657
_cell_angle_beta 124.325322
_cell_angle_gamma 133.095198
_cell_volume 750.197177
_symmetry_space_group_name_H-M "P -1"
_symmetry_group_IT_number 2
_symmetry_cell_setting 'triclinic'
loop_
_space_group_symop_operation_xyz
x,y,z
-x,-y,-z
loop_
_atom_site_type_symbol
_atom_site_label
_atom_site_fract_x
_atom_site_fract_y
_atom_site_fract_z
Si Si1 0.448306 0.086163 0.952098
Si Si2 0.159911 0.593007 0.113531
Si Si3 0.320414 0.041558 0.433628
Si Si4 0.072547 0.188980 0.596136
Si Si5 0.971534 0.660648 0.222545
Si Si6 0.646195 0.228501 0.576849
Si Si7 0.144182 0.922132 0.042891
Si Si8 0.426116 0.499197 0.002637
O O1 0.421232 0.955759 0.228956
O O2 0.363250 0.060456 0.708610
O O3 0.518129 0.331874 0.881672
O O4 0.500000 0.000000 0.000000
O O5 0.106279 0.412966 0.346137
O O6 0.260512 0.660864 0.245821
O O7 0.149733 0.791583 0.983946
O O8 0.117205 0.482543 0.929358
O O9 0.364489 0.268613 0.194570
O O10 0.342774 0.887896 0.488424
O O11 0.216957 0.947028 0.309682
O O12 0.038934 0.211114 0.731987
O O13 0.000000 0.000000 0.500000
O O14 0.152650 0.144154 0.795743
O O15 0.000000 0.500000 0.500000
O O16 0.049113 0.805285 0.078860
O O17 0.620309 0.398087 0.302829
O O18 0.500000 0.500000 0.000000
#
# Coordination Sequence:
#
# PCOD9063982 Si02
#       8
#     2   2   2   2   2   2   2   2
#     4  12  24  45  73  97 135 180 223 272 343 408
#     4  11  25  45  68  97 137 177 222 275 334 393
#     4  11  25  45  68 104 136 173 226 281 333 404
#     4  12  24  44  67  96 133 179 229 271 326 393
#     4  12  24  43  69  97 134 181 222 269 333 397
#     4  11  25  45  68 103 139 173 221 286 334 395
#     4  11  24  45  68  98 136 175 223 278 332 392
#     4  12  23  46  72  96 136 176 222 275 343 401
#
# _framework density 21.327726999999999
#
# number of rings (size 3 to 8) (size 9 to 14) (size 15 to 20)
#    0.000    0.500    5.000    3.750    1.750    0.000 
#    4.500    0.000    0.000    0.000    0.000    0.000 
#    0.000    0.000    0.000    0.000    0.000    0.000 
#
# Total GULP energy -89468.069039 kJ/mol
# GULP energy per Si atom -5591.754315 kJ/mol
# Density = 2.127918 g / cm^3
# Si number density = 21.327727 Si / 1000 Ang^3
#
#
#
# Elastic Constant Matrix: (Units=GPa)
#
#
# Indices 1 2 3 4 5 6 
#
# 1 77.7626 35.4263 27.4673 8.3195 27.2292 -20.5177
# 2 35.4263 94.9924 24.5735 15.0960 18.5058 -10.4643
# 3 27.4673 24.5735 107.4192 2.3027 24.3760 -8.6148
# 4 8.3195 15.0960 2.3027 44.9182 1.1586 3.1001
# 5 27.2292 18.5058 24.3760 1.1586 29.5226 -7.6313
# 6 -20.5177 -10.4643 -8.6148 3.1001 -7.6313 38.4766
#
#
#
# Elastic Compliance Matrix: (Units=1/GPa)
#
#
# Indices 1 2 3 4 5 6 
#
# 1 0.022904 -0.003895 -0.000632 -0.003048 -0.015950 0.008095
# 2 -0.003895 0.013698 -0.001152 -0.003796 -0.003642 0.000974
# 3 -0.000632 -0.001152 0.011621 0.000098 -0.008213 0.000315
# 4 -0.003048 -0.003796 0.000098 0.024291 0.003130 -0.003972
# 5 -0.015950 -0.003642 -0.008213 0.003130 0.057476 -0.000187
# 6 0.008095 0.000974 0.000315 -0.003972 -0.000187 0.030925
#
#
# Mechanical properties :
#
#
# Convention : Reuss Voigt Hill
#
# Bulk Modulus (GPa) = 27.12494 50.56760 38.84627
# Shear Modulus (GPa) = 27.09130 35.43065 31.26098
#
# Velocity S-wave (km/s) = 3.56791 4.08026 3.83266
# Velocity P-wave (km/s) = 5.45152 6.77933 6.15136
#
# Compressibility (1/GPa) = 0.03686645
#
# Stress axis : x y z
#
# Youngs Moduli (GPa) = 43.66029 73.00432 86.04951
#
# Poissons Ratio (x) = 0.28436 0.05436
# Poissons Ratio (y) = 0.17006 0.09909
# Poissons Ratio (z) = 0.02758 0.08407
#
# Static dielectric constant tensor:
#      x y z
#    x 1.726730 0.032220 0.002670 
#    y 0.032220 1.784100 -0.027930 
#    z 0.002670 -0.027930 1.868600 
# 
# From -- ./inp_files/47203.got.cif
#   From: 2010.05.17/outbox.cif.g08.bks.cpg/sg2_24_cif.got.tgz:47203.got - 2010.06.03 11:33:40.
