data_PCOD9063776
_publ_section_title
;
Structure prediction by ZEFSAII (Michael W. Deem and Ramdas Pophale) SiO2 
 PCOD9063776
Probable space group: P -1
;
_chemical_formula_sum "Si O2"
_cell_formula_units_Z 16
_cell_length_a 8.647651
_cell_length_b 19.413346
_cell_length_c 11.762266
_cell_angle_alpha 145.713586
_cell_angle_beta 42.493884
_cell_angle_gamma 141.378842
_cell_volume 670.217849
_symmetry_space_group_name_H-M "P -1"
_symmetry_group_IT_number 2
_symmetry_cell_setting 'triclinic'
loop_
_space_group_symop_operation_xyz
x,y,z
-x,-y,-z
loop_
_atom_site_type_symbol
_atom_site_label
_atom_site_fract_x
_atom_site_fract_y
_atom_site_fract_z
Si Si1 0.558677 0.297455 0.959046
Si Si2 0.007010 0.672107 0.057794
Si Si3 0.934685 0.987357 0.183784
Si Si4 0.390812 0.418568 0.645780
Si Si5 0.161419 0.967371 0.276947
Si Si6 0.761733 0.153300 0.230601
Si Si7 0.116150 0.616593 0.690193
Si Si8 0.916010 0.273144 0.549418
O O1 0.328567 0.146666 0.882166
O O2 0.707172 0.303821 0.770376
O O3 0.770904 0.326728 0.980528
O O4 0.476492 0.418057 0.182061
O O5 0.969133 0.579409 0.839841
O O6 0.119851 0.819465 0.138659
O O7 0.772240 0.641794 0.230831
O O8 0.041444 0.979214 0.239194
O O9 0.900341 0.124234 0.385846
O O10 0.141001 0.962353 0.962244
O O11 0.592215 0.362549 0.428590
O O12 0.189307 0.379046 0.596950
O O13 0.458660 0.074061 0.270164
O O14 0.000000 0.000000 0.500000
O O15 0.874587 0.247783 0.187795
O O16 0.856770 0.255803 0.425215
O O17 0.000000 0.500000 0.500000
#
# Coordination Sequence:
#
# PCOD9063776 Si02
#       8
#     2   2   2   2   2   2   2   2
#     4  11  25  47  70 104 139 185 237 288 347 420
#     4  11  25  46  72 101 141 182 235 290 346 417
#     4  12  24  43  70 107 138 181 234 287 354 415
#     4  11  27  48  74 102 142 189 237 290 350 416
#     4  12  24  44  71 100 141 184 228 291 353 417
#     4  12  26  44  69 107 141 178 234 292 349 420
#     4  12  28  46  70 104 143 187 234 285 352 422
#     4  11  24  44  74 100 140 185 232 290 350 414
#
# _framework density 23.872833
#
# number of rings (size 3 to 8) (size 9 to 14) (size 15 to 20)
#    0.000    0.500    1.250    7.875    7.000    1.000 
#    0.000    0.000    0.000    0.000    0.000    0.000 
#    0.000    0.000    0.000    0.000    0.000    0.000 
#
# Total GULP energy -89564.690935 kJ/mol
# GULP energy per Si atom -5597.793183 kJ/mol
# Density = 2.381850 g / cm^3
# Si number density = 23.872833 Si / 1000 Ang^3
#
#
#
# Elastic Constant Matrix: (Units=GPa)
#
#
# Indices 1 2 3 4 5 6 
#
# 1 -1063.0949 -605.2092 -527.8075 512.2492 -395.9526 -495.6196
# 2 -605.2092 -291.0515 -298.5871 297.6824 -218.0001 -265.9482
# 3 -527.8075 -298.5871 -156.8710 257.3249 -179.8493 -248.8498
# 4 512.2492 297.6824 257.3249 -200.6991 176.5153 227.5889
# 5 -395.9526 -218.0001 -179.8493 176.5153 -103.3786 -173.4958
# 6 -495.6196 -265.9482 -248.8498 227.5889 -173.4958 -165.4872
#
#
#
# Elastic Compliance Matrix: (Units=1/GPa)
#
#
# Indices 1 2 3 4 5 6 
#
# 1 0.014563 -0.010928 -0.004854 0.011441 -0.000413 -0.002587
# 2 -0.010928 0.021559 0.000274 -0.005473 -0.004100 -0.005558
# 3 -0.004854 0.000274 0.010352 -0.002000 -0.004835 0.000848
# 4 0.011441 -0.005473 -0.002000 0.026393 0.009156 0.004235
# 5 -0.000413 -0.004100 -0.004835 0.009156 0.028795 -0.002499
# 6 -0.002587 -0.005558 0.000848 0.004235 -0.002499 0.017808
#
#
# Mechanical properties :
#
#
# Convention : Reuss Voigt Hill
#
# Bulk Modulus (GPa) = 64.68687 -486.02499 -210.66906
# Shear Modulus (GPa) = 32.12597 -99.20723 -33.54063
#
# Velocity S-wave (km/s) = 3.67237 -6.45343 -3.75236
# Velocity P-wave (km/s) = 6.71841 16.11087 10.35430
#
# Compressibility (1/GPa) = 0.01545909
#
# Stress axis : x y z
#
# Youngs Moduli (GPa) = 68.66537 46.38525 96.60142
#
# Poissons Ratio (x) = 0.50691 0.46887
# Poissons Ratio (y) = 0.75039 -0.02651
# Poissons Ratio (z) = 0.33328 -0.01273
#
# Static dielectric constant tensor:
#      x y z
#    x 2.050500 -0.087270 -0.082740 
#    y -0.087270 1.931090 0.011180 
#    z -0.082740 0.011180 1.872580 
# 
# From -- ./inp_files/405669.got.cif
#   From: 2010.05.17/outbox.cif.g08.bks.cpg/sg2_203_cif.got.tgz:405669.got - 2010.06.03 11:33:40.
