data_PCOD9063239
_publ_section_title
;
Structure prediction by ZEFSAII (Michael W. Deem and Ramdas Pophale) SiO2 
 PCOD9063239
Probable space group: P -1
;
_chemical_formula_sum "Si O2"
_cell_formula_units_Z 14
_cell_length_a 12.118658
_cell_length_b 18.811186
_cell_length_c 8.765726
_cell_angle_alpha 141.517301
_cell_angle_beta 66.368905
_cell_angle_gamma 142.141644
_cell_volume 627.709587
_symmetry_space_group_name_H-M "P -1"
_symmetry_group_IT_number 2
_symmetry_cell_setting 'triclinic'
loop_
_space_group_symop_operation_xyz
x,y,z
-x,-y,-z
loop_
_atom_site_type_symbol
_atom_site_label
_atom_site_fract_x
_atom_site_fract_y
_atom_site_fract_z
Si Si1 0.967269 0.108595 0.184215
Si Si2 0.686475 0.459407 0.110022
Si Si3 0.053035 0.624137 0.032363
Si Si4 0.399578 0.047721 0.723014
Si Si5 0.102671 0.919312 0.177379
Si Si6 0.645360 0.112479 0.948989
Si Si7 0.673705 0.694738 0.124637
O O1 0.166128 0.344191 0.532278
O O2 0.763500 0.983388 0.187257
O O3 0.900413 0.083604 0.007523
O O4 0.000000 0.000000 0.000000
O O5 0.840044 0.539392 0.017051
O O6 0.603049 0.277285 0.928928
O O7 0.470799 0.358522 0.013866
O O8 0.136666 0.650760 0.860641
O O9 0.260561 0.863295 0.372922
O O10 0.000000 0.500000 0.000000
O O11 0.460184 0.014236 0.773304
O O12 0.242579 0.923275 0.165389
O O13 0.847737 0.736852 0.050832
O O14 0.210322 0.115453 0.522627
O O15 0.500000 0.000000 0.000000
O O16 0.500000 0.500000 0.000000
#
# Coordination Sequence:
#
# PCOD9063239 Si02
#       7
#     2   2   2   2   2   2   2
#     4  11  24  44  69 103 140 187 241 297 351 432
#     4  11  24  44  74 105 136 189 243 291 357 429
#     4  11  24  43  73 105 139 191 244 286 349 440
#     4  11  24  45  70 103 145 187 242 290 359 435
#     4  11  25  44  67 101 142 179 234 296 355 419
#     4  12  24  46  71 102 148 189 228 297 365 419
#     4  11  24  44  69 101 135 183 236 293 357 416
#
# _framework density 22.303308000000001
#
# number of rings (size 3 to 8) (size 9 to 14) (size 15 to 20)
#    0.000    0.857    2.857    3.857    2.000    8.000 
#    0.000    1.429    0.000    0.000    0.000    0.000 
#    0.000    0.000    0.000    0.000    0.000    0.000 
#
# Total GULP energy -77946.129004 kJ/mol
# GULP energy per Si atom -5567.580643 kJ/mol
# Density = 2.225254 g / cm^3
# Si number density = 22.303308 Si / 1000 Ang^3
#
#
#
# Elastic Constant Matrix: (Units=GPa)
#
#
# Indices 1 2 3 4 5 6 
#
# 1 184.9223 15.8763 25.4819 2.8199 -3.0551 -9.9556
# 2 15.8763 192.8343 78.8437 11.9929 -10.2488 12.9207
# 3 25.4819 78.8437 69.3790 10.9898 10.5382 12.4145
# 4 2.8199 11.9929 10.9898 27.1930 -0.0329 0.5712
# 5 -3.0551 -10.2488 10.5382 -0.0329 33.7698 -4.9733
# 6 -9.9556 12.9207 12.4145 0.5712 -4.9733 50.2926
#
#
#
# Elastic Compliance Matrix: (Units=1/GPa)
#
#
# Indices 1 2 3 4 5 6 
#
# 1 0.006106 0.001408 -0.004782 0.000633 0.002811 0.002298
# 2 0.001408 0.011821 -0.015833 0.001008 0.008955 0.002024
# 3 -0.004782 -0.015833 0.039910 -0.008495 -0.018953 -0.008508
# 4 0.000633 0.001008 -0.008495 0.039662 0.003324 0.001842
# 5 0.002811 0.008955 -0.018953 0.003324 0.039504 0.006803
# 6 0.002298 0.002024 -0.008508 0.001842 0.006803 0.022571
#
#
# Mechanical properties :
#
#
# Convention : Reuss Voigt Hill
#
# Bulk Modulus (GPa) = 51.48218 76.39325 63.93771
# Shear Modulus (GPa) = 24.45449 44.04668 34.25059
#
# Velocity S-wave (km/s) = 3.31486 4.44880 3.92302
# Velocity P-wave (km/s) = 6.14687 7.79201 7.01781
#
# Compressibility (1/GPa) = 0.01942420
#
# Stress axis : x y z
#
# Youngs Moduli (GPa) = 163.76850 84.59442 25.05656
#
# Poissons Ratio (x) = -0.11915 0.11981
# Poissons Ratio (y) = -0.23066 0.39672
# Poissons Ratio (z) = 0.78310 1.33939
#
# Static dielectric constant tensor:
#      x y z
#    x 1.930020 0.070050 -0.035740 
#    y 0.070050 2.005950 -0.038830 
#    z -0.035740 -0.038830 1.838830 
# 
# From -- ./inp_files/280089.got.cif
#   From: 2010.05.17/outbox.cif.g08.bks.cpg/sg2_141_cif.got.tgz:280089.got - 2010.06.03 11:33:40.
