data_PCOD9063306
_publ_section_title
;
Structure prediction by ZEFSAII (Michael W. Deem and Ramdas Pophale) SiO2 
 PCOD9063306
Probable space group: P -1
;
_chemical_formula_sum "Si O2"
_cell_formula_units_Z 14
_cell_length_a 6.236751
_cell_length_b 5.583349
_cell_length_c 24.233035
_cell_angle_alpha 100.122496
_cell_angle_beta 49.710414
_cell_angle_gamma 111.902443
_cell_volume 594.650162
_symmetry_space_group_name_H-M "P -1"
_symmetry_group_IT_number 2
_symmetry_cell_setting 'triclinic'
loop_
_space_group_symop_operation_xyz
x,y,z
-x,-y,-z
loop_
_atom_site_type_symbol
_atom_site_label
_atom_site_fract_x
_atom_site_fract_y
_atom_site_fract_z
Si Si1 0.423568 0.914684 0.165239
Si Si2 0.411555 0.746252 0.043020
Si Si3 0.821648 0.436075 0.175826
Si Si4 0.250739 0.959294 0.379640
Si Si5 0.071355 0.852492 0.755420
Si Si6 0.739551 0.439024 0.713020
Si Si7 0.802989 0.197528 0.493293
O O1 0.645593 0.193290 0.157531
O O2 0.109145 0.952409 0.204298
O O3 0.537201 0.823946 0.087191
O O4 0.365448 0.737194 0.221652
O O5 0.051851 0.642456 0.106702
O O6 0.500000 0.500000 0.000000
O O7 0.500000 0.000000 0.000000
O O8 0.004294 0.337315 0.187067
O O9 0.562636 0.513117 0.252378
O O10 0.572843 0.038074 0.301267
O O11 0.063221 0.146968 0.412470
O O12 0.099281 0.685793 0.362884
O O13 0.278868 0.937621 0.439197
O O14 0.969643 0.701054 0.709376
O O15 0.000000 0.500000 0.500000
O O16 0.500000 0.000000 0.500000
#
# Coordination Sequence:
#
# PCOD9063306 Si02
#       7
#     2   2   2   2   2   2   2
#     4  11  25  45  70 108 142 186 251 314 374 456
#     4  12  28  47  72 101 149 201 246 306 391 476
#     4  11  25  45  71 106 144 185 246 318 375 453
#     4  11  27  43  74 111 141 204 248 310 384 456
#     4  11  24  43  75 108 147 186 248 315 379 446
#     4  11  25  41  77 108 142 186 248 316 379 443
#     4  11  30  49  73 106 163 199 258 312 381 483
#
# _framework density 23.543253
#
# number of rings (size 3 to 8) (size 9 to 14) (size 15 to 20)
#    0.000    0.857    2.857    1.714   12.000    2.286 
#    0.000    0.000    0.000    0.000    0.000    0.000 
#    0.000    0.000    0.000    0.000    0.000    0.000 
#
# Total GULP energy -77969.307419 kJ/mol
# GULP energy per Si atom -5569.236244 kJ/mol
# Density = 2.348967 g / cm^3
# Si number density = 23.543253 Si / 1000 Ang^3
#
#
#
# Elastic Constant Matrix: (Units=GPa)
#
#
# Indices 1 2 3 4 5 6 
#
# 1 84.0250 27.6568 15.9397 7.5175 10.5423 9.6037
# 2 27.6568 97.5179 30.7524 30.9707 0.2742 15.3435
# 3 15.9397 30.7524 86.7440 26.6776 17.8858 4.9513
# 4 7.5175 30.9707 26.6776 67.6411 5.5134 9.8536
# 5 10.5423 0.2742 17.8858 5.5134 37.6259 -3.8071
# 6 9.6037 15.3435 4.9513 9.8536 -3.8071 51.1094
#
#
#
# Elastic Compliance Matrix: (Units=1/GPa)
#
#
# Indices 1 2 3 4 5 6 
#
# 1 0.013870 -0.003751 -0.000617 0.001015 -0.003908 -0.001907
# 2 -0.003751 0.014204 -0.003414 -0.004682 0.003044 -0.002099
# 3 -0.000617 -0.003414 0.015409 -0.003898 -0.006565 -0.000090
# 4 0.001015 -0.004682 -0.003898 0.018773 -0.001364 -0.002129
# 5 -0.003908 0.003044 -0.006565 -0.001364 0.031279 0.003049
# 6 -0.001907 -0.002099 -0.000090 -0.002129 0.003049 0.021201
#
#
# Mechanical properties :
#
#
# Convention : Reuss Voigt Hill
#
# Bulk Modulus (GPa) = 35.81620 46.33163 41.07391
# Shear Modulus (GPa) = 35.81505 44.20446 40.00975
#
# Velocity S-wave (km/s) = 3.90454 4.33781 4.12687
# Velocity P-wave (km/s) = 5.96433 6.69409 6.33972
#
# Compressibility (1/GPa) = 0.02792033
#
# Stress axis : x y z
#
# Youngs Moduli (GPa) = 72.09728 70.40445 64.89571
#
# Poissons Ratio (x) = 0.26406 0.04003
# Poissons Ratio (y) = 0.27040 0.22156
# Poissons Ratio (z) = 0.04447 0.24037
#
# Static dielectric constant tensor:
#      x y z
#    x 1.962710 0.057320 -0.025840 
#    y 0.057320 2.062470 -0.010000 
#    z -0.025840 -0.010000 1.846690 
# 
# From -- ./inp_files/10353.got.cif
#   From: 2010.05.17/outbox.cif.g08.bks.cpg/sg2_6_cif.got.tgz:10353.got - 2010.06.03 11:33:40.
