data_PCOD9063566
_publ_section_title
;
Structure prediction by ZEFSAII (Michael W. Deem and Ramdas Pophale) SiO2 
 PCOD9063566
Probable space group: P -1
;
_chemical_formula_sum "Si O2"
_cell_formula_units_Z 14
_cell_length_a 13.687512
_cell_length_b 9.137989
_cell_length_c 10.748805
_cell_angle_alpha 90.628268
_cell_angle_beta 148.845488
_cell_angle_gamma 79.246762
_cell_volume 653.419297
_symmetry_space_group_name_H-M "P -1"
_symmetry_group_IT_number 2
_symmetry_cell_setting 'triclinic'
loop_
_space_group_symop_operation_xyz
x,y,z
-x,-y,-z
loop_
_atom_site_type_symbol
_atom_site_label
_atom_site_fract_x
_atom_site_fract_y
_atom_site_fract_z
Si Si1 0.265504 0.438007 0.072755
Si Si2 0.001407 0.742231 0.322077
Si Si3 0.412841 0.067681 0.539436
Si Si4 0.961578 0.237168 0.063216
Si Si5 0.697573 0.219958 0.549040
Si Si6 0.291652 0.597996 0.840236
Si Si7 0.780094 0.102275 0.086076
O O1 0.491857 0.353479 0.363666
O O2 0.149166 0.317572 0.922445
O O3 0.145791 0.579446 0.031757
O O4 0.277955 0.511055 0.951646
O O5 0.190005 0.735197 0.441836
O O6 0.099345 0.628566 0.541847
O O7 0.886888 0.921836 0.236715
O O8 0.576697 0.117902 0.790311
O O9 0.195744 0.198800 0.292351
O O10 0.500000 0.000000 0.500000
O O11 0.366859 0.926927 0.556332
O O12 0.922352 0.152106 0.144279
O O13 0.146900 0.818493 0.167863
O O14 0.500000 0.500000 0.000000
O O15 0.277872 0.772880 0.865372
#
# Coordination Sequence:
#
# PCOD9063566 Si02
#       7
#     2   2   2   2   2   2   2
#     4  11  26  44  67  96 135 178 218 273 332 390
#     4  12  24  45  68  95 134 174 223 273 328 388
#     4  12  23  42  70 101 136 173 218 266 331 399
#     4  11  25  41  67 101 135 173 217 268 333 395
#     4  12  23  42  67 101 136 170 221 271 325 399
#     4  11  25  47  68  95 133 175 224 281 324 380
#     4  11  24  44  70  97 134 175 220 270 327 396
#
# _framework density 21.425751999999999
#
# number of rings (size 3 to 8) (size 9 to 14) (size 15 to 20)
#    0.000    0.571    5.714    2.571    2.000    0.571 
#    0.000    1.429    0.000    0.000    0.000    0.000 
#    0.000    0.000    0.000    0.000    0.000    0.000 
#
# Total GULP energy -78349.271177 kJ/mol
# GULP energy per Si atom -5596.376513 kJ/mol
# Density = 2.137699 g / cm^3
# Si number density = 21.425752 Si / 1000 Ang^3
#
#
#
# Elastic Constant Matrix: (Units=GPa)
#
#
# Indices 1 2 3 4 5 6 
#
# 1 52.5468 13.0693 24.5653 0.9485 22.6003 -11.3406
# 2 13.0693 87.4984 15.4692 -6.4554 25.6878 -12.5865
# 3 24.5653 15.4692 127.5192 -14.3684 30.4793 -20.6112
# 4 0.9485 -6.4554 -14.3684 40.1145 -3.8711 3.9449
# 5 22.6003 25.6878 30.4793 -3.8711 40.0442 -9.3363
# 6 -11.3406 -12.5865 -20.6112 3.9449 -9.3363 28.8281
#
#
#
# Elastic Compliance Matrix: (Units=1/GPa)
#
#
# Indices 1 2 3 4 5 6 
#
# 1 0.026540 0.000840 -0.001393 -0.002859 -0.013364 0.005874
# 2 0.000840 0.014644 0.001223 0.001422 -0.009665 0.004274
# 3 -0.001393 0.001223 0.010709 0.002921 -0.006683 0.005079
# 4 -0.002859 0.001422 0.002921 0.026512 0.000610 -0.001845
# 5 -0.013364 -0.009665 -0.006683 0.000610 0.043827 -0.000145
# 6 0.005874 0.004274 0.005079 -0.001845 -0.000145 0.042702
#
#
# Mechanical properties :
#
#
# Convention : Reuss Voigt Hill
#
# Bulk Modulus (GPa) = 18.78546 41.53020 30.15783
# Shear Modulus (GPa) = 27.57259 36.09474 31.83366
#
# Velocity S-wave (km/s) = 3.59122 4.10889 3.85875
# Velocity P-wave (km/s) = 5.09731 6.47581 5.82746
#
# Compressibility (1/GPa) = 0.05323266
#
# Stress axis : x y z
#
# Youngs Moduli (GPa) = 37.67857 68.28629 93.37623
#
# Poissons Ratio (x) = -0.05733 0.13007
# Poissons Ratio (y) = -0.03163 -0.11418
# Poissons Ratio (z) = 0.05249 -0.08350
#
# Static dielectric constant tensor:
#      x y z
#    x 1.768180 0.017020 -0.015200 
#    y 0.017020 1.784450 -0.031760 
#    z -0.015200 -0.031760 1.756440 
# 
# From -- ./inp_files/188042.got.cif
#   From: 2010.05.17/outbox.cif.g08.bks.cpg/sg2_95_cif.got.tgz:188042.got - 2010.06.03 11:33:40.
