data_PCOD9063522
_publ_section_title
;
Structure prediction by ZEFSAII (Michael W. Deem and Ramdas Pophale) SiO2 
 PCOD9063522
Probable space group: P -1
;
_chemical_formula_sum "Si O2"
_cell_formula_units_Z 16
_cell_length_a 10.132822
_cell_length_b 8.657684
_cell_length_c 11.949195
_cell_angle_alpha 50.340900
_cell_angle_beta 98.928228
_cell_angle_gamma 93.070533
_cell_volume 795.806669
_symmetry_space_group_name_H-M "P -1"
_symmetry_group_IT_number 2
_symmetry_cell_setting 'triclinic'
loop_
_space_group_symop_operation_xyz
x,y,z
-x,-y,-z
loop_
_atom_site_type_symbol
_atom_site_label
_atom_site_fract_x
_atom_site_fract_y
_atom_site_fract_z
Si Si1 0.401392 0.987666 0.601874
Si Si2 0.363614 0.629186 0.928744
Si Si3 0.581488 0.663770 0.375942
Si Si4 0.126704 0.509802 0.434360
Si Si5 0.872407 0.656706 0.915189
Si Si6 0.869338 0.053258 0.881839
Si Si7 0.404257 0.823299 0.083249
Si Si8 0.888247 0.837876 0.586119
O O1 0.374918 0.776689 0.756053
O O2 0.500000 0.000000 0.500000
O O3 0.437798 0.134976 0.642257
O O4 0.256005 0.060765 0.506863
O O5 0.500000 0.500000 0.000000
O O6 0.244966 0.479409 0.994170
O O7 0.363709 0.744389 0.993786
O O8 0.500000 0.500000 0.500000
O O9 0.737265 0.580340 0.443726
O O10 0.502370 0.680642 0.239781
O O11 0.128013 0.739760 0.285033
O O12 0.098878 0.359275 0.398773
O O13 0.000000 0.500000 0.500000
O O14 0.875189 0.754875 0.747441
O O15 0.866346 0.852680 0.901286
O O16 0.000000 0.500000 0.000000
O O17 0.732563 0.096705 0.912598
O O18 0.000000 0.000000 0.000000
O O19 0.500000 0.000000 0.000000
O O20 0.000000 0.000000 0.500000
#
# Coordination Sequence:
#
# PCOD9063522 Si02
#       8
#     2   2   2   2   2   2   2   2
#     4  11  26  44  69 100 140 182 233 289 349 426
#     4  12  26  45  69 105 141 188 235 291 358 419
#     4  11  25  45  71 102 140 189 233 292 351 417
#     4  11  25  45  70 103 141 185 242 287 352 425
#     4  12  26  47  71 102 142 183 238 294 361 430
#     4  12  27  46  72 103 139 187 236 299 356 426
#     4  12  25  46  72 103 146 185 242 291 354 426
#     4  11  24  44  70 101 140 188 232 291 353 419
#
# _framework density 20.105383
#
# number of rings (size 3 to 8) (size 9 to 14) (size 15 to 20)
#    0.000    0.500    2.500    5.250    7.000    2.000 
#    2.250    0.000    0.000    0.000    0.000    0.000 
#    0.000    0.000    0.000    0.000    0.000    0.000 
#
# Total GULP energy -89232.495560 kJ/mol
# GULP energy per Si atom -5577.030972 kJ/mol
# Density = 2.005962 g / cm^3
# Si number density = 20.105383 Si / 1000 Ang^3
#
#
#
# Elastic Constant Matrix: (Units=GPa)
#
#
# Indices 1 2 3 4 5 6 
#
# 1 174.9076 79.3530 53.6477 -5.9550 -25.2808 -15.0647
# 2 79.3530 146.9966 64.0704 -8.2552 -9.1236 -10.5474
# 3 53.6477 64.0704 155.7817 -9.5030 -21.2845 -3.5604
# 4 -5.9550 -8.2552 -9.5030 38.4456 5.1049 -5.4255
# 5 -25.2808 -9.1236 -21.2845 5.1049 40.0104 -4.2634
# 6 -15.0647 -10.5474 -3.5604 -5.4255 -4.2634 37.3327
#
#
#
# Elastic Compliance Matrix: (Units=1/GPa)
#
#
# Indices 1 2 3 4 5 6 
#
# 1 0.008560 -0.003833 -0.000690 0.000141 0.004452 0.002835
# 2 -0.003833 0.010226 -0.003026 0.001232 -0.001747 0.001033
# 3 -0.000690 -0.003026 0.008405 0.000914 0.003247 0.000172
# 4 0.000141 0.001232 0.000914 0.027410 -0.002191 0.004226
# 5 0.004452 -0.001747 0.003247 -0.002191 0.029917 0.004711
# 6 0.002835 0.001033 0.000172 0.004226 0.004711 0.029390
#
#
# Mechanical properties :
#
#
# Convention : Reuss Voigt Hill
#
# Bulk Modulus (GPa) = 82.68690 96.86978 89.77834
# Shear Modulus (GPa) = 37.58398 41.86538 39.72468
#
# Velocity S-wave (km/s) = 4.32829 4.56817 4.44985
# Velocity P-wave (km/s) = 8.13602 8.72410 8.43518
#
# Compressibility (1/GPa) = 0.01209381
#
# Stress axis : x y z
#
# Youngs Moduli (GPa) = 116.82034 97.79461 118.98372
#
# Poissons Ratio (x) = 0.37481 0.08209
# Poissons Ratio (y) = 0.44773 0.35999
# Poissons Ratio (z) = 0.08060 0.29588
#
# Static dielectric constant tensor:
#      x y z
#    x 1.674650 -0.016170 -0.016860 
#    y -0.016170 1.817730 0.071420 
#    z -0.016860 0.071420 1.568580 
# 
# From -- ./inp_files/205917.got.cif
#   From: 2010.05.17/outbox.cif.g08.bks.cpg/sg2_103_cif.got.tgz:205917.got - 2010.06.03 11:33:40.
