data_PCOD9063716
_publ_section_title
;
Structure prediction by ZEFSAII (Michael W. Deem and Ramdas Pophale) SiO2 
 PCOD9063716
Probable space group: P -1
;
_chemical_formula_sum "Si O2"
_cell_formula_units_Z 12
_cell_length_a 9.090122
_cell_length_b 9.563879
_cell_length_c 12.684368
_cell_angle_alpha 32.953461
_cell_angle_beta 78.883378
_cell_angle_gamma 63.798637
_cell_volume 501.273919
_symmetry_space_group_name_H-M "P -1"
_symmetry_group_IT_number 2
_symmetry_cell_setting 'triclinic'
loop_
_space_group_symop_operation_xyz
x,y,z
-x,-y,-z
loop_
_atom_site_type_symbol
_atom_site_label
_atom_site_fract_x
_atom_site_fract_y
_atom_site_fract_z
Si Si1 0.526668 0.566223 0.276148
Si Si2 0.150440 0.299840 0.331670
Si Si3 0.912879 0.830325 0.354643
Si Si4 0.381257 0.557733 0.080618
Si Si5 0.815445 0.002413 0.690624
Si Si6 0.221354 0.200308 0.971830
O O1 0.619611 0.284468 0.518847
O O2 0.339997 0.842702 0.164486
O O3 0.492827 0.489884 0.213496
O O4 0.666050 0.671756 0.174455
O O5 0.189538 0.157568 0.531632
O O6 0.116190 0.122984 0.356574
O O7 0.296935 0.353015 0.230036
O O8 0.969853 0.622704 0.164327
O O9 0.000000 0.500000 0.500000
O O10 0.060093 0.900721 0.330722
O O11 0.778640 0.093166 0.128255
O O12 0.500000 0.500000 0.000000
O O13 0.806591 0.766565 0.919013
#
# Coordination Sequence:
#
# PCOD9063716 Si02
#       6
#     2   2   2   2   2   2
#     4  11  26  44  70 107 144 182 238 293 344 421
#     4  12  26  47  76 102 144 192 233 287 359 421
#     4  12  28  46  74 107 143 185 240 290 353 422
#     4  12  28  47  71 107 146 182 238 299 351 412
#     4  12  25  46  75 103 139 191 239 282 351 428
#     4  11  24  44  73 102 140 190 233 285 352 420
#
# _framework density 23.939005000000002
#
# number of rings (size 3 to 8) (size 9 to 14) (size 15 to 20)
#    0.000    0.333    3.333    4.500    7.000    5.333 
#    0.000    0.000    0.000    0.000    0.000    0.000 
#    0.000    0.000    0.000    0.000    0.000    0.000 
#
# Total GULP energy -67223.305254 kJ/mol
# GULP energy per Si atom -5601.942104 kJ/mol
# Density = 2.388452 g / cm^3
# Si number density = 23.939005 Si / 1000 Ang^3
#
#
#
# Elastic Constant Matrix: (Units=GPa)
#
#
# Indices 1 2 3 4 5 6 
#
# 1 63.1544 5.4333 -1.6539 -0.5403 2.9333 -17.7664
# 2 5.4333 84.2558 -12.0930 4.8813 -7.6340 -3.9329
# 3 -1.6539 -12.0930 89.9214 7.3294 18.3181 5.1154
# 4 -0.5403 4.8813 7.3294 46.1286 -7.4415 1.0566
# 5 2.9333 -7.6340 18.3181 -7.4415 37.2470 5.6019
# 6 -17.7664 -3.9329 5.1154 1.0566 5.6019 23.2828
#
#
#
# Elastic Compliance Matrix: (Units=1/GPa)
#
#
# Indices 1 2 3 4 5 6 
#
# 1 0.020878 -0.000887 0.000332 -0.000859 -0.004699 0.016879
# 2 -0.000887 0.012379 0.001397 -0.001312 0.001538 0.000797
# 3 0.000332 0.001397 0.012978 -0.003270 -0.006685 -0.000605
# 4 -0.000859 -0.001312 -0.003270 0.023441 0.006510 -0.002789
# 5 -0.004699 0.001538 -0.006685 0.006510 0.033663 -0.010252
# 6 0.016879 0.000797 -0.000605 -0.002789 -0.010252 0.058691
#
#
# Mechanical properties :
#
#
# Convention : Reuss Voigt Hill
#
# Bulk Modulus (GPa) = 20.86882 24.52271 22.69577
# Shear Modulus (GPa) = 28.35770 37.70800 33.03285
#
# Velocity S-wave (km/s) = 3.44551 3.97315 3.71870
# Velocity P-wave (km/s) = 4.95632 5.59589 5.28579
#
# Compressibility (1/GPa) = 0.04791837
#
# Stress axis : x y z
#
# Youngs Moduli (GPa) = 47.89642 80.78283 77.05643
#
# Poissons Ratio (x) = 0.07165 -0.02558
# Poissons Ratio (y) = 0.04248 -0.10763
# Poissons Ratio (z) = -0.01590 -0.11284
#
# Static dielectric constant tensor:
#      x y z
#    x 1.902540 -0.016510 -0.023380 
#    y -0.016510 1.957340 -0.037990 
#    z -0.023380 -0.037990 1.896050 
# 
# From -- ./inp_files/148596.got.cif
#   From: 2010.05.17/outbox.cif.g08.bks.cpg/sg2_75_cif.got.tgz:148596.got - 2010.06.03 11:33:40.
