data_PCOD9063188
_publ_section_title
;
Structure prediction by ZEFSAII (Michael W. Deem and Ramdas Pophale) SiO2 
 PCOD9063188
Probable space group: P -1
;
_chemical_formula_sum "Si O2"
_cell_formula_units_Z 14
_cell_length_a 8.891960
_cell_length_b 9.862323
_cell_length_c 20.148608
_cell_angle_alpha 25.222114
_cell_angle_beta 113.054503
_cell_angle_gamma 123.614665
_cell_volume 596.599925
_symmetry_space_group_name_H-M "P -1"
_symmetry_group_IT_number 2
_symmetry_cell_setting 'triclinic'
loop_
_space_group_symop_operation_xyz
x,y,z
-x,-y,-z
loop_
_atom_site_type_symbol
_atom_site_label
_atom_site_fract_x
_atom_site_fract_y
_atom_site_fract_z
Si Si1 0.775332 0.479130 0.032163
Si Si2 0.197739 0.076352 0.030431
Si Si3 0.435934 0.641445 0.564453
Si Si4 0.872709 0.597843 0.479683
Si Si5 0.128398 0.372019 0.167236
Si Si6 0.495734 0.454380 0.233432
Si Si7 0.363662 0.716250 0.294364
O O1 0.752806 0.699680 0.991083
O O2 0.972478 0.493136 0.079795
O O3 0.573918 0.088758 0.164679
O O4 0.818805 0.660821 0.885932
O O5 0.348454 0.310812 0.897133
O O6 0.227214 0.739990 0.205537
O O7 0.000000 0.000000 0.000000
O O8 0.256287 0.358965 0.616168
O O9 0.427047 0.493781 0.701838
O O10 0.608039 0.631350 0.561973
O O11 0.434496 0.024528 0.397192
O O12 0.734954 0.334061 0.629118
O O13 0.000000 0.500000 0.500000
O O14 0.018244 0.995538 0.356897
O O15 0.333606 0.562450 0.151867
#
# Coordination Sequence:
#
# PCOD9063188 Si02
#       7
#     2   2   2   2   2   2   2
#     4  11  25  46  71 106 141 185 239 291 350 418
#     4  12  29  45  70 103 142 190 234 292 354 422
#     4  11  26  45  71 104 142 186 230 291 359 414
#     4  12  24  42  73 103 140 182 240 287 343 419
#     4  11  24  43  72 104 138 188 231 292 348 416
#     4  11  26  47  70 103 150 184 226 301 356 415
#     4  12  26  47  75 105 140 189 239 291 345 425
#
# _framework density 23.466313
#
# number of rings (size 3 to 8) (size 9 to 14) (size 15 to 20)
#    0.000    0.571    4.286    2.571    8.000    0.571 
#    0.000    1.429    0.000    0.000    0.000    0.000 
#    0.000    0.000    0.000    0.000    0.000    0.000 
#
# Total GULP energy -78183.871284 kJ/mol
# GULP energy per Si atom -5584.562235 kJ/mol
# Density = 2.341290 g / cm^3
# Si number density = 23.466313 Si / 1000 Ang^3
#
#
#
# Elastic Constant Matrix: (Units=GPa)
#
#
# Indices 1 2 3 4 5 6 
#
# 1 149.0283 39.1906 55.8614 28.1686 -4.9689 6.4121
# 2 39.1906 69.4242 29.4363 22.8438 -3.0656 5.4216
# 3 55.8614 29.4363 65.9397 18.4334 -10.4642 7.7045
# 4 28.1686 22.8438 18.4334 25.5628 3.0606 2.8194
# 5 -4.9689 -3.0656 -10.4642 3.0606 45.9331 9.7212
# 6 6.4121 5.4216 7.7045 2.8194 9.7212 48.7822
#
#
#
# Elastic Compliance Matrix: (Units=1/GPa)
#
#
# Indices 1 2 3 4 5 6 
#
# 1 0.010711 -0.001248 -0.006991 -0.005647 -0.000183 0.000198
# 2 -0.001248 0.022102 -0.004080 -0.015515 0.001674 -0.001085
# 3 -0.006991 -0.004080 0.026640 -0.008222 0.006356 -0.003626
# 4 -0.005647 -0.015515 -0.008222 0.065947 -0.008252 0.001598
# 5 -0.000183 0.001674 0.006356 -0.008252 0.025063 -0.005684
# 6 0.000198 -0.001085 -0.003626 0.001598 -0.005684 0.022207
#
#
# Mechanical properties :
#
#
# Convention : Reuss Voigt Hill
#
# Bulk Modulus (GPa) = 28.72207 59.26318 43.99263
# Shear Modulus (GPa) = 23.93335 34.71586 29.32461
#
# Velocity S-wave (km/s) = 3.19706 3.85046 3.53887
# Velocity P-wave (km/s) = 5.08866 6.71397 5.95701
#
# Compressibility (1/GPa) = 0.03481643
#
# Stress axis : x y z
#
# Youngs Moduli (GPa) = 93.35782 45.24386 37.53817
#
# Poissons Ratio (x) = 0.05646 0.26242
# Poissons Ratio (y) = 0.11651 0.15315
# Poissons Ratio (z) = 0.65263 0.18459
#
# Static dielectric constant tensor:
#      x y z
#    x 1.917640 -0.006530 0.077140 
#    y -0.006530 1.905660 -0.082070 
#    z 0.077140 -0.082070 1.924120 
# 
# From -- ./inp_files/157247.got.cif
#   From: 2010.05.17/outbox.cif.g08.bks.cpg/sg2_79_cif.got.tgz:157247.got - 2010.06.03 11:33:40.
