data_PCOD9063741
_publ_section_title
;
Structure prediction by ZEFSAII (Michael W. Deem and Ramdas Pophale) SiO2 
 PCOD9063741
Probable space group: P -1
;
_chemical_formula_sum "Si O2"
_cell_formula_units_Z 16
_cell_length_a 27.000343
_cell_length_b 10.067864
_cell_length_c 11.737393
_cell_angle_alpha 38.670162
_cell_angle_beta 152.258081
_cell_angle_gamma 152.363727
_cell_volume 688.844256
_symmetry_space_group_name_H-M "P -1"
_symmetry_group_IT_number 2
_symmetry_cell_setting 'triclinic'
loop_
_space_group_symop_operation_xyz
x,y,z
-x,-y,-z
loop_
_atom_site_type_symbol
_atom_site_label
_atom_site_fract_x
_atom_site_fract_y
_atom_site_fract_z
Si Si1 0.634622 0.227517 0.887728
Si Si2 0.105131 0.834761 0.009653
Si Si3 0.593883 0.336913 0.496122
Si Si4 0.134208 0.057523 0.680457
Si Si5 0.630014 0.606741 0.769208
Si Si6 0.557058 0.429340 0.000005
Si Si7 0.077715 0.618197 0.699640
Si Si8 0.941940 0.779841 0.919834
O O1 0.575491 0.300868 0.619176
O O2 0.689662 0.462600 0.938217
O O3 0.767053 0.274753 0.075098
O O4 0.526563 0.898983 0.925055
O O5 0.015700 0.880101 0.877920
O O6 0.162774 0.949111 0.921556
O O7 0.000000 0.500000 0.000000
O O8 0.255923 0.049335 0.237108
O O9 0.527085 0.459964 0.219871
O O10 0.769305 0.569421 0.687027
O O11 0.500000 0.000000 0.500000
O O12 0.091632 0.869000 0.610323
O O13 0.284988 0.373778 0.754621
O O14 0.000000 0.000000 0.500000
O O15 0.500000 0.500000 0.500000
O O16 0.581932 0.482759 0.880372
O O17 0.000000 0.500000 0.500000
O O18 0.015017 0.392895 0.825221
O O19 0.000000 0.000000 0.000000
#
# Coordination Sequence:
#
# PCOD9063741 Si02
#       8
#     2   2   2   2   2   2   2   2
#     4  11  25  46  71 104 143 188 239 302 360 426
#     4  11  24  45  71 100 145 190 235 295 365 428
#     4  11  25  44  73 102 141 186 245 298 355 438
#     4  11  27  47  68 107 144 185 240 298 359 439
#     4  11  24  44  73 105 147 186 245 299 358 444
#     4  11  25  46  73 104 146 187 240 298 371 428
#     4  11  26  44  69 100 145 184 240 296 353 432
#     4  11  25  44  70 107 139 185 242 291 362 424
#
# _framework density 23.227311
#
# number of rings (size 3 to 8) (size 9 to 14) (size 15 to 20)
#    0.000    1.000    2.500    3.375    8.750    4.000 
#    0.000    0.000    0.000    0.000    0.000    0.000 
#    0.000    0.000    0.000    0.000    0.000    0.000 
#
# Total GULP energy -89166.425409 kJ/mol
# GULP energy per Si atom -5572.901588 kJ/mol
# Density = 2.317444 g / cm^3
# Si number density = 23.227311 Si / 1000 Ang^3
#
#
#
# Elastic Constant Matrix: (Units=GPa)
#
#
# Indices 1 2 3 4 5 6 
#
# 1 105.0924 26.5832 11.9946 14.2972 4.2555 -22.2462
# 2 26.5832 142.1213 42.4397 30.3093 1.0645 -5.4662
# 3 11.9946 42.4397 86.2916 14.9598 4.7115 -8.3833
# 4 14.2972 30.3093 14.9598 36.9926 5.6218 -6.0877
# 5 4.2555 1.0645 4.7115 5.6218 28.3343 -2.1546
# 6 -22.2462 -5.4662 -8.3833 -6.0877 -2.1546 45.2617
#
#
#
# Elastic Compliance Matrix: (Units=1/GPa)
#
#
# Indices 1 2 3 4 5 6 
#
# 1 0.011280 -0.001452 0.000070 -0.002243 -0.000823 0.005041
# 2 -0.001452 0.009697 -0.003658 -0.006317 0.001640 -0.000992
# 3 0.000070 -0.003658 0.014017 -0.002150 -0.001639 0.001822
# 4 -0.002243 -0.006317 -0.002150 0.035199 -0.005886 0.002190
# 5 -0.000823 0.001640 -0.001639 -0.005886 0.036829 0.000452
# 6 0.005041 -0.000992 0.001822 0.002190 0.000452 0.025105
#
#
# Mechanical properties :
#
#
# Convention : Reuss Voigt Hill
#
# Bulk Modulus (GPa) = 40.13880 55.06003 47.59941
# Shear Modulus (GPa) = 33.21950 38.95024 36.08487
#
# Velocity S-wave (km/s) = 3.78589 4.09946 3.94579
# Velocity P-wave (km/s) = 6.03564 6.79439 6.42622
#
# Compressibility (1/GPa) = 0.02491355
#
# Stress axis : x y z
#
# Youngs Moduli (GPa) = 88.64895 103.12482 71.34138
#
# Poissons Ratio (x) = 0.14977 -0.00499
# Poissons Ratio (y) = 0.12875 0.26097
# Poissons Ratio (z) = -0.00620 0.37724
#
# Static dielectric constant tensor:
#      x y z
#    x 2.012110 0.020030 0.297970 
#    y 0.020030 1.967890 0.148480 
#    z 0.297970 0.148480 2.795380 
# 
# From -- ./inp_files/476377.got.cif
#   From: 2010.05.17/outbox.cif.g08.bks.cpg/sg2_239_cif.got.tgz:476377.got - 2010.06.03 11:33:40.
