data_PCOD9063816
_publ_section_title
;
Structure prediction by ZEFSAII (Michael W. Deem and Ramdas Pophale) SiO2 
 PCOD9063816
Probable space group: P -1
;
_chemical_formula_sum "Si O2"
_cell_formula_units_Z 13
_cell_length_a 15.036211
_cell_length_b 9.200557
_cell_length_c 11.204103
_cell_angle_alpha 54.077882
_cell_angle_beta 141.883235
_cell_angle_gamma 145.324975
_cell_volume 536.225745
_symmetry_space_group_name_H-M "P -1"
_symmetry_group_IT_number 2
_symmetry_cell_setting 'triclinic'
loop_
_space_group_symop_operation_xyz
x,y,z
-x,-y,-z
loop_
_atom_site_type_symbol
_atom_site_label
_atom_site_fract_x
_atom_site_fract_y
_atom_site_fract_z
Si Si1 0.066756 0.092863 0.389266
Si Si2 0.860675 0.551470 0.343532
Si Si3 0.832466 0.251772 0.024249
Si Si4 0.182375 0.441240 0.962499
Si Si5 0.500000 0.500000 0.500000
Si Si6 0.501806 0.141880 0.325047
Si Si7 0.725200 0.856030 0.733748
O O1 0.302817 0.334156 0.476494
O O2 0.930761 0.145732 0.193563
O O3 0.000000 0.000000 0.500000
O O4 0.985549 0.845975 0.352097
O O5 0.732177 0.463865 0.126708
O O6 0.725760 0.397291 0.392942
O O7 0.000000 0.500000 0.500000
O O8 0.809422 0.360469 0.061298
O O9 0.000000 0.500000 0.000000
O O10 0.622831 0.042214 0.830197
O O11 0.279738 0.368819 0.183257
O O12 0.947078 0.151717 0.835668
O O13 0.593239 0.778932 0.515311
O O14 0.381596 0.202268 0.225789
O O15 0.500000 0.000000 0.500000
#
# Coordination Sequence:
#
# PCOD9063816 Si02
#       7
#     2   2   2   2   1   2   2
#     4  12  28  49  79 121 163 210 269 334 396 480
#     4  12  27  48  74 111 160 197 265 332 391 469
#     4  12  27  49  80 114 160 208 266 326 400 476
#     4  11  24  47  73 108 152 201 252 331 385 463
#     4  12  26  44  80 114 154 208 260 320 402 468
#     4  12  29  48  79 112 153 211 261 329 405 478
#     4  11  24  44  74 109 148 200 263 309 396 466
#
# _framework density 24.243521000000001
#
# number of rings (size 3 to 8) (size 9 to 14) (size 15 to 20)
#    0.000    0.308    3.077    4.615    6.462    4.308 
#    0.000    0.000    0.000    0.000    0.000    0.000 
#    0.000    0.000    0.000    0.000    0.000    0.000 
#
# Total GULP energy -72505.317036 kJ/mol
# GULP energy per Si atom -5577.332080 kJ/mol
# Density = 2.418834 g / cm^3
# Si number density = 24.243521 Si / 1000 Ang^3
#
#
#
# Elastic Constant Matrix: (Units=GPa)
#
#
# Indices 1 2 3 4 5 6 
#
# 1 159.0941 57.3104 28.7092 0.2820 -7.8812 -1.2321
# 2 57.3104 130.5597 51.0776 -0.8043 11.0298 -9.5632
# 3 28.7092 51.0776 74.5172 -20.8315 9.9563 -7.0483
# 4 0.2820 -0.8043 -20.8315 47.4318 -4.8993 -3.8787
# 5 -7.8812 11.0298 9.9563 -4.8993 37.4157 -4.1435
# 6 -1.2321 -9.5632 -7.0483 -3.8787 -4.1435 67.8038
#
#
#
# Elastic Compliance Matrix: (Units=1/GPa)
#
#
# Indices 1 2 3 4 5 6 
#
# 1 0.007810 -0.003155 -0.001377 -0.000434 0.002852 -0.000297
# 2 -0.003155 0.012332 -0.007796 -0.003424 -0.002617 0.000516
# 3 -0.001377 -0.007796 0.022473 0.009615 -0.002535 0.001607
# 4 -0.000434 -0.003424 0.009615 0.025623 0.001946 0.002093
# 5 0.002852 -0.002617 -0.002535 0.001946 0.029174 0.001313
# 6 -0.000297 0.000516 0.001607 0.002093 0.001313 0.015183
#
#
# Mechanical properties :
#
#
# Convention : Reuss Voigt Hill
#
# Bulk Modulus (GPa) = 55.68397 70.92950 63.30673
# Shear Modulus (GPa) = 34.90714 45.66853 40.28783
#
# Velocity S-wave (km/s) = 3.79866 4.34492 4.08094
# Velocity P-wave (km/s) = 6.50063 7.38185 6.95521
#
# Compressibility (1/GPa) = 0.01795849
#
# Stress axis : x y z
#
# Youngs Moduli (GPa) = 128.03482 81.08931 44.49823
#
# Poissons Ratio (x) = 0.25584 0.06128
# Poissons Ratio (y) = 0.40396 0.34692
# Poissons Ratio (z) = 0.17631 0.63220
#
# Static dielectric constant tensor:
#      x y z
#    x 1.888160 -0.017060 0.183100 
#    y -0.017060 1.723370 -0.083110 
#    z 0.183100 -0.083110 1.816970 
# 
# From -- ./inp_files/377552.got.cif
#   From: 2010.05.17/outbox.cif.g08.bks.cpg/sg2_189_cif.got.tgz:377552.got - 2010.06.03 11:33:40.
