data_PCOD9063024
_publ_section_title
;
Structure prediction by ZEFSAII (Michael W. Deem and Ramdas Pophale) SiO2 
 PCOD9063024
Probable space group: P -1
;
_chemical_formula_sum "Si O2"
_cell_formula_units_Z 14
_cell_length_a 13.165449
_cell_length_b 24.127017
_cell_length_c 16.724347
_cell_angle_alpha 17.894743
_cell_angle_beta 143.510173
_cell_angle_gamma 153.656390
_cell_volume 676.303567
_symmetry_space_group_name_H-M "P -1"
_symmetry_group_IT_number 2
_symmetry_cell_setting 'triclinic'
loop_
_space_group_symop_operation_xyz
x,y,z
-x,-y,-z
loop_
_atom_site_type_symbol
_atom_site_label
_atom_site_fract_x
_atom_site_fract_y
_atom_site_fract_z
Si Si1 0.467108 0.735773 0.272311
Si Si2 0.134351 0.544942 0.179903
Si Si3 0.351340 0.500023 0.238598
Si Si4 0.359137 0.578491 0.821779
Si Si5 0.390886 0.948426 0.413592
Si Si6 0.087378 0.247779 0.257219
Si Si7 0.090203 0.657770 0.256301
O O1 0.367998 0.703199 0.166615
O O2 0.504105 0.552111 0.557810
O O3 0.264569 0.654836 0.318994
O O4 0.725346 0.034619 0.035919
O O5 0.162789 0.448849 0.250681
O O6 0.901007 0.296125 0.424224
O O7 0.100558 0.729776 0.885124
O O8 0.211151 0.310582 0.334032
O O9 0.526461 0.793158 0.917534
O O10 0.482419 0.866507 0.520570
O O11 0.139718 0.450164 0.795672
O O12 0.500000 0.500000 0.000000
O O13 0.272431 0.471098 0.004063
O O14 0.500000 0.000000 0.500000
O O15 0.000000 0.000000 0.500000
O O16 0.000000 0.500000 0.500000
#
# Coordination Sequence:
#
# PCOD9063024 Si02
#       7
#     2   2   2   2   2   2   2
#     4  11  26  47  69 106 144 183 242 289 352 429
#     4  11  25  47  69 101 145 182 236 293 350 421
#     4  12  26  43  73 101 140 193 227 291 363 416
#     4  11  25  45  69 105 136 179 237 292 345 417
#     4  11  24  45  67 104 141 176 238 289 345 422
#     4  11  24  43  69 103 137 182 235 294 346 417
#     4  11  26  47  73 103 143 186 235 298 353 414
#
# _framework density 20.700763999999999
#
# number of rings (size 3 to 8) (size 9 to 14) (size 15 to 20)
#    0.000    0.857    5.714    1.714    8.000    2.857 
#    0.000    0.000    0.000    0.000    0.000    0.000 
#    0.000    0.000    0.000    0.000    0.000    0.000 
#
# Total GULP energy -78162.525839 kJ/mol
# GULP energy per Si atom -5583.037560 kJ/mol
# Density = 2.065365 g / cm^3
# Si number density = 20.700764 Si / 1000 Ang^3
#
#
#
# Elastic Constant Matrix: (Units=GPa)
#
#
# Indices 1 2 3 4 5 6 
#
# 1 61.2433 -29.1941 -79.1337 -52.2641 -38.1712 42.9593
# 2 -29.1941 51.6591 -91.5150 -43.4378 -24.3033 34.5617
# 3 -79.1337 -91.5150 -115.0662 -102.0941 -67.6190 100.9122
# 4 -52.2641 -43.4378 -102.0941 -5.7948 -41.4538 45.3048
# 5 -38.1712 -24.3033 -67.6190 -41.4538 6.9810 35.8860
# 6 42.9593 34.5617 100.9122 45.3048 35.8860 -2.4423
#
#
#
# Elastic Compliance Matrix: (Units=1/GPa)
#
#
# Indices 1 2 3 4 5 6 
#
# 1 0.009664 -0.001962 -0.003479 -0.000291 0.000603 0.001942
# 2 -0.001962 0.011411 -0.000509 -0.002021 -0.004439 0.003210
# 3 -0.003479 -0.000509 0.007022 -0.005898 -0.007386 0.003810
# 4 -0.000291 -0.002021 -0.005898 0.016793 -0.001846 0.006966
# 5 0.000603 -0.004439 -0.007386 -0.001846 0.026941 0.004210
# 6 0.001942 0.003210 0.003810 0.006966 0.004210 0.018647
#
#
# Mechanical properties :
#
#
# Convention : Reuss Voigt Hill
#
# Bulk Modulus (GPa) = 61.74021 -44.64993 8.54514
# Shear Modulus (GPa) = 46.39170 12.92736 29.65953
#
# Velocity S-wave (km/s) = 4.73912 2.50169 3.78931
# Velocity P-wave (km/s) = 7.73534 3.64300 4.82515
#
# Compressibility (1/GPa) = 0.01619690
#
# Stress axis : x y z
#
# Youngs Moduli (GPa) = 103.48177 87.63360 142.40261
#
# Poissons Ratio (x) = 0.17192 0.49540
# Poissons Ratio (y) = 0.20301 0.07254
# Poissons Ratio (z) = 0.36000 0.04464
#
# Static dielectric constant tensor:
#      x y z
#    x 1.772940 0.021400 0.013220 
#    y 0.021400 1.720420 -0.044880 
#    z 0.013220 -0.044880 1.733580 
# 
# From -- ./inp_files/243265.got.cif
#   From: 2010.05.17/outbox.cif.g08.bks.cpg/sg2_122_cif.got.tgz:243265.got - 2010.06.03 11:33:40.
