data_PCOD9063694
_publ_section_title
;
Structure prediction by ZEFSAII (Michael W. Deem and Ramdas Pophale) SiO2 
 PCOD9063694
Probable space group: P -1
;
_chemical_formula_sum "Si O2"
_cell_formula_units_Z 12
_cell_length_a 9.438904
_cell_length_b 5.657018
_cell_length_c 21.888044
_cell_angle_alpha 82.490575
_cell_angle_beta 152.096323
_cell_angle_gamma 85.883389
_cell_volume 496.122784
_symmetry_space_group_name_H-M "P -1"
_symmetry_group_IT_number 2
_symmetry_cell_setting 'triclinic'
loop_
_space_group_symop_operation_xyz
x,y,z
-x,-y,-z
loop_
_atom_site_type_symbol
_atom_site_label
_atom_site_fract_x
_atom_site_fract_y
_atom_site_fract_z
Si Si1 0.817510 0.692300 0.869608
Si Si2 0.187226 0.429688 0.894222
Si Si3 0.144835 0.156505 0.327320
Si Si4 0.815584 0.480352 0.491065
Si Si5 0.887792 0.094694 0.806954
Si Si6 0.901088 0.135133 0.355654
O O1 0.429856 0.771621 0.732846
O O2 0.998016 0.556703 0.880634
O O3 0.857512 0.962046 0.863472
O O4 0.000000 0.500000 0.000000
O O5 0.963281 0.543897 0.743965
O O6 0.220677 0.138965 0.927779
O O7 0.500000 0.500000 0.000000
O O8 0.869936 0.147660 0.269969
O O9 0.500000 0.000000 0.500000
O O10 0.143319 0.036809 0.264292
O O11 0.431616 0.635503 0.326814
O O12 0.000000 0.500000 0.500000
O O13 0.925832 0.662237 0.572293
O O14 0.902018 0.175759 0.546781
#
# Coordination Sequence:
#
# PCOD9063694 Si02
#       6
#     2   2   2   2   2   2
#     4  11  26  48  71 106 148 197 261 304 378 456
#     4  11  26  49  73 103 151 199 257 313 385 457
#     4  11  24  44  72 111 152 193 253 307 381 451
#     4  12  24  43  75 110 155 186 250 306 390 440
#     4  11  25  45  77 106 149 201 246 323 379 455
#     4  12  26  44  75 113 149 200 243 317 374 461
#
# _framework density 24.187562
#
# number of rings (size 3 to 8) (size 9 to 14) (size 15 to 20)
#    0.000    0.667    3.333    3.500    4.667    4.667 
#    3.000    0.000    0.000    0.000    0.000    0.000 
#    0.000    0.000    0.000    0.000    0.000    0.000 
#
# Total GULP energy -66896.146704 kJ/mol
# GULP energy per Si atom -5574.678892 kJ/mol
# Density = 2.413251 g / cm^3
# Si number density = 24.187562 Si / 1000 Ang^3
#
#
#
# Elastic Constant Matrix: (Units=GPa)
#
#
# Indices 1 2 3 4 5 6 
#
# 1 185.7426 29.4852 54.3769 -8.0731 1.8218 27.1410
# 2 29.4852 91.3262 68.6524 0.9185 -0.7559 25.1364
# 3 54.3769 68.6524 100.8993 -12.4619 -0.5624 22.7665
# 4 -8.0731 0.9185 -12.4619 32.5692 9.1961 4.5687
# 5 1.8218 -0.7559 -0.5624 9.1961 50.6703 -6.7380
# 6 27.1410 25.1364 22.7665 4.5687 -6.7380 50.4149
#
#
#
# Elastic Compliance Matrix: (Units=1/GPa)
#
#
# Indices 1 2 3 4 5 6 
#
# 1 0.006749 0.001584 -0.004005 0.000700 -0.000760 -0.002779
# 2 0.001584 0.025094 -0.017685 -0.006622 0.000700 -0.004684
# 3 -0.004005 -0.017685 0.025762 0.010164 -0.001923 -0.001838
# 4 0.000700 -0.006622 0.010164 0.037995 -0.007723 -0.006140
# 5 -0.000760 0.000700 -0.001923 -0.007723 0.021757 0.004536
# 6 -0.002779 -0.004684 -0.001838 -0.006140 0.004536 0.025660
#
#
# Mechanical properties :
#
#
# Convention : Reuss Voigt Hill
#
# Bulk Modulus (GPa) = 57.49850 75.88854 66.69352
# Shear Modulus (GPa) = 26.45124 41.76112 34.10618
#
# Velocity S-wave (km/s) = 3.31053 4.15969 3.75917
# Velocity P-wave (km/s) = 6.19971 7.38335 6.81726
#
# Compressibility (1/GPa) = 0.01739176
#
# Stress axis : x y z
#
# Youngs Moduli (GPa) = 148.17065 39.84955 38.81755
#
# Poissons Ratio (x) = -0.06310 0.15548
# Poissons Ratio (y) = -0.23464 0.68648
# Poissons Ratio (z) = 0.59347 0.70473
#
# Static dielectric constant tensor:
#      x y z
#    x 1.920990 -0.124920 0.088880 
#    y -0.124920 2.419980 -0.097260 
#    z 0.088880 -0.097260 2.133670 
# 
# From -- ./inp_files/89137.got.cif
#   From: 2010.05.17/outbox.cif.g08.bks.cpg/sg2_45_cif.got.tgz:89137.got - 2010.06.03 11:33:40.
