data_PCOD9063855
_publ_section_title
;
Structure prediction by ZEFSAII (Michael W. Deem and Ramdas Pophale) SiO2 
 PCOD9063855
Probable space group: P -1
;
_chemical_formula_sum "Si O2"
_cell_formula_units_Z 16
_cell_length_a 14.567984
_cell_length_b 9.267012
_cell_length_c 11.515045
_cell_angle_alpha 79.274263
_cell_angle_beta 149.265024
_cell_angle_gamma 89.144302
_cell_volume 731.717887
_symmetry_space_group_name_H-M "P -1"
_symmetry_group_IT_number 2
_symmetry_cell_setting 'triclinic'
loop_
_space_group_symop_operation_xyz
x,y,z
-x,-y,-z
loop_
_atom_site_type_symbol
_atom_site_label
_atom_site_fract_x
_atom_site_fract_y
_atom_site_fract_z
Si Si1 0.395342 0.172218 0.416502
Si Si2 0.634602 0.366147 0.248328
Si Si3 0.307659 0.778338 0.102975
Si Si4 0.258731 0.061746 0.852907
Si Si5 0.295371 0.972217 0.656901
Si Si6 0.951285 0.896645 0.861423
Si Si7 0.974341 0.605552 0.341927
Si Si8 0.637739 0.570517 0.846372
O O1 0.512986 0.184785 0.655387
O O2 0.176769 0.191954 0.203912
O O3 0.406464 0.309657 0.325241
O O4 0.500000 0.000000 0.500000
O O5 0.700185 0.200766 0.279684
O O6 0.511793 0.351298 0.226506
O O7 0.819394 0.406185 0.478120
O O8 0.500000 0.500000 0.000000
O O9 0.370675 0.600183 0.158293
O O10 0.150055 0.801328 0.029321
O O11 0.226995 0.910286 0.896709
O O12 0.140916 0.215295 0.773752
O O13 0.209937 0.079718 0.660004
O O14 0.484395 0.037727 0.111882
O O15 0.183128 0.015338 0.406725
O O16 0.000000 0.000000 0.000000
O O17 0.000000 0.500000 0.500000
O O18 0.848412 0.551573 0.123003
#
# Coordination Sequence:
#
# PCOD9063855 Si02
#       8
#     2   2   2   2   2   2   2   2
#     4  12  25  49  74 100 143 189 244 293 352 429
#     4  12  24  44  70 101 145 190 233 290 365 422
#     4  12  27  47  74 108 144 188 236 303 359 426
#     4  11  24  46  76 108 144 189 241 296 365 426
#     4  11  24  44  75 108 141 189 243 298 355 431
#     4  12  27  44  75 107 140 190 247 290 357 430
#     4  12  26  44  71 106 147 189 236 294 356 433
#     4  12  28  46  71 107 146 189 238 298 359 423
#
# _framework density 21.866349
#
# number of rings (size 3 to 8) (size 9 to 14) (size 15 to 20)
#    0.000    0.250    5.000    3.375    3.500    3.500 
#    0.000    0.000    0.000    0.000    0.000    0.000 
#    0.000    0.000    0.000    0.000    0.000    0.000 
#
# Total GULP energy -89553.673784 kJ/mol
# GULP energy per Si atom -5597.104611 kJ/mol
# Density = 2.181658 g / cm^3
# Si number density = 21.866349 Si / 1000 Ang^3
#
#
#
# Elastic Constant Matrix: (Units=GPa)
#
#
# Indices 1 2 3 4 5 6 
#
# 1 62.7193 2.0543 13.2639 15.9115 -3.2192 15.2274
# 2 2.0543 110.8452 17.3263 5.8239 -11.5659 0.1918
# 3 13.2639 17.3263 90.0609 26.8495 -8.9999 3.7087
# 4 15.9115 5.8239 26.8495 41.8445 15.8834 -4.2666
# 5 -3.2192 -11.5659 -8.9999 15.8834 47.4796 6.0378
# 6 15.2274 0.1918 3.7087 -4.2666 6.0378 42.5842
#
#
#
# Elastic Compliance Matrix: (Units=1/GPa)
#
#
# Indices 1 2 3 4 5 6 
#
# 1 0.022010 0.000875 0.001980 -0.013907 0.008079 -0.010586
# 2 0.000875 0.009602 -0.000916 -0.002371 0.003140 -0.000959
# 3 0.001980 -0.000916 0.016543 -0.015040 0.008699 -0.004885
# 4 -0.013907 -0.002371 -0.015040 0.049250 -0.022684 0.014444
# 5 0.008079 0.003140 0.008699 -0.022684 0.032960 -0.010607
# 6 -0.010586 -0.000959 -0.004885 0.014444 -0.010607 0.030649
#
#
# Mechanical properties :
#
#
# Convention : Reuss Voigt Hill
#
# Bulk Modulus (GPa) = 19.21932 36.54601 27.88267
# Shear Modulus (GPa) = 28.65641 41.78040 35.21840
#
# Velocity S-wave (km/s) = 3.62405 4.37592 4.01761
# Velocity P-wave (km/s) = 5.13032 6.50240 5.85668
#
# Compressibility (1/GPa) = 0.05203097
#
# Stress axis : x y z
#
# Youngs Moduli (GPa) = 45.43458 104.14037 60.45011
#
# Poissons Ratio (x) = -0.09109 -0.11967
# Poissons Ratio (y) = -0.03974 0.05538
# Poissons Ratio (z) = -0.08994 0.09540
#
# Static dielectric constant tensor:
#      x y z
#    x 1.804380 0.007630 -0.022450 
#    y 0.007630 1.802160 -0.007720 
#    z -0.022450 -0.007720 1.833150 
# 
# From -- ./inp_files/447263.got.cif
#   From: 2010.05.17/outbox.cif.g08.bks.cpg/sg2_224_cif.got.tgz:447263.got - 2010.06.03 11:33:40.
