data_PCOD9063070
_publ_section_title
;
Structure prediction by ZEFSAII (Michael W. Deem and Ramdas Pophale) SiO2 
 PCOD9063070
Probable space group: P -1
;
_chemical_formula_sum "Si O2"
_cell_formula_units_Z 16
_cell_length_a 11.618777
_cell_length_b 15.137941
_cell_length_c 9.840663
_cell_angle_alpha 59.331577
_cell_angle_beta 63.730188
_cell_angle_gamma 114.215642
_cell_volume 755.433201
_symmetry_space_group_name_H-M "P -1"
_symmetry_group_IT_number 2
_symmetry_cell_setting 'triclinic'
loop_
_space_group_symop_operation_xyz
x,y,z
-x,-y,-z
loop_
_atom_site_type_symbol
_atom_site_label
_atom_site_fract_x
_atom_site_fract_y
_atom_site_fract_z
Si Si1 0.106487 0.456701 0.467159
Si Si2 0.428742 0.204247 0.903328
Si Si3 0.318782 0.282638 0.422775
Si Si4 0.734179 0.711087 0.237889
Si Si5 0.348756 0.971738 0.913635
Si Si6 0.216842 0.978968 0.698830
Si Si7 0.801858 0.605982 0.787911
Si Si8 0.715901 0.042723 0.614494
O O1 0.316108 0.589668 0.358376
O O2 0.205171 0.492226 0.239287
O O3 0.000000 0.500000 0.500000
O O4 0.900565 0.241217 0.766311
O O5 0.284760 0.197440 0.911737
O O6 0.416154 0.098645 0.892344
O O7 0.328943 0.096417 0.181426
O O8 0.250153 0.255894 0.635726
O O9 0.211401 0.298965 0.370347
O O10 0.250145 0.122227 0.548892
O O11 0.588815 0.467828 0.108939
O O12 0.500000 0.500000 0.500000
O O13 0.949650 0.789330 0.014826
O O14 0.347014 0.027008 0.726268
O O15 0.526408 0.996388 0.800896
O O16 0.294511 0.973047 0.528679
O O17 0.037277 0.757896 0.624374
#
# Coordination Sequence:
#
# PCOD9063070 Si02
#       8
#     2   2   2   2   2   2   2   2
#     4  12  24  43  71 104 140 182 230 283 340 410
#     4  12  24  44  75 103 135 186 232 281 348 410
#     4  11  24  44  68  99 140 178 224 290 351 408
#     4  12  25  44  71 101 136 178 231 284 349 421
#     4  12  25  48  70 100 144 184 232 286 339 414
#     4  12  26  44  70  98 143 181 224 290 353 403
#     4  11  24  43  70 102 141 178 229 291 342 408
#     4  12  25  44  69 103 136 185 235 280 341 413
#
# _framework density 21.179901000000001
#
# number of rings (size 3 to 8) (size 9 to 14) (size 15 to 20)
#    0.000    0.250    3.750    6.375    0.000    4.000 
#    0.000    0.625    0.000    0.000    0.000    0.000 
#    0.000    0.000    0.000    0.000    0.000    0.000 
#
# Total GULP energy -89597.302461 kJ/mol
# GULP energy per Si atom -5599.831404 kJ/mol
# Density = 2.113169 g / cm^3
# Si number density = 21.179901 Si / 1000 Ang^3
#
#
#
# Elastic Constant Matrix: (Units=GPa)
#
#
# Indices 1 2 3 4 5 6 
#
# 1 64.4467 -10.1946 9.1864 6.4544 -2.6371 8.0180
# 2 -10.1946 79.2274 7.4430 -2.8743 -2.9141 13.9941
# 3 9.1864 7.4430 70.5839 -0.4401 -6.9234 10.7169
# 4 6.4544 -2.8743 -0.4401 40.1305 8.7206 0.1242
# 5 -2.6371 -2.9141 -6.9234 8.7206 25.5927 -7.4394
# 6 8.0180 13.9941 10.7169 0.1242 -7.4394 32.6232
#
#
#
# Elastic Compliance Matrix: (Units=1/GPa)
#
#
# Indices 1 2 3 4 5 6 
#
# 1 0.017182 0.003150 -0.001749 -0.002814 0.001247 -0.004704
# 2 0.003150 0.014307 -0.000942 0.000630 -0.000466 -0.006711
# 3 -0.001749 -0.000942 0.015315 -0.000240 0.002910 -0.003533
# 4 -0.002814 0.000630 -0.000240 0.027652 -0.010271 -0.001948
# 5 0.001247 -0.000466 0.002910 -0.010271 0.046201 0.009512
# 6 -0.004704 -0.006711 -0.003533 -0.001948 0.009512 0.038025
#
#
# Mechanical properties :
#
#
# Convention : Reuss Voigt Hill
#
# Bulk Modulus (GPa) = 20.95457 25.23641 23.09549
# Shear Modulus (GPa) = 28.79003 33.52417 31.15710
#
# Velocity S-wave (km/s) = 3.69088 3.98280 3.83961
# Velocity P-wave (km/s) = 5.29892 5.75251 5.53037
#
# Compressibility (1/GPa) = 0.04772228
#
# Stress axis : x y z
#
# Youngs Moduli (GPa) = 58.19889 69.89736 65.29618
#
# Poissons Ratio (x) = -0.22018 0.11423
# Poissons Ratio (y) = -0.18333 0.06148
# Poissons Ratio (z) = 0.10181 0.06581
#
# Static dielectric constant tensor:
#      x y z
#    x 1.737810 0.009220 0.014830 
#    y 0.009220 1.763240 -0.001800 
#    z 0.014830 -0.001800 1.792530 
# 
# From -- ./inp_files/271379.got.cif
#   From: 2010.05.17/outbox.cif.g08.bks.cpg/sg2_136_cif.got.tgz:271379.got - 2010.06.03 11:33:40.
