data_PCOD9063455
_publ_section_title
;
Structure prediction by ZEFSAII (Michael W. Deem and Ramdas Pophale) SiO2 
 PCOD9063455
Probable space group: P -1
;
_chemical_formula_sum "Si O2"
_cell_formula_units_Z 14
_cell_length_a 11.430126
_cell_length_b 5.247742
_cell_length_c 15.666313
_cell_angle_alpha 94.371716
_cell_angle_beta 111.216909
_cell_angle_gamma 51.495140
_cell_volume 671.055736
_symmetry_space_group_name_H-M "P -1"
_symmetry_group_IT_number 2
_symmetry_cell_setting 'triclinic'
loop_
_space_group_symop_operation_xyz
x,y,z
-x,-y,-z
loop_
_atom_site_type_symbol
_atom_site_label
_atom_site_fract_x
_atom_site_fract_y
_atom_site_fract_z
Si Si1 0.845549 0.364498 0.944429
Si Si2 0.641904 0.720439 0.261934
Si Si3 0.015021 0.743611 0.561154
Si Si4 0.864993 0.001370 0.703761
Si Si5 0.318225 0.202085 0.921416
Si Si6 0.986172 0.676380 0.174580
Si Si7 0.428961 0.504649 0.243757
O O1 0.914213 0.464846 0.892145
O O2 0.700775 0.395342 0.862322
O O3 0.784877 0.544207 0.022793
O O4 0.000000 0.000000 0.000000
O O5 0.810795 0.481877 0.350969
O O6 0.676752 0.692951 0.169474
O O7 0.534020 0.612808 0.249575
O O8 0.542431 0.106296 0.271806
O O9 0.000000 0.500000 0.500000
O O10 0.000000 0.000000 0.500000
O O11 0.881159 0.943348 0.605786
O O12 0.962606 0.127222 0.762160
O O13 0.682872 0.282677 0.698690
O O14 0.948257 0.647721 0.761558
O O15 0.210852 0.081712 0.879542
O O16 0.500000 0.000000 0.000000
#
# Coordination Sequence:
#
# PCOD9063455 Si02
#       7
#     2   2   2   2   2   2   2
#     4  11  25  41  67 101 148 198 250 276 325 424
#     4  12  27  47  70 105 149 180 234 302 351 415
#     4  12  27  50  80 108 132 177 237 299 369 432
#     4  11  24  47  77  99 139 184 236 286 353 428
#     4  12  25  40  66 104 149 187 238 284 346 400
#     4  11  24  44  68  99 144 194 238 282 340 412
#     4  11  25  46  68 103 147 193 228 284 355 408
#
# _framework density 20.862649999999999
#
# number of rings (size 3 to 8) (size 9 to 14) (size 15 to 20)
#    0.000    0.571    2.857    5.571    4.000    0.571 
#    0.000    4.286    0.000    0.000    0.000    0.000 
#    0.000    0.000    0.000    0.000    0.000    0.000 
#
# Total GULP energy -78301.928244 kJ/mol
# GULP energy per Si atom -5592.994875 kJ/mol
# Density = 2.081517 g / cm^3
# Si number density = 20.862650 Si / 1000 Ang^3
#
#
#
# Elastic Constant Matrix: (Units=GPa)
#
#
# Indices 1 2 3 4 5 6 
#
# 1 175.0232 66.8696 80.8423 15.5845 1.3813 7.2651
# 2 66.8696 105.0540 52.5824 5.9800 -18.2684 11.0707
# 3 80.8423 52.5824 146.5125 4.5487 -20.3822 -2.8922
# 4 15.5845 5.9800 4.5487 40.3007 -6.3382 -3.6772
# 5 1.3813 -18.2684 -20.3822 -6.3382 40.6456 -0.0630
# 6 7.2651 11.0707 -2.8922 -3.6772 -0.0630 40.7163
#
#
#
# Elastic Compliance Matrix: (Units=1/GPa)
#
#
# Indices 1 2 3 4 5 6 
#
# 1 0.009981 -0.004709 -0.004459 -0.003589 -0.005254 -0.001149
# 2 -0.004709 0.014862 -0.001993 0.000470 0.005909 -0.003290
# 3 -0.004459 -0.001993 0.010670 0.001791 0.004890 0.002265
# 4 -0.003589 0.000470 0.001791 0.027070 0.005458 0.003093
# 5 -0.005254 0.005909 0.004890 0.005458 0.030740 0.000219
# 6 -0.001149 -0.003290 0.002265 0.003093 0.000219 0.026101
#
#
# Mechanical properties :
#
#
# Convention : Reuss Voigt Hill
#
# Bulk Modulus (GPa) = 75.81418 91.90870 83.86144
# Shear Modulus (GPa) = 34.21281 39.41886 36.81583
#
# Velocity S-wave (km/s) = 4.05397 4.35149 4.20536
# Velocity P-wave (km/s) = 7.63750 8.33049 7.99151
#
# Compressibility (1/GPa) = 0.01319014
#
# Stress axis : x y z
#
# Youngs Moduli (GPa) = 100.18683 67.28795 93.71692
#
# Poissons Ratio (x) = 0.31689 0.41792
# Poissons Ratio (y) = 0.47183 0.18675
# Poissons Ratio (z) = 0.44677 0.13408
#
# Static dielectric constant tensor:
#      x y z
#    x 1.648370 -0.016380 0.129330 
#    y -0.016380 1.762200 0.028100 
#    z 0.129330 0.028100 1.586190 
# 
# From -- ./inp_files/287332.got.cif
#   From: 2010.05.17/outbox.cif.g08.bks.cpg/sg2_144_cif.got.tgz:287332.got - 2010.06.03 11:33:40.
