data_PCOD9063309
_publ_section_title
;
Structure prediction by ZEFSAII (Michael W. Deem and Ramdas Pophale) SiO2 
 PCOD9063309
Probable space group: P -1
;
_chemical_formula_sum "Si O2"
_cell_formula_units_Z 16
_cell_length_a 11.848824
_cell_length_b 10.455156
_cell_length_c 14.365267
_cell_angle_alpha 44.801374
_cell_angle_beta 40.738094
_cell_angle_gamma 32.328879
_cell_volume 608.703534
_symmetry_space_group_name_H-M "P -1"
_symmetry_group_IT_number 2
_symmetry_cell_setting 'triclinic'
loop_
_space_group_symop_operation_xyz
x,y,z
-x,-y,-z
loop_
_atom_site_type_symbol
_atom_site_label
_atom_site_fract_x
_atom_site_fract_y
_atom_site_fract_z
Si Si1 0.548629 0.691000 0.548561
Si Si2 0.712995 0.545393 0.044797
Si Si3 0.941681 0.243497 0.443820
Si Si4 0.332871 0.623925 0.133511
Si Si5 0.407329 0.022720 0.210763
Si Si6 0.678963 0.482674 0.298194
Si Si7 0.838236 0.857687 0.311616
Si Si8 0.841069 0.907996 0.082782
O O1 0.774371 0.393387 0.558110
O O2 0.405861 0.666272 0.575118
O O3 0.706491 0.763471 0.415515
O O4 0.326815 0.920095 0.628282
O O5 0.193067 0.559618 0.856589
O O6 0.920182 0.361720 0.939731
O O7 0.630108 0.806395 0.937123
O O8 0.510373 0.541200 0.149355
O O9 0.822884 0.410630 0.338549
O O10 0.000000 0.000000 0.500000
O O11 0.184750 0.174700 0.337218
O O12 0.116924 0.635626 0.273077
O O13 0.500000 0.500000 0.000000
O O14 0.186027 0.910189 0.065547
O O15 0.470677 0.774909 0.269227
O O16 0.624424 0.936051 0.178803
O O17 0.824071 0.982322 0.160491
#
# Coordination Sequence:
#
# PCOD9063309 Si02
#       8
#     2   2   2   2   2   2   2   2
#     4  11  26  47  73 108 149 207 253 309 376 451
#     4  11  25  46  75 116 149 196 253 316 397 455
#     4  12  27  50  78 107 151 205 261 315 383 459
#     4  11  24  43  75 110 149 199 253 312 385 461
#     4  11  25  45  77 111 149 198 258 317 388 456
#     4  12  26  47  76 107 155 197 256 321 382 447
#     4  11  24  47  75 108 155 199 255 314 379 453
#     4  11  24  45  75 108 155 193 246 325 391 450
#
# _framework density 26.285374000000001
#
# number of rings (size 3 to 8) (size 9 to 14) (size 15 to 20)
#    0.000    0.750    2.500    4.125    5.250    5.000 
#    0.000    1.250    0.000    0.000    0.000    0.000 
#    0.000    0.000    0.000    0.000    0.000    0.000 
#
# Total GULP energy -89281.092593 kJ/mol
# GULP energy per Si atom -5580.068287 kJ/mol
# Density = 2.622555 g / cm^3
# Si number density = 26.285374 Si / 1000 Ang^3
#
#
#
# Elastic Constant Matrix: (Units=GPa)
#
#
# Indices 1 2 3 4 5 6 
#
# 1 78.9716 29.7723 57.1829 1.5388 -12.2128 -2.8909
# 2 29.7723 143.4270 57.9301 0.8957 -5.0458 11.2225
# 3 57.1829 57.9301 117.7218 35.7622 -31.8339 -4.1532
# 4 1.5388 0.8957 35.7622 52.7707 -1.8427 0.2248
# 5 -12.2128 -5.0458 -31.8339 -1.8427 47.3692 4.8785
# 6 -2.8909 11.2225 -4.1532 0.2248 4.8785 31.2958
#
#
#
# Elastic Compliance Matrix: (Units=1/GPa)
#
#
# Indices 1 2 3 4 5 6 
#
# 1 0.022878 0.001540 -0.016114 0.010074 -0.004378 0.000033
# 2 0.001540 0.010301 -0.008631 0.005519 -0.003663 -0.004166
# 3 -0.016114 -0.008631 0.030508 -0.019575 0.014300 0.003567
# 4 0.010074 0.005519 -0.019575 0.031543 -0.008480 -0.002551
# 5 -0.004378 -0.003663 0.014300 -0.008480 0.029043 -0.001660
# 6 0.000033 -0.004166 0.003567 -0.002551 -0.001660 0.034200
#
#
# Mechanical properties :
#
#
# Convention : Reuss Voigt Hill
#
# Bulk Modulus (GPa) = 57.87816 69.98789 63.93303
# Shear Modulus (GPa) = 23.73678 39.30283 31.51980
#
# Velocity S-wave (km/s) = 3.00832 3.87102 3.46661
# Velocity P-wave (km/s) = 5.84240 6.83109 6.35600
#
# Compressibility (1/GPa) = 0.01727767
#
# Stress axis : x y z
#
# Youngs Moduli (GPa) = 43.71039 97.07428 32.77779
#
# Poissons Ratio (x) = -0.14948 0.52817
# Poissons Ratio (y) = -0.06731 0.28292
# Poissons Ratio (z) = 0.70433 0.83788
#
# Static dielectric constant tensor:
#      x y z
#    x 2.080320 -0.015110 0.014290 
#    y -0.015110 2.047940 0.004750 
#    z 0.014290 0.004750 2.217020 
# 
# From -- ./inp_files/597688.got.cif
#   From: 2010.05.17/outbox.cif.g08.bks.cpg/sg2_299_cif.got.tgz:597688.got - 2010.06.03 11:33:40.
