data_PCOD9063604
_publ_section_title
;
Structure prediction by ZEFSAII (Michael W. Deem and Ramdas Pophale) SiO2 
 PCOD9063604
Probable space group: P -1
;
_chemical_formula_sum "Si O2"
_cell_formula_units_Z 16
_cell_length_a 10.730355
_cell_length_b 9.026073
_cell_length_c 10.927922
_cell_angle_alpha 92.482218
_cell_angle_beta 55.137265
_cell_angle_gamma 61.750794
_cell_volume 689.123665
_symmetry_space_group_name_H-M "P -1"
_symmetry_group_IT_number 2
_symmetry_cell_setting 'triclinic'
loop_
_space_group_symop_operation_xyz
x,y,z
-x,-y,-z
loop_
_atom_site_type_symbol
_atom_site_label
_atom_site_fract_x
_atom_site_fract_y
_atom_site_fract_z
Si Si1 0.010528 0.606659 0.384890
Si Si2 0.560316 0.196202 0.497146
Si Si3 0.638463 0.467879 0.211487
Si Si4 0.593820 0.891368 0.620691
Si Si5 0.076346 0.894526 0.825086
Si Si6 0.543428 0.610116 0.891523
Si Si7 0.689948 0.987236 0.990860
Si Si8 0.881101 0.561485 0.940811
O O1 0.230045 0.528351 0.264606
O O2 0.996574 0.569473 0.247726
O O3 0.000000 0.500000 0.500000
O O4 0.810286 0.808372 0.528236
O O5 0.518972 0.362293 0.609211
O O6 0.423533 0.244114 0.460281
O O7 0.776604 0.081336 0.321368
O O8 0.518170 0.079289 0.599569
O O9 0.800639 0.320424 0.210685
O O10 0.565308 0.371290 0.172193
O O11 0.722616 0.535212 0.069706
O O12 0.452035 0.941467 0.811353
O O13 0.000000 0.000000 0.000000
O O14 0.884274 0.967027 0.865788
O O15 0.458461 0.818448 0.995971
O O16 0.500000 0.500000 0.000000
O O17 0.786188 0.766430 0.944374
O O18 0.000000 0.500000 0.000000
#
# Coordination Sequence:
#
# PCOD9063604 Si02
#       8
#     2   2   2   2   2   2   2   2
#     4  12  28  49  74 104 155 203 245 301 378 452
#     4  11  25  42  72 109 146 188 249 317 375 435
#     4  12  24  45  73 106 146 191 251 309 371 445
#     4  11  24  44  71 104 147 193 248 308 376 440
#     4  12  24  39  70 109 148 187 238 310 381 433
#     4  12  27  49  72  99 149 207 246 299 376 455
#     4  12  25  46  73 109 147 192 249 309 377 444
#     4  12  26  47  80 114 145 191 255 314 372 442
#
# _framework density 23.217894000000001
#
# number of rings (size 3 to 8) (size 9 to 14) (size 15 to 20)
#    0.000    0.250    7.500    1.125    5.250    1.500 
#    2.250    0.625    0.000    0.000    0.000    0.000 
#    0.000    0.000    0.000    0.000    0.000    0.000 
#
# Total GULP energy -89104.376137 kJ/mol
# GULP energy per Si atom -5569.023509 kJ/mol
# Density = 2.316505 g / cm^3
# Si number density = 23.217894 Si / 1000 Ang^3
#
#
#
# Elastic Constant Matrix: (Units=GPa)
#
#
# Indices 1 2 3 4 5 6 
#
# 1 85.2219 2.7840 19.7504 3.0248 -37.1086 -11.5392
# 2 2.7840 78.9368 4.9298 -22.2346 -1.9833 3.4594
# 3 19.7504 4.9298 121.2510 -22.5256 -32.5934 4.9914
# 4 3.0248 -22.2346 -22.5256 48.6388 3.5065 -6.0576
# 5 -37.1086 -1.9833 -32.5934 3.5065 43.1071 -1.1315
# 6 -11.5392 3.4594 4.9914 -6.0576 -1.1315 26.8700
#
#
#
# Elastic Compliance Matrix: (Units=1/GPa)
#
#
# Indices 1 2 3 4 5 6 
#
# 1 0.021407 -0.001195 0.001150 -0.001563 0.019622 0.009607
# 2 -0.001195 0.014690 0.000877 0.007095 -0.000293 -0.000980
# 3 0.001150 0.000877 0.011444 0.004930 0.009276 -0.000243
# 4 -0.001563 0.007095 0.004930 0.026576 0.000639 0.003518
# 5 0.019622 -0.000293 0.009276 0.000639 0.047271 0.008876
# 6 0.009607 -0.000980 -0.000243 0.003518 0.008876 0.042680
#
#
# Mechanical properties :
#
#
# Convention : Reuss Voigt Hill
#
# Bulk Modulus (GPa) = 20.32289 37.81534 29.06911
# Shear Modulus (GPa) = 27.96357 40.91954 34.44155
#
# Velocity S-wave (km/s) = 3.47421 4.20267 3.85568
# Velocity P-wave (km/s) = 4.98654 6.31446 5.68938
#
# Compressibility (1/GPa) = 0.04920561
#
# Stress axis : x y z
#
# Youngs Moduli (GPa) = 46.71343 68.07455 87.38458
#
# Poissons Ratio (x) = 0.08136 -0.10053
# Poissons Ratio (y) = 0.05583 -0.07665
# Poissons Ratio (z) = -0.05374 -0.05971
#
# Static dielectric constant tensor:
#      x y z
#    x 2.030630 -0.090970 0.007080 
#    y -0.090970 2.007700 0.073320 
#    z 0.007080 0.073320 1.843260 
# 
# From -- ./inp_files/419403.got.cif
#   From: 2010.05.17/outbox.cif.g08.bks.cpg/sg2_210_cif.got.tgz:419403.got - 2010.06.03 11:33:40.
