data_PCOD9063490
_publ_section_title
;
Structure prediction by ZEFSAII (Michael W. Deem and Ramdas Pophale) SiO2 
 PCOD9063490
Probable space group: P -1
;
_chemical_formula_sum "Si O2"
_cell_formula_units_Z 14
_cell_length_a 9.980013
_cell_length_b 18.758466
_cell_length_c 8.947843
_cell_angle_alpha 109.345494
_cell_angle_beta 119.971443
_cell_angle_gamma 29.454122
_cell_volume 692.070335
_symmetry_space_group_name_H-M "P -1"
_symmetry_group_IT_number 2
_symmetry_cell_setting 'triclinic'
loop_
_space_group_symop_operation_xyz
x,y,z
-x,-y,-z
loop_
_atom_site_type_symbol
_atom_site_label
_atom_site_fract_x
_atom_site_fract_y
_atom_site_fract_z
Si Si1 0.139637 0.358146 0.495458
Si Si2 0.425129 0.048478 0.666540
Si Si3 0.702302 0.791777 0.822952
Si Si4 0.610666 0.517253 0.960028
Si Si5 0.717958 0.056845 0.026713
Si Si6 0.224781 0.628642 0.550405
Si Si7 0.382023 0.770205 0.121422
O O1 0.247522 0.283939 0.342855
O O2 0.426378 0.252972 0.688077
O O3 0.000000 0.500000 0.500000
O O4 0.917946 0.388337 0.467943
O O5 0.057661 0.209930 0.573748
O O6 0.500000 0.000000 0.500000
O O7 0.582195 0.918923 0.767199
O O8 0.556284 0.069833 0.825929
O O9 0.456718 0.872778 0.865898
O O10 0.035156 0.651938 0.991523
O O11 0.379502 0.610382 0.757532
O O12 0.500000 0.500000 0.000000
O O13 0.572545 0.615425 0.080692
O O14 0.707869 0.146180 0.019727
O O15 0.068421 0.882509 0.108397
O O16 0.500000 0.500000 0.500000
#
# Coordination Sequence:
#
# PCOD9063490 Si02
#       7
#     2   2   2   2   2   2   2
#     4  12  24  46  69 101 139 182 228 293 350 407
#     4  12  22  45  71  99 142 179 225 286 348 409
#     4  12  25  42  72 100 138 178 235 289 341 412
#     4  12  23  44  70 101 133 182 230 281 344 414
#     4  11  25  42  67 105 133 181 230 284 350 411
#     4  12  26  44  71 103 138 182 234 281 349 418
#     4  11  24  44  69  95 143 177 227 284 352 415
#
# _framework density 20.229158000000002
#
# number of rings (size 3 to 8) (size 9 to 14) (size 15 to 20)
#    0.000    0.286    5.714    3.000    0.000    5.714 
#    0.000    0.000    0.000    0.000    0.000    0.000 
#    0.000    0.000    0.000    0.000    0.000    0.000 
#
# Total GULP energy -78216.564344 kJ/mol
# GULP energy per Si atom -5586.897453 kJ/mol
# Density = 2.018312 g / cm^3
# Si number density = 20.229158 Si / 1000 Ang^3
#
#
#
# Elastic Constant Matrix: (Units=GPa)
#
#
# Indices 1 2 3 4 5 6 
#
# 1 89.3009 64.2468 34.7088 11.4525 -5.1529 -14.4482
# 2 64.2468 150.9865 37.9404 -14.1481 1.4129 -8.7993
# 3 34.7088 37.9404 102.0774 -2.2690 23.0158 -12.4411
# 4 11.4525 -14.1481 -2.2690 44.6015 -3.9259 -1.6915
# 5 -5.1529 1.4129 23.0158 -3.9259 21.0981 -0.1407
# 6 -14.4482 -8.7993 -12.4411 -1.6915 -0.1407 49.8383
#
#
#
# Elastic Compliance Matrix: (Units=1/GPa)
#
#
# Indices 1 2 3 4 5 6 
#
# 1 0.021948 -0.008231 -0.006941 -0.007420 0.012122 0.002959
# 2 -0.008231 0.010875 -0.001060 0.005438 -0.000575 -0.000548
# 3 -0.006941 -0.001060 0.017453 0.000607 -0.020536 0.002120
# 4 -0.007420 0.005438 0.000607 0.026257 0.002046 -0.000143
# 5 0.012122 -0.000575 -0.020536 0.002046 0.073171 -0.001438
# 6 0.002959 -0.000548 0.002120 -0.000143 -0.001438 0.021346
#
#
# Mechanical properties :
#
#
# Convention : Reuss Voigt Hill
#
# Bulk Modulus (GPa) = 56.14236 68.46186 62.30211
# Shear Modulus (GPa) = 23.87211 36.80551 30.33881
#
# Velocity S-wave (km/s) = 3.43896 4.27010 3.87687
# Velocity P-wave (km/s) = 6.60167 7.63075 7.13479
#
# Compressibility (1/GPa) = 0.01781186
#
# Stress axis : x y z
#
# Youngs Moduli (GPa) = 45.56317 91.95542 57.29797
#
# Poissons Ratio (x) = 0.75690 0.39770
# Poissons Ratio (y) = 0.37504 0.06071
# Poissons Ratio (z) = 0.31625 0.09743
#
# Static dielectric constant tensor:
#      x y z
#    x 1.700760 0.025010 -0.002960 
#    y 0.025010 1.786250 -0.041070 
#    z -0.002960 -0.041070 1.733660 
# 
# From -- ./inp_files/157245.got.cif
#   From: 2010.05.17/outbox.cif.g08.bks.cpg/sg2_79_cif.got.tgz:157245.got - 2010.06.03 11:33:40.
