data_PCOD9063304
_publ_section_title
;
Structure prediction by ZEFSAII (Michael W. Deem and Ramdas Pophale) SiO2 
 PCOD9063304
Probable space group: P -1
;
_chemical_formula_sum "Si O2"
_cell_formula_units_Z 15
_cell_length_a 19.966959
_cell_length_b 5.232473
_cell_length_c 10.403216
_cell_angle_alpha 107.269837
_cell_angle_beta 142.069266
_cell_angle_gamma 84.619801
_cell_volume 619.483926
_symmetry_space_group_name_H-M "P -1"
_symmetry_group_IT_number 2
_symmetry_cell_setting 'triclinic'
loop_
_space_group_symop_operation_xyz
x,y,z
-x,-y,-z
loop_
_atom_site_type_symbol
_atom_site_label
_atom_site_fract_x
_atom_site_fract_y
_atom_site_fract_z
Si Si1 0.923070 0.213299 0.391867
Si Si2 0.751207 0.388470 0.710691
Si Si3 0.292412 0.156578 0.117573
Si Si4 0.607325 0.523274 0.910751
Si Si5 0.131984 0.104695 0.219931
Si Si6 0.575432 0.270567 0.216692
Si Si7 0.500000 0.000000 0.500000
Si Si8 0.218488 0.500909 0.623905
O O1 0.865006 0.304413 0.444837
O O2 0.000000 0.500000 0.500000
O O3 0.000000 0.000000 0.500000
O O4 0.821486 0.065983 0.120819
O O5 0.736333 0.555596 0.840916
O O6 0.822055 0.632319 0.762969
O O7 0.631456 0.263043 0.441109
O O8 0.813078 0.142889 0.774503
O O9 0.368520 0.221318 0.113426
O O10 0.378453 0.097522 0.344348
O O11 0.509773 0.535370 0.864942
O O12 0.564633 0.253014 0.723971
O O13 0.723600 0.541244 0.161100
O O14 0.163388 0.215656 0.428128
O O15 0.000000 0.000000 0.000000
O O16 0.680231 0.361525 0.295470
O O17 0.500000 0.000000 0.000000
#
# Coordination Sequence:
#
# PCOD9063304 Si02
#       8
#     2   2   2   2   2   2   1   2
#     4  12  29  49  79 110 150 207 258 321 387 457
#     4  11  27  45  74 112 146 197 253 310 380 453
#     4  12  28  48  78 112 161 200 266 323 391 477
#     4  12  25  46  74 113 151 203 251 318 402 462
#     4  11  27  49  76 105 147 201 259 320 378 447
#     4  11  24  43  75 107 149 200 243 317 384 465
#     4  12  26  46  76 110 160 200 256 320 398 458
#     4  11  26  49  75 111 153 197 264 320 383 475
#
# _framework density 24.213705999999998
#
# number of rings (size 3 to 8) (size 9 to 14) (size 15 to 20)
#    0.000    0.533    2.667    3.600    5.600    4.267 
#    0.000    0.000    0.000    0.000    0.000    0.000 
#    0.000    0.000    0.000    0.000    0.000    0.000 
#
# Total GULP energy -83792.043286 kJ/mol
# GULP energy per Si atom -5586.136219 kJ/mol
# Density = 2.415859 g / cm^3
# Si number density = 24.213706 Si / 1000 Ang^3
#
#
#
# Elastic Constant Matrix: (Units=GPa)
#
#
# Indices 1 2 3 4 5 6 
#
# 1 93.6369 54.9589 60.8057 12.0395 20.2528 -18.2786
# 2 54.9589 142.5486 61.8247 11.1505 20.8136 -25.7194
# 3 60.8057 61.8247 178.9432 26.5858 12.8280 -6.4391
# 4 12.0395 11.1505 26.5858 44.0764 -18.6779 0.2743
# 5 20.2528 20.8136 12.8280 -18.6779 25.3491 -4.1333
# 6 -18.2786 -25.7194 -6.4391 0.2743 -4.1333 47.1558
#
#
#
# Elastic Compliance Matrix: (Units=1/GPa)
#
#
# Indices 1 2 3 4 5 6 
#
# 1 0.021259 -0.001559 -0.002756 -0.013811 -0.023668 0.005019
# 2 -0.001559 0.011121 -0.001441 -0.006220 -0.011032 0.004333
# 3 -0.002756 -0.001441 0.008320 -0.006287 -0.005649 -0.001177
# 4 -0.013811 -0.006220 -0.006287 0.057762 0.061137 -0.004582
# 5 -0.023668 -0.011032 -0.005649 0.061137 0.114296 -0.006300
# 6 0.005019 0.004333 -0.001177 -0.004582 -0.006300 0.024829
#
#
# Mechanical properties :
#
#
# Convention : Reuss Voigt Hill
#
# Bulk Modulus (GPa) = 34.26295 85.58970 59.92632
# Shear Modulus (GPa) = 19.31773 39.15219 29.23496
#
# Velocity S-wave (km/s) = 2.82760 4.02549 3.47850
# Velocity P-wave (km/s) = 4.98411 7.55185 6.39812
#
# Compressibility (1/GPa) = 0.02918605
#
# Stress axis : x y z
#
# Youngs Moduli (GPa) = 47.03830 89.92262 120.19740
#
# Poissons Ratio (x) = 0.14022 0.33126
# Poissons Ratio (y) = 0.07335 0.17326
# Poissons Ratio (z) = 0.12964 0.12962
#
# Static dielectric constant tensor:
#      x y z
#    x 5.361070 -4.291110 0.865970 
#    y -4.291110 7.693470 -1.238030 
#    z 0.865970 -1.238030 2.126010 
# 
# From -- ./inp_files/468494.got.cif
#   From: 2010.05.17/outbox.cif.g08.bks.cpg/sg2_235_cif.got.tgz:468494.got - 2010.06.03 11:33:40.
