data_PCOD9063900
_publ_section_title
;
Structure prediction by ZEFSAII (Michael W. Deem and Ramdas Pophale) SiO2 
 PCOD9063900
Probable space group: P -1
;
_chemical_formula_sum "Si O2"
_cell_formula_units_Z 16
_cell_length_a 12.590996
_cell_length_b 5.326003
_cell_length_c 12.420422
_cell_angle_alpha 120.634810
_cell_angle_beta 90.687996
_cell_angle_gamma 87.226363
_cell_volume 715.745419
_symmetry_space_group_name_H-M "P -1"
_symmetry_group_IT_number 2
_symmetry_cell_setting 'triclinic'
loop_
_space_group_symop_operation_xyz
x,y,z
-x,-y,-z
loop_
_atom_site_type_symbol
_atom_site_label
_atom_site_fract_x
_atom_site_fract_y
_atom_site_fract_z
Si Si1 0.551661 0.227562 0.657760
Si Si2 0.944746 0.200486 0.131080
Si Si3 0.860503 0.777151 0.300722
Si Si4 0.560559 0.681368 0.950986
Si Si5 0.034982 0.207227 0.374179
Si Si6 0.722268 0.986732 0.151160
Si Si7 0.582036 0.308995 0.372710
Si Si8 0.257258 0.241885 0.480227
O O1 0.573619 0.468431 0.801879
O O2 0.529304 0.012711 0.349096
O O3 0.501336 0.421780 0.601075
O O4 0.656378 0.030222 0.582477
O O5 0.926520 0.538179 0.177621
O O6 0.004234 0.200633 0.246557
O O7 0.824591 0.109815 0.125312
O O8 0.000000 0.000000 0.000000
O O9 0.765740 0.881943 0.244579
O O10 0.803040 0.702229 0.394498
O O11 0.953301 0.988003 0.376509
O O12 0.500000 0.500000 0.000000
O O13 0.672022 0.753722 0.022853
O O14 0.500000 0.000000 0.000000
O O15 0.161454 0.172649 0.383858
O O16 0.000000 0.500000 0.500000
O O17 0.631719 0.225020 0.237308
O O18 0.677347 0.464996 0.471043
#
# Coordination Sequence:
#
# PCOD9063900 Si02
#       8
#     2   2   2   2   2   2   2   2
#     4  12  27  46  71 110 148 193 247 308 357 446
#     4  11  26  47  74 107 144 186 247 307 369 451
#     4  11  24  46  74 101 145 191 238 307 374 451
#     4  12  25  46  72 103 147 193 251 300 361 443
#     4  11  24  47  71 109 142 190 245 303 376 445
#     4  11  24  44  77  98 144 195 237 293 387 431
#     4  12  24  48  70 108 148 194 244 297 370 442
#     4  12  25  44  75 107 145 192 244 307 376 433
#
# _framework density 22.354315
#
# number of rings (size 3 to 8) (size 9 to 14) (size 15 to 20)
#    0.000    0.500    5.000    2.625    1.750    6.000 
#    2.250    0.000    0.000    0.000    0.000    0.000 
#    0.000    0.000    0.000    0.000    0.000    0.000 
#
# Total GULP energy -89356.661877 kJ/mol
# GULP energy per Si atom -5584.791367 kJ/mol
# Density = 2.230344 g / cm^3
# Si number density = 22.354315 Si / 1000 Ang^3
#
#
#
# Elastic Constant Matrix: (Units=GPa)
#
#
# Indices 1 2 3 4 5 6 
#
# 1 143.0000 52.4195 45.7713 22.2781 21.5845 6.8464
# 2 52.4195 106.2021 31.0210 24.6690 8.8671 7.2314
# 3 45.7713 31.0210 126.9199 45.3249 7.0795 9.8515
# 4 22.2781 24.6690 45.3249 33.6683 -1.7664 -0.5094
# 5 21.5845 8.8671 7.0795 -1.7664 60.4796 11.9347
# 6 6.8464 7.2314 9.8515 -0.5094 11.9347 33.3801
#
#
#
# Elastic Compliance Matrix: (Units=1/GPa)
#
#
# Indices 1 2 3 4 5 6 
#
# 1 0.009552 -0.003685 -0.002084 -0.000952 -0.002735 0.000417
# 2 -0.003685 0.013194 0.001819 -0.009749 -0.000610 -0.002570
# 3 -0.002084 0.001819 0.016672 -0.022533 -0.001184 -0.004808
# 4 -0.000952 -0.009749 -0.022533 0.068184 0.004761 0.008296
# 5 -0.002735 -0.000610 -0.001184 0.004761 0.018998 -0.005677
# 6 0.000417 -0.002570 -0.004808 0.008296 -0.005677 0.034004
#
#
# Mechanical properties :
#
#
# Convention : Reuss Voigt Hill
#
# Bulk Modulus (GPa) = 31.72759 70.50507 51.11633
# Shear Modulus (GPa) = 27.93146 41.96629 34.94888
#
# Velocity S-wave (km/s) = 3.53865 4.33751 3.95828
# Velocity P-wave (km/s) = 5.56056 7.52952 6.61867
#
# Compressibility (1/GPa) = 0.03151830
#
# Stress axis : x y z
#
# Youngs Moduli (GPa) = 104.69047 75.79305 59.98125
#
# Poissons Ratio (x) = 0.27929 0.12499
# Poissons Ratio (y) = 0.38577 -0.10911
# Poissons Ratio (z) = 0.21816 -0.13787
#
# Static dielectric constant tensor:
#      x y z
#    x 1.758800 -0.087890 0.002040 
#    y -0.087890 1.979040 -0.062310 
#    z 0.002040 -0.062310 1.817000 
# 
# From -- ./inp_files/139084.got.cif
#   From: 2010.05.17/outbox.cif.g08.bks.cpg/sg2_70_cif.got.tgz:139084.got - 2010.06.03 11:33:40.
