data_PCOD9063787
_publ_section_title
;
Structure prediction by ZEFSAII (Michael W. Deem and Ramdas Pophale) SiO2 
 PCOD9063787
Probable space group: P -1
;
_chemical_formula_sum "Si O2"
_cell_formula_units_Z 15
_cell_length_a 11.091507
_cell_length_b 8.902546
_cell_length_c 8.446838
_cell_angle_alpha 119.631347
_cell_angle_beta 105.131637
_cell_angle_gamma 85.942800
_cell_volume 698.160025
_symmetry_space_group_name_H-M "P -1"
_symmetry_group_IT_number 2
_symmetry_cell_setting 'triclinic'
loop_
_space_group_symop_operation_xyz
x,y,z
-x,-y,-z
loop_
_atom_site_type_symbol
_atom_site_label
_atom_site_fract_x
_atom_site_fract_y
_atom_site_fract_z
Si Si1 0.138846 0.479305 0.101504
Si Si2 0.514224 0.337277 0.309672
Si Si3 0.724239 0.493849 0.270198
Si Si4 0.218629 0.778965 0.088880
Si Si5 0.346215 0.295609 0.922266
Si Si6 0.511495 0.020449 0.702940
Si Si7 0.081497 0.357948 0.370872
Si Si8 0.000000 0.000000 0.000000
O O1 0.211314 0.665910 0.188926
O O2 0.132183 0.429031 0.255782
O O3 0.205354 0.327323 0.949698
O O4 0.000000 0.500000 0.000000
O O5 0.500000 0.500000 0.500000
O O6 0.652574 0.364624 0.299900
O O7 0.485588 0.162466 0.304517
O O8 0.424421 0.343157 0.130652
O O9 0.634402 0.579100 0.157434
O O10 0.801329 0.644171 0.469913
O O11 0.804828 0.375065 0.127313
O O12 0.357912 0.867246 0.160538
O O13 0.113488 0.910727 0.092210
O O14 0.394816 0.115801 0.785714
O O15 0.500000 0.000000 0.500000
O O16 0.000000 0.500000 0.500000
O O17 0.015584 0.171998 0.211791
#
# Coordination Sequence:
#
# PCOD9063787 Si02
#       8
#     2   2   2   2   2   2   2   1
#     4  11  24  47  74 105 144 197 250 309 382 453
#     4  12  26  43  70 108 143 202 244 306 383 449
#     4  11  24  44  74 102 146 191 247 310 380 448
#     4  11  26  48  72 104 151 195 248 315 378 448
#     4  11  25  47  73 104 152 195 245 314 376 455
#     4  12  29  46  71 114 157 193 259 310 377 461
#     4  12  25  49  74 108 148 196 258 313 384 458
#     4  12  26  46  76 104 144 198 244 320 372 440
#
# _framework density 21.485045
#
# number of rings (size 3 to 8) (size 9 to 14) (size 15 to 20)
#    0.000    0.533    4.000    3.200   13.067    0.000 
#    0.000    0.667    0.000    0.000    0.000    0.000 
#    0.000    0.000    0.000    0.000    0.000    0.000 
#
# Total GULP energy -83520.652757 kJ/mol
# GULP energy per Si atom -5568.043517 kJ/mol
# Density = 2.143614 g / cm^3
# Si number density = 21.485045 Si / 1000 Ang^3
#
#
#
# Elastic Constant Matrix: (Units=GPa)
#
#
# Indices 1 2 3 4 5 6 
#
# 1 77.3645 33.6912 34.7109 7.3305 -17.9692 -7.9423
# 2 33.6912 120.2079 51.4342 4.5669 -12.3078 -13.0674
# 3 34.7109 51.4342 156.9819 -0.7120 -8.1778 -10.1630
# 4 7.3305 4.5669 -0.7120 41.1543 -2.2569 -5.3167
# 5 -17.9692 -12.3078 -8.1778 -2.2569 36.8895 -1.0131
# 6 -7.9423 -13.0674 -10.1630 -5.3167 -1.0131 39.4283
#
#
#
# Elastic Compliance Matrix: (Units=1/GPa)
#
#
# Indices 1 2 3 4 5 6 
#
# 1 0.017214 -0.002811 -0.002424 -0.002191 0.006825 0.001791
# 2 -0.002811 0.010667 -0.002641 -0.000343 0.001646 0.002284
# 3 -0.002424 -0.002641 0.007813 0.000946 -0.000251 0.000771
# 4 -0.002191 -0.000343 0.000946 0.025180 0.000654 0.003101
# 5 0.006825 0.001646 -0.000251 0.000654 0.031041 0.002741
# 6 0.001791 0.002284 0.000771 0.003101 0.002741 0.027168
#
#
# Mechanical properties :
#
#
# Convention : Reuss Voigt Hill
#
# Bulk Modulus (GPa) = 50.14632 66.02521 58.08576
# Shear Modulus (GPa) = 35.34032 39.14230 37.24131
#
# Velocity S-wave (km/s) = 4.06011 4.27293 4.16788
# Velocity P-wave (km/s) = 6.73573 7.42573 7.08913
#
# Compressibility (1/GPa) = 0.01994164
#
# Stress axis : x y z
#
# Youngs Moduli (GPa) = 58.09207 93.74922 127.99760
#
# Poissons Ratio (x) = 0.26351 0.31023
# Poissons Ratio (y) = 0.16329 0.33808
# Poissons Ratio (z) = 0.14080 0.24762
#
# Static dielectric constant tensor:
#      x y z
#    x 1.869650 0.001930 -0.041090 
#    y 0.001930 1.799460 -0.066090 
#    z -0.041090 -0.066090 1.640070 
# 
# From -- ./inp_files/241610.got.cif
#   From: 2010.05.17/outbox.cif.g08.bks.cpg/sg2_121_cif.got.tgz:241610.got - 2010.06.03 11:33:40.
