data_PCOD9063659
_publ_section_title
;
Structure prediction by ZEFSAII (Michael W. Deem and Ramdas Pophale) SiO2 
 PCOD9063659
Probable space group: P -1
;
_chemical_formula_sum "Si O2"
_cell_formula_units_Z 16
_cell_length_a 13.110128
_cell_length_b 21.808442
_cell_length_c 9.872190
_cell_angle_alpha 36.781168
_cell_angle_beta 50.610975
_cell_angle_gamma 27.500015
_cell_volume 750.434609
_symmetry_space_group_name_H-M "P -1"
_symmetry_group_IT_number 2
_symmetry_cell_setting 'triclinic'
loop_
_space_group_symop_operation_xyz
x,y,z
-x,-y,-z
loop_
_atom_site_type_symbol
_atom_site_label
_atom_site_fract_x
_atom_site_fract_y
_atom_site_fract_z
Si Si1 0.405643 0.961112 0.069727
Si Si2 0.372060 0.842088 0.803427
Si Si3 0.849296 0.878119 0.284397
Si Si4 0.617484 0.405691 0.710369
Si Si5 0.556364 0.558419 0.752760
Si Si6 0.796033 0.056678 0.525648
Si Si7 0.143070 0.350853 0.258182
Si Si8 0.853321 0.534983 0.451446
O O1 0.223010 0.026360 0.210948
O O2 0.617387 0.747278 0.249285
O O3 0.500000 0.000000 0.000000
O O4 0.291779 0.050688 0.861293
O O5 0.217426 0.960719 0.590275
O O6 0.616472 0.743745 0.754927
O O7 0.255380 0.962500 0.822633
O O8 0.401439 0.701201 0.042511
O O9 0.824511 0.790287 0.549541
O O10 0.113694 0.735918 0.279473
O O11 0.500000 0.500000 0.500000
O O12 0.495045 0.555403 0.660575
O O13 0.424004 0.734575 0.624051
O O14 0.800111 0.456622 0.696519
O O15 0.500000 0.500000 0.000000
O O16 0.000000 0.000000 0.500000
O O17 0.993974 0.443064 0.357430
O O18 0.000000 0.500000 0.000000
O O19 0.000000 0.500000 0.500000
#
# Coordination Sequence:
#
# PCOD9063659 Si02
#       8
#     2   2   2   2   2   2   2   2
#     4  11  25  44  71 102 139 185 232 288 364 417
#     4  12  26  45  69 106 142 184 238 290 356 427
#     4  12  26  48  71 102 147 185 234 300 356 427
#     4  12  27  45  72 103 141 191 241 292 359 421
#     4  11  24  46  70  99 139 182 239 295 349 419
#     4  11  25  43  67 100 137 180 232 290 351 421
#     4  12  25  46  71 103 138 186 235 289 355 425
#     4  11  24  44  72 102 141 183 237 293 349 422
#
# _framework density 21.320978
#
# number of rings (size 3 to 8) (size 9 to 14) (size 15 to 20)
#    0.000    0.500    2.500    6.000    5.250    1.000 
#    0.000    0.000    0.000    0.000    0.000    0.000 
#    0.000    0.000    0.000    0.000    0.000    0.000 
#
# Total GULP energy -89434.785322 kJ/mol
# GULP energy per Si atom -5589.674083 kJ/mol
# Density = 2.127245 g / cm^3
# Si number density = 21.320978 Si / 1000 Ang^3
#
#
#
# Elastic Constant Matrix: (Units=GPa)
#
#
# Indices 1 2 3 4 5 6 
#
# 1 126.5876 22.4508 37.3668 18.4056 9.0245 -3.5376
# 2 22.4508 68.3069 8.9811 18.8802 7.4287 -12.4248
# 3 37.3668 8.9811 108.0126 17.0245 2.1623 -12.9698
# 4 18.4056 18.8802 17.0245 37.6740 -2.9664 -4.2050
# 5 9.0245 7.4287 2.1623 -2.9664 53.4174 9.8378
# 6 -3.5376 -12.4248 -12.9698 -4.2050 9.8378 47.9209
#
#
#
# Elastic Compliance Matrix: (Units=1/GPa)
#
#
# Indices 1 2 3 4 5 6 
#
# 1 0.009519 -0.002022 -0.002762 -0.002548 -0.001258 -0.000534
# 2 -0.002022 0.018898 0.001192 -0.008751 -0.003756 0.005076
# 3 -0.002762 0.001192 0.011120 -0.004016 -0.000916 0.002950
# 4 -0.002548 -0.008751 -0.004016 0.034148 0.003957 -0.001360
# 5 -0.001258 -0.003756 -0.000916 0.003957 0.020672 -0.005211
# 6 -0.000534 0.005076 0.002950 -0.001360 -0.005211 0.023893
#
#
# Mechanical properties :
#
#
# Convention : Reuss Voigt Hill
#
# Bulk Modulus (GPa) = 30.90858 48.94492 39.92675
# Shear Modulus (GPa) = 36.70563 43.40970 40.05766
#
# Velocity S-wave (km/s) = 4.15369 4.51711 4.33920
# Velocity P-wave (km/s) = 6.12637 7.08603 6.62360
#
# Compressibility (1/GPa) = 0.03235348
#
# Stress axis : x y z
#
# Youngs Moduli (GPa) = 105.05523 52.91536 89.92603
#
# Poissons Ratio (x) = 0.10697 0.24841
# Poissons Ratio (y) = 0.21237 -0.10719
# Poissons Ratio (z) = 0.29020 -0.06308
#
# Static dielectric constant tensor:
#      x y z
#    x 3.274470 -0.751880 0.409920 
#    y -0.751880 2.251540 -0.238860 
#    z 0.409920 -0.238860 1.916170 
# 
# From -- ./inp_files/184070.got.cif
#   From: 2010.05.17/outbox.cif.g08.bks.cpg/sg2_93_cif.got.tgz:184070.got - 2010.06.03 11:33:40.
