data_PCOD9063823
_publ_section_title
;
Structure prediction by ZEFSAII (Michael W. Deem and Ramdas Pophale) SiO2 
 PCOD9063823
Probable space group: P -1
;
_chemical_formula_sum "Si O2"
_cell_formula_units_Z 12
_cell_length_a 5.405034
_cell_length_b 11.622309
_cell_length_c 11.886696
_cell_angle_alpha 141.402624
_cell_angle_beta 83.494217
_cell_angle_gamma 103.470753
_cell_volume 450.096169
_symmetry_space_group_name_H-M "P -1"
_symmetry_group_IT_number 2
_symmetry_cell_setting 'triclinic'
loop_
_space_group_symop_operation_xyz
x,y,z
-x,-y,-z
loop_
_atom_site_type_symbol
_atom_site_label
_atom_site_fract_x
_atom_site_fract_y
_atom_site_fract_z
Si Si1 0.316438 0.541501 0.233673
Si Si2 0.854995 0.342317 0.225320
Si Si3 0.225010 0.888009 0.377184
Si Si4 0.468001 0.790547 0.070491
Si Si5 0.378247 0.340269 0.476493
Si Si6 0.948343 0.076711 0.184469
O O1 0.185862 0.677026 0.270871
O O2 0.459435 0.665015 0.424805
O O3 0.125834 0.364537 0.169165
O O4 0.493771 0.422439 0.068995
O O5 0.840175 0.559003 0.391245
O O6 0.841334 0.256171 0.283895
O O7 0.641280 0.228575 0.065883
O O8 0.277436 0.851251 0.215481
O O9 0.500000 0.000000 0.500000
O O10 0.000000 0.000000 0.500000
O O11 0.735393 0.947569 0.173926
O O12 0.500000 0.500000 0.500000
O O13 0.223876 0.150719 0.282846
O O14 0.000000 0.000000 0.000000
#
# Coordination Sequence:
#
# PCOD9063823 Si02
#       6
#     2   2   2   2   2   2
#     4  11  26  52  80 113 159 220 276 332 412 493
#     4  11  24  45  75 112 160 211 269 326 419 490
#     4  12  33  54  83 123 161 220 287 352 414 487
#     4  11  27  50  81 114 164 219 270 348 405 496
#     4  11  24  44  74 115 162 218 266 334 408 498
#     4  12  23  45  77 123 163 209 270 333 416 499
#
# _framework density 26.660969999999999
#
# number of rings (size 3 to 8) (size 9 to 14) (size 15 to 20)
#    0.000    0.667    3.333    2.500    9.333    2.000 
#    0.000    0.000    0.000    0.000    0.000    0.000 
#    0.000    0.000    0.000    0.000    0.000    0.000 
#
# Total GULP energy -67145.534384 kJ/mol
# GULP energy per Si atom -5595.461199 kJ/mol
# Density = 2.660029 g / cm^3
# Si number density = 26.660970 Si / 1000 Ang^3
#
#
#
# Elastic Constant Matrix: (Units=GPa)
#
#
# Indices 1 2 3 4 5 6 
#
# 1 132.1738 52.6109 56.4909 1.5100 -3.1034 -4.0070
# 2 52.6109 163.2453 50.7990 -1.6857 -6.3734 -14.8627
# 3 56.4909 50.7990 97.8190 6.2997 -17.7756 7.5691
# 4 1.5100 -1.6857 6.2997 35.2146 -0.0153 -9.6916
# 5 -3.1034 -6.3734 -17.7756 -0.0153 63.3505 8.9820
# 6 -4.0070 -14.8627 7.5691 -9.6916 8.9820 45.0455
#
#
#
# Elastic Compliance Matrix: (Units=1/GPa)
#
#
# Indices 1 2 3 4 5 6 
#
# 1 0.010694 -0.001471 -0.005922 0.001082 -0.001570 0.002007
# 2 -0.001471 0.008196 -0.004025 0.002254 -0.000932 0.003921
# 3 -0.005922 -0.004025 0.017534 -0.004975 0.005203 -0.006909
# 4 0.001082 0.002254 -0.004975 0.031824 -0.002384 0.008998
# 5 -0.001570 -0.000932 0.005203 -0.002384 0.017838 -0.005391
# 6 0.002007 0.003921 -0.006909 0.008998 -0.005391 0.027844
#
#
# Mechanical properties :
#
#
# Convention : Reuss Voigt Hill
#
# Bulk Modulus (GPa) = 73.59554 79.22662 76.41108
# Shear Modulus (GPa) = 35.38678 44.27793 39.83235
#
# Velocity S-wave (km/s) = 3.64715 4.07968 3.86946
# Velocity P-wave (km/s) = 6.73793 7.20920 6.97755
#
# Compressibility (1/GPa) = 0.01358778
#
# Stress axis : x y z
#
# Youngs Moduli (GPa) = 93.50928 122.00936 57.03290
#
# Poissons Ratio (x) = 0.17948 0.33777
# Poissons Ratio (y) = 0.13755 0.22954
# Poissons Ratio (z) = 0.55379 0.49106
#
# Static dielectric constant tensor:
#      x y z
#    x 2.380400 -0.017850 -0.209740 
#    y -0.017850 2.087560 0.087780 
#    z -0.209740 0.087780 2.272520 
# 
# From -- ./inp_files/365508.got.cif
#   From: 2010.05.17/outbox.cif.g08.bks.cpg/sg2_183_cif.got.tgz:365508.got - 2010.06.03 11:33:40.
