data_PCOD9063690
_publ_section_title
;
Structure prediction by ZEFSAII (Michael W. Deem and Ramdas Pophale) SiO2 
 PCOD9063690
Probable space group: P -1
;
_chemical_formula_sum "Si O2"
_cell_formula_units_Z 14
_cell_length_a 11.162413
_cell_length_b 9.457187
_cell_length_c 9.788923
_cell_angle_alpha 47.346885
_cell_angle_beta 58.931032
_cell_angle_gamma 83.009493
_cell_volume 606.867385
_symmetry_space_group_name_H-M "P -1"
_symmetry_group_IT_number 2
_symmetry_cell_setting 'triclinic'
loop_
_space_group_symop_operation_xyz
x,y,z
-x,-y,-z
loop_
_atom_site_type_symbol
_atom_site_label
_atom_site_fract_x
_atom_site_fract_y
_atom_site_fract_z
Si Si1 0.828831 0.372558 0.647396
Si Si2 0.842240 0.936387 0.536048
Si Si3 0.837204 0.968459 0.042393
Si Si4 0.536912 0.857586 0.453877
Si Si5 0.760678 0.315817 0.413551
Si Si6 0.389042 0.422584 0.239420
Si Si7 0.859826 0.734224 0.939602
O O1 0.793698 0.397561 0.494075
O O2 0.710905 0.443863 0.753950
O O3 0.000000 0.500000 0.500000
O O4 0.825135 0.149750 0.835652
O O5 0.825921 0.133768 0.486599
O O6 0.988563 0.057876 0.280171
O O7 0.719333 0.804886 0.590667
O O8 0.826790 0.771759 0.775984
O O9 0.706586 0.950794 0.239525
O O10 0.782238 0.775362 0.096505
O O11 0.000000 0.000000 0.000000
O O12 0.412505 0.809436 0.440162
O O13 0.515970 0.624983 0.665286
O O14 0.500000 0.000000 0.500000
O O15 0.840966 0.497481 0.136904
O O16 0.500000 0.500000 0.000000
#
# Coordination Sequence:
#
# PCOD9063690 Si02
#       7
#     2   2   2   2   2   2   2
#     4  12  27  48  76 110 147 197 255 310 381 452
#     4  11  24  46  74 107 155 195 250 314 371 450
#     4  12  26  48  74 107 152 197 251 317 375 448
#     4  12  26  47  73 108 151 199 250 310 377 447
#     4  12  26  47  77 108 152 200 253 307 384 448
#     4  12  26  47  74 109 151 197 251 311 378 452
#     4  11  24  44  72 110 145 199 252 310 375 448
#
# _framework density 23.069291
#
# number of rings (size 3 to 8) (size 9 to 14) (size 15 to 20)
#    0.000    0.286    2.857    6.429    2.000    4.000 
#    2.571    0.000    0.000    0.000    0.000    0.000 
#    0.000    0.000    0.000    0.000    0.000    0.000 
#
# Total GULP energy -77982.078000 kJ/mol
# GULP energy per Si atom -5570.148429 kJ/mol
# Density = 2.301678 g / cm^3
# Si number density = 23.069291 Si / 1000 Ang^3
#
#
#
# Elastic Constant Matrix: (Units=GPa)
#
#
# Indices 1 2 3 4 5 6 
#
# 1 120.1654 44.8552 54.7437 19.9891 3.9558 -8.8881
# 2 44.8552 81.0029 13.5141 13.4941 -9.0713 -12.0414
# 3 54.7437 13.5141 121.8866 -7.3424 24.1882 -7.4454
# 4 19.9891 13.4941 -7.3424 37.3875 -7.1800 1.6169
# 5 3.9558 -9.0713 24.1882 -7.1800 36.5986 4.3781
# 6 -8.8881 -12.0414 -7.4454 1.6169 4.3781 44.2324
#
#
#
# Elastic Compliance Matrix: (Units=1/GPa)
#
#
# Indices 1 2 3 4 5 6 
#
# 1 0.014526 -0.005799 -0.006196 -0.006983 -0.000353 0.000587
# 2 -0.005799 0.016858 -0.000005 -0.002357 0.003973 0.003116
# 3 -0.006196 -0.000005 0.012742 0.004398 -0.007062 0.001437
# 4 -0.006983 -0.002357 0.004398 0.033110 0.004109 -0.002921
# 5 -0.000353 0.003973 -0.007062 0.004109 0.034264 -0.003720
# 6 0.000587 0.003116 0.001437 -0.002921 -0.003720 0.024291
#
#
# Mechanical properties :
#
#
# Convention : Reuss Voigt Hill
#
# Bulk Modulus (GPa) = 49.68575 61.03120 55.35847
# Shear Modulus (GPa) = 30.03024 37.63982 33.83503
#
# Velocity S-wave (km/s) = 3.61188 4.04369 3.83387
# Velocity P-wave (km/s) = 6.24328 6.95089 6.60657
#
# Compressibility (1/GPa) = 0.02012650
#
# Stress axis : x y z
#
# Youngs Moduli (GPa) = 68.84305 59.31938 78.48211
#
# Poissons Ratio (x) = 0.34398 0.48627
# Poissons Ratio (y) = 0.39921 0.00037
# Poissons Ratio (z) = 0.42655 0.00028
#
# Static dielectric constant tensor:
#      x y z
#    x 1.896840 -0.135570 0.093040 
#    y -0.135570 1.836970 0.072540 
#    z 0.093040 0.072540 1.941490 
# 
# From -- ./inp_files/241896.got.cif
#   From: 2010.05.17/outbox.cif.g08.bks.cpg/sg2_121_cif.got.tgz:241896.got - 2010.06.03 11:33:40.
