data_PCOD9063550
_publ_section_title
;
Structure prediction by ZEFSAII (Michael W. Deem and Ramdas Pophale) SiO2 
 PCOD9063550
Probable space group: P -1
;
_chemical_formula_sum "Si O2"
_cell_formula_units_Z 12
_cell_length_a 7.674663
_cell_length_b 17.236427
_cell_length_c 7.987071
_cell_angle_alpha 137.028142
_cell_angle_beta 38.567688
_cell_angle_gamma 124.421715
_cell_volume 448.938286
_symmetry_space_group_name_H-M "P -1"
_symmetry_group_IT_number 2
_symmetry_cell_setting 'triclinic'
loop_
_space_group_symop_operation_xyz
x,y,z
-x,-y,-z
loop_
_atom_site_type_symbol
_atom_site_label
_atom_site_fract_x
_atom_site_fract_y
_atom_site_fract_z
Si Si1 0.726027 0.756660 0.878013
Si Si2 0.588685 0.143545 0.205019
Si Si3 0.206205 0.046388 0.624700
Si Si4 0.314197 0.458418 0.227746
Si Si5 0.024786 0.194716 0.543693
Si Si6 0.693760 0.343508 0.238396
O O1 0.702052 0.674296 0.924839
O O2 0.992149 0.752196 0.545235
O O3 0.495566 0.707262 0.847169
O O4 0.739768 0.885219 0.137264
O O5 0.445290 0.091357 0.392733
O O6 0.330578 0.136624 0.255854
O O7 0.654852 0.275893 0.335903
O O8 0.895389 0.087372 0.859718
O O9 0.179945 0.911380 0.451922
O O10 0.382340 0.528607 0.456800
O O11 0.000000 0.500000 0.500000
O O12 0.500000 0.500000 0.000000
O O13 0.987636 0.296773 0.867707
#
# Coordination Sequence:
#
# PCOD9063550 Si02
#       6
#     2   2   2   2   2   2
#     4  11  28  46  72 105 148 189 234 294 357 432
#     4  11  24  44  70 104 145 192 241 290 340 419
#     4  12  25  44  72 106 147 196 239 283 348 421
#     4  12  29  52  78 104 136 187 243 300 357 427
#     4  11  26  44  73 107 149 189 236 293 355 421
#     4  11  26  47  74 108 146 185 237 296 363 416
#
# _framework density 26.729731000000001
#
# number of rings (size 3 to 8) (size 9 to 14) (size 15 to 20)
#    0.000    0.667    1.667    4.000   14.000    1.333 
#    0.000    0.000    0.000    0.000    0.000    0.000 
#    0.000    0.000    0.000    0.000    0.000    0.000 
#
# Total GULP energy -67011.944802 kJ/mol
# GULP energy per Si atom -5584.328734 kJ/mol
# Density = 2.666889 g / cm^3
# Si number density = 26.729731 Si / 1000 Ang^3
#
#
#
# Elastic Constant Matrix: (Units=GPa)
#
#
# Indices 1 2 3 4 5 6 
#
# 1 85.5773 21.3323 22.5179 -10.4072 6.1447 13.4375
# 2 21.3323 129.0161 60.9321 -22.0512 9.3245 -11.4382
# 3 22.5179 60.9321 143.2663 -16.4796 18.9228 8.1403
# 4 -10.4072 -22.0512 -16.4796 64.9599 4.9595 12.5480
# 5 6.1447 9.3245 18.9228 4.9595 43.0902 -5.7007
# 6 13.4375 -11.4382 8.1403 12.5480 -5.7007 35.3010
#
#
#
# Elastic Compliance Matrix: (Units=1/GPa)
#
#
# Indices 1 2 3 4 5 6 
#
# 1 0.014049 -0.002207 -0.000094 0.003170 -0.002859 -0.007630
# 2 -0.002207 0.010846 -0.004478 0.001183 0.000465 0.005041
# 3 -0.000094 -0.004478 0.010055 0.002374 -0.004406 -0.005289
# 4 0.003170 0.001183 0.002374 0.019028 -0.005126 -0.008962
# 5 -0.002859 0.000465 -0.004406 -0.005126 0.027159 0.008463
# 6 -0.007630 0.005041 -0.005289 -0.008962 0.008463 0.038638
#
#
# Mechanical properties :
#
#
# Convention : Reuss Voigt Hill
#
# Bulk Modulus (GPa) = 46.74419 63.04714 54.89567
# Shear Modulus (GPa) = 35.59674 45.54205 40.56939
#
# Velocity S-wave (km/s) = 3.65324 4.13219 3.90007
# Velocity P-wave (km/s) = 5.94311 6.81210 6.39239
#
# Compressibility (1/GPa) = 0.02139303
#
# Stress axis : x y z
#
# Youngs Moduli (GPa) = 71.18006 92.19787 99.45518
#
# Poissons Ratio (x) = 0.20344 0.00934
# Poissons Ratio (y) = 0.15706 0.44535
# Poissons Ratio (z) = 0.00669 0.41286
#
# Static dielectric constant tensor:
#      x y z
#    x 2.139780 0.039730 -0.065910 
#    y 0.039730 2.132310 -0.091330 
#    z -0.065910 -0.091330 2.243620 
# 
# From -- ./inp_files/216070.got.cif
#   From: 2010.05.17/outbox.cif.g08.bks.cpg/sg2_109_cif.got.tgz:216070.got - 2010.06.03 11:33:40.
