data_PCOD9063850
_publ_section_title
;
Structure prediction by ZEFSAII (Michael W. Deem and Ramdas Pophale) SiO2 
 PCOD9063850
Probable space group: P -1
;
_chemical_formula_sum "Si O2"
_cell_formula_units_Z 16
_cell_length_a 11.660912
_cell_length_b 8.390767
_cell_length_c 9.553538
_cell_angle_alpha 56.927640
_cell_angle_beta 98.550813
_cell_angle_gamma 114.248556
_cell_volume 710.710644
_symmetry_space_group_name_H-M "P -1"
_symmetry_group_IT_number 2
_symmetry_cell_setting 'triclinic'
loop_
_space_group_symop_operation_xyz
x,y,z
-x,-y,-z
loop_
_atom_site_type_symbol
_atom_site_label
_atom_site_fract_x
_atom_site_fract_y
_atom_site_fract_z
Si Si1 0.767736 0.681336 0.173533
Si Si2 0.783246 0.057156 0.817253
Si Si3 0.706783 0.309055 0.912606
Si Si4 0.047425 0.290990 0.262044
Si Si5 0.982662 0.827674 0.371331
Si Si6 0.510839 0.472462 0.681269
Si Si7 0.619138 0.940305 0.575539
Si Si8 0.223321 0.727161 0.768196
O O1 0.861799 0.763014 0.281638
O O2 0.627023 0.628472 0.227617
O O3 0.774705 0.474205 0.211713
O O4 0.802733 0.859809 0.978010
O O5 0.754821 0.175447 0.884102
O O6 0.907648 0.199223 0.686161
O O7 0.669775 0.986582 0.719742
O O8 0.591678 0.342238 0.802770
O O9 0.822874 0.531263 0.847922
O O10 0.683637 0.216369 0.108634
O O11 0.918154 0.314541 0.188674
O O12 0.050063 0.291650 0.431287
O O13 0.033648 0.069184 0.307914
O O14 0.500000 0.500000 0.500000
O O15 0.580459 0.701685 0.647488
O O16 0.500000 0.000000 0.500000
O O17 0.729240 0.083176 0.422824
#
# Coordination Sequence:
#
# PCOD9063850 Si02
#       8
#     2   2   2   2   2   2   2   2
#     4  12  27  45  73 102 146 187 237 289 352 415
#     4  12  27  48  73 107 141 188 236 294 348 419
#     4  12  28  46  74 106 145 184 238 291 352 416
#     4  11  24  44  75 106 143 181 236 292 357 415
#     4  11  24  45  74 107 141 185 234 294 352 420
#     4  12  28  47  73 106 145 188 236 288 353 422
#     4  12  26  48  74 104 145 185 238 284 359 419
#     4  12  26  46  74 107 140 188 232 296 351 418
#
# _framework density 22.512677
#
# number of rings (size 3 to 8) (size 9 to 14) (size 15 to 20)
#    0.000    0.250    2.500    6.000    8.750    2.500 
#    0.000    0.000    0.000    0.000    0.000    0.000 
#    0.000    0.000    0.000    0.000    0.000    0.000 
#
# Total GULP energy -89727.557749 kJ/mol
# GULP energy per Si atom -5607.972359 kJ/mol
# Density = 2.246144 g / cm^3
# Si number density = 22.512677 Si / 1000 Ang^3
#
#
#
# Elastic Constant Matrix: (Units=GPa)
#
#
# Indices 1 2 3 4 5 6 
#
# 1 58.1737 0.8738 -7.6155 3.4237 15.1984 3.1002
# 2 0.8738 83.9489 17.4883 18.2235 -0.1949 0.9086
# 3 -7.6155 17.4883 98.0576 29.7802 15.2390 3.5598
# 4 3.4237 18.2235 29.7802 28.4105 7.8981 2.9420
# 5 15.1984 -0.1949 15.2390 7.8981 37.1739 8.5786
# 6 3.1002 0.9086 3.5598 2.9420 8.5786 31.2887
#
#
#
# Elastic Compliance Matrix: (Units=1/GPa)
#
#
# Indices 1 2 3 4 5 6 
#
# 1 0.020439 -0.000201 0.004389 -0.004389 -0.009329 0.000452
# 2 -0.000201 0.013995 0.000077 -0.009633 0.002192 -0.000090
# 3 0.004389 0.000077 0.016230 -0.016226 -0.005151 0.000654
# 4 -0.004389 -0.009633 -0.016226 0.060217 -0.003931 -0.002023
# 5 -0.009329 0.002192 -0.005151 -0.003931 0.035500 -0.007917
# 6 0.000452 -0.000090 0.000654 -0.002023 -0.007917 0.034205
#
#
# Mechanical properties :
#
#
# Convention : Reuss Voigt Hill
#
# Bulk Modulus (GPa) = 16.89353 29.07481 22.98417
# Shear Modulus (GPa) = 26.07052 34.67022 30.37037
#
# Velocity S-wave (km/s) = 3.40669 3.92858 3.67690
# Velocity P-wave (km/s) = 4.79524 5.78975 5.31580
#
# Compressibility (1/GPa) = 0.05919425
#
# Stress axis : x y z
#
# Youngs Moduli (GPa) = 48.92626 71.45233 61.61404
#
# Poissons Ratio (x) = 0.01436 -0.27045
# Poissons Ratio (y) = 0.00984 -0.00472
# Poissons Ratio (z) = -0.21476 -0.00547
#
# Static dielectric constant tensor:
#      x y z
#    x 1.816640 0.011150 0.000230 
#    y 0.011150 1.789650 -0.014320 
#    z 0.000230 -0.014320 1.827630 
# 
# From -- ./inp_files/242574.got.cif
#   From: 2010.05.17/outbox.cif.g08.bks.cpg/sg2_122_cif.got.tgz:242574.got - 2010.06.03 11:33:40.
