data_PCOD9063126
_publ_section_title
;
Structure prediction by ZEFSAII (Michael W. Deem and Ramdas Pophale) SiO2 
 PCOD9063126
Probable space group: P -1
;
_chemical_formula_sum "Si O2"
_cell_formula_units_Z 16
_cell_length_a 18.656231
_cell_length_b 11.483229
_cell_length_c 9.415223
_cell_angle_alpha 75.762958
_cell_angle_beta 142.391122
_cell_angle_gamma 132.937554
_cell_volume 679.070457
_symmetry_space_group_name_H-M "P -1"
_symmetry_group_IT_number 2
_symmetry_cell_setting 'triclinic'
loop_
_space_group_symop_operation_xyz
x,y,z
-x,-y,-z
loop_
_atom_site_type_symbol
_atom_site_label
_atom_site_fract_x
_atom_site_fract_y
_atom_site_fract_z
Si Si1 0.944221 0.866622 0.324677
Si Si2 0.019725 0.728289 0.316894
Si Si3 0.445849 0.670218 0.242176
Si Si4 0.207110 0.025596 0.067526
Si Si5 0.648118 0.141933 0.056518
Si Si6 0.957541 0.603846 0.940635
Si Si7 0.566680 0.442939 0.023909
Si Si8 0.491887 0.792787 0.751253
O O1 0.103568 0.915960 0.476213
O O2 0.873141 0.905776 0.085522
O O3 0.790038 0.652668 0.240217
O O4 0.000000 0.000000 0.500000
O O5 0.126680 0.714702 0.583529
O O6 0.776623 0.562854 0.981914
O O7 0.053094 0.717697 0.210170
O O8 0.614083 0.828107 0.578601
O O9 0.544039 0.675898 0.265335
O O10 0.370782 0.736322 0.049455
O O11 0.315268 0.095724 0.065094
O O12 0.048932 0.784116 0.926326
O O13 0.500000 0.000000 0.000000
O O14 0.552333 0.979214 0.830360
O O15 0.709485 0.396336 0.605203
O O16 0.000000 0.500000 0.000000
O O17 0.500000 0.500000 0.000000
O O18 0.557433 0.321411 0.148490
#
# Coordination Sequence:
#
# PCOD9063126 Si02
#       8
#     2   2   2   2   2   2   2   2
#     4  11  25  47  74 108 145 193 253 302 371 447
#     4  11  26  46  72 108 149 195 247 311 368 439
#     4  11  25  45  73 110 144 195 249 302 373 439
#     4  12  26  47  77 107 149 197 245 305 377 441
#     4  12  24  45  74 104 148 195 248 302 372 443
#     4  12  28  46  70 109 152 192 250 304 373 439
#     4  11  24  43  71 102 143 186 239 299 363 436
#     4  12  25  46  73 108 144 194 243 307 369 434
#
# _framework density 23.561619
#
# number of rings (size 3 to 8) (size 9 to 14) (size 15 to 20)
#    0.000    0.500    3.750    4.125    1.750    5.500 
#    0.000    0.000    0.000    0.000    0.000    0.000 
#    0.000    0.000    0.000    0.000    0.000    0.000 
#
# Total GULP energy -89244.385137 kJ/mol
# GULP energy per Si atom -5577.774071 kJ/mol
# Density = 2.350799 g / cm^3
# Si number density = 23.561619 Si / 1000 Ang^3
#
#
#
# Elastic Constant Matrix: (Units=GPa)
#
#
# Indices 1 2 3 4 5 6 
#
# 1 131.8025 38.6582 24.9230 -4.6776 -17.2950 -18.7623
# 2 38.6582 112.2347 16.4506 -6.4120 3.5728 -7.4404
# 3 24.9230 16.4506 92.3077 -3.1804 -7.9664 -0.7353
# 4 -4.6776 -6.4120 -3.1804 35.4347 -3.8763 8.1484
# 5 -17.2950 3.5728 -7.9664 -3.8763 34.7912 -5.7191
# 6 -18.7623 -7.4404 -0.7353 8.1484 -5.7191 26.5588
#
#
#
# Elastic Compliance Matrix: (Units=1/GPa)
#
#
# Indices 1 2 3 4 5 6 
#
# 1 0.010895 -0.003183 -0.001750 -0.000484 0.006659 0.008339
# 2 -0.003183 0.010311 -0.001189 0.001107 -0.002847 -0.000346
# 3 -0.001750 -0.001189 0.011706 0.001078 0.001859 -0.001176
# 4 -0.000484 0.001107 0.001078 0.030732 0.001831 -0.009036
# 5 0.006659 -0.002847 0.001859 0.001831 0.034764 0.010883
# 6 0.008339 -0.000346 -0.001176 -0.009036 0.010883 0.048530
#
#
# Mechanical properties :
#
#
# Convention : Reuss Voigt Hill
#
# Bulk Modulus (GPa) = 48.38043 55.15648 51.76846
# Shear Modulus (GPa) = 30.10728 36.44447 33.27587
#
# Velocity S-wave (km/s) = 3.57853 3.93717 3.76212
# Velocity P-wave (km/s) = 6.13617 6.64294 6.39458
#
# Compressibility (1/GPa) = 0.02066951
#
# Stress axis : x y z
#
# Youngs Moduli (GPa) = 91.78186 96.97942 85.42700
#
# Poissons Ratio (x) = 0.30870 0.14950
# Poissons Ratio (y) = 0.29215 0.10153
# Poissons Ratio (z) = 0.16062 0.11526
#
# Static dielectric constant tensor:
#      x y z
#    x 1.880930 -0.245840 -0.106050 
#    y -0.245840 2.191750 0.202770 
#    z -0.106050 0.202770 2.131070 
# 
# From -- ./inp_files/333306.got.cif
#   From: 2010.05.17/outbox.cif.g08.bks.cpg/sg2_167_cif.got.tgz:333306.got - 2010.06.03 11:33:40.
