data_PCOD9063894
_publ_section_title
;
Structure prediction by ZEFSAII (Michael W. Deem and Ramdas Pophale) SiO2 
 PCOD9063894
Probable space group: P -1
;
_chemical_formula_sum "Si O2"
_cell_formula_units_Z 16
_cell_length_a 9.978260
_cell_length_b 15.109900
_cell_length_c 8.327799
_cell_angle_alpha 97.038919
_cell_angle_beta 109.124766
_cell_angle_gamma 38.009963
_cell_volume 710.398081
_symmetry_space_group_name_H-M "P -1"
_symmetry_group_IT_number 2
_symmetry_cell_setting 'triclinic'
loop_
_space_group_symop_operation_xyz
x,y,z
-x,-y,-z
loop_
_atom_site_type_symbol
_atom_site_label
_atom_site_fract_x
_atom_site_fract_y
_atom_site_fract_z
Si Si1 0.350458 0.664599 0.969449
Si Si2 0.133194 0.158712 0.330107
Si Si3 0.825693 0.672430 0.463557
Si Si4 0.268263 0.081694 0.012552
Si Si5 0.059216 0.351718 0.854729
Si Si6 0.059205 0.907917 0.153971
Si Si7 0.662562 0.110295 0.508913
Si Si8 0.395568 0.323327 0.156941
O O1 0.485431 0.675107 0.930793
O O2 0.116246 0.757149 0.799245
O O3 0.500000 0.500000 0.000000
O O4 0.267343 0.741276 0.127998
O O5 0.110107 0.274045 0.390009
O O6 0.288786 0.070219 0.210111
O O7 0.244260 0.038262 0.481246
O O8 0.840046 0.701948 0.295864
O O9 0.567993 0.772228 0.440972
O O10 0.000000 0.500000 0.500000
O O11 0.069356 0.253335 0.927448
O O12 0.170720 0.037119 0.901522
O O13 0.500000 0.000000 0.000000
O O14 0.795974 0.521062 0.788471
O O15 0.234218 0.328795 0.014590
O O16 0.145255 0.922070 0.340376
O O17 0.000000 0.000000 0.000000
O O18 0.576513 0.190272 0.323433
#
# Coordination Sequence:
#
# PCOD9063894 Si02
#       8
#     2   2   2   2   2   2   2   2
#     4  11  25  44  74 100 143 197 238 297 366 441
#     4  11  26  47  68 108 148 185 247 295 368 439
#     4  12  26  46  71 106 143 196 239 298 372 435
#     4  11  24  44  77 108 144 192 240 302 362 438
#     4  11  25  44  67 105 143 182 251 299 364 432
#     4  11  24  48  71 107 146 191 236 289 377 441
#     4  12  24  46  72 104 148 186 243 305 362 437
#     4  11  25  43  72 104 139 193 242 307 359 429
#
# _framework density 22.522584999999999
#
# number of rings (size 3 to 8) (size 9 to 14) (size 15 to 20)
#    0.000    0.750    3.750    4.125    7.000    2.500 
#    0.000    1.875    0.000    0.000    0.000    0.000 
#    0.000    0.000    0.000    0.000    0.000    0.000 
#
# Total GULP energy -89626.187785 kJ/mol
# GULP energy per Si atom -5601.636737 kJ/mol
# Density = 2.247132 g / cm^3
# Si number density = 22.522585 Si / 1000 Ang^3
#
#
#
# Elastic Constant Matrix: (Units=GPa)
#
#
# Indices 1 2 3 4 5 6 
#
# 1 151.0712 34.8151 30.9966 -2.7301 3.5195 9.7568
# 2 34.8151 117.0152 23.7195 -9.5698 1.1616 15.4928
# 3 30.9966 23.7195 87.3779 -10.1606 -2.9944 12.4222
# 4 -2.7301 -9.5698 -10.1606 39.1830 6.4698 -7.3152
# 5 3.5195 1.1616 -2.9944 6.4698 39.2353 2.1722
# 6 9.7568 15.4928 12.4222 -7.3152 2.1722 36.4485
#
#
#
# Elastic Compliance Matrix: (Units=1/GPa)
#
#
# Indices 1 2 3 4 5 6 
#
# 1 0.007516 -0.001748 -0.002187 -0.000466 -0.000681 -0.000576
# 2 -0.001748 0.009873 -0.001492 0.001411 -0.000321 -0.002918
# 3 -0.002187 -0.001492 0.013338 0.002218 0.001056 -0.002944
# 4 -0.000466 0.001411 0.002218 0.028062 -0.004717 0.004682
# 5 -0.000681 -0.000321 0.001056 -0.004717 0.026559 -0.002571
# 6 -0.000576 -0.002918 -0.002944 0.004682 -0.002571 0.030927
#
#
# Mechanical properties :
#
#
# Convention : Reuss Voigt Hill
#
# Bulk Modulus (GPa) = 50.32053 59.39185 54.85619
# Shear Modulus (GPa) = 37.38246 40.70222 39.04234
#
# Velocity S-wave (km/s) = 4.07846 4.25570 4.16802
# Velocity P-wave (km/s) = 6.67601 7.11162 6.89726
#
# Compressibility (1/GPa) = 0.01987261
#
# Stress axis : x y z
#
# Youngs Moduli (GPa) = 133.05645 101.28327 74.97309
#
# Poissons Ratio (x) = 0.17702 0.16398
# Poissons Ratio (y) = 0.23255 0.11188
# Poissons Ratio (z) = 0.29102 0.15114
#
# Static dielectric constant tensor:
#      x y z
#    x 1.807260 -0.000170 -0.003750 
#    y -0.000170 1.900330 0.003280 
#    z -0.003750 0.003280 1.804970 
# 
# From -- ./inp_files/206935.got.cif
#   From: 2010.05.17/outbox.cif.g08.bks.cpg/sg2_104_cif.got.tgz:206935.got - 2010.06.03 11:33:40.
