data_PCOD9063121
_publ_section_title
;
Structure prediction by ZEFSAII (Michael W. Deem and Ramdas Pophale) SiO2 
 PCOD9063121
Probable space group: P -1
;
_chemical_formula_sum "Si O2"
_cell_formula_units_Z 14
_cell_length_a 18.775705
_cell_length_b 7.589417
_cell_length_c 5.663382
_cell_angle_alpha 68.432888
_cell_angle_beta 63.474682
_cell_angle_gamma 46.658069
_cell_volume 522.818418
_symmetry_space_group_name_H-M "P -1"
_symmetry_group_IT_number 2
_symmetry_cell_setting 'triclinic'
loop_
_space_group_symop_operation_xyz
x,y,z
-x,-y,-z
loop_
_atom_site_type_symbol
_atom_site_label
_atom_site_fract_x
_atom_site_fract_y
_atom_site_fract_z
Si Si1 0.852752 0.076363 0.634988
Si Si2 0.166829 0.210755 0.581714
Si Si3 0.701505 0.291684 0.118786
Si Si4 0.512873 0.224991 0.647107
Si Si5 0.793104 0.554320 0.959111
Si Si6 0.589497 0.032079 0.128725
Si Si7 0.954331 0.315771 0.189307
O O1 0.889863 0.227463 0.422460
O O2 0.869058 0.887257 0.512840
O O3 0.735134 0.244450 0.815848
O O4 0.929430 0.910172 0.819124
O O5 0.216075 0.320408 0.331595
O O6 0.249699 0.969090 0.721106
O O7 0.078695 0.443886 0.746673
O O8 0.589549 0.506677 0.271206
O O9 0.765102 0.378804 0.071770
O O10 0.552149 0.199446 0.332923
O O11 0.479373 0.053524 0.759516
O O12 0.578837 0.146326 0.830554
O O13 0.907890 0.404764 0.954247
O O14 0.704896 0.787304 0.126708
#
# Coordination Sequence:
#
# PCOD9063121 Si02
#       7
#     2   2   2   2   2   2   2
#     4  11  25  45  72 103 140 186 237 293 359 430
#     4  12  25  44  70 102 140 192 228 292 363 428
#     4  11  24  43  71 101 143 184 237 297 356 428
#     4   9  20  38  68 103 140 188 239 294 362 428
#     4  11  24  43  71 101 143 184 237 297 356 428
#     4   9  20  38  68 103 140 188 239 294 362 428
#     4  11  25  45  72 103 140 186 237 293 359 430
#
# _framework density 26.777937000000001
#
# number of rings (size 3 to 8) (size 9 to 14) (size 15 to 20)
#    0.000    1.429    2.857    1.286    4.000    5.143 
#    0.000    1.429    0.000    0.000    0.000    0.000 
#    0.000    0.000    0.000    0.000    0.000    0.000 
#
# Total GULP energy -78373.035710 kJ/mol
# GULP energy per Si atom -5598.073979 kJ/mol
# Density = 2.671699 g / cm^3
# Si number density = 26.777937 Si / 1000 Ang^3
#
#
#
# Elastic Constant Matrix: (Units=GPa)
#
#
# Indices 1 2 3 4 5 6 
#
# 1 111.4603 53.2439 11.0358 -2.3662 17.6728 23.5828
# 2 53.2439 162.0150 55.4881 19.3727 15.8274 18.4691
# 3 11.0358 55.4881 98.8872 8.5984 5.9271 3.8463
# 4 -2.3662 19.3727 8.5984 54.1592 1.7840 -0.8331
# 5 17.6728 15.8274 5.9271 1.7840 23.7804 -1.2992
# 6 23.5828 18.4691 3.8463 -0.8331 -1.2992 49.9266
#
#
#
# Elastic Compliance Matrix: (Units=1/GPa)
#
#
# Indices 1 2 3 4 5 6 
#
# 1 0.012889 -0.003445 0.001010 0.001819 -0.007951 -0.005068
# 2 -0.003445 0.009654 -0.004565 -0.002819 -0.002610 -0.001708
# 3 0.001010 -0.004565 0.012628 -0.000297 -0.000826 0.000212
# 4 0.001819 -0.002819 -0.000297 0.019635 -0.000846 0.000512
# 5 -0.007951 -0.002610 -0.000826 -0.000846 0.050299 0.006079
# 6 -0.005068 -0.001708 0.000212 0.000512 0.006079 0.023205
#
#
# Mechanical properties :
#
#
# Convention : Reuss Voigt Hill
#
# Bulk Modulus (GPa) = 47.23068 67.98868 57.60968
# Shear Modulus (GPa) = 33.47436 42.41287 37.94361
#
# Velocity S-wave (km/s) = 3.53947 3.98411 3.76835
# Velocity P-wave (km/s) = 5.86345 6.82709 6.36353
#
# Compressibility (1/GPa) = 0.02117268
#
# Stress axis : x y z
#
# Youngs Moduli (GPa) = 77.58592 103.57866 79.18631
#
# Poissons Ratio (x) = 0.35680 -0.07998
# Poissons Ratio (y) = 0.26726 0.36148
# Poissons Ratio (z) = -0.07836 0.47283
#
# Static dielectric constant tensor:
#      x y z
#    x 2.083620 -0.012810 -0.020150 
#    y -0.012810 2.003840 0.039060 
#    z -0.020150 0.039060 2.212340 
# 
# From -- ./inp_files/39323.got.cif
#   From: 2010.05.17/outbox.cif.g08.bks.cpg/sg2_20_cif.got.tgz:39323.got - 2010.06.03 11:33:40.
