data_PCOD9063276
_publ_section_title
;
Structure prediction by ZEFSAII (Michael W. Deem and Ramdas Pophale) SiO2 
 PCOD9063276
Probable space group: P -1
;
_chemical_formula_sum "Si O2"
_cell_formula_units_Z 16
_cell_length_a 12.674070
_cell_length_b 17.918044
_cell_length_c 9.265067
_cell_angle_alpha 56.542192
_cell_angle_beta 130.636558
_cell_angle_gamma 152.636192
_cell_volume 731.678162
_symmetry_space_group_name_H-M "P -1"
_symmetry_group_IT_number 2
_symmetry_cell_setting 'triclinic'
loop_
_space_group_symop_operation_xyz
x,y,z
-x,-y,-z
loop_
_atom_site_type_symbol
_atom_site_label
_atom_site_fract_x
_atom_site_fract_y
_atom_site_fract_z
Si Si1 0.245098 0.889634 0.466790
Si Si2 0.737966 0.145227 0.161556
Si Si3 0.699568 0.329254 0.934605
Si Si4 0.221362 0.081357 0.205772
Si Si5 0.585677 0.750819 0.512220
Si Si6 0.097298 0.452824 0.592388
Si Si7 0.612549 0.415937 0.026247
Si Si8 0.696381 0.611455 0.689274
O O1 0.271161 0.914180 0.635474
O O2 0.066394 0.709883 0.461985
O O3 0.500000 0.000000 0.500000
O O4 0.196021 0.962103 0.286482
O O5 0.023213 0.280982 0.206076
O O6 0.683568 0.217915 0.082388
O O7 0.500000 0.000000 0.000000
O O8 0.518897 0.253434 0.717380
O O9 0.638475 0.366689 0.964078
O O10 0.000000 0.500000 0.000000
O O11 0.235222 0.104174 0.366216
O O12 0.446433 0.263653 0.145982
O O13 0.000000 0.000000 0.000000
O O14 0.329522 0.591887 0.541881
O O15 0.717799 0.728177 0.614649
O O16 0.152252 0.440508 0.811842
O O17 0.000000 0.500000 0.500000
O O18 0.560952 0.484899 0.835644
O O19 0.500000 0.500000 0.500000
#
# Coordination Sequence:
#
# PCOD9063276 Si02
#       8
#     2   2   2   2   2   2   2   2
#     4  12  26  46  71 102 148 187 238 297 369 433
#     4  12  28  45  75 109 147 186 247 305 374 433
#     4  12  21  44  72 104 138 184 238 304 359 442
#     4  11  28  46  67 100 145 192 237 296 363 434
#     4  11  25  44  72 104 143 189 246 299 370 434
#     4  11  24  43  74 107 142 188 248 302 361 438
#     4  11  25  43  73 101 139 187 249 290 367 431
#     4  12  25  46  75 110 142 192 247 310 367 441
#
# _framework density 21.867539000000001
#
# number of rings (size 3 to 8) (size 9 to 14) (size 15 to 20)
#    0.000    0.500    2.500    6.000    7.000    2.000 
#    0.000    1.875    0.000    0.000    0.000    0.000 
#    0.000    0.000    0.000    0.000    0.000    0.000 
#
# Total GULP energy -89181.555015 kJ/mol
# GULP energy per Si atom -5573.847188 kJ/mol
# Density = 2.181777 g / cm^3
# Si number density = 21.867539 Si / 1000 Ang^3
#
#
#
# Elastic Constant Matrix: (Units=GPa)
#
#
# Indices 1 2 3 4 5 6 
#
# 1 80.0214 11.6467 45.2552 8.1003 7.1038 -15.9506
# 2 11.6467 51.3015 27.4170 6.0264 1.9669 -13.4914
# 3 45.2552 27.4170 177.7872 -3.8606 -0.9469 -13.8006
# 4 8.1003 6.0264 -3.8606 44.8925 -13.7419 -3.9725
# 5 7.1038 1.9669 -0.9469 -13.7419 44.3789 -7.9941
# 6 -15.9506 -13.4914 -13.8006 -3.9725 -7.9941 31.8372
#
#
#
# Elastic Compliance Matrix: (Units=1/GPa)
#
#
# Indices 1 2 3 4 5 6 
#
# 1 0.016373 0.000353 -0.003894 -0.003737 -0.002891 0.005472
# 2 0.000353 0.023658 -0.003160 -0.002956 -0.000590 0.008315
# 3 -0.003894 -0.003160 0.007207 0.002329 0.001739 0.000561
# 4 -0.003737 -0.002956 0.002329 0.026861 0.009761 0.003687
# 5 -0.002891 -0.000590 0.001739 0.009761 0.027369 0.007145
# 6 0.005472 0.008315 0.000561 0.003687 0.007145 0.040173
#
#
# Mechanical properties :
#
#
# Convention : Reuss Voigt Hill
#
# Bulk Modulus (GPa) = 29.55452 53.08309 41.31880
# Shear Modulus (GPa) = 30.06234 39.20779 34.63506
#
# Velocity S-wave (km/s) = 3.71178 4.23894 3.98409
# Velocity P-wave (km/s) = 5.64928 6.94879 6.33246
#
# Compressibility (1/GPa) = 0.03383578
#
# Stress axis : x y z
#
# Youngs Moduli (GPa) = 61.07520 42.26896 138.76161
#
# Poissons Ratio (x) = -0.01492 0.54033
# Poissons Ratio (y) = -0.02156 0.43849
# Poissons Ratio (z) = 0.23782 0.13357
#
# Static dielectric constant tensor:
#      x y z
#    x 1.811250 -0.021980 -0.020620 
#    y -0.021980 1.893610 0.070660 
#    z -0.020620 0.070660 1.922820 
# 
# From -- ./inp_files/279247.got.cif
#   From: 2010.05.17/outbox.cif.g08.bks.cpg/sg2_140_cif.got.tgz:279247.got - 2010.06.03 11:33:40.
