data_PCOD9063218
_publ_section_title
;
Structure prediction by ZEFSAII (Michael W. Deem and Ramdas Pophale) SiO2 
 PCOD9063218
Probable space group: P -1
;
_chemical_formula_sum "Si O2"
_cell_formula_units_Z 14
_cell_length_a 12.056207
_cell_length_b 10.983670
_cell_length_c 11.877551
_cell_angle_alpha 127.393016
_cell_angle_beta 126.401788
_cell_angle_gamma 33.178632
_cell_volume 670.598616
_symmetry_space_group_name_H-M "P -1"
_symmetry_group_IT_number 2
_symmetry_cell_setting 'triclinic'
loop_
_space_group_symop_operation_xyz
x,y,z
-x,-y,-z
loop_
_atom_site_type_symbol
_atom_site_label
_atom_site_fract_x
_atom_site_fract_y
_atom_site_fract_z
Si Si1 0.445159 0.956567 0.101621
Si Si2 0.286002 0.335290 0.366563
Si Si3 0.025719 0.151536 0.562673
Si Si4 0.831717 0.750043 0.093460
Si Si5 0.662874 0.095654 0.600092
Si Si6 0.002056 0.628555 0.669245
Si Si7 0.540875 0.623523 0.158209
O O1 0.659238 0.786322 0.068438
O O2 0.456951 0.831800 0.144230
O O3 0.400798 0.168650 0.235066
O O4 0.270701 0.067522 0.966926
O O5 0.189357 0.585121 0.454182
O O6 0.457592 0.176610 0.479081
O O7 0.087375 0.389337 0.289069
O O8 0.091811 0.199436 0.735546
O O9 0.000000 0.000000 0.500000
O O10 0.197548 0.003188 0.483528
O O11 0.000000 0.500000 0.000000
O O12 0.564051 0.303305 0.740408
O O13 0.824703 0.886293 0.664692
O O14 0.219094 0.529636 0.763727
O O15 0.000000 0.500000 0.500000
O O16 0.500000 0.500000 0.000000
#
# Coordination Sequence:
#
# PCOD9063218 Si02
#       7
#     2   2   2   2   2   2   2
#     4  11  24  43  72  99 135 188 238 287 346 421
#     4  12  22  43  73 104 134 181 245 293 341 423
#     4  12  27  44  68 104 143 185 236 296 361 415
#     4  11  24  44  71 100 136 190 244 288 340 422
#     4  12  24  44  72 101 139 183 238 289 356 417
#     4  12  22  41  76 104 134 180 236 288 349 426
#     4  12  28  45  68 108 148 182 229 299 365 419
#
# _framework density 20.87687
#
# number of rings (size 3 to 8) (size 9 to 14) (size 15 to 20)
#    0.000    0.286    7.143    2.143    0.000    4.571 
#    0.000    0.000    0.000    0.000    0.000    0.000 
#    0.000    0.000    0.000    0.000    0.000    0.000 
#
# Total GULP energy -78063.691171 kJ/mol
# GULP energy per Si atom -5575.977941 kJ/mol
# Density = 2.082935 g / cm^3
# Si number density = 20.876870 Si / 1000 Ang^3
#
#
#
# Elastic Constant Matrix: (Units=GPa)
#
#
# Indices 1 2 3 4 5 6 
#
# 1 94.1502 66.8193 48.1282 16.5088 -5.6987 -9.2821
# 2 66.8193 139.1503 63.3046 -1.8277 1.7465 -12.0533
# 3 48.1282 63.3046 147.4154 7.5579 -11.2829 -12.4972
# 4 16.5088 -1.8277 7.5579 43.4860 -4.2707 -18.2610
# 5 -5.6987 1.7465 -11.2829 -4.2707 33.1328 8.2231
# 6 -9.2821 -12.0533 -12.4972 -18.2610 8.2231 33.0114
#
#
#
# Elastic Compliance Matrix: (Units=1/GPa)
#
#
# Indices 1 2 3 4 5 6 
#
# 1 0.019276 -0.008767 -0.002210 -0.008780 0.002937 -0.004206
# 2 -0.008767 0.013415 -0.003032 0.006492 -0.003860 0.005838
# 3 -0.002210 -0.003032 0.009098 -0.000216 0.002616 0.000945
# 4 -0.008780 0.006492 -0.000216 0.034621 -0.002315 0.019547
# 5 0.002937 -0.003860 0.002616 -0.002315 0.033788 -0.009290
# 6 -0.004206 0.005838 0.000945 0.019547 -0.009290 0.044726
#
#
# Mechanical properties :
#
#
# Convention : Reuss Voigt Hill
#
# Bulk Modulus (GPa) = 72.61490 81.91334 77.26412
# Shear Modulus (GPa) = 26.66189 35.42362 31.04276
#
# Velocity S-wave (km/s) = 3.57753 4.12368 3.86028
# Velocity P-wave (km/s) = 7.20576 7.87366 7.54710
#
# Compressibility (1/GPa) = 0.01377128
#
# Stress axis : x y z
#
# Youngs Moduli (GPa) = 51.87822 74.54226 109.90982
#
# Poissons Ratio (x) = 0.65354 0.24288
# Poissons Ratio (y) = 0.45484 0.33323
# Poissons Ratio (z) = 0.11464 0.22600
#
# Static dielectric constant tensor:
#      x y z
#    x 1.853570 0.023960 -0.026490 
#    y 0.023960 1.848580 0.027380 
#    z -0.026490 0.027380 1.798180 
# 
# From -- ./inp_files/364178.got.cif
#   From: 2010.05.17/outbox.cif.g08.bks.cpg/sg2_183_cif.got.tgz:364178.got - 2010.06.03 11:33:40.
