data_PCOD9063327
_publ_section_title
;
Structure prediction by ZEFSAII (Michael W. Deem and Ramdas Pophale) SiO2 
 PCOD9063327
Probable space group: P -1
;
_chemical_formula_sum "Si O2"
_cell_formula_units_Z 14
_cell_length_a 9.228402
_cell_length_b 10.192583
_cell_length_c 8.224183
_cell_angle_alpha 107.125018
_cell_angle_beta 71.603877
_cell_angle_gamma 115.900525
_cell_volume 649.104480
_symmetry_space_group_name_H-M "P -1"
_symmetry_group_IT_number 2
_symmetry_cell_setting 'triclinic'
loop_
_space_group_symop_operation_xyz
x,y,z
-x,-y,-z
loop_
_atom_site_type_symbol
_atom_site_label
_atom_site_fract_x
_atom_site_fract_y
_atom_site_fract_z
Si Si1 0.064742 0.342985 0.342723
Si Si2 0.176046 0.116380 0.033913
Si Si3 0.692960 0.095110 0.933093
Si Si4 0.120445 0.592812 0.851976
Si Si5 0.311372 0.419099 0.579528
Si Si6 0.622392 0.833336 0.351899
Si Si7 0.720863 0.165072 0.574965
O O1 0.202843 0.405890 0.453011
O O2 0.102001 0.751935 0.536441
O O3 0.995725 0.432529 0.275161
O O4 0.141693 0.253806 0.165432
O O5 0.304620 0.152546 0.851836
O O6 0.231090 0.029931 0.121969
O O7 0.000000 0.000000 0.000000
O O8 0.722022 0.163563 0.768766
O O9 0.784484 0.231890 0.074760
O O10 0.500000 0.000000 0.000000
O O11 0.255040 0.520422 0.755962
O O12 0.000000 0.500000 0.000000
O O13 0.500000 0.500000 0.500000
O O14 0.299501 0.265006 0.609906
O O15 0.422017 0.774535 0.402240
O O16 0.671058 0.996399 0.469584
#
# Coordination Sequence:
#
# PCOD9063327 Si02
#       7
#     2   2   2   2   2   2   2
#     4  12  26  47  73 102 139 187 238 290 355 420
#     4  12  23  43  73 106 140 177 236 299 346 412
#     4  12  26  45  74 108 143 186 239 296 357 411
#     4  12  27  49  71 101 147 192 234 285 360 434
#     4  12  29  45  69 101 143 184 237 289 352 427
#     4  11  24  45  68 107 140 183 233 290 347 415
#     4  11  24  43  77 102 141 182 237 292 351 412
#
# _framework density 21.568178
#
# number of rings (size 3 to 8) (size 9 to 14) (size 15 to 20)
#    0.000    0.286    4.286    3.857    8.000    2.286 
#    0.000    2.143    0.000    0.000    0.000    0.000 
#    0.000    0.000    0.000    0.000    0.000    0.000 
#
# Total GULP energy -78285.162167 kJ/mol
# GULP energy per Si atom -5591.797298 kJ/mol
# Density = 2.151909 g / cm^3
# Si number density = 21.568178 Si / 1000 Ang^3
#
#
#
# Elastic Constant Matrix: (Units=GPa)
#
#
# Indices 1 2 3 4 5 6 
#
# 1 152.4392 41.5417 38.3005 -7.9405 -9.5593 -8.7107
# 2 41.5417 77.1801 21.9071 -5.9118 -1.2352 -13.9918
# 3 38.3005 21.9071 91.3015 -1.4089 -11.1700 -5.3318
# 4 -7.9405 -5.9118 -1.4089 37.8698 -12.9141 -6.9767
# 5 -9.5593 -1.2352 -11.1700 -12.9141 45.9800 0.8487
# 6 -8.7107 -13.9918 -5.3318 -6.9767 0.8487 46.8801
#
#
#
# Elastic Compliance Matrix: (Units=1/GPa)
#
#
# Indices 1 2 3 4 5 6 
#
# 1 0.008348 -0.003577 -0.002406 0.001703 0.001525 0.000436
# 2 -0.003577 0.016482 -0.002187 0.002474 -0.000218 0.004378
# 3 -0.002406 -0.002187 0.012855 0.000641 0.002737 0.000408
# 4 0.001703 0.002474 0.000641 0.031377 0.009285 0.005629
# 5 0.001525 -0.000218 0.002737 0.009285 0.025306 0.001453
# 6 0.000436 0.004378 0.000408 0.005629 0.001453 0.023577
#
#
# Mechanical properties :
#
#
# Convention : Reuss Voigt Hill
#
# Bulk Modulus (GPa) = 46.84529 58.26886 52.55707
# Shear Modulus (GPa) = 35.36078 40.75739 38.05909
#
# Velocity S-wave (km/s) = 4.05345 4.35178 4.20526
# Velocity P-wave (km/s) = 6.60864 7.23364 6.92819
#
# Compressibility (1/GPa) = 0.02134686
#
# Stress axis : x y z
#
# Youngs Moduli (GPa) = 119.78362 60.67078 77.78989
#
# Poissons Ratio (x) = 0.21701 0.18712
# Poissons Ratio (y) = 0.42844 0.17015
# Poissons Ratio (z) = 0.28814 0.13270
#
# Static dielectric constant tensor:
#      x y z
#    x 1.881570 -0.036540 -0.029020 
#    y -0.036540 1.786880 0.033530 
#    z -0.029020 0.033530 1.783940 
# 
# From -- ./inp_files/159652.got.cif
#   From: 2010.05.17/outbox.cif.g08.bks.cpg/sg2_80_cif.got.tgz:159652.got - 2010.06.03 11:33:40.
