data_PCOD9063142
_publ_section_title
;
Structure prediction by ZEFSAII (Michael W. Deem and Ramdas Pophale) SiO2 
 PCOD9063142
Probable space group: P -1
;
_chemical_formula_sum "Si O2"
_cell_formula_units_Z 16
_cell_length_a 18.757584
_cell_length_b 9.590109
_cell_length_c 13.708392
_cell_angle_alpha 151.630973
_cell_angle_beta 140.851819
_cell_angle_gamma 40.797528
_cell_volume 716.460781
_symmetry_space_group_name_H-M "P -1"
_symmetry_group_IT_number 2
_symmetry_cell_setting 'triclinic'
loop_
_space_group_symop_operation_xyz
x,y,z
-x,-y,-z
loop_
_atom_site_type_symbol
_atom_site_label
_atom_site_fract_x
_atom_site_fract_y
_atom_site_fract_z
Si Si1 0.030164 0.674014 0.883238
Si Si2 0.224150 0.723472 0.413082
Si Si3 0.533894 0.883790 0.356724
Si Si4 0.590280 0.435199 0.644705
Si Si5 0.326121 0.576316 0.908450
Si Si6 0.702835 0.724658 0.102440
Si Si7 0.976280 0.091069 0.418219
Si Si8 0.139739 0.150369 0.016747
O O1 0.167146 0.495656 0.915293
O O2 0.961244 0.449994 0.619156
O O3 0.975976 0.717498 0.961276
O O4 0.000000 0.000000 0.000000
O O5 0.286955 0.671530 0.345090
O O6 0.288093 0.928518 0.672245
O O7 0.095765 0.934954 0.395085
O O8 0.212164 0.406085 0.249068
O O9 0.648025 0.622587 0.285319
O O10 0.500000 0.000000 0.500000
O O11 0.552784 0.173087 0.500277
O O12 0.426132 0.758043 0.129491
O O13 0.500000 0.500000 0.500000
O O14 0.611413 0.674633 0.893939
O O15 0.332272 0.369312 0.884250
O O16 0.207253 0.834790 0.942014
O O17 0.000000 0.000000 0.500000
O O18 0.883713 0.944676 0.176796
#
# Coordination Sequence:
#
# PCOD9063142 Si02
#       8
#     2   2   2   2   2   2   2   2
#     4  11  24  43  71 105 142 185 231 282 354 414
#     4  11  25  45  69 100 144 185 233 288 353 408
#     4  11  24  48  73  99 140 184 230 299 361 416
#     4  12  26  45  71 104 137 188 237 294 358 419
#     4  11  24  46  72 104 135 181 239 287 359 418
#     4  11  24  45  73 105 142 184 236 293 346 427
#     4  11  25  44  67 100 143 191 228 278 353 423
#     4  12  25  44  70 106 142 182 236 286 344 432
#
# _framework density 22.331996
#
# number of rings (size 3 to 8) (size 9 to 14) (size 15 to 20)
#    0.000    0.750    5.000    1.875    3.500    3.000 
#    2.250    0.000    0.000    0.000    0.000    0.000 
#    0.000    0.000    0.000    0.000    0.000    0.000 
#
# Total GULP energy -89377.734662 kJ/mol
# GULP energy per Si atom -5586.108416 kJ/mol
# Density = 2.228117 g / cm^3
# Si number density = 22.331996 Si / 1000 Ang^3
#
#
#
# Elastic Constant Matrix: (Units=GPa)
#
#
# Indices 1 2 3 4 5 6 
#
# 1 134.2512 18.0130 40.5160 9.0367 -13.3867 17.0630
# 2 18.0130 47.1885 58.0745 12.9567 -4.5849 14.5199
# 3 40.5160 58.0745 182.7421 14.4934 0.0682 18.4553
# 4 9.0367 12.9567 14.4934 28.1529 1.6950 5.4614
# 5 -13.3867 -4.5849 0.0682 1.6950 43.9916 8.9001
# 6 17.0630 14.5199 18.4553 5.4614 8.9001 32.4274
#
#
#
# Elastic Compliance Matrix: (Units=1/GPa)
#
#
# Indices 1 2 3 4 5 6 
#
# 1 0.008960 0.001047 -0.001675 -0.001760 0.003919 -0.005009
# 2 0.001047 0.043529 -0.011736 -0.012190 0.008080 -0.013527
# 3 -0.001675 -0.011736 0.009374 0.001004 -0.002026 0.001188
# 4 -0.001760 -0.012190 0.001004 0.041427 -0.003354 -0.000244
# 5 0.003919 0.008080 -0.002026 -0.003354 0.027211 -0.011430
# 6 -0.005009 -0.013527 0.001188 -0.000244 -0.011430 0.042033
#
#
# Mechanical properties :
#
#
# Convention : Reuss Voigt Hill
#
# Bulk Modulus (GPa) = 26.92860 66.37655 46.65257
# Shear Modulus (GPa) = 23.85025 37.41960 30.63493
#
# Velocity S-wave (km/s) = 3.27155 4.09786 3.70779
# Velocity P-wave (km/s) = 5.13373 7.22337 6.26627
#
# Compressibility (1/GPa) = 0.03713525
#
# Stress axis : x y z
#
# Youngs Moduli (GPa) = 111.61030 22.97306 106.67579
#
# Poissons Ratio (x) = -0.02405 0.17870
# Poissons Ratio (y) = -0.11682 1.25190
# Poissons Ratio (z) = 0.18696 0.26960
#
# Static dielectric constant tensor:
#      x y z
#    x 1.847600 -0.038700 -0.019870 
#    y -0.038700 1.837310 -0.025290 
#    z -0.019870 -0.025290 1.865870 
# 
# From -- ./inp_files/462631.got.cif
#   From: 2010.05.17/outbox.cif.g08.bks.cpg/sg2_232_cif.got.tgz:462631.got - 2010.06.03 11:33:40.
