data_PCOD9063027
_publ_section_title
;
Structure prediction by ZEFSAII (Michael W. Deem and Ramdas Pophale) SiO2 
 PCOD9063027
Probable space group: P -1
;
_chemical_formula_sum "Si O2"
_cell_formula_units_Z 14
_cell_length_a 5.911169
_cell_length_b 7.611626
_cell_length_c 19.709365
_cell_angle_alpha 80.110515
_cell_angle_beta 98.229023
_cell_angle_gamma 137.351657
_cell_volume 591.686047
_symmetry_space_group_name_H-M "P -1"
_symmetry_group_IT_number 2
_symmetry_cell_setting 'triclinic'
loop_
_space_group_symop_operation_xyz
x,y,z
-x,-y,-z
loop_
_atom_site_type_symbol
_atom_site_label
_atom_site_fract_x
_atom_site_fract_y
_atom_site_fract_z
Si Si1 0.440629 0.187548 0.779452
Si Si2 0.397314 0.853549 0.077151
Si Si3 0.607716 0.757466 0.505007
Si Si4 0.720030 0.284105 0.639615
Si Si5 0.652016 0.592313 0.074659
Si Si6 0.550939 0.230057 0.350169
Si Si7 0.697616 0.705046 0.789460
O O1 0.492162 0.056734 0.844916
O O2 0.491772 0.183991 0.702292
O O3 0.700176 0.493020 0.789106
O O4 0.050151 0.004374 0.783999
O O5 0.566089 0.750267 0.081171
O O6 0.014146 0.705176 0.076061
O O7 0.500000 0.000000 0.000000
O O8 0.500000 0.500000 0.500000
O O9 0.436029 0.773578 0.437309
O O10 0.502724 0.731661 0.578995
O O11 0.000000 0.000000 0.500000
O O12 0.053426 0.590291 0.643194
O O13 0.737325 0.079918 0.653667
O O14 0.461772 0.370834 0.138398
O O15 0.500000 0.500000 0.000000
O O16 0.519789 0.346030 0.278536
#
# Coordination Sequence:
#
# PCOD9063027 Si02
#       7
#     2   2   2   2   2   2   2
#     4  11  24  44  67  98 134 178 225 279 344 418
#     4  11  24  43  69 103 141 185 235 291 352 420
#     4  12  24  42  64  90 128 174 222 280 344 418
#     4  12  24  41  65  96 130 171 222 282 344 416
#     4  11  24  43  69 103 141 185 235 291 352 420
#     4  12  24  41  65  96 130 171 222 282 344 416
#     4  11  24  44  67  98 134 178 225 279 344 418
#
# _framework density 23.661197999999999
#
# number of rings (size 3 to 8) (size 9 to 14) (size 15 to 20)
#    0.000    0.571    0.000    8.571    0.000    5.714 
#    0.000    0.000    0.000    0.000    0.000    0.000 
#    0.000    0.000    0.000    0.000    0.000    0.000 
#
# Total GULP energy -78023.137126 kJ/mol
# GULP energy per Si atom -5573.081223 kJ/mol
# Density = 2.360734 g / cm^3
# Si number density = 23.661198 Si / 1000 Ang^3
#
#
#
# Elastic Constant Matrix: (Units=GPa)
#
#
# Indices 1 2 3 4 5 6 
#
# 1 80.3187 24.3224 27.5014 -4.5725 -3.4073 18.9777
# 2 24.3224 82.1318 9.0936 -3.7069 1.0613 11.5298
# 3 27.5014 9.0936 180.2409 -16.9399 8.0279 20.3020
# 4 -4.5725 -3.7069 -16.9399 38.5747 11.3053 2.0433
# 5 -3.4073 1.0613 8.0279 11.3053 49.9022 0.2245
# 6 18.9777 11.5298 20.3020 2.0433 0.2245 49.5169
#
#
#
# Elastic Compliance Matrix: (Units=1/GPa)
#
#
# Indices 1 2 3 4 5 6 
#
# 1 0.015253 -0.003716 -0.001654 0.000580 0.001275 -0.004332
# 2 -0.003716 0.013585 0.000260 0.001337 -0.000879 -0.001897
# 3 -0.001654 0.000260 0.006431 0.003325 -0.001897 -0.002192
# 4 0.000580 0.001337 0.003325 0.029879 -0.007279 -0.003097
# 5 0.001275 -0.000879 -0.001897 -0.007279 0.022096 0.000694
# 6 -0.004332 -0.001897 -0.002192 -0.003097 0.000694 0.023321
#
#
# Mechanical properties :
#
#
# Convention : Reuss Voigt Hill
#
# Bulk Modulus (GPa) = 39.92114 51.61402 45.76758
# Shear Modulus (GPa) = 38.71954 46.38370 42.55162
#
# Velocity S-wave (km/s) = 4.04965 4.43236 4.24532
# Velocity P-wave (km/s) = 6.22695 6.93221 6.58902
#
# Compressibility (1/GPa) = 0.02504938
#
# Stress axis : x y z
#
# Youngs Moduli (GPa) = 65.56210 73.60959 155.49001
#
# Poissons Ratio (x) = 0.27353 0.25719
# Poissons Ratio (y) = 0.24362 -0.04044
# Poissons Ratio (z) = 0.10844 -0.01914
#
# Static dielectric constant tensor:
#      x y z
#    x 2.034670 -0.047780 0.098590 
#    y -0.047780 1.918780 -0.026360 
#    z 0.098590 -0.026360 2.186800 
# 
# From -- ./inp_files/7635.got.cif
#   From: 2010.05.17/outbox.cif.g08.bks.cpg/sg2_4_cif.got.tgz:7635.got - 2010.06.03 11:33:40.
