data_PCOD9063886
_publ_section_title
;
Structure prediction by ZEFSAII (Michael W. Deem and Ramdas Pophale) SiO2 
 PCOD9063886
Probable space group: P -1
;
_chemical_formula_sum "Si O2"
_cell_formula_units_Z 15
_cell_length_a 11.417434
_cell_length_b 10.437899
_cell_length_c 11.630971
_cell_angle_alpha 128.861010
_cell_angle_beta 138.419137
_cell_angle_gamma 46.224117
_cell_volume 646.524058
_symmetry_space_group_name_H-M "P -1"
_symmetry_group_IT_number 2
_symmetry_cell_setting 'triclinic'
loop_
_space_group_symop_operation_xyz
x,y,z
-x,-y,-z
loop_
_atom_site_type_symbol
_atom_site_label
_atom_site_fract_x
_atom_site_fract_y
_atom_site_fract_z
Si Si1 0.884470 0.378167 0.369552
Si Si2 0.522092 0.270913 0.451142
Si Si3 0.943456 0.024479 0.103496
Si Si4 0.256226 0.633336 0.134343
Si Si5 0.500000 0.500000 0.000000
Si Si6 0.557795 0.018268 0.868737
Si Si7 0.184179 0.647504 0.424892
Si Si8 0.228334 0.263354 0.927821
O O1 0.678899 0.471084 0.204623
O O2 0.852367 0.353130 0.466703
O O3 0.000000 0.500000 0.500000
O O4 0.997398 0.172710 0.287234
O O5 0.593544 0.331824 0.652695
O O6 0.496155 0.086827 0.330030
O O7 0.315148 0.438470 0.367316
O O8 0.680171 0.253762 0.458581
O O9 0.059655 0.817535 0.113354
O O10 0.711408 0.093363 0.986318
O O11 0.000000 0.000000 0.000000
O O12 0.337077 0.591094 0.040230
O O13 0.218545 0.462115 0.049385
O O14 0.369267 0.177710 0.873444
O O15 0.664408 0.870237 0.963565
O O16 0.980198 0.727119 0.253718
#
# Coordination Sequence:
#
# PCOD9063886 Si02
#       8
#     2   2   2   2   1   2   2   2
#     4  12  28  50  76 109 151 205 255 314 379 457
#     4  11  25  43  74 112 146 187 253 314 367 456
#     4  12  28  48  73 107 151 195 257 308 371 458
#     4  12  25  48  74 109 147 205 245 310 377 451
#     4  12  24  48  78 104 158 198 248 308 380 452
#     4  11  27  46  73 114 148 194 251 313 386 450
#     4  11  24  44  76 109 148 191 253 309 381 445
#     4  11  25  46  77 104 153 199 246 310 387 451
#
# _framework density 23.200991999999999
#
# number of rings (size 3 to 8) (size 9 to 14) (size 15 to 20)
#    0.000    0.533    2.667    4.800    7.467    2.133 
#    0.000    1.333    0.000    0.000    0.000    0.000 
#    0.000    0.000    0.000    0.000    0.000    0.000 
#
# Total GULP energy -83762.602619 kJ/mol
# GULP energy per Si atom -5584.173508 kJ/mol
# Density = 2.314819 g / cm^3
# Si number density = 23.200992 Si / 1000 Ang^3
#
#
#
# Elastic Constant Matrix: (Units=GPa)
#
#
# Indices 1 2 3 4 5 6 
#
# 1 128.4204 28.3172 53.4535 10.7174 -16.6245 -12.7290
# 2 28.3172 66.1165 40.9633 3.1130 17.2079 -12.6702
# 3 53.4535 40.9633 121.6257 8.4427 -5.4209 3.0925
# 4 10.7174 3.1130 8.4427 43.4673 9.4655 8.8096
# 5 -16.6245 17.2079 -5.4209 9.4655 38.3357 -4.1654
# 6 -12.7290 -12.6702 3.0925 8.8096 -4.1654 38.9174
#
#
#
# Elastic Compliance Matrix: (Units=1/GPa)
#
#
# Indices 1 2 3 4 5 6 
#
# 1 0.012032 -0.004098 -0.003327 -0.004817 0.008303 0.004845
# 2 -0.004098 0.026926 -0.008283 0.002794 -0.015090 0.005836
# 3 -0.003327 -0.008283 0.012829 -0.001091 0.003909 -0.004139
# 4 -0.004817 0.002794 -0.001091 0.028351 -0.011390 -0.008216
# 5 0.008303 -0.015090 0.003909 -0.011390 0.040301 0.004384
# 6 0.004845 0.005836 -0.004139 -0.008216 0.004384 0.031838
#
#
# Mechanical properties :
#
#
# Convention : Reuss Voigt Hill
#
# Bulk Modulus (GPa) = 49.08550 62.40341 55.74446
# Shear Modulus (GPa) = 26.24924 37.03931 31.64428
#
# Velocity S-wave (km/s) = 3.36725 3.99990 3.69713
# Velocity P-wave (km/s) = 6.02664 6.94892 6.50415
#
# Compressibility (1/GPa) = 0.02037261
#
# Stress axis : x y z
#
# Youngs Moduli (GPa) = 83.11001 37.13892 77.95032
#
# Poissons Ratio (x) = 0.15219 0.25931
# Poissons Ratio (y) = 0.34058 0.64563
# Poissons Ratio (z) = 0.27648 0.30760
#
# Static dielectric constant tensor:
#      x y z
#    x 1.875590 0.044440 -0.008630 
#    y 0.044440 1.972620 -0.000130 
#    z -0.008630 -0.000130 1.811780 
# 
# From -- ./inp_files/429164.got.cif
#   From: 2010.05.17/outbox.cif.g08.bks.cpg/sg2_215_cif.got.tgz:429164.got - 2010.06.03 11:33:40.
