data_PCOD9063149
_publ_section_title
;
Structure prediction by ZEFSAII (Michael W. Deem and Ramdas Pophale) SiO2 
 PCOD9063149
Probable space group: P -1
;
_chemical_formula_sum "Si O2"
_cell_formula_units_Z 15
_cell_length_a 10.249682
_cell_length_b 11.331843
_cell_length_c 15.656157
_cell_angle_alpha 28.981417
_cell_angle_beta 45.179471
_cell_angle_gamma 54.100678
_cell_volume 622.536228
_symmetry_space_group_name_H-M "P -1"
_symmetry_group_IT_number 2
_symmetry_cell_setting 'triclinic'
loop_
_space_group_symop_operation_xyz
x,y,z
-x,-y,-z
loop_
_atom_site_type_symbol
_atom_site_label
_atom_site_fract_x
_atom_site_fract_y
_atom_site_fract_z
Si Si1 0.406382 0.251938 0.894986
Si Si2 0.819446 0.318476 0.881014
Si Si3 0.913841 0.710019 0.458570
Si Si4 0.500000 0.500000 0.000000
Si Si5 0.739825 0.006694 0.574536
Si Si6 0.388980 0.261068 0.538202
Si Si7 0.205591 0.219100 0.831771
Si Si8 0.128945 0.037480 0.282442
O O1 0.565112 0.469159 0.691407
O O2 0.296598 0.295447 0.830771
O O3 0.271781 0.244530 0.043992
O O4 0.500000 0.000000 0.000000
O O5 0.803589 0.558085 0.679828
O O6 0.640904 0.298700 0.034729
O O7 0.010811 0.328105 0.837364
O O8 0.822361 0.077306 0.973300
O O9 0.782376 0.850932 0.368806
O O10 0.000000 0.500000 0.500000
O O11 0.071053 0.876600 0.328533
O O12 0.679111 0.715755 0.791614
O O13 0.765992 0.087503 0.610310
O O14 0.576320 0.133302 0.525119
O O15 0.932620 0.080721 0.389411
O O16 0.327241 0.283599 0.650398
#
# Coordination Sequence:
#
# PCOD9063149 Si02
#       8
#     2   2   2   1   2   2   2   2
#     4  12  27  43  72 107 146 188 239 307 358 427
#     4  11  24  43  71 106 139 194 233 303 364 430
#     4  12  24  45  72 105 145 187 236 306 366 423
#     4  12  24  46  78 102 142 186 250 294 364 430
#     4  11  27  50  75 104 143 199 240 297 364 444
#     4  12  26  43  74 108 143 188 249 296 353 436
#     4  11  24  44  73 106 146 186 249 296 366 436
#     4  11  27  48  70 102 151 190 235 296 371 431
#
# _framework density 24.094982000000002
#
# number of rings (size 3 to 8) (size 9 to 14) (size 15 to 20)
#    0.000    0.533    4.000    3.600    5.600    1.067 
#    2.400    0.000    0.000    0.000    0.000    0.000 
#    0.000    0.000    0.000    0.000    0.000    0.000 
#
# Total GULP energy -83701.476575 kJ/mol
# GULP energy per Si atom -5580.098438 kJ/mol
# Density = 2.404014 g / cm^3
# Si number density = 24.094982 Si / 1000 Ang^3
#
#
#
# Elastic Constant Matrix: (Units=GPa)
#
#
# Indices 1 2 3 4 5 6 
#
# 1 116.5743 36.5279 -7.4021 18.5136 10.3091 -5.3198
# 2 36.5279 60.9868 -2.2326 26.1212 6.1468 -9.4093
# 3 -7.4021 -2.2326 106.5017 25.7259 -1.5245 -0.8703
# 4 18.5136 26.1212 25.7259 38.6792 -0.8578 -5.6290
# 5 10.3091 6.1468 -1.5245 -0.8578 28.1029 -0.1580
# 6 -5.3198 -9.4093 -0.8703 -5.6290 -0.1580 36.1721
#
#
#
# Elastic Compliance Matrix: (Units=1/GPa)
#
#
# Indices 1 2 3 4 5 6 
#
# 1 0.010930 -0.005042 0.001277 -0.002758 -0.002922 -0.000115
# 2 -0.005042 0.029465 0.005175 -0.020477 -0.004918 0.003840
# 3 0.001277 0.005175 0.012593 -0.012528 -0.001300 -0.000118
# 4 -0.002758 -0.020477 -0.012528 0.049728 0.006339 0.001733
# 5 -0.002922 -0.004918 -0.001300 0.006339 0.037851 -0.000589
# 6 -0.000115 0.003840 -0.000118 0.001733 -0.000589 0.028892
#
#
# Mechanical properties :
#
#
# Convention : Reuss Voigt Hill
#
# Bulk Modulus (GPa) = 17.91830 37.53879 27.72854
# Shear Modulus (GPa) = 26.99176 37.73548 32.36362
#
# Velocity S-wave (km/s) = 3.35060 3.96171 3.66890
# Velocity P-wave (km/s) = 4.73512 6.04485 5.42962
#
# Compressibility (1/GPa) = 0.05580888
#
# Stress axis : x y z
#
# Youngs Moduli (GPa) = 91.48817 33.93872 79.40672
#
# Poissons Ratio (x) = 0.17112 -0.10144
# Poissons Ratio (y) = 0.46127 -0.41090
# Poissons Ratio (z) = -0.11687 -0.17562
#
# Static dielectric constant tensor:
#      x y z
#    x 1.922370 0.025340 -0.012230 
#    y 0.025340 2.049460 0.157610 
#    z -0.012230 0.157610 2.352530 
# 
# From -- ./inp_files/499628.got.cif
#   From: 2010.05.17/outbox.cif.g08.bks.cpg/sg2_250_cif.got.tgz:499628.got - 2010.06.03 11:33:40.
