data_PCOD9063768
_publ_section_title
;
Structure prediction by ZEFSAII (Michael W. Deem and Ramdas Pophale) SiO2 
 PCOD9063768
Probable space group: P -1
;
_chemical_formula_sum "Si O2"
_cell_formula_units_Z 16
_cell_length_a 19.014347
_cell_length_b 10.984515
_cell_length_c 16.496425
_cell_angle_alpha 32.801534
_cell_angle_beta 22.603551
_cell_angle_gamma 43.105011
_cell_volume 699.770664
_symmetry_space_group_name_H-M "P -1"
_symmetry_group_IT_number 2
_symmetry_cell_setting 'triclinic'
loop_
_space_group_symop_operation_xyz
x,y,z
-x,-y,-z
loop_
_atom_site_type_symbol
_atom_site_label
_atom_site_fract_x
_atom_site_fract_y
_atom_site_fract_z
Si Si1 0.742402 0.537685 0.322894
Si Si2 0.910604 0.730110 0.749187
Si Si3 0.158051 0.648931 0.837307
Si Si4 0.506331 0.736474 0.115832
Si Si5 0.919841 0.630759 0.320536
Si Si6 0.449385 0.092991 0.699677
Si Si7 0.392880 0.622191 0.112825
Si Si8 0.711717 0.992183 0.255368
O O1 0.787243 0.354149 0.313367
O O2 0.626846 0.420335 0.588407
O O3 0.618112 0.682819 0.325087
O O4 0.948328 0.687010 0.044202
O O5 0.050892 0.591026 0.636218
O O6 0.863383 0.601448 0.957717
O O7 0.714188 0.699459 0.930024
O O8 0.000000 0.000000 0.500000
O O9 0.327050 0.829620 0.598487
O O10 0.461055 0.661341 0.112513
O O11 0.500000 0.000000 0.000000
O O12 0.814603 0.536203 0.567837
O O13 0.792551 0.789909 0.325249
O O14 0.128518 0.782698 0.023292
O O15 0.321639 0.037024 0.788007
O O16 0.404912 0.877962 0.925370
O O17 0.500000 0.500000 0.000000
O O18 0.500000 0.000000 0.500000
#
# Coordination Sequence:
#
# PCOD9063768 Si02
#       8
#     2   2   2   2   2   2   2   2
#     4  11  25  45  74 107 150 197 252 322 382 465
#     4  12  26  44  77 112 159 203 255 326 398 468
#     4  11  24  44  73 113 148 192 263 315 384 467
#     4  12  26  49  77 110 153 207 260 320 393 462
#     4  11  27  50  76 113 156 197 271 317 396 479
#     4  12  25  43  73 102 148 197 251 312 386 450
#     4  12  29  49  75 111 159 202 261 326 392 465
#     4  11  25  48  81 107 142 204 255 325 390 470
#
# _framework density 22.864633000000001
#
# number of rings (size 3 to 8) (size 9 to 14) (size 15 to 20)
#    0.000    0.500    1.250    6.375    7.000    4.500 
#    0.000    0.000    0.000    0.000    0.000    0.000 
#    0.000    0.000    0.000    0.000    0.000    0.000 
#
# Total GULP energy -89441.202700 kJ/mol
# GULP energy per Si atom -5590.075169 kJ/mol
# Density = 2.281259 g / cm^3
# Si number density = 22.864633 Si / 1000 Ang^3
#
#
#
# Elastic Constant Matrix: (Units=GPa)
#
#
# Indices 1 2 3 4 5 6 
#
# 1 114.0095 61.5367 74.6717 6.2397 -0.0783 -9.7384
# 2 61.5367 133.7841 81.4661 10.0386 6.0611 -7.4340
# 3 74.6717 81.4661 193.2493 -0.2405 10.1358 -17.9771
# 4 6.2397 10.0386 -0.2405 47.5655 -2.1935 0.6536
# 5 -0.0783 6.0611 10.1358 -2.1935 44.8372 11.3220
# 6 -9.7384 -7.4340 -17.9771 0.6536 11.3220 38.5186
#
#
#
# Elastic Compliance Matrix: (Units=1/GPa)
#
#
# Indices 1 2 3 4 5 6 
#
# 1 0.013276 -0.003944 -0.003466 -0.000884 0.001130 0.000660
# 2 -0.003944 0.011465 -0.003264 -0.001961 -0.000913 -0.000006
# 3 -0.003466 -0.003264 0.008279 0.001046 -0.002135 0.002967
# 4 -0.000884 -0.001961 0.001046 0.021631 0.001303 -0.000864
# 5 0.001130 -0.000913 -0.002135 0.001303 0.025064 -0.008276
# 6 0.000660 -0.000006 0.002967 -0.000864 -0.008276 0.029960
#
#
# Mechanical properties :
#
#
# Convention : Reuss Voigt Hill
#
# Bulk Modulus (GPa) = 85.68107 97.37687 91.52897
# Shear Modulus (GPa) = 37.06088 41.07547 39.06818
#
# Velocity S-wave (km/s) = 4.03039 4.24307 4.13809
# Velocity P-wave (km/s) = 7.69501 8.16613 7.93407
#
# Compressibility (1/GPa) = 0.01167119
#
# Stress axis : x y z
#
# Youngs Moduli (GPa) = 75.32602 87.22422 120.78322
#
# Poissons Ratio (x) = 0.34401 0.41864
# Poissons Ratio (y) = 0.29709 0.39426
# Poissons Ratio (z) = 0.26108 0.28472
#
# Static dielectric constant tensor:
#      x y z
#    x 1.905520 0.064140 -0.032080 
#    y 0.064140 1.967480 -0.002040 
#    z -0.032080 -0.002040 1.876380 
# 
# From -- ./inp_files/577905.got.cif
#   From: 2010.05.17/outbox.cif.g08.bks.cpg/sg2_289_cif.got.tgz:577905.got - 2010.06.03 11:33:40.
