data_PCOD9063908
_publ_section_title
;
Structure prediction by ZEFSAII (Michael W. Deem and Ramdas Pophale) SiO2 
 PCOD9063908
Probable space group: P -1
;
_chemical_formula_sum "Si O2"
_cell_formula_units_Z 14
_cell_length_a 9.521213
_cell_length_b 19.925519
_cell_length_c 5.028728
_cell_angle_alpha 109.518955
_cell_angle_beta 108.662472
_cell_angle_gamma 38.589664
_cell_volume 558.049309
_symmetry_space_group_name_H-M "P -1"
_symmetry_group_IT_number 2
_symmetry_cell_setting 'triclinic'
loop_
_space_group_symop_operation_xyz
x,y,z
-x,-y,-z
loop_
_atom_site_type_symbol
_atom_site_label
_atom_site_fract_x
_atom_site_fract_y
_atom_site_fract_z
Si Si1 0.911629 0.960673 0.745071
Si Si2 0.818825 0.275413 0.532824
Si Si3 0.389046 0.924163 0.810851
Si Si4 0.460563 0.635189 0.004360
Si Si5 0.031425 0.560747 0.767138
Si Si6 0.408928 0.262012 0.954165
Si Si7 0.810109 0.768874 0.589472
O O1 0.739997 0.993568 0.910074
O O2 0.531194 0.282118 0.910907
O O3 0.100534 0.834100 0.623216
O O4 0.000000 0.000000 0.000000
O O5 0.030762 0.244965 0.527262
O O6 0.612470 0.366859 0.328983
O O7 0.218066 0.980433 0.533911
O O8 0.727024 0.317161 0.828990
O O9 0.631040 0.871746 0.813379
O O10 0.464704 0.818237 0.824550
O O11 0.287043 0.477280 0.908827
O O12 0.000000 0.500000 0.500000
O O13 0.960445 0.656883 0.689659
O O14 0.840805 0.622390 0.959035
O O15 0.361904 0.214323 0.669323
#
# Coordination Sequence:
#
# PCOD9063908 Si02
#       7
#     2   2   2   2   2   2   2
#     4  12  26  45  74 108 148 188 245 298 366 428
#     4  12  31  47  69 110 154 188 241 302 367 427
#     4  11  25  46  77 104 139 193 241 300 358 423
#     4  12  27  47  73 105 150 193 236 302 366 423
#     4  11  24  44  79 111 139 190 254 296 353 437
#     4  11  24  46  79 107 143 187 254 296 357 435
#     4  11  27  48  74 108 148 190 242 301 361 437
#
# _framework density 25.087392000000001
#
# number of rings (size 3 to 8) (size 9 to 14) (size 15 to 20)
#    0.000    0.571    2.857    3.429   10.000    2.286 
#    0.000    0.000    0.000    0.000    0.000    0.000 
#    0.000    0.000    0.000    0.000    0.000    0.000 
#
# Total GULP energy -78429.577100 kJ/mol
# GULP energy per Si atom -5602.112650 kJ/mol
# Density = 2.503029 g / cm^3
# Si number density = 25.087392 Si / 1000 Ang^3
#
#
#
# Elastic Constant Matrix: (Units=GPa)
#
#
# Indices 1 2 3 4 5 6 
#
# 1 107.9430 17.3056 3.8508 -26.2323 -27.5103 9.5845
# 2 17.3056 99.7125 37.6936 -24.0090 0.0291 -25.8397
# 3 3.8508 37.6936 94.2254 -35.5614 -10.4848 -3.7470
# 4 -26.2323 -24.0090 -35.5614 45.3318 -11.7934 -0.9577
# 5 -27.5103 0.0291 -10.4848 -11.7934 40.6511 -0.2801
# 6 9.5845 -25.8397 -3.7470 -0.9577 -0.2801 39.7936
#
#
#
# Elastic Compliance Matrix: (Units=1/GPa)
#
#
# Indices 1 2 3 4 5 6 
#
# 1 0.026896 -0.004500 0.017388 0.035230 0.032865 -0.006684
# 2 -0.004500 0.015994 -0.006327 -0.000073 -0.004635 0.010839
# 3 0.017388 -0.006327 0.030061 0.038154 0.030564 -0.004332
# 4 0.035230 -0.000073 0.038154 0.087662 0.059098 -0.002414
# 5 0.032865 -0.004635 0.030564 0.059098 0.071830 -0.006119
# 6 -0.006684 0.010839 -0.004332 -0.002414 -0.006119 0.033269
#
#
# Mechanical properties :
#
#
# Convention : Reuss Voigt Hill
#
# Bulk Modulus (GPa) = 11.61774 46.62010 29.11892
# Shear Modulus (GPa) = 17.77587 41.35735 29.56661
#
# Velocity S-wave (km/s) = 2.66476 4.06462 3.43672
# Velocity P-wave (km/s) = 3.75618 6.37586 5.23261
#
# Compressibility (1/GPa) = 0.08607527
#
# Stress axis : x y z
#
# Youngs Moduli (GPa) = 37.18000 62.52283 33.26537
#
# Poissons Ratio (x) = 0.28135 -0.57843
# Poissons Ratio (y) = 0.16731 0.21045
# Poissons Ratio (z) = -0.64650 0.39555
#
# Static dielectric constant tensor:
#      x y z
#    x 2.023740 -0.017140 -0.038780 
#    y -0.017140 2.016230 0.027890 
#    z -0.038780 0.027890 2.047210 
# 
# From -- ./inp_files/80574.got.cif
#   From: 2010.05.17/outbox.cif.g08.bks.cpg/sg2_41_cif.got.tgz:80574.got - 2010.06.03 11:33:40.
