data_PCOD9063926
_publ_section_title
;
Structure prediction by ZEFSAII (Michael W. Deem and Ramdas Pophale) SiO2 
 PCOD9063926
Probable space group: P -1
;
_chemical_formula_sum "Si O2"
_cell_formula_units_Z 12
_cell_length_a 11.900630
_cell_length_b 15.875045
_cell_length_c 7.028307
_cell_angle_alpha 69.084281
_cell_angle_beta 77.128122
_cell_angle_gamma 136.375355
_cell_volume 569.250252
_symmetry_space_group_name_H-M "P -1"
_symmetry_group_IT_number 2
_symmetry_cell_setting 'triclinic'
loop_
_space_group_symop_operation_xyz
x,y,z
-x,-y,-z
loop_
_atom_site_type_symbol
_atom_site_label
_atom_site_fract_x
_atom_site_fract_y
_atom_site_fract_z
Si Si1 0.964559 0.525301 0.193571
Si Si2 0.693456 0.514641 0.173443
Si Si3 0.850221 0.838603 0.421507
Si Si4 0.742852 0.223026 0.783719
Si Si5 0.276653 0.258745 0.000033
Si Si6 0.819511 0.611704 0.598586
O O1 0.843013 0.537954 0.192003
O O2 0.789282 0.340966 0.535998
O O3 0.216396 0.713733 0.066368
O O4 0.000000 0.500000 0.000000
O O5 0.401154 0.301478 0.464183
O O6 0.744017 0.650552 0.118413
O O7 0.766577 0.565803 0.881008
O O8 0.902119 0.771306 0.401564
O O9 0.556644 0.419440 0.750854
O O10 0.078504 0.061082 0.131297
O O11 0.973839 0.316382 0.589431
O O12 0.500000 0.000000 0.000000
O O13 0.212995 0.209449 0.289408
#
# Coordination Sequence:
#
# PCOD9063926 Si02
#       6
#     2   2   2   2   2   2
#     4  11  24  45  66  89 126 171 212 263 315 365
#     4   9  17  34  59  89 121 156 206 251 305 371
#     4   8  15  28  54  91 120 152 199 246 310 370
#     4  11  26  44  63  94 127 166 216 262 312 372
#     4   8  15  29  55  89 120 158 194 249 308 369
#     4   9  17  35  58  86 126 158 198 256 308 363
#
# _framework density 21.080358
#
# number of rings (size 3 to 8) (size 9 to 14) (size 15 to 20)
#    0.000    2.667    1.667    2.000    0.000    4.667 
#    6.000    3.333    0.000    6.000    0.000    0.000 
#    0.000    0.000    0.000    0.000    0.000    0.000 
#
# Total GULP energy -67077.628194 kJ/mol
# GULP energy per Si atom -5589.802350 kJ/mol
# Density = 2.103238 g / cm^3
# Si number density = 21.080358 Si / 1000 Ang^3
#
#
#
# Elastic Constant Matrix: (Units=GPa)
#
#
# Indices 1 2 3 4 5 6 
#
# 1 144.9374 50.6981 58.0463 -20.3513 4.7541 10.7784
# 2 50.6981 135.0843 75.2402 -26.3566 18.5980 17.9524
# 3 58.0463 75.2402 96.6996 -28.1348 3.2031 -1.4082
# 4 -20.3513 -26.3566 -28.1348 54.1625 -5.2929 2.9253
# 5 4.7541 18.5980 3.2031 -5.2929 18.4262 11.7330
# 6 10.7784 17.9524 -1.4082 2.9253 11.7330 22.2506
#
#
#
# Elastic Compliance Matrix: (Units=1/GPa)
#
#
# Indices 1 2 3 4 5 6 
#
# 1 0.009807 0.000574 -0.006109 0.001498 0.003123 -0.007444
# 2 0.000574 0.017610 -0.013478 0.001635 -0.007837 -0.011422
# 3 -0.006109 -0.013478 0.025784 0.004191 0.003620 0.013006
# 4 0.001498 0.001635 0.004191 0.023617 0.010732 -0.010544
# 5 0.003123 -0.007837 0.003620 0.010732 0.092615 -0.045208
# 6 -0.007444 -0.011422 0.013006 -0.010544 -0.045208 0.083812
#
#
# Mechanical properties :
#
#
# Convention : Reuss Voigt Hill
#
# Bulk Modulus (GPa) = 65.89814 82.74336 74.32075
# Shear Modulus (GPa) = 16.87308 31.81698 24.34503
#
# Velocity S-wave (km/s) = 2.83223 3.88921 3.40202
# Velocity P-wave (km/s) = 6.48257 7.71392 7.12490
#
# Compressibility (1/GPa) = 0.01517494
#
# Stress axis : x y z
#
# Youngs Moduli (GPa) = 101.96737 56.78510 38.78345
#
# Poissons Ratio (x) = -0.03258 0.23695
# Poissons Ratio (y) = -0.05851 0.52271
# Poissons Ratio (z) = 0.62296 0.76533
#
# Static dielectric constant tensor:
#      x y z
#    x 1.710780 0.021900 0.026730 
#    y 0.021900 1.834140 0.059470 
#    z 0.026730 0.059470 1.748070 
# 
# From -- ./inp_files/269945.got.cif
#   From: 2010.05.17/outbox.cif.g08.bks.cpg/sg2_135_cif.got.tgz:269945.got - 2010.06.03 11:33:40.
