data_PCOD9063974
_publ_section_title
;
Structure prediction by ZEFSAII (Michael W. Deem and Ramdas Pophale) SiO2 
 PCOD9063974
Probable space group: P -1
;
_chemical_formula_sum "Si O2"
_cell_formula_units_Z 15
_cell_length_a 11.166240
_cell_length_b 5.504341
_cell_length_c 9.808268
_cell_angle_alpha 77.944203
_cell_angle_beta 85.434916
_cell_angle_gamma 73.954959
_cell_volume 566.428313
_symmetry_space_group_name_H-M "P -1"
_symmetry_group_IT_number 2
_symmetry_cell_setting 'triclinic'
loop_
_space_group_symop_operation_xyz
x,y,z
-x,-y,-z
loop_
_atom_site_type_symbol
_atom_site_label
_atom_site_fract_x
_atom_site_fract_y
_atom_site_fract_z
Si Si1 0.953437 0.303465 0.931786
Si Si2 0.116822 0.327028 0.656303
Si Si3 0.365700 0.907281 0.763294
Si Si4 0.798461 0.921906 0.697749
Si Si5 0.000000 0.000000 0.500000
Si Si6 0.610004 0.661720 0.672465
Si Si7 0.703116 0.378967 0.448099
Si Si8 0.308781 0.760975 0.079077
O O1 0.013336 0.350213 0.776851
O O2 0.804676 0.353170 0.945575
O O3 0.000000 0.500000 0.000000
O O4 0.000000 0.000000 0.000000
O O5 0.079830 0.179478 0.550052
O O6 0.154913 0.588352 0.578998
O O7 0.250659 0.157055 0.721086
O O8 0.502432 0.907723 0.699648
O O9 0.337015 0.693299 0.686982
O O10 0.368871 0.836663 0.929350
O O11 0.719430 0.143442 0.577738
O O12 0.755284 0.998624 0.846381
O O13 0.936543 0.941537 0.659352
O O14 0.749113 0.683565 0.684474
O O15 0.612119 0.601731 0.519039
O O16 0.599649 0.438883 0.805188
#
# Coordination Sequence:
#
# PCOD9063974 Si02
#       8
#     2   2   2   2   1   2   2   2
#     4  12  27  48  76 112 156 197 251 312 384 460
#     4  12  26  43  77 108 144 195 244 320 380 448
#     4  12  25  47  70 106 147 187 255 305 377 453
#     4  11  25  45  69 103 143 190 246 305 377 449
#     4  12  22  46  68 104 144 182 246 296 376 448
#     4  11  26  46  72 102 146 199 243 312 370 454
#     4  11  24  45  68 107 137 193 246 304 382 441
#     4  11  26  44  71 105 146 196 248 306 378 445
#
# _framework density 26.481726999999999
#
# number of rings (size 3 to 8) (size 9 to 14) (size 15 to 20)
#    0.000    0.533    5.333    1.600    1.867    7.467 
#    0.000    0.000    0.000    0.000    0.000    0.000 
#    0.000    0.000    0.000    0.000    0.000    0.000 
#
# Total GULP energy -83824.517919 kJ/mol
# GULP energy per Si atom -5588.301195 kJ/mol
# Density = 2.642145 g / cm^3
# Si number density = 26.481727 Si / 1000 Ang^3
#
#
#
# Elastic Constant Matrix: (Units=GPa)
#
#
# Indices 1 2 3 4 5 6 
#
# 1 106.3171 6.9007 14.3960 4.7335 -18.9742 -2.3940
# 2 6.9007 56.9020 35.5585 3.2085 5.9324 10.7448
# 3 14.3960 35.5585 161.4059 21.5125 -21.4715 0.5017
# 4 4.7335 3.2085 21.5125 55.6892 -3.5299 6.9490
# 5 -18.9742 5.9324 -21.4715 -3.5299 50.8194 8.2607
# 6 -2.3940 10.7448 0.5017 6.9490 8.2607 55.5876
#
#
#
# Elastic Compliance Matrix: (Units=1/GPa)
#
#
# Indices 1 2 3 4 5 6 
#
# 1 0.010249 -0.001716 0.000069 -0.000579 0.003974 0.000254
# 2 -0.001716 0.022435 -0.005589 0.001171 -0.004926 -0.003774
# 3 0.000069 -0.005589 0.008298 -0.002741 0.003868 0.000776
# 4 -0.000579 0.001171 -0.002741 0.019350 0.000270 -0.002686
# 5 0.003974 -0.004926 0.003868 0.000270 0.023793 -0.002481
# 6 0.000254 -0.003774 0.000776 -0.002686 -0.002481 0.019428
#
#
# Mechanical properties :
#
#
# Convention : Reuss Voigt Hill
#
# Bulk Modulus (GPa) = 37.72153 48.70394 43.21273
# Shear Modulus (GPa) = 39.41345 50.27057 44.84201
#
# Velocity S-wave (km/s) = 3.86207 4.36169 4.11946
# Velocity P-wave (km/s) = 5.84489 6.61795 6.24339
#
# Compressibility (1/GPa) = 0.02651006
#
# Stress axis : x y z
#
# Youngs Moduli (GPa) = 97.57400 44.57291 120.50843
#
# Poissons Ratio (x) = 0.07647 -0.00831
# Poissons Ratio (y) = 0.16740 0.67355
# Poissons Ratio (z) = -0.00672 0.24913
#
# Static dielectric constant tensor:
#      x y z
#    x 1.968690 0.037440 0.025810 
#    y 0.037440 2.050090 -0.029050 
#    z 0.025810 -0.029050 2.001010 
# 
# From -- ./inp_files/60532.got.cif
#   From: 2010.05.17/outbox.cif.g08.bks.cpg/sg2_31_cif.got.tgz:60532.got - 2010.06.03 11:33:40.
