data_PCOD9063951
_publ_section_title
;
Structure prediction by ZEFSAII (Michael W. Deem and Ramdas Pophale) SiO2 
 PCOD9063951
Probable space group: P -1
;
_chemical_formula_sum "Si O2"
_cell_formula_units_Z 16
_cell_length_a 14.089257
_cell_length_b 13.424632
_cell_length_c 9.756658
_cell_angle_alpha 95.028946
_cell_angle_beta 117.625968
_cell_angle_gamma 33.445282
_cell_volume 712.071001
_symmetry_space_group_name_H-M "P -1"
_symmetry_group_IT_number 2
_symmetry_cell_setting 'triclinic'
loop_
_space_group_symop_operation_xyz
x,y,z
-x,-y,-z
loop_
_atom_site_type_symbol
_atom_site_label
_atom_site_fract_x
_atom_site_fract_y
_atom_site_fract_z
Si Si1 0.452393 0.845200 0.666434
Si Si2 0.895279 0.483534 0.733331
Si Si3 0.081026 0.107847 0.909881
Si Si4 0.348417 0.517282 0.149424
Si Si5 0.620812 0.662975 0.290770
Si Si6 0.828269 0.144545 0.269732
Si Si7 0.353168 0.224529 0.945225
Si Si8 0.922295 0.277321 0.260906
O O1 0.677262 0.698946 0.713710
O O2 0.497097 0.688576 0.678663
O O3 0.489377 0.846919 0.847244
O O4 0.189500 0.090258 0.458936
O O5 0.767685 0.567994 0.512692
O O6 0.016172 0.276577 0.841058
O O7 0.089457 0.409371 0.842361
O O8 0.843865 0.267163 0.854066
O O9 0.142235 0.983613 0.808697
O O10 0.328483 0.900453 0.141281
O O11 0.553139 0.392635 0.173033
O O12 0.172353 0.605813 0.935022
O O13 0.662897 0.706785 0.201933
O O14 0.736930 0.465880 0.279187
O O15 0.913142 0.165199 0.235420
O O16 0.000000 0.000000 0.500000
O O17 0.500000 0.000000 0.000000
#
# Coordination Sequence:
#
# PCOD9063951 Si02
#       8
#     2   2   2   2   2   2   2   2
#     4  11  24  46  65 101 140 174 224 283 339 401
#     4  11  25  44  69 101 136 179 223 284 338 400
#     4  11  25  46  68 100 142 175 228 281 335 401
#     4  11  24  45  67  99 137 180 225 283 334 397
#     4  12  24  44  70 100 136 177 231 276 334 410
#     4  12  24  44  68  99 137 182 226 275 339 403
#     4  12  23  44  72  97 133 178 226 277 345 404
#     4  12  24  43  72  96 138 181 226 277 338 400
#
# _framework density 22.469669
#
# number of rings (size 3 to 8) (size 9 to 14) (size 15 to 20)
#    0.000    0.500    5.000    3.375    0.000    1.000 
#    2.250    1.250    0.000    0.000    0.000    0.000 
#    0.000    0.000    0.000    0.000    0.000    0.000 
#
# Total GULP energy -89457.519743 kJ/mol
# GULP energy per Si atom -5591.094984 kJ/mol
# Density = 2.241853 g / cm^3
# Si number density = 22.469669 Si / 1000 Ang^3
#
#
#
# Elastic Constant Matrix: (Units=GPa)
#
#
# Indices 1 2 3 4 5 6 
#
# 1 48.6981 23.0371 -5.2957 -11.8708 10.8001 -12.1899
# 2 23.0371 91.9902 21.7991 -17.4681 11.6576 -21.5465
# 3 -5.2957 21.7991 127.5140 -18.1437 9.4891 -5.4576
# 4 -11.8708 -17.4681 -18.1437 35.3222 -8.4305 3.0245
# 5 10.8001 11.6576 9.4891 -8.4305 26.0999 -4.8522
# 6 -12.1899 -21.5465 -5.4576 3.0245 -4.8522 34.2937
#
#
#
# Elastic Compliance Matrix: (Units=1/GPa)
#
#
# Indices 1 2 3 4 5 6 
#
# 1 0.027787 -0.004110 0.003662 0.006834 -0.007635 0.006194
# 2 -0.004110 0.014959 -0.001712 0.004124 -0.001714 0.007059
# 3 0.003662 -0.001712 0.009139 0.004407 -0.002475 0.000942
# 4 0.006834 0.004124 0.004407 0.036053 0.006004 0.003391
# 5 -0.007635 -0.001714 -0.002475 0.006004 0.045396 0.001709
# 6 0.006194 0.007059 0.000942 0.003391 0.001709 0.035890
#
#
# Mechanical properties :
#
#
# Convention : Reuss Voigt Hill
#
# Bulk Modulus (GPa) = 21.02349 38.58704 29.80527
# Shear Modulus (GPa) = 26.39935 34.38729 30.39332
#
# Velocity S-wave (km/s) = 3.43138 3.91626 3.68181
# Velocity P-wave (km/s) = 5.00758 6.13675 5.60069
#
# Compressibility (1/GPa) = 0.04756584
#
# Stress axis : x y z
#
# Youngs Moduli (GPa) = 35.98788 66.84728 109.42648
#
# Poissons Ratio (x) = 0.27477 -0.40076
# Poissons Ratio (y) = 0.14793 0.18730
# Poissons Ratio (z) = -0.13180 0.11442
#
# Static dielectric constant tensor:
#      x y z
#    x 1.881740 -0.015610 -0.012640 
#    y -0.015610 1.857510 -0.007970 
#    z -0.012640 -0.007970 1.819260 
# 
# From -- ./inp_files/315282.got.cif
#   From: 2010.05.17/outbox.cif.g08.bks.cpg/sg2_158_cif.got.tgz:315282.got - 2010.06.03 11:33:40.
