data_PCOD9063620
_publ_section_title
;
Structure prediction by ZEFSAII (Michael W. Deem and Ramdas Pophale) SiO2 
 PCOD9063620
Probable space group: P -1
;
_chemical_formula_sum "Si O2"
_cell_formula_units_Z 16
_cell_length_a 8.528864
_cell_length_b 9.872673
_cell_length_c 13.614535
_cell_angle_alpha 77.509746
_cell_angle_beta 122.655805
_cell_angle_gamma 64.276070
_cell_volume 699.552562
_symmetry_space_group_name_H-M "P -1"
_symmetry_group_IT_number 2
_symmetry_cell_setting 'triclinic'
loop_
_space_group_symop_operation_xyz
x,y,z
-x,-y,-z
loop_
_atom_site_type_symbol
_atom_site_label
_atom_site_fract_x
_atom_site_fract_y
_atom_site_fract_z
Si Si1 0.508588 0.092025 0.686402
Si Si2 0.482343 0.397576 0.361943
Si Si3 0.975818 0.205857 0.201823
Si Si4 0.324256 0.211221 0.803847
Si Si5 0.255025 0.455398 0.068342
Si Si6 0.226821 0.503716 0.460267
Si Si7 0.825894 0.975242 0.500643
Si Si8 0.612369 0.138089 0.094383
O O1 0.537174 0.104823 0.809587
O O2 0.404636 0.286255 0.577224
O O3 0.760375 0.921861 0.744695
O O4 0.303356 0.074505 0.603148
O O5 0.360073 0.471003 0.201460
O O6 0.279659 0.514076 0.362205
O O7 0.690400 0.409458 0.456673
O O8 0.610532 0.181439 0.442420
O O9 0.838793 0.128124 0.154059
O O10 0.030299 0.180571 0.340575
O O11 0.806113 0.405584 0.060702
O O12 0.062389 0.391908 0.643327
O O13 0.290405 0.066946 0.842068
O O14 0.410460 0.250223 0.921599
O O15 0.469409 0.248955 0.128767
O O16 0.000000 0.500000 0.000000
O O17 0.000000 0.000000 0.500000
#
# Coordination Sequence:
#
# PCOD9063620 Si02
#       8
#     2   2   2   2   2   2   2   2
#     4  12  26  44  73 107 140 186 245 298 362 424
#     4  11  24  44  71 106 141 189 237 293 364 424
#     4  12  26  45  73 105 146 183 244 299 355 439
#     4  11  25  45  70  99 145 187 236 296 361 426
#     4  12  26  46  74 105 148 191 239 296 365 431
#     4  11  25  44  72 104 146 183 244 298 356 429
#     4  12  25  46  76 102 144 191 244 300 356 425
#     4  11  26  46  69 103 143 191 236 291 364 434
#
# _framework density 22.871759999999998
#
# number of rings (size 3 to 8) (size 9 to 14) (size 15 to 20)
#    0.000    0.500    1.250    7.125    7.000    1.500 
#    0.000    0.000    0.000    0.000    0.000    0.000 
#    0.000    0.000    0.000    0.000    0.000    0.000 
#
# Total GULP energy -89605.994870 kJ/mol
# GULP energy per Si atom -5600.374679 kJ/mol
# Density = 2.281970 g / cm^3
# Si number density = 22.871760 Si / 1000 Ang^3
#
#
#
# Elastic Constant Matrix: (Units=GPa)
#
#
# Indices 1 2 3 4 5 6 
#
# 1 82.0189 -2.4083 13.6182 24.4148 -5.3618 -9.3095
# 2 -2.4083 69.9482 30.2986 21.8438 -9.4289 -9.0287
# 3 13.6182 30.2986 116.0270 17.4102 -25.4060 -0.5782
# 4 24.4148 21.8438 17.4102 38.7382 2.3371 -10.3616
# 5 -5.3618 -9.4289 -25.4060 2.3371 40.4370 -1.6334
# 6 -9.3095 -9.0287 -0.5782 -10.3616 -1.6334 18.1712
#
#
#
# Elastic Compliance Matrix: (Units=1/GPa)
#
#
# Indices 1 2 3 4 5 6 
#
# 1 0.017154 0.006124 -0.000739 -0.012892 0.004178 0.004832
# 2 0.006124 0.021509 -0.003309 -0.012985 0.004771 0.006744
# 3 -0.000739 -0.003309 0.011614 -0.004209 0.006531 -0.003466
# 4 -0.012892 -0.012985 -0.004209 0.047167 -0.009589 0.012843
# 5 0.004178 0.004771 0.006531 -0.009589 0.031137 0.002050
# 6 0.004832 0.006744 -0.003466 0.012843 0.002050 0.068255
#
#
# Mechanical properties :
#
#
# Convention : Reuss Voigt Hill
#
# Bulk Modulus (GPa) = 18.37272 39.00121 28.68697
# Shear Modulus (GPa) = 23.71621 34.56834 29.14227
#
# Velocity S-wave (km/s) = 3.22362 3.89189 3.57341
# Velocity P-wave (km/s) = 4.68038 6.10613 5.44017
#
# Compressibility (1/GPa) = 0.05442851
#
# Stress axis : x y z
#
# Youngs Moduli (GPa) = 58.29559 46.49232 86.10514
#
# Poissons Ratio (x) = -0.28470 0.06363
# Poissons Ratio (y) = -0.35698 0.28489
# Poissons Ratio (z) = 0.04308 0.15382
#
# Static dielectric constant tensor:
#      x y z
#    x 1.870160 -0.023440 -0.043830 
#    y -0.023440 1.800260 -0.006560 
#    z -0.043830 -0.006560 1.871420 
# 
# From -- ./inp_files/494965.got.cif
#   From: 2010.05.17/outbox.cif.g08.bks.cpg/sg2_248_cif.got.tgz:494965.got - 2010.06.03 11:33:40.
