data_PCOD9063917
_publ_section_title
;
Structure prediction by ZEFSAII (Michael W. Deem and Ramdas Pophale) SiO2 
 PCOD9063917
Probable space group: P -1
;
_chemical_formula_sum "Si O2"
_cell_formula_units_Z 14
_cell_length_a 24.704236
_cell_length_b 5.544389
_cell_length_c 27.361112
_cell_angle_alpha 107.857216
_cell_angle_beta 169.694228
_cell_angle_gamma 72.228116
_cell_volume 638.021968
_symmetry_space_group_name_H-M "P -1"
_symmetry_group_IT_number 2
_symmetry_cell_setting 'triclinic'
loop_
_space_group_symop_operation_xyz
x,y,z
-x,-y,-z
loop_
_atom_site_type_symbol
_atom_site_label
_atom_site_fract_x
_atom_site_fract_y
_atom_site_fract_z
Si Si1 0.825591 0.400595 0.263913
Si Si2 0.504410 0.203286 0.227285
Si Si3 0.637288 0.540842 0.678490
Si Si4 0.439516 0.128990 0.558816
Si Si5 0.282777 0.785558 0.082096
Si Si6 0.239386 0.785563 0.704441
Si Si7 0.197083 0.057879 0.843341
O O1 0.829704 0.208785 0.299321
O O2 0.108835 0.568203 0.539653
O O3 0.826495 0.245542 0.205555
O O4 0.500000 0.500000 0.000000
O O5 0.386491 0.495568 0.144000
O O6 0.869309 0.185118 0.551352
O O7 0.419000 0.009202 0.183285
O O8 0.349898 0.101847 0.034184
O O9 0.500000 0.500000 0.500000
O O10 0.528711 0.328582 0.607784
O O11 0.533658 0.832776 0.615484
O O12 0.000000 0.500000 0.000000
O O13 0.605896 0.187988 0.761367
O O14 0.077106 0.170297 0.241918
O O15 0.573119 0.833588 0.985974
O O16 0.000000 0.000000 0.500000
#
# Coordination Sequence:
#
# PCOD9063917 Si02
#       7
#     2   2   2   2   2   2   2
#     4  11  25  41  70  94 135 171 224 272 360 471
#     4  12  29  48  72 103 139 180 246 321 352 422
#     4  12  24  42  70 118 158 190 238 292 352 414
#     4  12  24  45  77 101 149 205 238 294 350 418
#     4  12  26  51  72 103 137 195 259 292 356 414
#     4  11  24  45  64  99 131 176 218 277 355 475
#     4  12  27  46  69 102 135 181 225 305 384 418
#
# _framework density 21.942817000000002
#
# number of rings (size 3 to 8) (size 9 to 14) (size 15 to 20)
#    0.000    0.286    1.429    7.286    6.000    0.000 
#    0.000    0.000    0.000    0.000    0.000    0.000 
#    0.000    0.000    0.000    0.000    0.000    0.000 
#
# Total GULP energy -77953.730471 kJ/mol
# GULP energy per Si atom -5568.123605 kJ/mol
# Density = 2.189287 g / cm^3
# Si number density = 21.942817 Si / 1000 Ang^3
#
#
#
# Elastic Constant Matrix: (Units=GPa)
#
#
# Indices 1 2 3 4 5 6 
#
# 1 77.9196 29.9243 4.1265 3.4009 -21.6764 -3.8522
# 2 29.9243 159.3371 38.1186 -11.2953 1.9432 -1.1895
# 3 4.1265 38.1186 159.9487 -15.9717 8.6770 5.6496
# 4 3.4009 -11.2953 -15.9717 48.0709 1.5189 -7.6097
# 5 -21.6764 1.9432 8.6770 1.5189 57.8673 14.8550
# 6 -3.8522 -1.1895 5.6496 -7.6097 14.8550 45.2771
#
#
#
# Elastic Compliance Matrix: (Units=1/GPa)
#
#
# Indices 1 2 3 4 5 6 
#
# 1 0.015914 -0.003197 -0.000190 -0.002338 0.006472 -0.001223
# 2 -0.003197 0.007367 -0.001457 0.001658 -0.001494 0.000872
# 3 -0.000190 -0.001457 0.006864 0.001946 -0.001040 -0.000243
# 4 -0.002338 0.001658 0.001946 0.022794 -0.002951 0.004401
# 5 0.006472 -0.001494 -0.001040 -0.002951 0.021787 -0.007003
# 6 -0.001223 0.000872 -0.000243 0.004401 -0.007003 0.025073
#
#
# Mechanical properties :
#
#
# Convention : Reuss Voigt Hill
#
# Bulk Modulus (GPa) = 48.88655 60.17159 54.52907
# Shear Modulus (GPa) = 42.99015 51.91212 47.45113
#
# Velocity S-wave (km/s) = 4.43108 4.86922 4.65530
# Velocity P-wave (km/s) = 6.96467 7.68725 7.33487
#
# Compressibility (1/GPa) = 0.02045552
#
# Stress axis : x y z
#
# Youngs Moduli (GPa) = 62.83895 135.73338 145.69704
#
# Poissons Ratio (x) = 0.43394 0.02769
# Poissons Ratio (y) = 0.20090 0.21235
# Poissons Ratio (z) = 0.01194 0.19783
#
# Static dielectric constant tensor:
#      x y z
#    x 1.783230 0.009330 0.048000 
#    y 0.009330 1.870620 0.032870 
#    z 0.048000 0.032870 1.753260 
# 
# From -- ./inp_files/13254.got.cif
#   From: 2010.05.17/outbox.cif.g08.bks.cpg/sg2_7_cif.got.tgz:13254.got - 2010.06.03 11:33:40.
