data_PCOD9063168
_publ_section_title
;
Structure prediction by ZEFSAII (Michael W. Deem and Ramdas Pophale) SiO2 
 PCOD9063168
Probable space group: P -1
;
_chemical_formula_sum "Si O2"
_cell_formula_units_Z 16
_cell_length_a 11.758736
_cell_length_b 8.695575
_cell_length_c 14.917325
_cell_angle_alpha 114.358769
_cell_angle_beta 129.994112
_cell_angle_gamma 103.467169
_cell_volume 745.836123
_symmetry_space_group_name_H-M "P -1"
_symmetry_group_IT_number 2
_symmetry_cell_setting 'triclinic'
loop_
_space_group_symop_operation_xyz
x,y,z
-x,-y,-z
loop_
_atom_site_type_symbol
_atom_site_label
_atom_site_fract_x
_atom_site_fract_y
_atom_site_fract_z
Si Si1 0.183338 0.787378 0.646551
Si Si2 0.939161 0.480508 0.190418
Si Si3 0.815139 0.872268 0.947064
Si Si4 0.096288 0.933285 0.467863
Si Si5 0.419235 0.801852 0.482973
Si Si6 0.603517 0.655565 0.432161
Si Si7 0.572785 0.011388 0.809654
Si Si8 0.008567 0.797199 0.724221
O O1 0.408733 0.881552 0.778874
O O2 0.136802 0.893573 0.720371
O O3 0.000000 0.500000 0.500000
O O4 0.191308 0.883273 0.577501
O O5 0.948134 0.680149 0.278031
O O6 0.931710 0.334366 0.231736
O O7 0.165281 0.604321 0.294836
O O8 0.741836 0.297754 0.979987
O O9 0.622708 0.585124 0.779246
O O10 0.708857 0.957195 0.881804
O O11 0.916474 0.991190 0.123438
O O12 0.000000 0.000000 0.000000
O O13 0.000000 0.000000 0.500000
O O14 0.259183 0.141123 0.527346
O O15 0.536299 0.722924 0.496494
O O16 0.477640 0.910449 0.638273
O O17 0.500000 0.000000 0.500000
O O18 0.759348 0.629926 0.538165
#
# Coordination Sequence:
#
# PCOD9063168 Si02
#       8
#     2   2   2   2   2   2   2   2
#     4  12  22  44  71  96 134 183 234 276 339 410
#     4  11  24  46  67 100 134 176 234 280 336 418
#     4  11  25  44  68 106 136 175 233 284 334 407
#     4  12  25  44  68 101 140 179 223 285 345 402
#     4  12  23  43  67  99 138 181 220 272 350 411
#     4  12  24  43  70 101 138 180 219 288 347 394
#     4  11  25  42  71  99 131 180 230 285 334 400
#     4  11  24  43  71  98 132 180 234 277 336 406
#
# _framework density 21.452434
#
# number of rings (size 3 to 8) (size 9 to 14) (size 15 to 20)
#    0.000    0.500    5.000    3.750    0.000    5.000 
#    4.500    1.250    0.000    0.000    0.000    0.000 
#    0.000    0.000    0.000    0.000    0.000    0.000 
#
# Total GULP energy -89254.193770 kJ/mol
# GULP energy per Si atom -5578.387111 kJ/mol
# Density = 2.140361 g / cm^3
# Si number density = 21.452434 Si / 1000 Ang^3
#
#
#
# Elastic Constant Matrix: (Units=GPa)
#
#
# Indices 1 2 3 4 5 6 
#
# 1 203.3388 18.1635 76.2628 12.7206 1.7595 12.5287
# 2 18.1635 54.6803 27.9190 14.4035 -11.7016 8.0691
# 3 76.2628 27.9190 124.2293 30.7686 -1.8435 21.6511
# 4 12.7206 14.4035 30.7686 23.8953 -5.1993 -0.1404
# 5 1.7595 -11.7016 -1.8435 -5.1993 34.7739 -4.3020
# 6 12.5287 8.0691 21.6511 -0.1404 -4.3020 37.3715
#
#
#
# Elastic Compliance Matrix: (Units=1/GPa)
#
#
# Indices 1 2 3 4 5 6 
#
# 1 0.006518 -0.000704 -0.004688 0.002931 -0.000295 0.000660
# 2 -0.000704 0.023943 -0.001638 -0.010663 0.005999 -0.003334
# 3 -0.004688 -0.001638 0.017808 -0.020260 -0.003496 -0.008870
# 4 0.002931 -0.010663 -0.020260 0.074654 0.008117 0.014272
# 5 -0.000295 0.005999 -0.003496 0.008117 0.032387 0.004588
# 6 0.000660 -0.003334 -0.008870 0.014272 0.004588 0.032978
#
#
# Mechanical properties :
#
#
# Convention : Reuss Voigt Hill
#
# Bulk Modulus (GPa) = 29.23260 69.65988 49.44624
# Shear Modulus (GPa) = 23.39199 36.53502 29.96351
#
# Velocity S-wave (km/s) = 3.30572 4.13131 3.74136
# Velocity P-wave (km/s) = 5.31288 7.43634 6.46242
#
# Compressibility (1/GPa) = 0.03420838
#
# Stress axis : x y z
#
# Youngs Moduli (GPa) = 153.42919 41.76642 56.15559
#
# Poissons Ratio (x) = 0.02940 0.26328
# Poissons Ratio (y) = 0.10800 0.09196
# Poissons Ratio (z) = 0.71933 0.06839
#
# Static dielectric constant tensor:
#      x y z
#    x 1.830240 0.047510 -0.075530 
#    y 0.047510 1.747250 0.082210 
#    z -0.075530 0.082210 1.862650 
# 
# From -- ./inp_files/515996.got.cif
#   From: 2010.05.17/outbox.cif.g08.bks.cpg/sg2_258_cif.got.tgz:515996.got - 2010.06.03 11:33:40.
