data_PCOD9063145
_publ_section_title
;
Structure prediction by ZEFSAII (Michael W. Deem and Ramdas Pophale) SiO2 
 PCOD9063145
Probable space group: P -1
;
_chemical_formula_sum "Si O2"
_cell_formula_units_Z 12
_cell_length_a 6.916785
_cell_length_b 10.340999
_cell_length_c 9.382765
_cell_angle_alpha 49.525102
_cell_angle_beta 103.683591
_cell_angle_gamma 117.514268
_cell_volume 450.772483
_symmetry_space_group_name_H-M "P -1"
_symmetry_group_IT_number 2
_symmetry_cell_setting 'triclinic'
loop_
_space_group_symop_operation_xyz
x,y,z
-x,-y,-z
loop_
_atom_site_type_symbol
_atom_site_label
_atom_site_fract_x
_atom_site_fract_y
_atom_site_fract_z
Si Si1 0.251002 0.635390 0.322307
Si Si2 0.190405 0.127077 0.546573
Si Si3 0.225983 0.572461 0.691430
Si Si4 0.568135 0.452014 0.830777
Si Si5 0.109517 0.942229 0.190608
Si Si6 0.416318 0.847311 0.763768
O O1 0.264317 0.567676 0.531719
O O2 0.452286 0.657211 0.243682
O O3 0.205462 0.812636 0.220759
O O4 0.325865 0.081751 0.212407
O O5 0.310122 0.328384 0.346431
O O6 0.076571 0.146910 0.658545
O O7 0.331744 0.003650 0.682480
O O8 0.000000 0.000000 0.500000
O O9 0.340731 0.442856 0.861650
O O10 0.966206 0.497433 0.707394
O O11 0.338188 0.773667 0.643022
O O12 0.677746 0.348593 0.024021
O O13 0.000000 0.000000 0.000000
#
# Coordination Sequence:
#
# PCOD9063145 Si02
#       6
#     2   2   2   2   2   2
#     4  11  24  43  71 105 145 191 241 298 362 432
#     4  12  27  48  76 110 148 193 245 302 366 436
#     4  11  24  45  71 105 146 190 241 299 363 432
#     4  12  26  45  75 108 143 193 246 298 362 433
#     4  12  27  48  73 108 151 193 244 305 366 433
#     4  12  28  49  75 109 149 193 245 303 364 435
#
# _framework density 26.620968999999999
#
# number of rings (size 3 to 8) (size 9 to 14) (size 15 to 20)
#    0.000    0.333    0.000    9.000    0.000   11.333 
#    0.000    0.000    0.000    0.000    0.000    0.000 
#    0.000    0.000    0.000    0.000    0.000    0.000 
#
# Total GULP energy -67178.173076 kJ/mol
# GULP energy per Si atom -5598.181090 kJ/mol
# Density = 2.656038 g / cm^3
# Si number density = 26.620969 Si / 1000 Ang^3
#
#
#
# Elastic Constant Matrix: (Units=GPa)
#
#
# Indices 1 2 3 4 5 6 
#
# 1 122.1186 68.8025 51.9569 -7.8183 23.0242 0.3380
# 2 68.8025 158.6338 38.9917 -6.9380 12.2799 -2.0107
# 3 51.9569 38.9917 156.9717 -26.5477 22.2178 -1.3157
# 4 -7.8183 -6.9380 -26.5477 42.9661 -14.2634 15.6172
# 5 23.0242 12.2799 22.2178 -14.2634 44.4137 2.9623
# 6 0.3380 -2.0107 -1.3157 15.6172 2.9623 66.0659
#
#
#
# Elastic Compliance Matrix: (Units=1/GPa)
#
#
# Indices 1 2 3 4 5 6 
#
# 1 0.012637 -0.004537 -0.002706 -0.001737 -0.004525 0.000357
# 2 -0.004537 0.008402 -0.000602 0.000215 0.000386 0.000199
# 3 -0.002706 -0.000602 0.008325 0.004502 -0.001092 -0.000854
# 4 -0.001737 0.000215 0.004502 0.031694 0.009288 -0.007803
# 5 -0.004525 0.000386 -0.001092 0.009288 0.028515 -0.003461
# 6 0.000357 0.000199 -0.000854 -0.007803 -0.003461 0.017123
#
#
# Mechanical properties :
#
#
# Convention : Reuss Voigt Hill
#
# Bulk Modulus (GPa) = 73.13497 84.13624 78.63560
# Shear Modulus (GPa) = 39.38770 49.22068 44.30419
#
# Velocity S-wave (km/s) = 3.85070 4.30460 4.08396
# Velocity P-wave (km/s) = 6.87770 7.50866 7.20010
#
# Compressibility (1/GPa) = 0.01367335
#
# Stress axis : x y z
#
# Youngs Moduli (GPa) = 79.13133 119.02513 120.12571
#
# Poissons Ratio (x) = 0.54002 0.32509
# Poissons Ratio (y) = 0.35902 0.07229
# Poissons Ratio (z) = 0.21415 0.07163
#
# Static dielectric constant tensor:
#      x y z
#    x 2.141810 0.090290 0.014940 
#    y 0.090290 2.106450 0.025140 
#    z 0.014940 0.025140 2.250110 
# 
# From -- ./inp_files/156535.got.cif
#   From: 2010.05.17/outbox.cif.g08.bks.cpg/sg2_79_cif.got.tgz:156535.got - 2010.06.03 11:33:40.
