data_PCOD9063150
_publ_section_title
;
Structure prediction by ZEFSAII (Michael W. Deem and Ramdas Pophale) SiO2 
 PCOD9063150
Probable space group: P -1
;
_chemical_formula_sum "Si O2"
_cell_formula_units_Z 16
_cell_length_a 9.431737
_cell_length_b 11.407078
_cell_length_c 9.079620
_cell_angle_alpha 69.759848
_cell_angle_beta 85.880488
_cell_angle_gamma 50.785224
_cell_volume 695.472599
_symmetry_space_group_name_H-M "P -1"
_symmetry_group_IT_number 2
_symmetry_cell_setting 'triclinic'
loop_
_space_group_symop_operation_xyz
x,y,z
-x,-y,-z
loop_
_atom_site_type_symbol
_atom_site_label
_atom_site_fract_x
_atom_site_fract_y
_atom_site_fract_z
Si Si1 0.774818 0.819959 0.178873
Si Si2 0.285251 0.146457 0.500174
Si Si3 0.654991 0.520773 0.982848
Si Si4 0.040133 0.785931 0.705855
Si Si5 0.461782 0.266444 0.841902
Si Si6 0.296396 0.579902 0.536006
Si Si7 0.164646 0.498820 0.320888
Si Si8 0.129134 0.997596 0.105797
O O1 0.750073 0.885290 0.318365
O O2 0.593789 0.841120 0.147590
O O3 0.822298 0.898413 0.022333
O O4 0.947201 0.623874 0.243064
O O5 0.239590 0.320938 0.440156
O O6 0.136572 0.176947 0.379432
O O7 0.500000 0.000000 0.500000
O O8 0.714130 0.525584 0.814804
O O9 0.500000 0.500000 0.000000
O O10 0.838842 0.369102 0.122942
O O11 0.567997 0.686769 0.005089
O O12 0.185886 0.735247 0.585888
O O13 0.964438 0.933360 0.758549
O O14 0.330108 0.437057 0.692333
O O15 0.670983 0.180953 0.817710
O O16 0.500000 0.500000 0.500000
O O17 0.179568 0.597511 0.399877
O O18 0.000000 0.000000 0.000000
#
# Coordination Sequence:
#
# PCOD9063150 Si02
#       8
#     2   2   2   2   2   2   2   2
#     4  12  25  48  70 101 142 189 240 296 357 427
#     4  12  27  45  70 106 144 185 237 295 356 426
#     4  11  24  43  71 106 141 184 243 292 351 430
#     4  11  24  46  70 103 138 182 241 285 353 431
#     4  11  25  44  71 104 140 190 238 288 360 422
#     4  11  24  44  74 102 142 189 240 292 348 427
#     4  12  23  44  73 100 144 186 235 296 355 413
#     4  12  28  47  72 102 148 185 231 303 366 424
#
# _framework density 23.005941
#
# number of rings (size 3 to 8) (size 9 to 14) (size 15 to 20)
#    0.000    0.500    3.750    5.250    5.250    1.000 
#    0.000    1.250    0.000    0.000    0.000    0.000 
#    0.000    0.000    0.000    0.000    0.000    0.000 
#
# Total GULP energy -89510.312894 kJ/mol
# GULP energy per Si atom -5594.394556 kJ/mol
# Density = 2.295358 g / cm^3
# Si number density = 23.005941 Si / 1000 Ang^3
#
#
#
# Elastic Constant Matrix: (Units=GPa)
#
#
# Indices 1 2 3 4 5 6 
#
# 1 109.6436 12.3666 29.9737 10.9901 21.2365 -17.6393
# 2 12.3666 93.1137 37.1193 26.8474 8.6984 -28.1643
# 3 29.9737 37.1193 104.1139 35.5647 0.9459 -0.8241
# 4 10.9901 26.8474 35.5647 56.2539 1.0001 -2.2441
# 5 21.2365 8.6984 0.9459 1.0001 42.7568 4.3967
# 6 -17.6393 -28.1643 -0.8241 -2.2441 4.3967 35.2277
#
#
#
# Elastic Compliance Matrix: (Units=1/GPa)
#
#
# Indices 1 2 3 4 5 6 
#
# 1 0.013681 0.004929 -0.005127 -0.001159 -0.008861 0.011703
# 2 0.004929 0.021372 -0.006778 -0.005924 -0.008573 0.020089
# 3 -0.005127 -0.006778 0.015414 -0.005933 0.004605 -0.008578
# 4 -0.001159 -0.005924 -0.005933 0.024385 0.001766 -0.004122
# 5 -0.008861 -0.008573 0.004605 0.001766 0.030925 -0.014930
# 6 0.011703 0.020089 -0.008578 -0.004122 -0.014930 0.051708
#
#
# Mechanical properties :
#
#
# Convention : Reuss Voigt Hill
#
# Bulk Modulus (GPa) = 27.38598 51.75449 39.57023
# Shear Modulus (GPa) = 27.23155 42.00844 34.61999
#
# Velocity S-wave (km/s) = 3.44419 4.27779 3.88342
# Velocity P-wave (km/s) = 5.26748 6.85159 6.11108
#
# Compressibility (1/GPa) = 0.03651504
#
# Stress axis : x y z
#
# Youngs Moduli (GPa) = 73.09266 46.78956 64.87490
#
# Poissons Ratio (x) = -0.23061 0.33260
# Poissons Ratio (y) = -0.36024 0.43974
# Poissons Ratio (z) = 0.37473 0.31715
#
# Static dielectric constant tensor:
#      x y z
#    x 1.842300 -0.004390 0.007790 
#    y -0.004390 1.952270 -0.011930 
#    z 0.007790 -0.011930 1.882130 
# 
# From -- ./inp_files/186698.got.cif
#   From: 2010.05.17/outbox.cif.g08.bks.cpg/sg2_94_cif.got.tgz:186698.got - 2010.06.03 11:33:40.
