data_PCOD9063450
_publ_section_title
;
Structure prediction by ZEFSAII (Michael W. Deem and Ramdas Pophale) SiO2 
 PCOD9063450
Probable space group: P -1
;
_chemical_formula_sum "Si O2"
_cell_formula_units_Z 12
_cell_length_a 11.451282
_cell_length_b 10.895370
_cell_length_c 12.069458
_cell_angle_alpha 93.543619
_cell_angle_beta 98.267321
_cell_angle_gamma 154.505092
_cell_volume 572.879668
_symmetry_space_group_name_H-M "P -1"
_symmetry_group_IT_number 2
_symmetry_cell_setting 'triclinic'
loop_
_space_group_symop_operation_xyz
x,y,z
-x,-y,-z
loop_
_atom_site_type_symbol
_atom_site_label
_atom_site_fract_x
_atom_site_fract_y
_atom_site_fract_z
Si Si1 0.143920 0.649142 0.908561
Si Si2 0.223292 0.942221 0.236781
Si Si3 0.130931 0.386008 0.258508
Si Si4 0.286201 0.692513 0.508731
Si Si5 0.547147 0.678727 0.145978
Si Si6 0.398970 0.554208 0.866946
O O1 0.994071 0.387271 0.815161
O O2 0.047660 0.675954 0.829974
O O3 0.000000 0.500000 0.000000
O O4 0.500000 0.000000 0.000000
O O5 0.961071 0.784469 0.234143
O O6 0.514957 0.184814 0.363534
O O7 0.375327 0.140079 0.155025
O O8 0.207812 0.514938 0.395926
O O9 0.406013 0.615048 0.226994
O O10 0.905797 0.053783 0.214516
O O11 0.000000 0.500000 0.500000
O O12 0.500000 0.000000 0.500000
O O13 0.488139 0.476915 0.135364
O O14 0.415366 0.595611 0.003970
#
# Coordination Sequence:
#
# PCOD9063450 Si02
#       6
#     2   2   2   2   2   2
#     4  12  24  37  64  99 133 162 212 283 337 392
#     4  12  24  43  68  99 133 178 228 270 335 403
#     4  12  24  43  66  97 134 175 228 269 337 395
#     4  12  26  46  67  95 138 186 220 272 335 400
#     4  11  24  44  68  99 135 178 219 278 337 397
#     4  11  24  44  70  98 136 177 223 275 341 395
#
# _framework density 20.946808999999998
#
# number of rings (size 3 to 8) (size 9 to 14) (size 15 to 20)
#    0.000    0.333    1.667    9.000    2.333    2.667 
#    0.000    5.000    0.000    0.000    0.000    0.000 
#    0.000    0.000    0.000    0.000    0.000    0.000 
#
# Total GULP energy -67060.564817 kJ/mol
# GULP energy per Si atom -5588.380401 kJ/mol
# Density = 2.089913 g / cm^3
# Si number density = 20.946809 Si / 1000 Ang^3
#
#
#
# Elastic Constant Matrix: (Units=GPa)
#
#
# Indices 1 2 3 4 5 6 
#
# 1 79.5194 25.8482 38.3600 -5.3261 3.6242 4.1868
# 2 25.8482 138.3134 29.7211 4.8091 6.6040 12.1410
# 3 38.3600 29.7211 112.9390 2.8196 2.7050 6.0039
# 4 -5.3261 4.8091 2.8196 25.6789 4.5708 -0.3265
# 5 3.6242 6.6040 2.7050 4.5708 28.3938 8.1351
# 6 4.1868 12.1410 6.0039 -0.3265 8.1351 40.5797
#
#
#
# Elastic Compliance Matrix: (Units=1/GPa)
#
#
# Indices 1 2 3 4 5 6 
#
# 1 0.016019 -0.002000 -0.004989 0.004579 -0.001869 0.000095
# 2 -0.002000 0.008144 -0.001303 -0.001698 -0.000694 -0.001912
# 3 -0.004989 -0.001303 0.010977 -0.002090 0.000468 -0.000830
# 4 0.004579 -0.001698 -0.002090 0.041772 -0.007331 0.002151
# 5 -0.001869 -0.000694 0.000468 -0.007331 0.038911 -0.007529
# 6 0.000095 -0.001912 -0.000830 0.002151 -0.007529 0.026854
#
#
# Mechanical properties :
#
#
# Convention : Reuss Voigt Hill
#
# Bulk Modulus (GPa) = 53.89337 57.62562 55.75950
# Shear Modulus (GPa) = 30.22105 34.71999 32.47052
#
# Velocity S-wave (km/s) = 3.80248 4.07570 3.94145
# Velocity P-wave (km/s) = 6.71290 7.05114 6.88410
#
# Compressibility (1/GPa) = 0.01855516
#
# Stress axis : x y z
#
# Youngs Moduli (GPa) = 62.42463 122.79403 91.09950
#
# Poissons Ratio (x) = 0.24558 0.45452
# Poissons Ratio (y) = 0.12485 0.11872
# Poissons Ratio (z) = 0.31146 0.16002
#
# Static dielectric constant tensor:
#      x y z
#    x 1.683070 0.050220 0.030210 
#    y 0.050220 1.657140 -0.022220 
#    z 0.030210 -0.022220 1.765970 
# 
# From -- ./inp_files/422581.got.cif
#   From: 2010.05.17/outbox.cif.g08.bks.cpg/sg2_212_cif.got.tgz:422581.got - 2010.06.03 11:33:40.
