data_PCOD9063459
_publ_section_title
;
Structure prediction by ZEFSAII (Michael W. Deem and Ramdas Pophale) SiO2 
 PCOD9063459
Probable space group: P -1
;
_chemical_formula_sum "Si O2"
_cell_formula_units_Z 15
_cell_length_a 9.471729
_cell_length_b 8.818913
_cell_length_c 9.224526
_cell_angle_alpha 107.160763
_cell_angle_beta 71.657789
_cell_angle_gamma 117.076719
_cell_volume 640.627614
_symmetry_space_group_name_H-M "P -1"
_symmetry_group_IT_number 2
_symmetry_cell_setting 'triclinic'
loop_
_space_group_symop_operation_xyz
x,y,z
-x,-y,-z
loop_
_atom_site_type_symbol
_atom_site_label
_atom_site_fract_x
_atom_site_fract_y
_atom_site_fract_z
Si Si1 0.003610 0.655539 0.255211
Si Si2 0.446158 0.810603 0.897060
Si Si3 0.094545 0.719887 0.941244
Si Si4 0.826159 0.838078 0.514781
Si Si5 0.185324 0.588127 0.396893
Si Si6 0.274100 0.284620 0.167730
Si Si7 0.491194 0.834281 0.543800
Si Si8 0.000000 0.000000 0.000000
O O1 0.978045 0.460342 0.168930
O O2 0.863029 0.678171 0.398290
O O3 0.161760 0.721615 0.325636
O O4 0.007255 0.745059 0.124016
O O5 0.256323 0.716498 0.956168
O O6 0.544096 0.703975 0.900096
O O7 0.464950 0.832157 0.723916
O O8 0.500000 0.000000 0.000000
O O9 0.111136 0.885907 0.891766
O O10 0.783425 0.819949 0.692304
O O11 0.670768 0.832816 0.474876
O O12 0.000000 0.000000 0.500000
O O13 0.242314 0.455033 0.255825
O O14 0.330568 0.681721 0.487893
O O15 0.000000 0.500000 0.500000
O O16 0.160974 0.166722 0.047114
O O17 0.500000 0.000000 0.500000
#
# Coordination Sequence:
#
# PCOD9063459 Si02
#       8
#     2   2   2   2   2   2   2   1
#     4  11  24  44  69 101 137 182 235 296 355 420
#     4  11  25  45  67  94 142 184 223 287 353 425
#     4  11  25  43  70  98 140 189 231 284 361 432
#     4  11  24  44  69 100 141 184 234 303 356 420
#     4  12  24  45  73 104 140 180 237 306 359 417
#     4  11  25  41  70  99 133 185 237 288 359 431
#     4  11  28  44  72 106 139 184 244 295 359 427
#     4  12  22  42  64 102 130 180 236 272 356 430
#
# _framework density 23.414541
#
# number of rings (size 3 to 8) (size 9 to 14) (size 15 to 20)
#    0.000    0.800    4.000    2.400    5.600    2.133 
#    0.000    0.667    0.000    0.000    0.000    0.000 
#    0.000    0.000    0.000    0.000    0.000    0.000 
#
# Total GULP energy -83501.438747 kJ/mol
# GULP energy per Si atom -5566.762583 kJ/mol
# Density = 2.336125 g / cm^3
# Si number density = 23.414541 Si / 1000 Ang^3
#
#
#
# Elastic Constant Matrix: (Units=GPa)
#
#
# Indices 1 2 3 4 5 6 
#
# 1 216.6282 41.0979 44.6622 25.6520 11.8891 -10.2067
# 2 41.0979 42.3239 14.2302 22.4236 0.5983 7.1410
# 3 44.6622 14.2302 67.2453 23.5404 17.3029 7.1586
# 4 25.6520 22.4236 23.5404 34.5057 -2.6434 3.3019
# 5 11.8891 0.5983 17.3029 -2.6434 39.8705 7.0685
# 6 -10.2067 7.1410 7.1586 3.3019 7.0685 35.8734
#
#
#
# Elastic Compliance Matrix: (Units=1/GPa)
#
#
# Indices 1 2 3 4 5 6 
#
# 1 0.006733 -0.006726 -0.003769 0.001481 -0.000890 0.004046
# 2 -0.006726 0.043930 0.005866 -0.026784 -0.001363 -0.009095
# 3 -0.003769 0.005866 0.026079 -0.019303 -0.010939 -0.003512
# 4 0.001481 -0.026784 -0.019303 0.059197 0.011943 0.001803
# 5 -0.000890 -0.001363 -0.010939 0.011943 0.031823 -0.005169
# 6 0.004046 -0.009095 -0.003512 0.001803 -0.005169 0.032391
#
#
# Mechanical properties :
#
#
# Convention : Reuss Voigt Hill
#
# Bulk Modulus (GPa) = 14.81823 58.46425 36.64124
# Shear Modulus (GPa) = 21.56054 37.13038 29.34546
#
# Velocity S-wave (km/s) = 3.03779 3.98651 3.54404
# Velocity P-wave (km/s) = 4.31817 6.79802 5.69472
#
# Compressibility (1/GPa) = 0.06748446
#
# Stress axis : x y z
#
# Youngs Moduli (GPa) = 148.51495 22.76344 38.34527
#
# Poissons Ratio (x) = 0.15310 0.14451
# Poissons Ratio (y) = 0.99887 -0.22492
# Poissons Ratio (z) = 0.55972 -0.13352
#
# Static dielectric constant tensor:
#      x y z
#    x 2.046450 -0.105010 0.030920 
#    y -0.105010 2.037330 -0.026710 
#    z 0.030920 -0.026710 2.167510 
# 
# From -- ./inp_files/159686.got.cif
#   From: 2010.05.17/outbox.cif.g08.bks.cpg/sg2_80_cif.got.tgz:159686.got - 2010.06.03 11:33:40.
