data_PCOD9063654
_publ_section_title
;
Structure prediction by ZEFSAII (Michael W. Deem and Ramdas Pophale) SiO2 
 PCOD9063654
Probable space group: P -1
;
_chemical_formula_sum "Si O2"
_cell_formula_units_Z 14
_cell_length_a 9.324252
_cell_length_b 9.046383
_cell_length_c 12.573961
_cell_angle_alpha 122.791657
_cell_angle_beta 48.259029
_cell_angle_gamma 121.234241
_cell_volume 643.841132
_symmetry_space_group_name_H-M "P -1"
_symmetry_group_IT_number 2
_symmetry_cell_setting 'triclinic'
loop_
_space_group_symop_operation_xyz
x,y,z
-x,-y,-z
loop_
_atom_site_type_symbol
_atom_site_label
_atom_site_fract_x
_atom_site_fract_y
_atom_site_fract_z
Si Si1 0.342478 0.688840 0.191508
Si Si2 0.075661 0.079860 0.244089
Si Si3 0.207617 0.301135 0.052611
Si Si4 0.771748 0.945090 0.629348
Si Si5 0.905122 0.675404 0.122690
Si Si6 0.806036 0.328859 0.513036
Si Si7 0.548602 0.663876 0.458545
O O1 0.186418 0.505314 0.161133
O O2 0.330128 0.679449 0.320450
O O3 0.293577 0.871020 0.249996
O O4 0.560721 0.689762 0.047854
O O5 0.115701 0.168250 0.141988
O O6 0.231745 0.152250 0.291462
O O7 0.883308 0.147206 0.399628
O O8 0.044985 0.863736 0.171584
O O9 0.141611 0.264147 0.949709
O O10 0.644032 0.832577 0.554086
O O11 0.000000 0.000000 0.500000
O O12 0.708963 0.639181 0.280453
O O13 0.000000 0.500000 0.000000
O O14 0.661455 0.331884 0.487830
O O15 0.000000 0.500000 0.500000
O O16 0.500000 0.500000 0.500000
#
# Coordination Sequence:
#
# PCOD9063654 Si02
#       7
#     2   2   2   2   2   2   2
#     4  11  24  44  72 101 146 189 245 304 368 428
#     4  12  26  45  78 105 146 199 246 298 375 440
#     4  11  26  44  71 106 148 195 243 295 374 448
#     4  12  25  46  75 106 147 189 247 311 365 428
#     4  12  27  47  70 108 158 191 242 307 371 445
#     4  12  24  46  78 105 146 191 252 309 359 431
#     4  12  29  45  78 113 145 194 254 307 372 436
#
# _framework density 21.744495000000001
#
# number of rings (size 3 to 8) (size 9 to 14) (size 15 to 20)
#    0.000    0.286    5.714    2.143    4.000    2.857 
#    0.000    0.000    0.000    0.000    0.000    0.000 
#    0.000    0.000    0.000    0.000    0.000    0.000 
#
# Total GULP energy -78191.058929 kJ/mol
# GULP energy per Si atom -5585.075638 kJ/mol
# Density = 2.169500 g / cm^3
# Si number density = 21.744495 Si / 1000 Ang^3
#
#
#
# Elastic Constant Matrix: (Units=GPa)
#
#
# Indices 1 2 3 4 5 6 
#
# 1 157.9895 49.9108 27.3671 12.0984 24.2899 -2.5430
# 2 49.9108 106.8861 47.9091 13.2539 2.0826 0.5089
# 3 27.3671 47.9091 85.2256 10.5011 12.3982 -0.3000
# 4 12.0984 13.2539 10.5011 44.0404 -12.9426 2.4032
# 5 24.2899 2.0826 12.3982 -12.9426 40.3197 -1.9969
# 6 -2.5430 0.5089 -0.3000 2.4032 -1.9969 28.7726
#
#
#
# Elastic Compliance Matrix: (Units=1/GPa)
#
#
# Indices 1 2 3 4 5 6 
#
# 1 0.008634 -0.003815 0.000681 -0.003252 -0.006224 0.000677
# 2 -0.003815 0.014422 -0.007361 -0.000442 0.003657 -0.000378
# 3 0.000681 -0.007361 0.017099 -0.003989 -0.006556 0.000247
# 4 -0.003252 -0.000442 -0.003989 0.028378 0.012226 -0.001843
# 5 -0.006224 0.003657 -0.006556 0.012226 0.034337 0.000679
# 6 0.000677 -0.000378 0.000247 -0.001843 0.000679 0.035025
#
#
# Mechanical properties :
#
#
# Convention : Reuss Voigt Hill
#
# Bulk Modulus (GPa) = 52.18166 66.71948 59.45057
# Shear Modulus (GPa) = 30.25290 37.62083 33.93686
#
# Velocity S-wave (km/s) = 3.73405 4.16400 3.95487
# Velocity P-wave (km/s) = 6.52997 7.33952 6.94655
#
# Compressibility (1/GPa) = 0.01916382
#
# Stress axis : x y z
#
# Youngs Moduli (GPa) = 115.82452 69.33789 58.48296
#
# Poissons Ratio (x) = 0.26456 -0.03982
# Poissons Ratio (y) = 0.44193 0.43049
# Poissons Ratio (z) = -0.07887 0.51039
#
# Static dielectric constant tensor:
#      x y z
#    x 1.864100 0.023700 0.032660 
#    y 0.023700 1.834760 0.019490 
#    z 0.032660 0.019490 1.789990 
# 
# From -- ./inp_files/180005.got.cif
#   From: 2010.05.17/outbox.cif.g08.bks.cpg/sg2_91_cif.got.tgz:180005.got - 2010.06.03 11:33:40.
