data_PCOD9063230
_publ_section_title
;
Structure prediction by ZEFSAII (Michael W. Deem and Ramdas Pophale) SiO2 
 PCOD9063230
Probable space group: P -1
;
_chemical_formula_sum "Si O2"
_cell_formula_units_Z 16
_cell_length_a 19.724360
_cell_length_b 9.484176
_cell_length_c 11.934075
_cell_angle_alpha 48.251962
_cell_angle_beta 48.521333
_cell_angle_gamma 28.946893
_cell_volume 786.293143
_symmetry_space_group_name_H-M "P -1"
_symmetry_group_IT_number 2
_symmetry_cell_setting 'triclinic'
loop_
_space_group_symop_operation_xyz
x,y,z
-x,-y,-z
loop_
_atom_site_type_symbol
_atom_site_label
_atom_site_fract_x
_atom_site_fract_y
_atom_site_fract_z
Si Si1 0.081344 0.663050 0.090467
Si Si2 0.377128 0.350764 0.464469
Si Si3 0.885473 0.710431 0.918926
Si Si4 0.612852 0.794039 0.879724
Si Si5 0.891663 0.674019 0.422725
Si Si6 0.080060 0.676300 0.587796
Si Si7 0.557090 0.216118 0.539091
Si Si8 0.638811 0.402137 0.885660
O O1 0.136450 0.459798 0.025459
O O2 0.225760 0.434522 0.128585
O O3 0.961258 0.717166 0.242826
O O4 0.000000 0.000000 0.000000
O O5 0.230870 0.476278 0.588131
O O6 0.446588 0.359242 0.482613
O O7 0.355379 0.496722 0.293777
O O8 0.500000 0.000000 0.500000
O O9 0.967129 0.713205 0.741331
O O10 0.761228 0.042107 0.932320
O O11 0.000000 0.500000 0.000000
O O12 0.629223 0.570553 0.909038
O O13 0.563525 0.031284 0.717308
O O14 0.500000 0.000000 0.000000
O O15 0.887830 0.465658 0.492023
O O16 0.000000 0.500000 0.500000
O O17 0.723696 0.986973 0.451109
O O18 0.000000 0.000000 0.500000
O O19 0.500000 0.500000 0.500000
O O20 0.500000 0.500000 0.000000
#
# Coordination Sequence:
#
# PCOD9063230 Si02
#       8
#     2   2   2   2   2   2   2   2
#     4  11  26  45  71 102 143 186 233 295 354 428
#     4  12  25  48  74 105 145 186 244 291 357 421
#     4  11  26  45  71 104 138 186 240 288 359 421
#     4  12  27  48  70 105 146 188 239 293 362 426
#     4  11  24  45  70 100 139 180 234 290 350 414
#     4  11  24  43  73 102 136 180 233 294 346 416
#     4  12  29  46  73 108 143 192 237 295 358 425
#     4  12  27  46  74 103 145 189 236 301 353 427
#
# _framework density 20.348645999999999
#
# number of rings (size 3 to 8) (size 9 to 14) (size 15 to 20)
#    0.000    0.500    5.000    1.500    8.750    2.000 
#    0.000    0.000    0.000    0.000    0.000    0.000 
#    0.000    0.000    0.000    0.000    0.000    0.000 
#
# Total GULP energy -89126.179093 kJ/mol
# GULP energy per Si atom -5570.386193 kJ/mol
# Density = 2.030233 g / cm^3
# Si number density = 20.348646 Si / 1000 Ang^3
#
#
#
# Elastic Constant Matrix: (Units=GPa)
#
#
# Indices 1 2 3 4 5 6 
#
# 1 198.6176 83.2855 13.6584 -1.7713 -5.7749 25.0249
# 2 83.2855 193.0861 24.8609 -4.3031 -11.5465 20.6705
# 3 13.6584 24.8609 43.1593 0.4029 -9.4811 14.6696
# 4 -1.7713 -4.3031 0.4029 41.4339 -2.9486 -12.8987
# 5 -5.7749 -11.5465 -9.4811 -2.9486 30.6832 -1.9937
# 6 25.0249 20.6705 14.6696 -12.8987 -1.9937 48.1359
#
#
#
# Elastic Compliance Matrix: (Units=1/GPa)
#
#
# Indices 1 2 3 4 5 6 
#
# 1 0.006393 -0.002539 0.000334 -0.000776 0.000111 -0.002538
# 2 -0.002539 0.006762 -0.002616 0.000525 0.001270 -0.000593
# 3 0.000334 -0.002616 0.029005 -0.002603 0.007252 -0.008287
# 4 -0.000776 0.000525 -0.002603 0.026930 0.002373 0.008286
# 5 0.000111 0.001270 0.007252 0.002373 0.035513 -0.000707
# 6 -0.002538 -0.000593 -0.008287 0.008286 -0.000707 0.027065
#
#
# Mechanical properties :
#
#
# Convention : Reuss Voigt Hill
#
# Bulk Modulus (GPa) = 30.75216 75.38584 53.06900
# Shear Modulus (GPa) = 32.86219 44.92114 38.89167
#
# Velocity S-wave (km/s) = 4.02301 4.70358 4.37655
# Velocity P-wave (km/s) = 6.06011 8.16246 7.18856
#
# Compressibility (1/GPa) = 0.03251804
#
# Stress axis : x y z
#
# Youngs Moduli (GPa) = 156.42683 147.87757 34.47652
#
# Poissons Ratio (x) = 0.37552 -0.01152
# Poissons Ratio (y) = 0.39723 0.09019
# Poissons Ratio (z) = -0.05226 0.38682
#
# Static dielectric constant tensor:
#      x y z
#    x 1.683240 0.048700 0.062360 
#    y 0.048700 1.749810 0.060090 
#    z 0.062360 0.060090 1.732120 
# 
# From -- ./inp_files/208276.got.cif
#   From: 2010.05.17/outbox.cif.g08.bks.cpg/sg2_105_cif.got.tgz:208276.got - 2010.06.03 11:33:40.
