data_PCOD9063130
_publ_section_title
;
Structure prediction by ZEFSAII (Michael W. Deem and Ramdas Pophale) SiO2 
 PCOD9063130
Probable space group: P -1
;
_chemical_formula_sum "Si O2"
_cell_formula_units_Z 16
_cell_length_a 18.033565
_cell_length_b 9.676745
_cell_length_c 10.391995
_cell_angle_alpha 146.704403
_cell_angle_beta 134.983695
_cell_angle_gamma 39.668060
_cell_volume 624.955533
_symmetry_space_group_name_H-M "P -1"
_symmetry_group_IT_number 2
_symmetry_cell_setting 'triclinic'
loop_
_space_group_symop_operation_xyz
x,y,z
-x,-y,-z
loop_
_atom_site_type_symbol
_atom_site_label
_atom_site_fract_x
_atom_site_fract_y
_atom_site_fract_z
Si Si1 0.672000 0.856119 0.154237
Si Si2 0.756102 0.101893 0.185195
Si Si3 0.016768 0.263219 0.673306
Si Si4 0.744299 0.690780 0.667230
Si Si5 0.509174 0.401910 0.285872
Si Si6 0.936032 0.167066 0.254893
Si Si7 0.863891 0.302830 0.013377
Si Si8 0.683153 0.041478 0.604204
O O1 0.638579 0.121571 0.222823
O O2 0.681799 0.938734 0.377036
O O3 0.573418 0.749755 0.949162
O O4 0.786420 0.570212 0.042303
O O5 0.711198 0.430742 0.440486
O O6 0.833724 0.151742 0.199587
O O7 0.859761 0.837939 0.183765
O O8 0.689638 0.953581 0.905421
O O9 0.888399 0.535240 0.743525
O O10 0.023354 0.225727 0.498912
O O11 0.000000 0.000000 0.500000
O O12 0.706882 0.827550 0.585158
O O13 0.500000 0.500000 0.500000
O O14 0.445936 0.675151 0.329379
O O15 0.885381 0.384184 0.245323
O O16 0.015626 0.876743 0.052681
O O17 0.786524 0.136660 0.809216
#
# Coordination Sequence:
#
# PCOD9063130 Si02
#       8
#     2   2   2   2   2   2   2   2
#     4   9  16  29  43  62  88 125 155 189 233 279
#     4  10  19  34  48  66  91 127 165 208 236 271
#     4   8  17  31  48  61  88 122 165 205 237 266
#     4  10  18  29  48  68  91 121 156 197 245 274
#     4   8  16  28  45  63  84 119 154 192 235 279
#     4   9  17  31  42  66  92 132 164 195 227 275
#     4  10  18  29  43  62  99 128 163 189 229 281
#     4  10  18  27  44  65  96 124 152 196 234 287
#
# _framework density 25.601821000000001
#
# number of rings (size 3 to 8) (size 9 to 14) (size 15 to 20)
#    0.000    3.000    1.250    1.875    1.750    0.000 
#    4.500    3.750    0.000    0.000    0.000    0.000 
#    0.000   10.000    1.250    8.875    0.000    0.000 
#
# Total GULP energy -89165.271397 kJ/mol
# GULP energy per Si atom -5572.829462 kJ/mol
# Density = 2.554355 g / cm^3
# Si number density = 25.601821 Si / 1000 Ang^3
#
#
#
# Elastic Constant Matrix: (Units=GPa)
#
#
# Indices 1 2 3 4 5 6 
#
# 1 -26.3143 -2.3846 16.9761 2.6485 45.0615 8.4624
# 2 -2.3846 161.6730 36.2607 25.4500 40.8581 -2.1791
# 3 16.9761 36.2607 139.7256 -15.7845 5.7706 29.9935
# 4 2.6485 25.4500 -15.7845 43.5358 0.1345 0.7000
# 5 45.0615 40.8581 5.7706 0.1345 13.5869 22.8936
# 6 8.4624 -2.1791 29.9935 0.7000 22.8936 37.7480
#
#
#
# Elastic Compliance Matrix: (Units=1/GPa)
#
#
# Indices 1 2 3 4 5 6 
#
# 1 0.014492 -0.011331 0.007128 0.008699 0.032372 -0.029361
# 2 -0.011331 0.009552 -0.003693 -0.006373 -0.006207 0.009908
# 3 0.007128 -0.003693 0.010201 0.005597 0.001893 -0.011168
# 4 0.008699 -0.006373 0.005597 0.028330 0.002639 -0.008891
# 5 0.032372 -0.006207 0.001893 0.002639 0.021927 -0.022467
# 6 -0.029361 0.009908 -0.011168 -0.008891 -0.022467 0.056310
#
#
# Mechanical properties :
#
#
# Convention : Reuss Voigt Hill
#
# Bulk Modulus (GPa) = 54.19176 41.86542 48.02859
# Shear Modulus (GPa) = 30.72147 33.92293 32.32220
#
# Velocity S-wave (km/s) = 3.46782 3.64403 3.55702
# Velocity P-wave (km/s) = 6.10307 5.83895 5.97247
#
# Compressibility (1/GPa) = 0.01845299
#
# Stress axis : x y z
#
# Youngs Moduli (GPa) = 69.00533 104.69305 98.03402
#
# Poissons Ratio (x) = 1.18630 -0.69882
# Poissons Ratio (y) = 0.78191 0.36200
# Poissons Ratio (z) = -0.49190 0.38659
#
# Static dielectric constant tensor:
#      x y z
#    x 2.198880 -0.025990 0.024600 
#    y -0.025990 2.056850 -0.016990 
#    z 0.024600 -0.016990 2.064600 
# 
# From -- ./inp_files/476586.got.cif
#   From: 2010.05.17/outbox.cif.g08.bks.cpg/sg2_239_cif.got.tgz:476586.got - 2010.06.03 11:33:40.
