data_PCOD9063592
_publ_section_title
;
Structure prediction by ZEFSAII (Michael W. Deem and Ramdas Pophale) SiO2 
 PCOD9063592
Probable space group: P -1
;
_chemical_formula_sum "Si O2"
_cell_formula_units_Z 16
_cell_length_a 12.709055
_cell_length_b 12.770888
_cell_length_c 9.387202
_cell_angle_alpha 50.988369
_cell_angle_beta 89.854654
_cell_angle_gamma 128.753728
_cell_volume 698.047500
_symmetry_space_group_name_H-M "P -1"
_symmetry_group_IT_number 2
_symmetry_cell_setting 'triclinic'
loop_
_space_group_symop_operation_xyz
x,y,z
-x,-y,-z
loop_
_atom_site_type_symbol
_atom_site_label
_atom_site_fract_x
_atom_site_fract_y
_atom_site_fract_z
Si Si1 0.049668 0.950239 0.168172
Si Si2 0.703411 0.451958 0.543303
Si Si3 0.292173 0.064551 0.846430
Si Si4 0.123865 0.693856 0.714943
Si Si5 0.706968 0.411843 0.251762
Si Si6 0.865780 0.382991 0.732374
Si Si7 0.824475 0.784276 0.774387
Si Si8 0.681169 0.854421 0.533943
O O1 0.148902 0.118541 0.155815
O O2 0.186098 0.993740 0.049027
O O3 0.856501 0.687935 0.427103
O O4 0.000000 0.000000 0.000000
O O5 0.503284 0.299569 0.672247
O O6 0.771467 0.509125 0.330082
O O7 0.707018 0.310101 0.736358
O O8 0.250463 0.097312 0.669773
O O9 0.225034 0.843381 0.008598
O O10 0.265513 0.719317 0.659189
O O11 0.994702 0.581844 0.677979
O O12 0.202870 0.915879 0.577822
O O13 0.000000 0.500000 0.000000
O O14 0.507231 0.263831 0.378230
O O15 0.800210 0.601810 0.968890
O O16 0.000000 0.500000 0.500000
O O17 0.677346 0.711351 0.743730
O O18 0.000000 0.000000 0.500000
#
# Coordination Sequence:
#
# PCOD9063592 Si02
#       8
#     2   2   2   2   2   2   2   2
#     4  12  24  45  71  98 137 181 230 279 337 408
#     4  11  24  44  71 103 132 182 227 285 344 402
#     4  11  25  46  70 101 141 176 228 285 343 408
#     4  12  23  42  70  99 134 183 227 276 351 402
#     4  11  24  46  67  99 143 176 228 287 339 408
#     4  12  22  42  72  95 138 178 226 280 343 408
#     4  12  26  46  71 100 136 184 227 276 348 411
#     4  11  25  45  69 101 137 181 227 285 342 407
#
# _framework density 22.921075999999999
#
# number of rings (size 3 to 8) (size 9 to 14) (size 15 to 20)
#    0.000    0.500    5.000    3.375    0.000    0.500 
#    6.750    0.000    0.000    0.000    0.000    0.000 
#    0.000    0.000    0.000    0.000    0.000    0.000 
#
# Total GULP energy -89435.791704 kJ/mol
# GULP energy per Si atom -5589.736981 kJ/mol
# Density = 2.286891 g / cm^3
# Si number density = 22.921076 Si / 1000 Ang^3
#
#
#
# Elastic Constant Matrix: (Units=GPa)
#
#
# Indices 1 2 3 4 5 6 
#
# 1 71.6407 16.6867 4.7824 1.6798 11.5306 12.1478
# 2 16.6867 82.6790 11.1576 25.0086 0.0243 14.3801
# 3 4.7824 11.1576 78.8373 4.9312 9.7586 7.4089
# 4 1.6798 25.0086 4.9312 28.8457 13.8519 4.7045
# 5 11.5306 0.0243 9.7586 13.8519 35.6030 9.3736
# 6 12.1478 14.3801 7.4089 4.7045 9.3736 30.0358
#
#
#
# Elastic Compliance Matrix: (Units=1/GPa)
#
#
# Indices 1 2 3 4 5 6 
#
# 1 0.016740 -0.005208 0.000495 0.007673 -0.007697 -0.003199
# 2 -0.005208 0.022076 -0.002229 -0.023661 0.013723 -0.008490
# 3 0.000495 -0.002229 0.013510 0.001847 -0.004200 -0.001444
# 4 0.007673 -0.023661 0.001847 0.068369 -0.031379 0.006853
# 5 -0.007697 0.013723 -0.004200 -0.031379 0.047148 -0.012220
# 6 -0.003199 -0.008490 -0.001444 0.006853 -0.012220 0.041749
#
#
# Mechanical properties :
#
#
# Convention : Reuss Voigt Hill
#
# Bulk Modulus (GPa) = 26.01326 33.15673 29.58500
# Shear Modulus (GPa) = 21.16047 32.26556 26.71301
#
# Velocity S-wave (km/s) = 3.04170 3.75598 3.41755
# Velocity P-wave (km/s) = 4.86925 5.77121 5.33931
#
# Compressibility (1/GPa) = 0.03844193
#
# Stress axis : x y z
#
# Youngs Moduli (GPa) = 59.73785 45.29744 74.01971
#
# Poissons Ratio (x) = 0.23589 -0.03664
# Poissons Ratio (y) = 0.31109 0.16502
# Poissons Ratio (z) = -0.02957 0.10099
#
# Static dielectric constant tensor:
#      x y z
#    x 1.948410 -0.034100 -0.056850 
#    y -0.034100 1.766940 -0.152420 
#    z -0.056850 -0.152420 1.614390 
# 
# From -- ./inp_files/314693.got.cif
#   From: 2010.05.17/outbox.cif.g08.bks.cpg/sg2_158_cif.got.tgz:314693.got - 2010.06.03 11:33:40.
