data_PCOD9063067
_publ_section_title
;
Structure prediction by ZEFSAII (Michael W. Deem and Ramdas Pophale) SiO2 
 PCOD9063067
Probable space group: P -1
;
_chemical_formula_sum "Si O2"
_cell_formula_units_Z 16
_cell_length_a 15.520218
_cell_length_b 9.319056
_cell_length_c 8.898904
_cell_angle_alpha 75.396629
_cell_angle_beta 43.654079
_cell_angle_gamma 103.095107
_cell_volume 679.789740
_symmetry_space_group_name_H-M "P -1"
_symmetry_group_IT_number 2
_symmetry_cell_setting 'triclinic'
loop_
_space_group_symop_operation_xyz
x,y,z
-x,-y,-z
loop_
_atom_site_type_symbol
_atom_site_label
_atom_site_fract_x
_atom_site_fract_y
_atom_site_fract_z
Si Si1 0.525880 0.879750 0.109017
Si Si2 0.879966 0.627162 0.530383
Si Si3 0.353292 0.285138 0.221758
Si Si4 0.023693 0.654551 0.819383
Si Si5 0.069641 0.888716 0.966803
Si Si6 0.806367 0.253535 0.730336
Si Si7 0.331648 0.551561 0.668106
Si Si8 0.636423 0.756630 0.427814
O O1 0.602495 0.805589 0.931718
O O2 0.657441 0.044427 0.008297
O O3 0.383873 0.705553 0.430722
O O4 0.500000 0.000000 0.000000
O O5 0.791866 0.717310 0.650765
O O6 0.773012 0.404601 0.752824
O O7 0.938895 0.693853 0.267576
O O8 0.040222 0.697522 0.392602
O O9 0.343040 0.224207 0.422949
O O10 0.500000 0.500000 0.000000
O O11 0.139689 0.717243 0.518861
O O12 0.844321 0.556188 0.018715
O O13 0.000000 0.500000 0.000000
O O14 0.092039 0.832670 0.791485
O O15 0.221807 0.025852 0.843838
O O16 0.000000 0.000000 0.000000
O O17 0.465354 0.666099 0.597697
O O18 0.333747 0.388041 0.635326
#
# Coordination Sequence:
#
# PCOD9063067 Si02
#       8
#     2   2   2   2   2   2   2   2
#     4  12  26  46  71 101 140 183 225 283 347 415
#     4  11  25  46  69 100 138 177 229 286 337 407
#     4  12  24  42  70  98 135 181 229 271 345 414
#     4  12  24  44  71 100 137 184 226 279 345 411
#     4  12  22  43  71  97 134 179 234 274 339 412
#     4  11  26  45  71 101 140 179 229 286 343 403
#     4  11  25  45  67 104 145 171 229 289 346 400
#     4  11  24  43  70 102 134 181 224 291 340 405
#
# _framework density 23.536688999999999
#
# number of rings (size 3 to 8) (size 9 to 14) (size 15 to 20)
#    0.000    0.500    5.000    3.000    1.750    0.500 
#    0.000    1.250    0.000    0.000    0.000    0.000 
#    0.000    0.000    0.000    0.000    0.000    0.000 
#
# Total GULP energy -89428.867480 kJ/mol
# GULP energy per Si atom -5589.304217 kJ/mol
# Density = 2.348312 g / cm^3
# Si number density = 23.536689 Si / 1000 Ang^3
#
#
#
# Elastic Constant Matrix: (Units=GPa)
#
#
# Indices 1 2 3 4 5 6 
#
# 1 114.6181 26.1197 4.2458 -8.8106 -8.6366 -7.5240
# 2 26.1197 100.1343 11.2188 -20.4795 -2.8172 -1.8107
# 3 4.2458 11.2188 69.0669 -18.3230 -6.4918 -2.2617
# 4 -8.8106 -20.4795 -18.3230 29.2594 11.1501 -10.7428
# 5 -8.6366 -2.8172 -6.4918 11.1501 39.6257 -7.6093
# 6 -7.5240 -1.8107 -2.2617 -10.7428 -7.6093 26.9973
#
#
#
# Elastic Compliance Matrix: (Units=1/GPa)
#
#
# Indices 1 2 3 4 5 6 
#
# 1 0.009812 -0.001906 0.000842 0.002963 0.002165 0.004466
# 2 -0.001906 0.012690 0.001011 0.011182 -0.001651 0.004389
# 3 0.000842 0.001011 0.018680 0.015454 0.000536 0.008168
# 4 0.002963 0.011182 0.015454 0.065890 -0.009496 0.026413
# 5 0.002165 -0.001651 0.000536 -0.009496 0.029315 0.005021
# 6 0.004466 0.004389 0.008168 0.026413 0.005021 0.051189
#
#
# Mechanical properties :
#
#
# Convention : Reuss Voigt Hill
#
# Bulk Modulus (GPa) = 24.34487 40.77643 32.56065
# Shear Modulus (GPa) = 24.82928 35.32549 30.07739
#
# Velocity S-wave (km/s) = 3.25147 3.87831 3.57864
# Velocity P-wave (km/s) = 4.94590 6.11697 5.56234
#
# Compressibility (1/GPa) = 0.04107642
#
# Stress axis : x y z
#
# Youngs Moduli (GPa) = 101.91743 78.79961 53.53190
#
# Poissons Ratio (x) = 0.15021 -0.04508
# Poissons Ratio (y) = 0.19427 -0.05411
# Poissons Ratio (z) = -0.08583 -0.07966
#
# Static dielectric constant tensor:
#      x y z
#    x 1.803430 -0.153280 -0.065850 
#    y -0.153280 1.779910 -0.186520 
#    z -0.065850 -0.186520 2.244570 
# 
# From -- ./inp_files/206331.got.cif
#   From: 2010.05.17/outbox.cif.g08.bks.cpg/sg2_104_cif.got.tgz:206331.got - 2010.06.03 11:33:40.
