data_PCOD9063093
_publ_section_title
;
Structure prediction by ZEFSAII (Michael W. Deem and Ramdas Pophale) SiO2 
 PCOD9063093
Probable space group: P -1
;
_chemical_formula_sum "Si O2"
_cell_formula_units_Z 16
_cell_length_a 12.875765
_cell_length_b 9.416613
_cell_length_c 10.934626
_cell_angle_alpha 85.777703
_cell_angle_beta 49.273321
_cell_angle_gamma 55.014991
_cell_volume 720.361671
_symmetry_space_group_name_H-M "P -1"
_symmetry_group_IT_number 2
_symmetry_cell_setting 'triclinic'
loop_
_space_group_symop_operation_xyz
x,y,z
-x,-y,-z
loop_
_atom_site_type_symbol
_atom_site_label
_atom_site_fract_x
_atom_site_fract_y
_atom_site_fract_z
Si Si1 0.198502 0.752704 0.491693
Si Si2 0.290457 0.693868 0.693659
Si Si3 0.996061 0.669899 0.023477
Si Si4 0.323769 0.902665 0.865509
Si Si5 0.140718 0.562615 0.179284
Si Si6 0.429254 0.563190 0.913571
Si Si7 0.092072 0.128841 0.460543
Si Si8 0.632827 0.826583 0.808385
O O1 0.187283 0.798557 0.638437
O O2 0.396307 0.541047 0.307346
O O3 0.023418 0.781192 0.583137
O O4 0.184192 0.908569 0.416754
O O5 0.500000 0.500000 0.500000
O O6 0.314567 0.815178 0.752374
O O7 0.170692 0.650280 0.849751
O O8 0.000000 0.500000 0.000000
O O9 0.991771 0.664683 0.175742
O O10 0.819950 0.867477 0.072540
O O11 0.283900 0.799303 0.994694
O O12 0.506523 0.837598 0.801280
O O13 0.217293 0.379401 0.217241
O O14 0.062519 0.734047 0.324226
O O15 0.328808 0.486422 0.973455
O O16 0.500000 0.500000 0.000000
O O17 0.245124 0.140768 0.352872
O O18 0.500000 0.000000 0.000000
#
# Coordination Sequence:
#
# PCOD9063093 Si02
#       8
#     2   2   2   2   2   2   2   2
#     4  11  24  43  70 108 141 185 245 307 361 445
#     4  12  26  46  77 107 148 198 249 298 374 452
#     4  12  29  48  73 109 153 199 248 307 373 447
#     4  12  26  47  75 105 147 197 245 301 372 443
#     4  12  24  45  70 103 144 189 244 301 369 438
#     4  12  22  43  73 105 141 185 243 301 367 433
#     4  11  26  42  71 105 142 186 245 308 368 435
#     4  12  27  45  73 106 149 193 248 311 379 434
#
# _framework density 22.211065000000001
#
# number of rings (size 3 to 8) (size 9 to 14) (size 15 to 20)
#    0.000    0.250    5.000    3.000    5.250    2.000 
#    0.000    1.875    0.000    0.000    0.000    0.000 
#    0.000    0.000    0.000    0.000    0.000    0.000 
#
# Total GULP energy -89199.588650 kJ/mol
# GULP energy per Si atom -5574.974291 kJ/mol
# Density = 2.216051 g / cm^3
# Si number density = 22.211065 Si / 1000 Ang^3
#
#
#
# Elastic Constant Matrix: (Units=GPa)
#
#
# Indices 1 2 3 4 5 6 
#
# 1 143.6805 34.3141 37.1449 -16.2640 21.1204 -9.4188
# 2 34.3141 136.3362 26.3717 9.7351 4.6428 -8.4185
# 3 37.1449 26.3717 57.5376 -1.0434 -1.7414 3.2564
# 4 -16.2640 9.7351 -1.0434 28.3926 2.2967 1.8556
# 5 21.1204 4.6428 -1.7414 2.2967 30.6456 -13.8468
# 6 -9.4188 -8.4185 3.2564 1.8556 -13.8468 51.1732
#
#
#
# Elastic Compliance Matrix: (Units=1/GPa)
#
#
# Indices 1 2 3 4 5 6 
#
# 1 0.011134 -0.001825 -0.006450 0.007482 -0.008512 -0.000415
# 2 -0.001825 0.008756 -0.002983 -0.004335 0.000846 0.001680
# 3 -0.006450 -0.002983 0.023130 -0.002181 0.005682 -0.001533
# 4 0.007482 -0.004335 -0.002181 0.041867 -0.009211 -0.003208
# 5 -0.008512 0.000846 0.005682 -0.009211 0.044119 0.010483
# 6 -0.000415 0.001680 -0.001533 -0.003208 0.010483 0.022792
#
#
# Mechanical properties :
#
#
# Convention : Reuss Voigt Hill
#
# Bulk Modulus (GPa) = 48.77018 59.24619 54.00818
# Shear Modulus (GPa) = 27.60161 38.02386 32.81273
#
# Velocity S-wave (km/s) = 3.52901 4.14204 3.84776
# Velocity P-wave (km/s) = 6.21374 7.04325 6.64146
#
# Compressibility (1/GPa) = 0.02050433
#
# Stress axis : x y z
#
# Youngs Moduli (GPa) = 89.81429 114.21248 43.23308
#
# Poissons Ratio (x) = 0.20840 0.27885
# Poissons Ratio (y) = 0.16388 0.12897
# Poissons Ratio (z) = 0.57930 0.34072
#
# Static dielectric constant tensor:
#      x y z
#    x 1.915570 -0.062960 -0.019230 
#    y -0.062960 1.817180 0.046650 
#    z -0.019230 0.046650 1.910640 
# 
# From -- ./inp_files/419401.got.cif
#   From: 2010.05.17/outbox.cif.g08.bks.cpg/sg2_210_cif.got.tgz:419401.got - 2010.06.03 11:33:40.
