data_PCOD9063233
_publ_section_title
;
Structure prediction by ZEFSAII (Michael W. Deem and Ramdas Pophale) SiO2 
 PCOD9063233
Probable space group: P -1
;
_chemical_formula_sum "Si O2"
_cell_formula_units_Z 14
_cell_length_a 9.935413
_cell_length_b 9.230379
_cell_length_c 19.937644
_cell_angle_alpha 56.109463
_cell_angle_beta 152.164258
_cell_angle_gamma 116.425754
_cell_volume 703.248388
_symmetry_space_group_name_H-M "P -1"
_symmetry_group_IT_number 2
_symmetry_cell_setting 'triclinic'
loop_
_space_group_symop_operation_xyz
x,y,z
-x,-y,-z
loop_
_atom_site_type_symbol
_atom_site_label
_atom_site_fract_x
_atom_site_fract_y
_atom_site_fract_z
Si Si1 0.309102 0.681430 0.049741
Si Si2 0.306964 0.976256 0.184536
Si Si3 0.730950 0.326699 0.642658
Si Si4 0.656452 0.711349 0.778606
Si Si5 0.267521 0.866554 0.449541
Si Si6 0.382609 0.344689 0.949398
Si Si7 0.624737 0.960351 0.199360
O O1 0.343963 0.489615 0.148077
O O2 0.475072 0.670078 0.056614
O O3 0.443587 0.825378 0.115903
O O4 0.966064 0.733363 0.875536
O O5 0.312277 0.827081 0.282950
O O6 0.574004 0.923801 0.264747
O O7 0.352020 0.157496 0.195443
O O8 0.000000 0.000000 0.000000
O O9 0.500000 0.500000 0.500000
O O10 0.749741 0.246182 0.596684
O O11 0.040342 0.383220 0.782536
O O12 0.405786 0.759270 0.602018
O O13 0.946038 0.945702 0.312654
O O14 0.500000 0.000000 0.500000
O O15 0.500000 0.500000 0.000000
O O16 0.471016 0.157467 0.071003
#
# Coordination Sequence:
#
# PCOD9063233 Si02
#       7
#     2   2   2   2   2   2   2
#     4  11  24  43  73 104 137 192 245 293 351 436
#     4  12  24  47  72 107 144 186 239 298 355 426
#     4  12  29  46  72 106 151 186 234 301 366 419
#     4  11  25  43  72 104 145 186 238 296 366 423
#     4  12  27  49  71 104 145 190 237 298 358 428
#     4  12  26  44  72 105 140 189 245 291 355 433
#     4  12  26  45  77 100 145 189 241 295 361 425
#
# _framework density 19.907616999999998
#
# number of rings (size 3 to 8) (size 9 to 14) (size 15 to 20)
#    0.000    0.286    5.714    2.143    6.000    2.286 
#    0.000    0.000    0.000    0.000    0.000    0.000 
#    0.000    0.000    0.000    0.000    0.000    0.000 
#
# Total GULP energy -78279.634301 kJ/mol
# GULP energy per Si atom -5591.402450 kJ/mol
# Density = 1.986231 g / cm^3
# Si number density = 19.907617 Si / 1000 Ang^3
#
#
#
# Elastic Constant Matrix: (Units=GPa)
#
#
# Indices 1 2 3 4 5 6 
#
# 1 118.7231 38.2923 29.9757 6.1381 6.8891 -15.9078
# 2 38.2923 155.8571 33.1044 21.8150 -11.4554 -26.7398
# 3 29.9757 33.1044 15.9087 41.9111 -46.9378 -61.1974
# 4 6.1381 21.8150 41.9111 12.2840 17.4056 21.5308
# 5 6.8891 -11.4554 -46.9378 17.4056 13.6146 -18.9260
# 6 -15.9078 -26.7398 -61.1974 21.5308 -18.9260 10.1340
#
#
#
# Elastic Compliance Matrix: (Units=1/GPa)
#
#
# Indices 1 2 3 4 5 6 
#
# 1 0.009993 -0.001332 -0.001340 -0.002087 -0.002322 0.004177
# 2 -0.001332 0.008095 -0.003761 -0.002576 -0.000396 0.001289
# 3 -0.001340 -0.003761 0.005528 0.008956 -0.005232 -0.007447
# 4 -0.002087 -0.002576 0.008956 0.025390 0.010337 0.009373
# 5 -0.002322 -0.000396 -0.005232 0.010337 0.023767 -0.013862
# 6 0.004177 0.001289 -0.007447 0.009373 -0.013862 0.017859
#
#
# Mechanical properties :
#
#
# Convention : Reuss Voigt Hill
#
# Bulk Modulus (GPa) = 93.02884 54.80376 73.91630
# Shear Modulus (GPa) = 46.69317 19.81428 33.25373
#
# Velocity S-wave (km/s) = 4.84828 3.15828 4.09149
# Velocity P-wave (km/s) = 8.84154 6.39441 7.71561
#
# Compressibility (1/GPa) = 0.01074936
#
# Stress axis : x y z
#
# Youngs Moduli (GPa) = 100.06562 123.53681 180.91170
#
# Poissons Ratio (x) = 0.16461 0.24241
# Poissons Ratio (y) = 0.13334 0.68036
# Poissons Ratio (z) = 0.13408 0.46459
#
# Static dielectric constant tensor:
#      x y z
#    x 1.718880 0.027040 -0.022740 
#    y 0.027040 1.860130 -0.113480 
#    z -0.022740 -0.113480 1.765710 
# 
# From -- ./inp_files/157342.got.cif
#   From: 2010.05.17/outbox.cif.g08.bks.cpg/sg2_79_cif.got.tgz:157342.got - 2010.06.03 11:33:40.
