data_PCOD9063443
_publ_section_title
;
Structure prediction by ZEFSAII (Michael W. Deem and Ramdas Pophale) SiO2 
 PCOD9063443
Probable space group: P -1
;
_chemical_formula_sum "Si O2"
_cell_formula_units_Z 14
_cell_length_a 12.662380
_cell_length_b 9.134309
_cell_length_c 10.482206
_cell_angle_alpha 125.488249
_cell_angle_beta 147.767106
_cell_angle_gamma 56.003807
_cell_volume 520.012619
_symmetry_space_group_name_H-M "P -1"
_symmetry_group_IT_number 2
_symmetry_cell_setting 'triclinic'
loop_
_space_group_symop_operation_xyz
x,y,z
-x,-y,-z
loop_
_atom_site_type_symbol
_atom_site_label
_atom_site_fract_x
_atom_site_fract_y
_atom_site_fract_z
Si Si1 0.866965 0.177956 0.507939
Si Si2 0.484141 0.806751 0.025388
Si Si3 0.376157 0.196751 0.235772
Si Si4 0.179499 0.786542 0.228402
Si Si5 0.694272 0.493937 0.348254
Si Si6 0.281531 0.120703 0.366853
Si Si7 0.721286 0.557792 0.981336
O O1 0.644267 0.150389 0.216882
O O2 0.900524 0.196672 0.700668
O O3 0.878122 0.371926 0.549057
O O4 0.000000 0.000000 0.500000
O O5 0.363093 0.653512 0.887891
O O6 0.702663 0.706024 0.154103
O O7 0.447965 0.989290 0.159114
O O8 0.581434 0.264930 0.519252
O O9 0.232627 0.191894 0.209026
O O10 0.281933 0.323848 0.090107
O O11 0.145849 0.634154 0.013477
O O12 0.159936 0.983446 0.242934
O O13 0.717396 0.700083 0.455156
O O14 0.497104 0.502373 0.239639
O O15 0.500000 0.000000 0.500000
#
# Coordination Sequence:
#
# PCOD9063443 Si02
#       7
#     2   2   2   2   2   2   2
#     4   9  19  33  52  66  88 125 167 195 219 268
#     4   8  18  27  50  71  95 117 155 192 246 263
#     4  11  15  27  48  74  99 120 142 198 241 284
#     4  11  18  29  48  72  97 120 157 188 229 285
#     4   8  16  30  46  68  95 121 158 180 237 276
#     4  10  18  27  45  73 101 123 149 181 238 293
#     4   9  16  27  45  74  90 124 151 186 239 274
#
# _framework density 26.922423999999999
#
# number of rings (size 3 to 8) (size 9 to 14) (size 15 to 20)
#    1.714    0.571    5.714    1.714    0.000    0.000 
#    0.000    7.143    0.000    4.286    0.000    0.000 
#    0.000    0.000    0.000    0.000    0.000    0.000 
#
# Total GULP energy -78070.668791 kJ/mol
# GULP energy per Si atom -5576.476342 kJ/mol
# Density = 2.686115 g / cm^3
# Si number density = 26.922424 Si / 1000 Ang^3
#
#
#
# Elastic Constant Matrix: (Units=GPa)
#
#
# Indices 1 2 3 4 5 6 
#
# 1 99.1311 51.6518 20.5780 5.9979 -9.7855 -7.7448
# 2 51.6518 182.7355 17.4798 40.4099 0.6254 -3.8075
# 3 20.5780 17.4798 82.0079 17.6113 -13.7939 -6.4942
# 4 5.9979 40.4099 17.6113 56.2645 -2.6209 -8.9967
# 5 -9.7855 0.6254 -13.7939 -2.6209 31.1842 1.5822
# 6 -7.7448 -3.8075 -6.4942 -8.9967 1.5822 52.5683
#
#
#
# Elastic Compliance Matrix: (Units=1/GPa)
#
#
# Indices 1 2 3 4 5 6 
#
# 1 0.012937 -0.003996 -0.002275 0.002625 0.003269 0.001686
# 2 -0.003996 0.007776 0.000145 -0.005427 -0.001757 -0.000884
# 3 -0.002275 0.000145 0.014556 -0.004070 0.005349 0.000616
# 4 0.002625 -0.005427 -0.004070 0.023259 0.000912 0.003444
# 5 0.003269 -0.001757 0.005349 0.000912 0.035566 0.000101
# 6 0.001686 -0.000884 0.000616 0.003444 0.000101 0.019870
#
#
# Mechanical properties :
#
#
# Convention : Reuss Voigt Hill
#
# Bulk Modulus (GPa) = 43.44287 60.36597 51.90442
# Shear Modulus (GPa) = 37.34477 46.28105 41.81291
#
# Velocity S-wave (km/s) = 3.72845 4.15064 3.94520
# Velocity P-wave (km/s) = 5.89122 6.74102 6.33040
#
# Compressibility (1/GPa) = 0.02301874
#
# Stress axis : x y z
#
# Youngs Moduli (GPa) = 77.29496 128.60593 68.69826
#
# Poissons Ratio (x) = 0.51387 0.15629
# Poissons Ratio (y) = 0.30885 -0.00998
# Poissons Ratio (z) = 0.17585 -0.01869
#
# Static dielectric constant tensor:
#      x y z
#    x 2.131910 0.033370 0.092230 
#    y 0.033370 2.197430 -0.039740 
#    z 0.092230 -0.039740 2.282100 
# 
# From -- ./inp_files/445063.got.cif
#   From: 2010.05.17/outbox.cif.g08.bks.cpg/sg2_223_cif.got.tgz:445063.got - 2010.06.03 11:33:40.
