data_PCOD9063834
_publ_section_title
;
Structure prediction by ZEFSAII (Michael W. Deem and Ramdas Pophale) SiO2 
 PCOD9063834
Probable space group: P -1
;
_chemical_formula_sum "Si O2"
_cell_formula_units_Z 16
_cell_length_a 9.622914
_cell_length_b 10.717883
_cell_length_c 8.959559
_cell_angle_alpha 130.608989
_cell_angle_beta 98.943560
_cell_angle_gamma 84.172112
_cell_volume 692.992048
_symmetry_space_group_name_H-M "P -1"
_symmetry_group_IT_number 2
_symmetry_cell_setting 'triclinic'
loop_
_space_group_symop_operation_xyz
x,y,z
-x,-y,-z
loop_
_atom_site_type_symbol
_atom_site_label
_atom_site_fract_x
_atom_site_fract_y
_atom_site_fract_z
Si Si1 0.341293 0.440026 0.439695
Si Si2 0.097768 0.645829 0.564402
Si Si3 0.411428 0.098261 0.182105
Si Si4 0.300847 0.384531 0.743720
Si Si5 0.831826 0.307425 0.862409
Si Si6 0.131423 0.900772 0.013610
Si Si7 0.959211 0.818087 0.409415
Si Si8 0.448036 0.828375 0.425451
O O1 0.500000 0.500000 0.500000
O O2 0.227841 0.557332 0.436739
O O3 0.343747 0.261621 0.228312
O O4 0.296061 0.421366 0.592534
O O5 0.000000 0.500000 0.500000
O O6 0.013757 0.774078 0.549131
O O7 0.163062 0.755047 0.790233
O O8 0.511238 0.153876 0.379051
O O9 0.275482 0.999757 0.137847
O O10 0.500000 0.000000 0.000000
O O11 0.204149 0.227646 0.647423
O O12 0.459204 0.321475 0.743132
O O13 0.240582 0.537506 0.946911
O O14 0.897992 0.189037 0.907100
O O15 0.710898 0.210815 0.675302
O O16 0.961291 0.322578 0.783120
O O17 0.000000 0.000000 0.000000
O O18 0.000000 0.000000 0.500000
O O19 0.500000 0.000000 0.500000
#
# Coordination Sequence:
#
# PCOD9063834 Si02
#       8
#     2   2   2   2   2   2   2   2
#     4  11  24  44  75 103 146 191 246 306 366 433
#     4  12  24  47  76 107 146 197 247 310 374 437
#     4  11  26  46  70 106 146 189 251 303 372 444
#     4  11  25  48  73 107 146 195 245 306 367 447
#     4  12  25  47  73 109 149 195 249 301 376 447
#     4  12  25  44  74 106 145 192 247 306 372 444
#     4  12  27  46  76 110 154 196 248 310 376 442
#     4  11  24  46  73 100 148 193 233 308 378 437
#
# _framework density 23.088289
#
# number of rings (size 3 to 8) (size 9 to 14) (size 15 to 20)
#    0.000    0.500    3.750    3.750    8.750    0.000 
#    4.500    0.000    0.000    0.000    0.000    0.000 
#    0.000    0.000    0.000    0.000    0.000    0.000 
#
# Total GULP energy -89447.524840 kJ/mol
# GULP energy per Si atom -5590.470303 kJ/mol
# Density = 2.303574 g / cm^3
# Si number density = 23.088289 Si / 1000 Ang^3
#
#
#
# Elastic Constant Matrix: (Units=GPa)
#
#
# Indices 1 2 3 4 5 6 
#
# 1 92.7215 15.6913 22.3402 -1.8301 -6.6397 -7.0554
# 2 15.6913 99.2148 21.9424 8.7718 7.2238 -7.5509
# 3 22.3402 21.9424 107.6064 12.2352 -16.4913 -5.7068
# 4 -1.8301 8.7718 12.2352 35.7772 -7.0407 -0.6816
# 5 -6.6397 7.2238 -16.4913 -7.0407 39.6165 5.7953
# 6 -7.0554 -7.5509 -5.7068 -0.6816 5.7953 45.4411
#
#
#
# Elastic Compliance Matrix: (Units=1/GPa)
#
#
# Indices 1 2 3 4 5 6 
#
# 1 0.011794 -0.001627 -0.002041 0.002041 0.001621 0.001128
# 2 -0.001627 0.011522 -0.002207 -0.002922 -0.004084 0.001862
# 3 -0.002041 -0.002207 0.011108 -0.002530 0.004215 0.000136
# 4 0.002041 -0.002922 -0.002530 0.030682 0.005379 -0.000712
# 5 0.001621 -0.004084 0.004215 0.005379 0.029492 -0.003578
# 6 0.001128 0.001862 0.000136 -0.000712 -0.003578 0.022954
#
#
# Mechanical properties :
#
#
# Convention : Reuss Voigt Hill
#
# Bulk Modulus (GPa) = 44.09986 46.61004 45.35495
# Shear Modulus (GPa) = 36.53445 40.13823 38.33634
#
# Velocity S-wave (km/s) = 3.98223 4.17402 4.07925
# Velocity P-wave (km/s) = 6.34714 6.59253 6.47100
#
# Compressibility (1/GPa) = 0.02267581
#
# Stress axis : x y z
#
# Youngs Moduli (GPa) = 84.78774 86.79230 90.02905
#
# Poissons Ratio (x) = 0.14117 0.18371
# Poissons Ratio (y) = 0.13791 0.19866
# Poissons Ratio (z) = 0.17302 0.19152
#
# Static dielectric constant tensor:
#      x y z
#    x 1.871570 0.053930 -0.069430 
#    y 0.053930 1.998960 -0.025830 
#    z -0.069430 -0.025830 1.871330 
# 
# From -- ./inp_files/190893.got.cif
#   From: 2010.05.17/outbox.cif.g08.bks.cpg/sg2_96_cif.got.tgz:190893.got - 2010.06.03 11:33:40.
