data_PCOD9063311
_publ_section_title
;
Structure prediction by ZEFSAII (Michael W. Deem and Ramdas Pophale) SiO2 
 PCOD9063311
Probable space group: P -1
;
_chemical_formula_sum "Si O2"
_cell_formula_units_Z 16
_cell_length_a 12.316901
_cell_length_b 18.716809
_cell_length_c 9.852595
_cell_angle_alpha 78.663360
_cell_angle_beta 134.226358
_cell_angle_gamma 139.572998
_cell_volume 732.938698
_symmetry_space_group_name_H-M "P -1"
_symmetry_group_IT_number 2
_symmetry_cell_setting 'triclinic'
loop_
_space_group_symop_operation_xyz
x,y,z
-x,-y,-z
loop_
_atom_site_type_symbol
_atom_site_label
_atom_site_fract_x
_atom_site_fract_y
_atom_site_fract_z
Si Si1 0.189501 0.761394 0.014313
Si Si2 0.259971 0.052819 0.760299
Si Si3 0.582841 0.229934 0.252860
Si Si4 0.706714 0.435827 0.389373
Si Si5 0.261958 0.559144 0.275152
Si Si6 0.637102 0.141374 0.576319
Si Si7 0.855077 0.750025 0.574524
Si Si8 0.585043 0.537140 0.901117
O O1 0.856742 0.573518 0.809648
O O2 0.064681 0.785483 0.840206
O O3 0.395584 0.802158 0.071849
O O4 0.401882 0.853723 0.302031
O O5 0.351052 0.105111 0.976045
O O6 0.000000 0.000000 0.500000
O O7 0.113397 0.910335 0.661472
O O8 0.533278 0.294222 0.217281
O O9 0.523931 0.151086 0.359247
O O10 0.965468 0.396530 0.468177
O O11 0.769703 0.435707 0.596444
O O12 0.481871 0.409570 0.223991
O O13 0.627700 0.710427 0.474967
O O14 0.000000 0.500000 0.000000
O O15 0.500000 0.000000 0.500000
O O16 0.031310 0.312829 0.837724
O O17 0.641574 0.613029 0.330594
O O18 0.500000 0.500000 0.000000
#
# Coordination Sequence:
#
# PCOD9063311 Si02
#       8
#     2   2   2   2   2   2   2   2
#     4  12  24  47  70 101 145 183 241 294 350 425
#     4  12  28  46  72 105 142 191 238 294 365 427
#     4  11  25  47  68 106 144 189 235 294 363 425
#     4  11  24  43  76 101 145 186 237 295 352 432
#     4  12  23  42  70 107 139 183 234 291 356 420
#     4  12  27  45  72 106 146 187 237 299 365 423
#     4  12  26  45  73 104 145 185 244 295 352 433
#     4  12  25  43  72 106 137 190 245 285 356 429
#
# _framework density 21.829929
#
# number of rings (size 3 to 8) (size 9 to 14) (size 15 to 20)
#    0.000    0.250    5.000    3.750    3.500    0.000 
#    0.000    1.875    0.000    0.000    0.000    0.000 
#    0.000    0.000    0.000    0.000    0.000    0.000 
#
# Total GULP energy -89398.606753 kJ/mol
# GULP energy per Si atom -5587.412922 kJ/mol
# Density = 2.178024 g / cm^3
# Si number density = 21.829929 Si / 1000 Ang^3
#
#
#
# Elastic Constant Matrix: (Units=GPa)
#
#
# Indices 1 2 3 4 5 6 
#
# 1 63.2020 10.5502 28.5505 -1.7175 -19.4314 -4.4728
# 2 10.5502 79.3793 37.7703 -11.0084 -14.8855 -7.6154
# 3 28.5505 37.7703 101.9553 -14.0869 -17.4479 -6.2469
# 4 -1.7175 -11.0084 -14.0869 37.9299 -6.7941 -5.2516
# 5 -19.4314 -14.8855 -17.4479 -6.7941 44.4736 -2.8674
# 6 -4.4728 -7.6154 -6.2469 -5.2516 -2.8674 33.3324
#
#
#
# Elastic Compliance Matrix: (Units=1/GPa)
#
#
# Indices 1 2 3 4 5 6 
#
# 1 0.020334 0.001445 -0.004436 0.001578 0.008073 0.003171
# 2 0.001445 0.016754 -0.004776 0.004714 0.005364 0.004331
# 3 -0.004436 -0.004776 0.014007 0.004364 0.002745 0.001862
# 4 0.001578 0.004714 0.004364 0.032218 0.009417 0.007993
# 5 0.008073 0.005364 0.002745 0.009417 0.030772 0.006954
# 6 0.003171 0.004331 0.001862 0.007993 0.006954 0.033622
#
#
# Mechanical properties :
#
#
# Convention : Reuss Voigt Hill
#
# Bulk Modulus (GPa) = 28.12122 44.25316 36.18719
# Shear Modulus (GPa) = 28.55593 34.32490 31.44042
#
# Velocity S-wave (km/s) = 3.62070 3.96962 3.79917
# Velocity P-wave (km/s) = 5.51264 6.42856 5.98814
#
# Compressibility (1/GPa) = 0.03556033
#
# Stress axis : x y z
#
# Youngs Moduli (GPa) = 49.17825 59.68851 71.39424
#
# Poissons Ratio (x) = -0.08624 0.31667
# Poissons Ratio (y) = -0.07106 0.34101
# Poissons Ratio (z) = 0.21813 0.28510
#
# Static dielectric constant tensor:
#      x y z
#    x 1.793470 0.031560 -0.056380 
#    y 0.031560 1.806600 -0.093770 
#    z -0.056380 -0.093770 1.928480 
# 
# From -- ./inp_files/207830.got.cif
#   From: 2010.05.17/outbox.cif.g08.bks.cpg/sg2_104_cif.got.tgz:207830.got - 2010.06.03 11:33:40.
