data_PCOD9063056
_publ_section_title
;
Structure prediction by ZEFSAII (Michael W. Deem and Ramdas Pophale) SiO2 
 PCOD9063056
Probable space group: P -1
;
_chemical_formula_sum "Si O2"
_cell_formula_units_Z 16
_cell_length_a 12.637317
_cell_length_b 22.074264
_cell_length_c 9.331930
_cell_angle_alpha 45.818194
_cell_angle_beta 36.249645
_cell_angle_gamma 29.188748
_cell_volume 750.471560
_symmetry_space_group_name_H-M "P -1"
_symmetry_group_IT_number 2
_symmetry_cell_setting 'triclinic'
loop_
_space_group_symop_operation_xyz
x,y,z
-x,-y,-z
loop_
_atom_site_type_symbol
_atom_site_label
_atom_site_fract_x
_atom_site_fract_y
_atom_site_fract_z
Si Si1 0.731564 0.134366 0.516793
Si Si2 0.000930 0.178857 0.980237
Si Si3 0.373816 0.283135 0.934528
Si Si4 0.254614 0.950871 0.881628
Si Si5 0.836543 0.574326 0.697329
Si Si6 0.823141 0.476638 0.329532
Si Si7 0.570366 0.431298 0.882780
Si Si8 0.431705 0.158518 0.546038
O O1 0.510101 0.213314 0.750479
O O2 0.629591 0.115937 0.524483
O O3 0.000000 0.000000 0.500000
O O4 0.805511 0.202425 0.267523
O O5 0.205693 0.175562 0.823098
O O6 0.830816 0.287536 0.870281
O O7 0.156893 0.050469 0.942299
O O8 0.338435 0.396879 0.788481
O O9 0.566412 0.180000 0.015866
O O10 0.074366 0.353754 0.169733
O O11 0.425083 0.931962 0.598087
O O12 0.000000 0.000000 0.000000
O O13 0.683951 0.713756 0.599271
O O14 0.000000 0.500000 0.500000
O O15 0.030629 0.523780 0.700000
O O16 0.648405 0.559279 0.943031
O O17 0.639618 0.473056 0.614112
O O18 0.500000 0.500000 0.000000
#
# Coordination Sequence:
#
# PCOD9063056 Si02
#       8
#     2   2   2   2   2   2   2   2
#     4  12  24  45  67  98 142 183 231 288 350 409
#     4  12  24  41  73 104 132 182 237 289 346 415
#     4  11  24  45  68  99 147 186 222 292 356 412
#     4  12  22  45  73 100 137 186 233 289 346 418
#     4  12  21  39  69 101 131 175 226 285 346 405
#     4  11  24  43  69  98 145 181 225 291 355 410
#     4  12  22  41  70 106 135 173 240 287 342 419
#     4  12  24  43  71  99 134 178 240 286 344 416
#
# _framework density 21.319928000000001
#
# number of rings (size 3 to 8) (size 9 to 14) (size 15 to 20)
#    0.000    0.250    7.500    1.875    0.000    0.500 
#    0.000    3.750    5.500    0.000    0.000    0.000 
#    0.000    0.000    0.000    0.000    0.000    0.000 
#
# Total GULP energy -89495.638470 kJ/mol
# GULP energy per Si atom -5593.477404 kJ/mol
# Density = 2.127140 g / cm^3
# Si number density = 21.319928 Si / 1000 Ang^3
#
#
#
# Elastic Constant Matrix: (Units=GPa)
#
#
# Indices 1 2 3 4 5 6 
#
# 1 86.0312 27.1502 50.6028 -5.3705 -10.8949 -2.3789
# 2 27.1502 114.0667 20.2932 0.6716 7.5818 -7.6416
# 3 50.6028 20.2932 139.1801 6.1323 -10.0273 12.2342
# 4 -5.3705 0.6716 6.1323 36.4765 10.5477 11.3897
# 5 -10.8949 7.5818 -10.0273 10.5477 50.1738 4.6853
# 6 -2.3789 -7.6416 12.2342 11.3897 4.6853 30.1890
#
#
#
# Elastic Compliance Matrix: (Units=1/GPa)
#
#
# Indices 1 2 3 4 5 6 
#
# 1 0.016301 -0.002943 -0.005575 0.002240 0.002249 0.001605
# 2 -0.002943 0.010004 -0.000822 -0.000805 -0.002456 0.003318
# 3 -0.005575 -0.000822 0.009898 -0.001595 0.001630 -0.004310
# 4 0.002240 -0.000805 -0.001595 0.033090 -0.005641 -0.010990
# 5 0.002249 -0.002456 0.001630 -0.005641 0.022533 -0.002474
# 6 0.001605 0.003318 -0.004310 -0.010990 -0.002474 0.040368
#
#
# Mechanical properties :
#
#
# Convention : Reuss Voigt Hill
#
# Bulk Modulus (GPa) = 57.06847 59.48560 58.27703
# Shear Modulus (GPa) = 31.90512 39.44998 35.67755
#
# Velocity S-wave (km/s) = 3.87265 4.30627 4.09520
# Velocity P-wave (km/s) = 6.84268 7.25860 7.05371
#
# Compressibility (1/GPa) = 0.01752281
#
# Stress axis : x y z
#
# Youngs Moduli (GPa) = 61.34632 99.96215 101.02792
#
# Poissons Ratio (x) = 0.29422 0.56325
# Poissons Ratio (y) = 0.18056 0.08300
# Poissons Ratio (z) = 0.34202 0.08213
#
# Static dielectric constant tensor:
#      x y z
#    x 1.290900 -0.330580 0.045450 
#    y -0.330580 1.557710 0.056480 
#    z 0.045450 0.056480 1.833150 
# 
# From -- ./inp_files/282837.got.cif
#   From: 2010.05.17/outbox.cif.g08.bks.cpg/sg2_142_cif.got.tgz:282837.got - 2010.06.03 11:33:40.
