data_PCOD9063817
_publ_section_title
;
Structure prediction by ZEFSAII (Michael W. Deem and Ramdas Pophale) SiO2 
 PCOD9063817
Probable space group: P -1
;
_chemical_formula_sum "Si O2"
_cell_formula_units_Z 14
_cell_length_a 9.615847
_cell_length_b 12.489211
_cell_length_c 4.984679
_cell_angle_alpha 95.212777
_cell_angle_beta 106.464189
_cell_angle_gamma 82.144371
_cell_volume 567.842167
_symmetry_space_group_name_H-M "P -1"
_symmetry_group_IT_number 2
_symmetry_cell_setting 'triclinic'
loop_
_space_group_symop_operation_xyz
x,y,z
-x,-y,-z
loop_
_atom_site_type_symbol
_atom_site_label
_atom_site_fract_x
_atom_site_fract_y
_atom_site_fract_z
Si Si1 0.030195 0.378784 0.873597
Si Si2 0.947522 0.245121 0.306926
Si Si3 0.864984 0.966905 0.746282
Si Si4 0.496188 0.625508 0.573179
Si Si5 0.696670 0.182623 0.448762
Si Si6 0.349446 0.314320 0.822865
Si Si7 0.593820 0.897321 0.908987
O O1 0.198225 0.365271 0.873460
O O2 0.954260 0.338510 0.554599
O O3 0.000000 0.500000 0.000000
O O4 0.992434 0.294411 0.062866
O O5 0.786611 0.206285 0.234724
O O6 0.061718 0.137649 0.404510
O O7 0.734588 0.926189 0.837982
O O8 0.793311 0.078113 0.596398
O O9 0.000000 0.000000 0.000000
O O10 0.500000 0.500000 0.500000
O O11 0.346449 0.698140 0.419536
O O12 0.626091 0.658938 0.463908
O O13 0.526789 0.645174 0.907811
O O14 0.532133 0.151941 0.337193
O O15 0.359311 0.186918 0.850234
O O16 0.500000 0.000000 0.000000
#
# Coordination Sequence:
#
# PCOD9063817 Si02
#       7
#     2   2   2   2   2   2   2
#     4  12  28  47  78 106 150 202 258 317 383 452
#     4  12  27  48  76 110 154 199 255 319 382 456
#     4  12  25  48  76 117 154 203 254 317 387 461
#     4  11  26  47  74 107 149 198 246 315 372 456
#     4  11  27  44  75 111 152 199 255 308 388 451
#     4  11  25  46  72 108 144 191 259 303 381 442
#     4  11  24  44  74 109 154 197 249 310 382 460
#
# _framework density 24.654736
#
# number of rings (size 3 to 8) (size 9 to 14) (size 15 to 20)
#    0.000    0.571    1.429    5.143    8.000    3.429 
#    0.000    0.000    0.000    0.000    0.000    0.000 
#    0.000    0.000    0.000    0.000    0.000    0.000 
#
# Total GULP energy -78309.097816 kJ/mol
# GULP energy per Si atom -5593.506987 kJ/mol
# Density = 2.459862 g / cm^3
# Si number density = 24.654736 Si / 1000 Ang^3
#
#
#
# Elastic Constant Matrix: (Units=GPa)
#
#
# Indices 1 2 3 4 5 6 
#
# 1 190.7728 47.5120 18.9538 -5.2619 -19.2908 -5.0435
# 2 47.5120 144.5146 -9.5183 10.8254 -19.1887 -15.4823
# 3 18.9538 -9.5183 56.4971 4.9833 -7.3539 5.8329
# 4 -5.2619 10.8254 4.9833 39.5184 -0.7245 -9.6295
# 5 -19.2908 -19.1887 -7.3539 -0.7245 44.4720 2.6769
# 6 -5.0435 -15.4823 5.8329 -9.6295 2.6769 27.8265
#
#
#
# Elastic Compliance Matrix: (Units=1/GPa)
#
#
# Indices 1 2 3 4 5 6 
#
# 1 0.006232 -0.002072 -0.002551 0.002006 0.001355 0.001075
# 2 -0.002072 0.008635 0.002441 -0.002195 0.003022 0.002867
# 3 -0.002551 0.002441 0.020416 -0.004833 0.003569 -0.005400
# 4 0.002006 -0.002195 -0.004833 0.029296 -0.001024 0.010392
# 5 0.001355 0.003022 0.003569 -0.001024 0.025047 -0.001585
# 6 0.001075 0.002867 -0.005400 0.010392 -0.001585 0.042607
#
#
# Mechanical properties :
#
#
# Convention : Reuss Voigt Hill
#
# Bulk Modulus (GPa) = 32.34475 56.18661 44.26568
# Shear Modulus (GPa) = 34.03601 44.68586 39.36093
#
# Velocity S-wave (km/s) = 3.71955 4.26192 3.99994
# Velocity P-wave (km/s) = 5.62088 6.85985 6.27104
#
# Compressibility (1/GPa) = 0.03091692
#
# Stress axis : x y z
#
# Youngs Moduli (GPa) = 160.45697 115.81390 48.98238
#
# Poissons Ratio (x) = 0.23998 0.12498
# Poissons Ratio (y) = 0.33249 -0.11956
# Poissons Ratio (z) = 0.40940 -0.28269
#
# Static dielectric constant tensor:
#      x y z
#    x 1.995460 0.104120 0.100230 
#    y 0.104120 2.140680 0.106830 
#    z 0.100230 0.106830 2.022470 
# 
# From -- ./inp_files/28425.got.cif
#   From: 2010.05.17/outbox.cif.g08.bks.cpg/sg2_15_cif.got.tgz:28425.got - 2010.06.03 11:33:40.
