data_PCOD9063054
_publ_section_title
;
Structure prediction by ZEFSAII (Michael W. Deem and Ramdas Pophale) SiO2 
 PCOD9063054
Probable space group: P -1
;
_chemical_formula_sum "Si O2"
_cell_formula_units_Z 16
_cell_length_a 20.641877
_cell_length_b 8.740071
_cell_length_c 6.231987
_cell_angle_alpha 61.544229
_cell_angle_beta 129.934379
_cell_angle_gamma 118.820253
_cell_volume 731.603204
_symmetry_space_group_name_H-M "P -1"
_symmetry_group_IT_number 2
_symmetry_cell_setting 'triclinic'
loop_
_space_group_symop_operation_xyz
x,y,z
-x,-y,-z
loop_
_atom_site_type_symbol
_atom_site_label
_atom_site_fract_x
_atom_site_fract_y
_atom_site_fract_z
Si Si1 0.653974 0.431801 0.752571
Si Si2 0.191712 0.910195 0.346311
Si Si3 0.539342 0.037995 0.808035
Si Si4 0.324724 0.206577 0.704631
Si Si5 0.209000 0.676168 0.188267
Si Si6 0.228215 0.369999 0.743305
Si Si7 0.069571 0.687842 0.551173
Si Si8 0.058459 0.098068 0.751567
O O1 0.574983 0.256506 0.741785
O O2 0.638664 0.599129 0.466490
O O3 0.721337 0.345490 0.823504
O O4 0.701939 0.518051 0.013989
O O5 0.241894 0.846161 0.300965
O O6 0.150030 0.740642 0.522405
O O7 0.250830 0.078619 0.484055
O O8 0.107201 0.963913 0.047495
O O9 0.500000 0.000000 0.500000
O O10 0.500000 0.000000 0.000000
O O11 0.606954 0.911536 0.034762
O O12 0.276191 0.245473 0.791052
O O13 0.197757 0.499087 0.424843
O O14 0.119130 0.690635 0.880342
O O15 0.140610 0.259380 0.746370
O O16 0.000000 0.500000 0.500000
O O17 0.010448 0.827123 0.312641
O O18 0.000000 0.000000 0.500000
#
# Coordination Sequence:
#
# PCOD9063054 Si02
#       8
#     2   2   2   2   2   2   2   2
#     4  11  26  50  79 110 152 198 258 302 381 477
#     4  12  25  44  69  99 142 200 256 310 385 456
#     4  12  32  53  85 126 162 196 247 317 402 478
#     4  11  27  48  83 107 151 201 250 316 374 481
#     4  11  24  43  69  98 138 197 253 308 372 454
#     4  11  25  46  72 104 140 200 259 302 377 451
#     4  12  26  39  60  95 143 194 251 324 387 432
#     4  12  24  40  63 100 144 192 253 323 375 433
#
# _framework density 21.869779000000001
#
# number of rings (size 3 to 8) (size 9 to 14) (size 15 to 20)
#    0.000    0.500    2.500    4.875   12.250    2.000 
#    0.000    0.000    0.000    0.000    0.000    0.000 
#    0.000    0.000    0.000    0.000    0.000    0.000 
#
# Total GULP energy -89293.054997 kJ/mol
# GULP energy per Si atom -5580.815937 kJ/mol
# Density = 2.182000 g / cm^3
# Si number density = 21.869779 Si / 1000 Ang^3
#
#
#
# Elastic Constant Matrix: (Units=GPa)
#
#
# Indices 1 2 3 4 5 6 
#
# 1 85.2182 32.6342 32.8107 6.1662 -9.4349 -29.7761
# 2 32.6342 121.9919 24.1311 25.2827 -15.4701 -2.8737
# 3 32.8107 24.1311 117.7428 6.4055 3.9819 -4.2616
# 4 6.1662 25.2827 6.4055 41.7040 -11.1877 -6.7690
# 5 -9.4349 -15.4701 3.9819 -11.1877 30.0918 -9.5978
# 6 -29.7761 -2.8737 -4.2616 -6.7690 -9.5978 51.7402
#
#
#
# Elastic Compliance Matrix: (Units=1/GPa)
#
#
# Indices 1 2 3 4 5 6 
#
# 1 0.021339 -0.003949 -0.005328 0.005688 0.012143 0.014619
# 2 -0.003949 0.010776 -0.000929 -0.005739 0.001587 -0.002207
# 3 -0.005328 -0.000929 0.010350 -0.002302 -0.005519 -0.003590
# 4 0.005688 -0.005739 -0.002302 0.032355 0.014241 0.009640
# 5 0.012143 0.001587 -0.005519 0.014241 0.049516 0.017670
# 6 0.014619 -0.002207 -0.003590 0.009640 0.017670 0.031861
#
#
# Mechanical properties :
#
#
# Convention : Reuss Voigt Hill
#
# Bulk Modulus (GPa) = 45.34652 56.01166 50.67909
# Shear Modulus (GPa) = 27.17961 40.39900 33.78931
#
# Velocity S-wave (km/s) = 3.52915 4.30263 3.93494
# Velocity P-wave (km/s) = 6.11444 7.09581 6.62333
#
# Compressibility (1/GPa) = 0.02205241
#
# Stress axis : x y z
#
# Youngs Moduli (GPa) = 46.86233 92.79727 96.61622
#
# Poissons Ratio (x) = 0.36646 0.51478
# Poissons Ratio (y) = 0.18506 0.08980
# Poissons Ratio (z) = 0.24968 0.08625
#
# Static dielectric constant tensor:
#      x y z
#    x 1.835680 0.066110 -0.103530 
#    y 0.066110 1.855850 -0.074240 
#    z -0.103530 -0.074240 1.846910 
# 
# From -- ./inp_files/116769.got.cif
#   From: 2010.05.17/outbox.cif.g08.bks.cpg/sg2_59_cif.got.tgz:116769.got - 2010.06.03 11:33:40.
