data_PCOD9063060
_publ_section_title
;
Structure prediction by ZEFSAII (Michael W. Deem and Ramdas Pophale) SiO2 
 PCOD9063060
Probable space group: P -1
;
_chemical_formula_sum "Si O2"
_cell_formula_units_Z 14
_cell_length_a 6.090731
_cell_length_b 13.085878
_cell_length_c 8.508721
_cell_angle_alpha 102.445305
_cell_angle_beta 86.201614
_cell_angle_gamma 85.064359
_cell_volume 657.265492
_symmetry_space_group_name_H-M "P -1"
_symmetry_group_IT_number 2
_symmetry_cell_setting 'triclinic'
loop_
_space_group_symop_operation_xyz
x,y,z
-x,-y,-z
loop_
_atom_site_type_symbol
_atom_site_label
_atom_site_fract_x
_atom_site_fract_y
_atom_site_fract_z
Si Si1 0.845488 0.241851 0.020380
Si Si2 0.761655 0.460479 0.930807
Si Si3 0.275682 0.491247 0.419019
Si Si4 0.968070 0.689291 0.637050
Si Si5 0.084223 0.057897 0.743929
Si Si6 0.209436 0.103484 0.427478
Si Si7 0.574136 0.089427 0.141248
O O1 0.971259 0.277043 0.180659
O O2 0.630680 0.189478 0.073527
O O3 0.785452 0.340334 0.944883
O O4 0.997486 0.153686 0.889223
O O5 0.760639 0.478914 0.751110
O O6 0.500000 0.500000 0.000000
O O7 0.000000 0.500000 0.000000
O O8 0.500000 0.500000 0.500000
O O9 0.122166 0.584335 0.545778
O O10 0.256129 0.365640 0.383683
O O11 0.959878 0.792017 0.562037
O O12 0.242911 0.092824 0.609147
O O13 0.201969 0.964676 0.811016
O O14 0.883824 0.005324 0.654786
O O15 0.407274 0.115329 0.301382
O O16 0.500000 0.000000 0.000000
#
# Coordination Sequence:
#
# PCOD9063060 Si02
#       7
#     2   2   2   2   2   2   2
#     4  12  24  47  73 105 146 197 243 312 383 452
#     4  12  28  50  78 113 152 199 259 322 383 461
#     4  11  26  48  72 104 144 194 255 315 382 454
#     4  11  24  44  73  97 142 189 243 306 385 448
#     4  11  24  45  67 102 144 182 239 302 364 448
#     4  11  24  43  70 100 141 185 238 300 369 445
#     4  12  24  42  69 104 142 190 242 298 367 452
#
# _framework density 21.300376
#
# number of rings (size 3 to 8) (size 9 to 14) (size 15 to 20)
#    0.000    0.571    4.286    3.429    6.000    1.143 
#    2.571    0.000    0.000    0.000    0.000    0.000 
#    0.000    0.000    0.000    0.000    0.000    0.000 
#
# Total GULP energy -78049.853840 kJ/mol
# GULP energy per Si atom -5574.989560 kJ/mol
# Density = 2.125190 g / cm^3
# Si number density = 21.300376 Si / 1000 Ang^3
#
#
#
# Elastic Constant Matrix: (Units=GPa)
#
#
# Indices 1 2 3 4 5 6 
#
# 1 66.6802 15.2378 30.7633 16.3921 2.2752 18.3643
# 2 15.2378 121.9750 27.8210 9.0729 -3.6040 14.2175
# 3 30.7633 27.8210 119.5483 17.2713 -0.3717 19.6418
# 4 16.3921 9.0729 17.2713 41.0411 -3.1366 -0.4266
# 5 2.2752 -3.6040 -0.3717 -3.1366 43.3528 2.8087
# 6 18.3643 14.2175 19.6418 -0.4266 2.8087 37.7681
#
#
#
# Elastic Compliance Matrix: (Units=1/GPa)
#
#
# Indices 1 2 3 4 5 6 
#
# 1 0.020449 -0.000459 -0.002769 -0.007072 -0.001107 -0.008328
# 2 -0.000459 0.008977 -0.001385 -0.001180 0.000836 -0.002511
# 3 -0.002769 -0.001385 0.010425 -0.003002 0.000135 -0.003598
# 4 -0.007072 -0.001180 -0.003002 0.028924 0.001976 0.005624
# 5 -0.001107 0.000836 0.000135 0.001976 0.023440 -0.001568
# 6 -0.008328 -0.002511 -0.003598 0.005624 -0.001568 0.033523
#
#
# Mechanical properties :
#
#
# Convention : Reuss Voigt Hill
#
# Bulk Modulus (GPa) = 32.65322 50.64974 41.65148
# Shear Modulus (GPa) = 34.44174 40.05783 37.24978
#
# Velocity S-wave (km/s) = 4.02550 4.34131 4.18638
# Velocity P-wave (km/s) = 6.08024 6.99712 6.55473
#
# Compressibility (1/GPa) = 0.03062485
#
# Stress axis : x y z
#
# Youngs Moduli (GPa) = 48.90180 111.39689 95.92376
#
# Poissons Ratio (x) = 0.05114 0.26559
# Poissons Ratio (y) = 0.02245 0.13288
# Poissons Ratio (z) = 0.13540 0.15431
#
# Static dielectric constant tensor:
#      x y z
#    x 1.970770 0.035320 -0.058760 
#    y 0.035320 1.724900 0.000580 
#    z -0.058760 0.000580 1.769890 
# 
# From -- ./inp_files/35498.got.cif
#   From: 2010.05.17/outbox.cif.g08.bks.cpg/sg2_18_cif.got.tgz:35498.got - 2010.06.03 11:33:40.
