data_PCOD9063111
_publ_section_title
;
Structure prediction by ZEFSAII (Michael W. Deem and Ramdas Pophale) SiO2 
 PCOD9063111
Probable space group: P -1
;
_chemical_formula_sum "Si O2"
_cell_formula_units_Z 16
_cell_length_a 9.847457
_cell_length_b 27.070771
_cell_length_c 9.205916
_cell_angle_alpha 37.688961
_cell_angle_beta 66.505244
_cell_angle_gamma 36.265174
_cell_volume 665.239029
_symmetry_space_group_name_H-M "P -1"
_symmetry_group_IT_number 2
_symmetry_cell_setting 'triclinic'
loop_
_space_group_symop_operation_xyz
x,y,z
-x,-y,-z
loop_
_atom_site_type_symbol
_atom_site_label
_atom_site_fract_x
_atom_site_fract_y
_atom_site_fract_z
Si Si1 0.129244 0.499802 0.261575
Si Si2 0.237546 0.090525 0.798701
Si Si3 0.564933 0.395399 0.480762
Si Si4 0.253418 0.463450 0.709312
Si Si5 0.090854 0.030681 0.792233
Si Si6 0.281695 0.901867 0.691351
Si Si7 0.459312 0.415740 0.051797
Si Si8 0.353980 0.132416 0.373455
O O1 0.436059 0.376649 0.502739
O O2 0.209523 0.495295 0.079293
O O3 0.055041 0.439385 0.427876
O O4 0.876136 0.685166 0.003769
O O5 0.190527 0.171086 0.491787
O O6 0.932505 0.220756 0.720808
O O7 0.300728 0.981102 0.930036
O O8 0.500000 0.000000 0.000000
O O9 0.384719 0.471999 0.531000
O O10 0.484042 0.514848 0.147158
O O11 0.465129 0.284070 0.019424
O O12 0.316279 0.462874 0.846001
O O13 0.785473 0.223357 0.413701
O O14 0.244240 0.930922 0.810327
O O15 0.000000 0.000000 0.000000
O O16 0.361608 0.953117 0.484036
O O17 0.000000 0.000000 0.500000
O O18 0.500000 0.000000 0.500000
#
# Coordination Sequence:
#
# PCOD9063111 Si02
#       8
#     2   2   2   2   2   2   2   2
#     4  11  24  46  75 104 148 195 249 300 369 443
#     4  12  27  47  72 107 147 190 250 309 369 445
#     4  12  25  49  74 107 147 194 244 310 371 437
#     4  11  26  45  72 111 146 195 246 303 366 442
#     4  12  26  46  74 107 144 200 244 303 377 439
#     4  11  24  43  71 100 146 191 241 299 365 436
#     4  12  24  47  77 105 151 194 246 304 370 440
#     4  11  24  46  72 105 143 196 245 300 372 437
#
# _framework density 24.051503
#
# number of rings (size 3 to 8) (size 9 to 14) (size 15 to 20)
#    0.000    0.500    5.000    3.000    3.500    0.000 
#    4.500    0.000    0.000    0.000    0.000    0.000 
#    0.000    0.000    0.000    0.000    0.000    0.000 
#
# Total GULP energy -89219.185661 kJ/mol
# GULP energy per Si atom -5576.199104 kJ/mol
# Density = 2.399676 g / cm^3
# Si number density = 24.051503 Si / 1000 Ang^3
#
#
#
# Elastic Constant Matrix: (Units=GPa)
#
#
# Indices 1 2 3 4 5 6 
#
# 1 174.4359 34.4447 34.3808 7.6294 27.5907 -26.8966
# 2 34.4447 119.2037 22.2093 27.7403 11.1818 -11.5304
# 3 34.3808 22.2093 61.4150 7.9954 10.0875 -5.6985
# 4 7.6294 27.7403 7.9954 42.4059 -4.1607 -2.0647
# 5 27.5907 11.1818 10.0875 -4.1607 39.0296 4.9525
# 6 -26.8966 -11.5304 -5.6985 -2.0647 4.9525 38.3835
#
#
#
# Elastic Compliance Matrix: (Units=1/GPa)
#
#
# Indices 1 2 3 4 5 6 
#
# 1 0.008262 -0.000542 -0.002813 -0.000883 -0.005802 0.005910
# 2 -0.000542 0.011129 -0.002001 -0.007005 -0.003381 0.002726
# 3 -0.002813 -0.002001 0.019350 -0.002074 -0.002729 0.000541
# 4 -0.000883 -0.007005 -0.002074 0.029247 0.006578 -0.002307
# 5 -0.005802 -0.003381 -0.002729 0.006578 0.033295 -0.009429
# 6 0.005910 0.002726 0.000541 -0.002307 -0.009429 0.032186
#
#
# Mechanical properties :
#
#
# Convention : Reuss Voigt Hill
#
# Bulk Modulus (GPa) = 35.67706 59.68044 47.67875
# Shear Modulus (GPa) = 32.56842 41.56512 37.06677
#
# Velocity S-wave (km/s) = 3.68382 4.16164 3.93000
# Velocity P-wave (km/s) = 5.74107 6.92530 6.36080
#
# Compressibility (1/GPa) = 0.02802922
#
# Stress axis : x y z
#
# Youngs Moduli (GPa) = 121.03873 89.85316 51.68090
#
# Poissons Ratio (x) = 0.04868 0.14536
# Poissons Ratio (y) = 0.06557 0.10342
# Poissons Ratio (z) = 0.34045 0.17982
#
# Static dielectric constant tensor:
#      x y z
#    x 3.790330 0.089230 0.784570 
#    y 0.089230 2.093590 0.009980 
#    z 0.784570 0.009980 2.340420 
# 
# From -- ./inp_files/227707.got.cif
#   From: 2010.05.17/outbox.cif.g08.bks.cpg/sg2_114_cif.got.tgz:227707.got - 2010.06.03 11:33:40.
