data_PCOD9063366
_publ_section_title
;
Structure prediction by ZEFSAII (Michael W. Deem and Ramdas Pophale) SiO2 
 PCOD9063366
Probable space group: P -1
;
_chemical_formula_sum "Si O2"
_cell_formula_units_Z 16
_cell_length_a 9.466634
_cell_length_b 11.046658
_cell_length_c 16.320393
_cell_angle_alpha 52.159453
_cell_angle_beta 56.718659
_cell_angle_gamma 31.095195
_cell_volume 694.945620
_symmetry_space_group_name_H-M "P -1"
_symmetry_group_IT_number 2
_symmetry_cell_setting 'triclinic'
loop_
_space_group_symop_operation_xyz
x,y,z
-x,-y,-z
loop_
_atom_site_type_symbol
_atom_site_label
_atom_site_fract_x
_atom_site_fract_y
_atom_site_fract_z
Si Si1 0.722433 0.516105 0.080355
Si Si2 0.220460 0.231176 0.946591
Si Si3 0.733777 0.299415 0.438719
Si Si4 0.685532 0.212951 0.039716
Si Si5 0.909656 0.671560 0.385123
Si Si6 0.426124 0.467982 0.300649
Si Si7 0.509593 0.830230 0.734738
Si Si8 0.083730 0.482580 0.731306
O O1 0.847842 0.548660 0.089873
O O2 0.566611 0.505869 0.191093
O O3 0.486564 0.738798 0.000139
O O4 0.980185 0.292516 0.031576
O O5 0.240362 0.250181 0.835980
O O6 0.500000 0.000000 0.000000
O O7 0.500000 0.500000 0.500000
O O8 0.579270 0.341315 0.390833
O O9 0.830924 0.402093 0.341054
O O10 0.000000 0.000000 0.500000
O O11 0.690099 0.107722 0.163090
O O12 0.500000 0.500000 0.000000
O O13 0.000000 0.000000 0.000000
O O14 0.097722 0.691131 0.325776
O O15 0.000000 0.500000 0.500000
O O16 0.920693 0.573176 0.337134
O O17 0.597217 0.944970 0.370696
O O18 0.449318 0.315565 0.291437
O O19 0.766486 0.687420 0.768628
#
# Coordination Sequence:
#
# PCOD9063366 Si02
#       8
#     2   2   2   2   2   2   2   2
#     4  11  24  44  66 107 147 191 252 305 380 453
#     4  11  26  43  70 103 154 203 245 315 382 464
#     4  12  30  52  80 109 150 200 258 323 383 449
#     4  12  26  44  73 108 151 197 248 305 374 452
#     4  11  27  46  73 106 149 200 257 319 386 447
#     4  11  25  47  73 109 148 191 261 311 381 454
#     4  11  26  44  76 107 153 201 252 315 383 457
#     4  11  26  48  72 110 148 199 259 310 390 459
#
# _framework density 23.023382999999999
#
# number of rings (size 3 to 8) (size 9 to 14) (size 15 to 20)
#    0.000    0.750    3.750    1.500   12.250    3.000 
#    0.000    0.000    0.000    0.000    0.000    0.000 
#    0.000    0.000    0.000    0.000    0.000    0.000 
#
# Total GULP energy -89218.412938 kJ/mol
# GULP energy per Si atom -5576.150809 kJ/mol
# Density = 2.297098 g / cm^3
# Si number density = 23.023383 Si / 1000 Ang^3
#
#
#
# Elastic Constant Matrix: (Units=GPa)
#
#
# Indices 1 2 3 4 5 6 
#
# 1 100.8742 18.8445 29.8525 3.2443 17.8173 -17.2044
# 2 18.8445 87.2830 42.9320 0.1230 5.9909 -25.5151
# 3 29.8525 42.9320 153.7065 -9.1844 26.2659 -15.8582
# 4 3.2443 0.1230 -9.1844 37.6920 -8.0093 6.3056
# 5 17.8173 5.9909 26.2659 -8.0093 49.9694 -2.6181
# 6 -17.2044 -25.5151 -15.8582 6.3056 -2.6181 32.3480
#
#
#
# Elastic Compliance Matrix: (Units=1/GPa)
#
#
# Indices 1 2 3 4 5 6 
#
# 1 0.012115 0.000094 -0.001272 -0.003210 -0.003851 0.006207
# 2 0.000094 0.016753 -0.003634 -0.002961 0.000026 0.012061
# 3 -0.001272 -0.003634 0.008423 0.001467 -0.003301 0.000033
# 4 -0.003210 -0.002961 0.001467 0.029700 0.005033 -0.008705
# 5 -0.003851 0.000026 -0.003301 0.005033 0.023783 -0.002703
# 6 0.006207 0.012061 0.000033 -0.008705 -0.002703 0.045223
#
#
# Mechanical properties :
#
#
# Convention : Reuss Voigt Hill
#
# Bulk Modulus (GPa) = 36.14728 58.34687 47.24707
# Shear Modulus (GPa) = 32.29066 40.68421 36.48744
#
# Velocity S-wave (km/s) = 3.74908 4.20823 3.98527
# Velocity P-wave (km/s) = 5.87155 7.00069 6.46084
#
# Compressibility (1/GPa) = 0.02766460
#
# Stress axis : x y z
#
# Youngs Moduli (GPa) = 82.54562 59.69228 118.71806
#
# Poissons Ratio (x) = -0.00559 0.15104
# Poissons Ratio (y) = -0.00773 0.43146
# Poissons Ratio (z) = 0.10502 0.21694
#
# Static dielectric constant tensor:
#      x y z
#    x 1.892110 0.006840 -0.045870 
#    y 0.006840 2.042860 -0.016590 
#    z -0.045870 -0.016590 1.816700 
# 
# From -- ./inp_files/442245.got.cif
#   From: 2010.05.17/outbox.cif.g08.bks.cpg/sg2_222_cif.got.tgz:442245.got - 2010.06.03 11:33:40.
