data_PCOD9063406
_publ_section_title
;
Structure prediction by ZEFSAII (Michael W. Deem and Ramdas Pophale) SiO2 
 PCOD9063406
Probable space group: P -1
;
_chemical_formula_sum "Si O2"
_cell_formula_units_Z 14
_cell_length_a 5.384653
_cell_length_b 23.711985
_cell_length_c 6.030853
_cell_angle_alpha 58.702790
_cell_angle_beta 103.029588
_cell_angle_gamma 117.280425
_cell_volume 584.708539
_symmetry_space_group_name_H-M "P -1"
_symmetry_group_IT_number 2
_symmetry_cell_setting 'triclinic'
loop_
_space_group_symop_operation_xyz
x,y,z
-x,-y,-z
loop_
_atom_site_type_symbol
_atom_site_label
_atom_site_fract_x
_atom_site_fract_y
_atom_site_fract_z
Si Si1 0.248899 0.783595 0.536410
Si Si2 0.315770 0.416398 0.089378
Si Si3 0.210820 0.962477 0.889239
Si Si4 0.217896 0.108377 0.661389
Si Si5 0.242494 0.298481 0.664024
Si Si6 0.100728 0.830808 0.830785
Si Si7 0.319587 0.648294 0.994675
O O1 0.465482 0.842950 0.300331
O O2 0.301507 0.823274 0.700751
O O3 0.923104 0.755619 0.460287
O O4 0.313945 0.713630 0.711050
O O5 0.265486 0.372971 0.403058
O O6 0.500000 0.500000 0.000000
O O7 0.489228 0.386013 0.021270
O O8 0.011352 0.402923 0.955289
O O9 0.225187 0.907229 0.824390
O O10 0.164164 0.033999 0.674667
O O11 0.975810 0.915769 0.113166
O O12 0.500000 0.000000 0.000000
O O13 0.141746 0.158621 0.377819
O O14 0.538826 0.320814 0.801332
O O15 0.030348 0.246965 0.913865
#
# Coordination Sequence:
#
# PCOD9063406 Si02
#       7
#     2   2   2   2   2   2   2
#     4  11  26  45  72 107 149 191 261 313 380 448
#     4  11  27  49  77 117 157 199 254 308 368 457
#     4  11  26  45  67  99 142 197 247 311 397 447
#     4  11  24  44  68 100 140 193 253 315 380 458
#     4  11  24  45  75 106 149 199 245 308 378 441
#     4  12  24  44  68 103 142 196 251 321 375 455
#     4  11  25  48  77 112 153 202 252 308 376 450
#
# _framework density 23.943555
#
# number of rings (size 3 to 8) (size 9 to 14) (size 15 to 20)
#    0.000    0.857    1.429    5.143    2.000   11.429 
#    2.571    0.000    0.000    0.000    0.000    0.000 
#    0.000    0.000    0.000    0.000    0.000    0.000 
#
# Total GULP energy -78096.542178 kJ/mol
# GULP energy per Si atom -5578.324441 kJ/mol
# Density = 2.388906 g / cm^3
# Si number density = 23.943555 Si / 1000 Ang^3
#
#
#
# Elastic Constant Matrix: (Units=GPa)
#
#
# Indices 1 2 3 4 5 6 
#
# 1 129.2859 89.3641 25.3379 2.4856 -8.4174 9.3905
# 2 89.3641 182.9279 43.4962 -9.1743 -11.0491 23.7762
# 3 25.3379 43.4962 86.0896 -16.3288 6.4654 9.5207
# 4 2.4856 -9.1743 -16.3288 36.4702 12.0953 -2.7066
# 5 -8.4174 -11.0491 6.4654 12.0953 29.7970 -1.3456
# 6 9.3905 23.7762 9.5207 -2.7066 -1.3456 52.3508
#
#
#
# Elastic Compliance Matrix: (Units=1/GPa)
#
#
# Indices 1 2 3 4 5 6 
#
# 1 0.012253 -0.005605 -0.001905 -0.004230 0.003539 0.000566
# 2 -0.005605 0.009389 -0.002861 0.000543 0.002179 -0.002654
# 3 -0.001905 -0.002861 0.016243 0.009614 -0.009073 -0.001049
# 4 -0.004230 0.000543 0.009614 0.038349 -0.018634 0.000267
# 5 0.003539 0.002179 -0.009073 -0.018634 0.044910 0.000217
# 6 0.000566 -0.002654 -0.001049 0.000267 0.000217 0.020416
#
#
# Mechanical properties :
#
#
# Convention : Reuss Voigt Hill
#
# Bulk Modulus (GPa) = 58.33379 79.41109 68.87244
# Shear Modulus (GPa) = 29.75906 39.73061 34.74484
#
# Velocity S-wave (km/s) = 3.52928 4.07792 3.81348
# Velocity P-wave (km/s) = 6.40497 7.44383 6.94386
#
# Compressibility (1/GPa) = 0.01714272
#
# Stress axis : x y z
#
# Youngs Moduli (GPa) = 81.61377 106.50973 61.56503
#
# Poissons Ratio (x) = 0.59696 0.11729
# Poissons Ratio (y) = 0.45743 0.17614
# Poissons Ratio (z) = 0.15548 0.30473
#
# Static dielectric constant tensor:
#      x y z
#    x 1.640180 0.166120 0.002580 
#    y 0.166120 1.810770 0.049600 
#    z 0.002580 0.049600 1.963650 
# 
# From -- ./inp_files/12839.got.cif
#   From: 2010.05.17/outbox.cif.g08.bks.cpg/sg2_7_cif.got.tgz:12839.got - 2010.06.03 11:33:40.
