data_PCOD9063245
_publ_section_title
;
Structure prediction by ZEFSAII (Michael W. Deem and Ramdas Pophale) SiO2 
 PCOD9063245
Probable space group: P -1
;
_chemical_formula_sum "Si O2"
_cell_formula_units_Z 14
_cell_length_a 11.259247
_cell_length_b 19.641208
_cell_length_c 13.378300
_cell_angle_alpha 23.694823
_cell_angle_beta 136.081436
_cell_angle_gamma 148.773451
_cell_volume 587.787052
_symmetry_space_group_name_H-M "P -1"
_symmetry_group_IT_number 2
_symmetry_cell_setting 'triclinic'
loop_
_space_group_symop_operation_xyz
x,y,z
-x,-y,-z
loop_
_atom_site_type_symbol
_atom_site_label
_atom_site_fract_x
_atom_site_fract_y
_atom_site_fract_z
Si Si1 0.344204 0.431909 0.154442
Si Si2 0.342972 0.086843 0.517185
Si Si3 0.746038 0.912025 0.978224
Si Si4 0.783867 0.937641 0.746140
Si Si5 0.952315 0.420310 0.888254
Si Si6 0.126298 0.641474 0.487223
Si Si7 0.256451 0.399263 0.375432
O O1 0.261998 0.218593 0.324074
O O2 0.274873 0.359725 0.324322
O O3 0.630321 0.659625 0.015608
O O4 0.211984 0.515400 0.934719
O O5 0.275011 0.008193 0.466083
O O6 0.626105 0.283090 0.443281
O O7 0.224550 0.858569 0.819763
O O8 0.688310 0.940005 0.791691
O O9 0.788094 0.105333 0.808980
O O10 0.530868 0.638457 0.247064
O O11 0.000000 0.000000 0.000000
O O12 0.072665 0.132712 0.665798
O O13 0.883207 0.524092 0.781828
O O14 0.954869 0.494615 0.677349
O O15 0.000000 0.500000 0.500000
#
# Coordination Sequence:
#
# PCOD9063245 Si02
#       7
#     2   2   2   2   2   2   2
#     4  11  25  40  72 113 147 188 228 299 364 424
#     4  12  26  46  72 112 148 186 242 298 365 426
#     4  11  27  50  70 105 146 193 244 296 358 433
#     4  11  24  43  78 105 144 188 240 300 359 421
#     4  12  24  45  72 105 146 184 239 297 363 424
#     4  12  29  48  72 102 147 194 240 297 364 432
#     4  11  24  43  73 107 140 184 242 297 356 426
#
# _framework density 23.818149999999999
#
# number of rings (size 3 to 8) (size 9 to 14) (size 15 to 20)
#    0.000    0.571    5.714    1.286    4.000    2.286 
#    0.000    0.000    0.000    0.000    0.000    0.000 
#    0.000    0.000    0.000    0.000    0.000    0.000 
#
# Total GULP energy -78222.954648 kJ/mol
# GULP energy per Si atom -5587.353903 kJ/mol
# Density = 2.376394 g / cm^3
# Si number density = 23.818150 Si / 1000 Ang^3
#
#
#
# Elastic Constant Matrix: (Units=GPa)
#
#
# Indices 1 2 3 4 5 6 
#
# 1 103.3113 57.3314 55.3950 -12.4640 -10.1431 -0.7449
# 2 57.3314 129.1927 31.6684 -27.3691 -4.4490 -2.9891
# 3 55.3950 31.6684 91.0820 -24.1375 -29.3864 -0.5446
# 4 -12.4640 -27.3691 -24.1375 37.9683 8.9046 -1.9340
# 5 -10.1431 -4.4490 -29.3864 8.9046 61.0857 -0.6886
# 6 -0.7449 -2.9891 -0.5446 -1.9340 -0.6886 47.5547
#
#
#
# Elastic Compliance Matrix: (Units=1/GPa)
#
#
# Indices 1 2 3 4 5 6 
#
# 1 0.018401 -0.006695 -0.010880 -0.005281 -0.001902 -0.000499
# 2 -0.006695 0.011902 0.001827 0.007704 -0.000478 0.000971
# 3 -0.010880 0.001827 0.022036 0.010038 0.007472 0.000713
# 4 -0.005281 0.007704 0.010038 0.036837 -0.000834 0.002003
# 5 -0.001902 -0.000478 0.007472 -0.000834 0.019739 0.000278
# 6 -0.000499 0.000971 0.000713 0.002003 0.000278 0.021175
#
#
# Mechanical properties :
#
#
# Convention : Reuss Voigt Hill
#
# Bulk Modulus (GPa) = 47.97654 68.04174 58.00914
# Shear Modulus (GPa) = 29.66796 41.26781 35.46789
#
# Velocity S-wave (km/s) = 3.53314 4.16699 3.86309
# Velocity P-wave (km/s) = 6.06883 7.19590 6.65626
#
# Compressibility (1/GPa) = 0.02084352
#
# Stress axis : x y z
#
# Youngs Moduli (GPa) = 54.34591 84.02258 45.38027
#
# Poissons Ratio (x) = 0.56250 0.49372
# Poissons Ratio (y) = 0.36382 -0.08290
# Poissons Ratio (z) = 0.59126 -0.15349
#
# Static dielectric constant tensor:
#      x y z
#    x 1.942690 0.047360 -0.008990 
#    y 0.047360 1.971910 0.058950 
#    z -0.008990 0.058950 1.944920 
# 
# From -- ./inp_files/524016.got.cif
#   From: 2010.05.17/outbox.cif.g08.bks.cpg/sg2_263_cif.got.tgz:524016.got - 2010.06.03 11:33:40.
