data_PCOD9063454
_publ_section_title
;
Structure prediction by ZEFSAII (Michael W. Deem and Ramdas Pophale) SiO2 
 PCOD9063454
Probable space group: P -1
;
_chemical_formula_sum "Si O2"
_cell_formula_units_Z 16
_cell_length_a 16.351490
_cell_length_b 7.254217
_cell_length_c 6.886627
_cell_angle_alpha 95.726662
_cell_angle_beta 76.857554
_cell_angle_gamma 48.434569
_cell_volume 558.851074
_symmetry_space_group_name_H-M "P -1"
_symmetry_group_IT_number 2
_symmetry_cell_setting 'triclinic'
loop_
_space_group_symop_operation_xyz
x,y,z
-x,-y,-z
loop_
_atom_site_type_symbol
_atom_site_label
_atom_site_fract_x
_atom_site_fract_y
_atom_site_fract_z
Si Si1 0.779380 0.524147 0.909476
Si Si2 0.468196 0.072786 0.797732
Si Si3 0.285693 0.309196 0.490524
Si Si4 0.278222 0.899542 0.395576
Si Si5 0.470315 0.501208 0.734659
Si Si6 0.035864 0.662155 0.735031
Si Si7 0.213241 0.915266 0.032568
Si Si8 0.038077 0.216683 0.648823
O O1 0.748195 0.610129 0.709709
O O2 0.774661 0.313364 0.927340
O O3 0.916787 0.365363 0.846144
O O4 0.668969 0.779521 0.122356
O O5 0.466574 0.293823 0.778317
O O6 0.580480 0.816218 0.586806
O O7 0.500000 0.000000 0.000000
O O8 0.164286 0.552451 0.694114
O O9 0.300286 0.065829 0.491646
O O10 0.407780 0.611367 0.244095
O O11 0.216481 0.035628 0.236382
O O12 0.177902 0.938371 0.567499
O O13 0.500000 0.500000 0.500000
O O14 0.335313 0.780244 0.853580
O O15 0.051991 0.417068 0.678082
O O16 0.996817 0.792039 0.553947
O O17 0.919852 0.865045 0.954445
#
# Coordination Sequence:
#
# PCOD9063454 Si02
#       8
#     2   2   2   2   2   2   2   2
#     4   9  15  23  40  71  99 121 152 197 242 278
#     4   8  15  28  47  69  89 120 164 196 223 277
#     4   8  14  26  43  66  95 124 156 196 238 278
#     4   9  17  30  48  69  92 124 166 201 231 280
#     4  10  20  33  49  71 100 129 158 200 252 293
#     4   8  14  24  40  65  95 122 154 199 240 272
#     4  10  18  27  45  73  97 120 159 205 239 278
#     4   8  14  25  42  65  95 126 155 193 238 281
#
# _framework density 28.630168999999999
#
# number of rings (size 3 to 8) (size 9 to 14) (size 15 to 20)
#    0.000    3.250    0.000    2.625    0.000    4.500 
#    0.000    1.250    0.000    9.750    0.000   87.500 
#    0.000    0.000    0.000    0.000    0.000    4.000 
#
# Total GULP energy -89347.441781 kJ/mol
# GULP energy per Si atom -5584.215111 kJ/mol
# Density = 2.856501 g / cm^3
# Si number density = 28.630169 Si / 1000 Ang^3
#
#
#
# Elastic Constant Matrix: (Units=GPa)
#
#
# Indices 1 2 3 4 5 6 
#
# 1 119.5036 72.7943 67.4938 16.5325 -39.1133 -35.6544
# 2 72.7943 108.5277 51.9006 20.1041 -26.7583 -27.2869
# 3 67.4938 51.9006 217.2943 66.2375 -74.8949 -36.4375
# 4 16.5325 20.1041 66.2375 64.3690 -36.3738 -34.9416
# 5 -39.1133 -26.7583 -74.8949 -36.3738 58.8069 26.7660
# 6 -35.6544 -27.2869 -36.4375 -34.9416 26.7660 82.3627
#
#
#
# Elastic Compliance Matrix: (Units=1/GPa)
#
#
# Indices 1 2 3 4 5 6 
#
# 1 0.018149 -0.009509 -0.002326 0.007150 0.007218 0.004365
# 2 -0.009509 0.016050 -0.000517 -0.002721 -0.001502 0.000306
# 3 -0.002326 -0.000517 0.009516 -0.005736 0.007648 -0.001887
# 4 0.007150 -0.002721 -0.005736 0.032326 0.011878 0.009510
# 5 0.007218 -0.001502 0.007648 0.011878 0.038941 -0.001605
# 6 0.004365 0.000306 -0.001887 0.009510 -0.001605 0.017854
#
#
# Mechanical properties :
#
#
# Convention : Reuss Voigt Hill
#
# Bulk Modulus (GPa) = 52.59617 92.18924 72.39271
# Shear Modulus (GPa) = 30.51083 57.98351 44.24717
#
# Velocity S-wave (km/s) = 3.26803 4.50517 3.93552
# Velocity P-wave (km/s) = 5.71409 7.70273 6.78170
#
# Compressibility (1/GPa) = 0.01901279
#
# Stress axis : x y z
#
# Youngs Moduli (GPa) = 55.09837 62.30544 105.08373
#
# Poissons Ratio (x) = 0.59243 0.24442
# Poissons Ratio (y) = 0.52390 0.05432
# Poissons Ratio (z) = 0.12815 0.03221
#
# Static dielectric constant tensor:
#      x y z
#    x 2.255140 -0.146680 0.006800 
#    y -0.146680 2.315820 0.073860 
#    z 0.006800 0.073860 2.366250 
# 
# From -- ./inp_files/332428.got.cif
#   From: 2010.05.17/outbox.cif.g08.bks.cpg/sg2_167_cif.got.tgz:332428.got - 2010.06.03 11:33:40.
