data_PCOD9063909
_publ_section_title
;
Structure prediction by ZEFSAII (Michael W. Deem and Ramdas Pophale) SiO2 
 PCOD9063909
Probable space group: P -1
;
_chemical_formula_sum "Si O2"
_cell_formula_units_Z 9
_cell_length_a 9.398006
_cell_length_b 7.084350
_cell_length_c 12.965375
_cell_angle_alpha 38.709969
_cell_angle_beta 141.684430
_cell_angle_gamma 130.721783
_cell_volume 332.897187
_symmetry_space_group_name_H-M "P -1"
_symmetry_group_IT_number 2
_symmetry_cell_setting 'triclinic'
loop_
_space_group_symop_operation_xyz
x,y,z
-x,-y,-z
loop_
_atom_site_type_symbol
_atom_site_label
_atom_site_fract_x
_atom_site_fract_y
_atom_site_fract_z
Si Si1 0.500000 0.500000 0.500000
Si Si2 0.607401 0.293953 0.995210
Si Si3 0.897244 0.161659 0.774436
Si Si4 0.722700 0.285112 0.297337
Si Si5 0.869293 0.740569 0.739835
O O1 0.663641 0.292679 0.617555
O O2 0.670974 0.478101 0.711705
O O3 0.604966 0.219684 0.147834
O O4 0.874663 0.353484 0.089915
O O5 0.455274 0.577793 0.784304
O O6 0.500000 0.000000 0.000000
O O7 0.073588 0.448410 0.717550
O O8 0.863821 0.939769 0.753187
O O9 0.000000 0.000000 0.000000
O O10 0.818113 0.976000 0.518284
#
# Coordination Sequence:
#
# PCOD9063909 Si02
#       5
#     1   2   2   2   2
#     4  12  30  48  72 106 160 192 238 302 368 438
#     4  11  24  44  79 111 143 186 248 312 357 426
#     4  12  29  49  72 111 151 191 245 307 368 432
#     4  11  26  48  77 111 141 190 255 298 358 444
#     4  12  27  50  76 109 145 199 246 297 367 436
#
# _framework density 27.035373
#
# number of rings (size 3 to 8) (size 9 to 14) (size 15 to 20)
#    0.000    0.444    4.444    2.000    6.222    2.667 
#    4.000    0.000    0.000    0.000    0.000    0.000 
#    0.000    0.000    0.000    0.000    0.000    0.000 
#
# Total GULP energy -50357.401567 kJ/mol
# GULP energy per Si atom -5595.266841 kJ/mol
# Density = 2.697384 g / cm^3
# Si number density = 27.035373 Si / 1000 Ang^3
#
#
#
# Elastic Constant Matrix: (Units=GPa)
#
#
# Indices 1 2 3 4 5 6 
#
# 1 113.9546 36.1365 18.3515 -11.6932 44.7516 -21.8971
# 2 36.1365 110.7875 -1.6166 18.3473 18.1703 -37.6059
# 3 18.3515 -1.6166 103.3670 -8.6377 34.2113 -0.1441
# 4 -11.6932 18.3473 -8.6377 59.3358 -6.1341 -6.5048
# 5 44.7516 18.1703 34.2113 -6.1341 66.8990 -6.1718
# 6 -21.8971 -37.6059 -0.1441 -6.5048 -6.1718 69.2556
#
#
#
# Elastic Compliance Matrix: (Units=1/GPa)
#
#
# Indices 1 2 3 4 5 6 
#
# 1 0.013487 -0.002790 0.000469 0.003015 -0.008014 0.002319
# 2 -0.002790 0.012810 0.001032 -0.003961 -0.001994 0.005526
# 3 0.000469 0.001032 0.011847 0.000845 -0.006554 0.000229
# 4 0.003015 -0.003961 0.000845 0.018906 0.000417 0.000617
# 5 -0.008014 -0.001994 -0.006554 0.000417 0.024107 -0.001443
# 6 0.002319 0.005526 0.000229 0.000617 -0.001443 0.018103
#
#
# Mechanical properties :
#
#
# Convention : Reuss Voigt Hill
#
# Bulk Modulus (GPa) = 28.11495 48.20578 38.16036
# Shear Modulus (GPa) = 43.97824 57.44728 50.71276
#
# Velocity S-wave (km/s) = 4.03760 4.61466 4.33574
# Velocity P-wave (km/s) = 5.67082 6.80167 6.26183
#
# Compressibility (1/GPa) = 0.03556827
#
# Stress axis : x y z
#
# Youngs Moduli (GPa) = 74.14772 78.06234 84.40723
#
# Poissons Ratio (x) = 0.21778 -0.03962
# Poissons Ratio (y) = 0.20686 -0.08715
# Poissons Ratio (z) = -0.03481 -0.08060
#
# Static dielectric constant tensor:
#      x y z
#    x 2.282310 0.276450 0.012880 
#    y 0.276450 2.247690 0.009450 
#    z 0.012880 0.009450 2.063950 
# 
# From -- ./inp_files/372319.got.cif
#   From: 2010.05.17/outbox.cif.g08.bks.cpg/sg2_187_cif.got.tgz:372319.got - 2010.06.03 11:33:40.
