data_PCOD9063623
_publ_section_title
;
Structure prediction by ZEFSAII (Michael W. Deem and Ramdas Pophale) SiO2 
 PCOD9063623
Probable space group: P -1
;
_chemical_formula_sum "Si O2"
_cell_formula_units_Z 16
_cell_length_a 19.664092
_cell_length_b 9.647354
_cell_length_c 12.508812
_cell_angle_alpha 150.642857
_cell_angle_beta 144.678667
_cell_angle_gamma 47.877034
_cell_volume 665.741618
_symmetry_space_group_name_H-M "P -1"
_symmetry_group_IT_number 2
_symmetry_cell_setting 'triclinic'
loop_
_space_group_symop_operation_xyz
x,y,z
-x,-y,-z
loop_
_atom_site_type_symbol
_atom_site_label
_atom_site_fract_x
_atom_site_fract_y
_atom_site_fract_z
Si Si1 0.949440 0.027622 0.335575
Si Si2 0.245393 0.527060 0.311736
Si Si3 0.955084 0.805639 0.646932
Si Si4 0.177126 0.070204 0.240569
Si Si5 0.243847 0.644739 0.625124
Si Si6 0.510849 0.664402 0.796647
Si Si7 0.692408 0.293801 0.713457
Si Si8 0.503145 0.260309 0.931171
O O1 0.044615 0.087952 0.403282
O O2 0.871167 0.285729 0.414407
O O3 0.852957 0.751163 0.001335
O O4 0.000000 0.000000 0.500000
O O5 0.227304 0.691142 0.509240
O O6 0.386069 0.500319 0.483035
O O7 0.374747 0.432431 0.176044
O O8 0.000000 0.500000 0.500000
O O9 0.844522 0.812367 0.588886
O O10 0.058655 0.015147 0.981681
O O11 0.258504 0.315532 0.445121
O O12 0.226787 0.775327 0.130050
O O13 0.364285 0.820345 0.941094
O O14 0.763645 0.323892 0.713947
O O15 0.522064 0.606779 0.897449
O O16 0.500000 0.000000 0.000000
O O17 0.590558 0.020053 0.395278
O O18 0.500000 0.500000 0.000000
#
# Coordination Sequence:
#
# PCOD9063623 Si02
#       8
#     2   2   2   2   2   2   2   2
#     4  12  28  44  72 104 139 188 241 295 358 413
#     4  11  26  45  70  99 146 182 233 290 352 424
#     4  11  25  48  69  98 142 185 236 298 357 416
#     4  11  25  46  73 101 139 187 235 292 358 418
#     4  11  24  46  70 104 142 183 230 293 355 418
#     4  11  25  46  71 102 145 188 229 285 360 426
#     4  12  26  43  72 106 140 187 236 286 351 432
#     4  11  24  44  71 107 141 182 230 286 354 431
#
# _framework density 24.033348
#
# number of rings (size 3 to 8) (size 9 to 14) (size 15 to 20)
#    0.000    0.750    5.000    1.125    7.000    3.000 
#    0.000    0.000    0.000    0.000    0.000    0.000 
#    0.000    0.000    0.000    0.000    0.000    0.000 
#
# Total GULP energy -89501.045005 kJ/mol
# GULP energy per Si atom -5593.815313 kJ/mol
# Density = 2.397865 g / cm^3
# Si number density = 24.033348 Si / 1000 Ang^3
#
#
#
# Elastic Constant Matrix: (Units=GPa)
#
#
# Indices 1 2 3 4 5 6 
#
# 1 111.0135 39.7304 3.8878 6.8843 -10.7127 23.1516
# 2 39.7304 86.2720 23.9451 3.7614 -9.7715 26.3734
# 3 3.8878 23.9451 69.0591 4.9716 6.1105 14.2275
# 4 6.8843 3.7614 4.9716 40.2536 8.1141 -1.2755
# 5 -10.7127 -9.7715 6.1105 8.1141 26.5577 0.8575
# 6 23.1516 26.3734 14.2275 -1.2755 0.8575 51.5143
#
#
#
# Elastic Compliance Matrix: (Units=1/GPa)
#
#
# Indices 1 2 3 4 5 6 
#
# 1 0.011735 -0.004108 0.001375 -0.002685 0.003845 -0.003681
# 2 -0.004108 0.017539 -0.005100 -0.001848 0.006724 -0.005882
# 3 0.001375 -0.005100 0.017234 -0.000986 -0.004898 -0.002710
# 4 -0.002685 -0.001848 -0.000986 0.027739 -0.010117 0.003280
# 5 0.003845 0.006724 -0.004898 -0.010117 0.046053 -0.004835
# 6 -0.003681 -0.005882 -0.002710 0.003280 -0.004835 0.024988
#
#
# Mechanical properties :
#
#
# Convention : Reuss Voigt Hill
#
# Bulk Modulus (GPa) = 32.42342 44.60791 38.51566
# Shear Modulus (GPa) = 29.19955 36.91722 33.05839
#
# Velocity S-wave (km/s) = 3.48941 3.92354 3.71283
# Velocity P-wave (km/s) = 5.45481 6.25513 5.86863
#
# Compressibility (1/GPa) = 0.03084191
#
# Stress axis : x y z
#
# Youngs Moduli (GPa) = 85.21359 57.01540 58.02502
#
# Poissons Ratio (x) = 0.23423 -0.07980
# Poissons Ratio (y) = 0.35008 0.29594
# Poissons Ratio (z) = -0.11719 0.29079
#
# Static dielectric constant tensor:
#      x y z
#    x 1.944660 -0.043780 -0.003690 
#    y -0.043780 1.954390 -0.002670 
#    z -0.003690 -0.002670 1.901980 
# 
# From -- ./inp_files/470244.got.cif
#   From: 2010.05.17/outbox.cif.g08.bks.cpg/sg2_236_cif.got.tgz:470244.got - 2010.06.03 11:33:40.
