data_PCOD9063614
_publ_section_title
;
Structure prediction by ZEFSAII (Michael W. Deem and Ramdas Pophale) SiO2 
 PCOD9063614
Probable space group: P -1
;
_chemical_formula_sum "Si O2"
_cell_formula_units_Z 14
_cell_length_a 12.100489
_cell_length_b 6.612809
_cell_length_c 7.651256
_cell_angle_alpha 86.778653
_cell_angle_beta 77.489515
_cell_angle_gamma 81.030583
_cell_volume 590.234618
_symmetry_space_group_name_H-M "P -1"
_symmetry_group_IT_number 2
_symmetry_cell_setting 'triclinic'
loop_
_space_group_symop_operation_xyz
x,y,z
-x,-y,-z
loop_
_atom_site_type_symbol
_atom_site_label
_atom_site_fract_x
_atom_site_fract_y
_atom_site_fract_z
Si Si1 0.957161 0.873166 0.859372
Si Si2 0.574346 0.482010 0.230689
Si Si3 0.230883 0.256410 0.827465
Si Si4 0.378392 0.921298 0.571036
Si Si5 0.564176 0.191628 0.935345
Si Si6 0.784452 0.137179 0.673877
Si Si7 0.102267 0.547144 0.586216
O O1 0.054035 0.708663 0.746879
O O2 0.901770 0.013026 0.711693
O O3 0.856128 0.769421 0.986760
O O4 0.000000 0.000000 0.000000
O O5 0.690268 0.575071 0.154417
O O6 0.482271 0.684980 0.229305
O O7 0.596876 0.322557 0.388195
O O8 0.536552 0.335623 0.102744
O O9 0.311689 0.048827 0.748893
O O10 0.161072 0.347293 0.676553
O O11 0.500000 0.000000 0.500000
O O12 0.288985 0.965797 0.439887
O O13 0.699577 0.156495 0.866472
O O14 0.500000 0.000000 0.000000
O O15 0.812029 0.346198 0.569040
O O16 0.000000 0.500000 0.500000
#
# Coordination Sequence:
#
# PCOD9063614 Si02
#       7
#     2   2   2   2   2   2   2
#     4  12  27  48  77 105 150 202 259 316 378 457
#     4  11  24  44  71 105 148 190 252 290 380 461
#     4  12  26  46  75 103 147 198 248 304 385 447
#     4  12  26  45  74 110 154 195 245 311 385 462
#     4  11  25  45  71 110 147 196 242 306 369 471
#     4  12  25  45  74 103 152 187 247 312 381 433
#     4  12  27  47  72 111 145 192 262 319 377 436
#
# _framework density 23.719382
#
# number of rings (size 3 to 8) (size 9 to 14) (size 15 to 20)
#    0.000    0.286    1.429    7.714    6.000    2.286 
#    0.000    0.000    0.000    0.000    0.000    0.000 
#    0.000    0.000    0.000    0.000    0.000    0.000 
#
# Total GULP energy -78326.216780 kJ/mol
# GULP energy per Si atom -5594.729770 kJ/mol
# Density = 2.366540 g / cm^3
# Si number density = 23.719382 Si / 1000 Ang^3
#
#
#
# Elastic Constant Matrix: (Units=GPa)
#
#
# Indices 1 2 3 4 5 6 
#
# 1 96.9167 29.7087 17.4244 -8.4589 13.4621 11.6618
# 2 29.7087 100.8410 36.3653 -10.0650 5.0321 -4.8855
# 3 17.4244 36.3653 103.9111 -18.2322 2.0132 2.9188
# 4 -8.4589 -10.0650 -18.2322 42.2565 3.9197 7.6637
# 5 13.4621 5.0321 2.0132 3.9197 57.2545 -3.9222
# 6 11.6618 -4.8855 2.9188 7.6637 -3.9222 56.1857
#
#
#
# Elastic Compliance Matrix: (Units=1/GPa)
#
#
# Indices 1 2 3 4 5 6 
#
# 1 0.012436 -0.003309 -0.000344 0.002449 -0.003022 -0.003396
# 2 -0.003309 0.012380 -0.003774 0.000318 -0.000068 0.001911
# 3 -0.000344 -0.003774 0.011833 0.004449 -0.000411 -0.001507
# 4 0.002449 0.000318 0.004449 0.027265 -0.002944 -0.004636
# 5 -0.003022 -0.000068 -0.000411 -0.002944 0.018559 0.002340
# 6 -0.003396 0.001911 -0.001507 -0.004636 0.002340 0.019543
#
#
# Mechanical properties :
#
#
# Convention : Reuss Voigt Hill
#
# Bulk Modulus (GPa) = 45.88141 52.07396 48.97768
# Shear Modulus (GPa) = 40.27830 45.68403 42.98116
#
# Velocity S-wave (km/s) = 4.12529 4.39341 4.26146
# Velocity P-wave (km/s) = 6.48661 6.90926 6.70127
#
# Compressibility (1/GPa) = 0.02179532
#
# Stress axis : x y z
#
# Youngs Moduli (GPa) = 80.40859 80.77290 84.50853
#
# Poissons Ratio (x) = 0.26730 0.02904
# Poissons Ratio (y) = 0.26610 0.31897
# Poissons Ratio (z) = 0.02763 0.30487
#
# Static dielectric constant tensor:
#      x y z
#    x 1.901730 -0.063720 0.037490 
#    y -0.063720 1.915460 -0.001710 
#    z 0.037490 -0.001710 1.938130 
# 
# From -- ./inp_files/26747.got.cif
#   From: 2010.05.17/outbox.cif.g08.bks.cpg/sg2_14_cif.got.tgz:26747.got - 2010.06.03 11:33:40.
