data_PCOD9063751
_publ_section_title
;
Structure prediction by ZEFSAII (Michael W. Deem and Ramdas Pophale) SiO2 
 PCOD9063751
Probable space group: P -1
;
_chemical_formula_sum "Si O2"
_cell_formula_units_Z 11
_cell_length_a 11.095600
_cell_length_b 5.322480
_cell_length_c 13.008812
_cell_angle_alpha 116.414026
_cell_angle_beta 34.337856
_cell_angle_gamma 104.770333
_cell_volume 378.382567
_symmetry_space_group_name_H-M "P -1"
_symmetry_group_IT_number 2
_symmetry_cell_setting 'triclinic'
loop_
_space_group_symop_operation_xyz
x,y,z
-x,-y,-z
loop_
_atom_site_type_symbol
_atom_site_label
_atom_site_fract_x
_atom_site_fract_y
_atom_site_fract_z
Si Si1 0.952150 0.666898 0.696577
Si Si2 0.659582 0.450035 0.188049
Si Si3 0.000000 0.000000 0.500000
Si Si4 0.509947 0.045986 0.869641
Si Si5 0.910464 0.414148 0.192388
Si Si6 0.315923 0.941677 0.469523
O O1 0.022276 0.744386 0.776282
O O2 0.098664 0.842690 0.557470
O O3 0.692157 0.752949 0.893586
O O4 0.040547 0.332394 0.556103
O O5 0.764514 0.292769 0.190229
O O6 0.457495 0.713814 0.405833
O O7 0.558809 0.260753 0.143801
O O8 0.865623 0.547722 0.010985
O O9 0.255436 0.912053 0.255366
O O10 0.524460 0.096400 0.746600
O O11 0.770761 0.737008 0.373738
#
# Coordination Sequence:
#
# PCOD9063751 Si02
#       6
#     2   2   1   2   2   2
#     4  12  26  47  71 104 140 181 235 288 341 414
#     4  11  24  44  73 107 143 183 226 281 349 418
#     4  12  26  50  72  98 136 188 238 286 350 394
#     4  12  26  47  71 104 140 181 235 288 341 414
#     4  11  24  44  73 107 143 183 226 281 349 418
#     4  12  23  45  72 100 142 187 225 276 352 408
#
# _framework density 29.071109
#
# number of rings (size 3 to 8) (size 9 to 14) (size 15 to 20)
#    0.000    0.364    7.273    1.091    0.000    5.818 
#    0.000    2.727    0.000    0.000    0.000    0.000 
#    0.000    0.000    0.000    0.000    0.000    0.000 
#
# Total GULP energy -61551.988564 kJ/mol
# GULP energy per Si atom -5595.635324 kJ/mol
# Density = 2.900494 g / cm^3
# Si number density = 29.071109 Si / 1000 Ang^3
#
#
#
# Elastic Constant Matrix: (Units=GPa)
#
#
# Indices 1 2 3 4 5 6 
#
# 1 131.0247 -1.5999 14.8714 -16.7566 -13.2072 16.8398
# 2 -1.5999 128.4574 53.6897 1.4847 -3.6391 25.7226
# 3 14.8714 53.6897 169.0787 -21.0746 -6.7777 -11.3974
# 4 -16.7566 1.4847 -21.0746 57.2980 8.8462 -0.7378
# 5 -13.2072 -3.6391 -6.7777 8.8462 38.3571 5.9311
# 6 16.8398 25.7226 -11.3974 -0.7378 5.9311 24.1315
#
#
#
# Elastic Compliance Matrix: (Units=1/GPa)
#
#
# Indices 1 2 3 4 5 6 
#
# 1 0.010685 0.004650 -0.003119 0.000772 0.005753 -0.015276
# 2 0.004650 0.016406 -0.007503 -0.003176 0.006583 -0.025991
# 3 -0.003119 -0.007503 0.009960 0.003661 -0.003314 0.015805
# 4 0.000772 -0.003176 0.003661 0.019959 -0.004983 0.006410
# 5 0.005753 0.006583 -0.003314 -0.004983 0.032444 -0.020724
# 6 -0.015276 -0.025991 0.015805 0.006410 -0.020724 0.092559
#
#
# Mechanical properties :
#
#
# Convention : Reuss Voigt Hill
#
# Bulk Modulus (GPa) = 39.82950 62.49815 51.16382
# Shear Modulus (GPa) = 24.71247 48.06397 36.38822
#
# Velocity S-wave (km/s) = 2.91876 4.07052 3.54177
# Velocity P-wave (km/s) = 5.00892 6.60585 5.86202
#
# Compressibility (1/GPa) = 0.02510702
#
# Stress axis : x y z
#
# Youngs Moduli (GPa) = 93.58921 60.95277 100.40183
#
# Poissons Ratio (x) = -0.28342 0.31318
# Poissons Ratio (y) = -0.43517 0.75328
# Poissons Ratio (z) = 0.29193 0.45731
#
# Static dielectric constant tensor:
#      x y z
#    x 1.796350 0.042100 0.032920 
#    y 0.042100 2.209340 -0.051760 
#    z 0.032920 -0.051760 2.152950 
# 
# From -- ./inp_files/65437.got.cif
#   From: 2010.05.17/outbox.cif.g08.bks.cpg/sg2_33_cif.got.tgz:65437.got - 2010.06.03 11:33:40.
