data_PCOD9063849
_publ_section_title
;
Structure prediction by ZEFSAII (Michael W. Deem and Ramdas Pophale) SiO2 
 PCOD9063849
Probable space group: P -1
;
_chemical_formula_sum "Si O2"
_cell_formula_units_Z 13
_cell_length_a 13.023727
_cell_length_b 10.474338
_cell_length_c 9.063331
_cell_angle_alpha 52.089290
_cell_angle_beta 129.025550
_cell_angle_gamma 146.423552
_cell_volume 519.461887
_symmetry_space_group_name_H-M "P -1"
_symmetry_group_IT_number 2
_symmetry_cell_setting 'triclinic'
loop_
_space_group_symop_operation_xyz
x,y,z
-x,-y,-z
loop_
_atom_site_type_symbol
_atom_site_label
_atom_site_fract_x
_atom_site_fract_y
_atom_site_fract_z
Si Si1 0.757193 0.957437 0.365873
Si Si2 0.500000 0.000000 0.000000
Si Si3 0.777967 0.616180 0.531169
Si Si4 0.746818 0.091584 0.585610
Si Si5 0.155531 0.517625 0.062567
Si Si6 0.390919 0.659302 0.728726
Si Si7 0.907121 0.744147 0.066736
O O1 0.718995 0.735726 0.456533
O O2 0.716866 0.973749 0.486852
O O3 0.988570 0.186456 0.394780
O O4 0.628812 0.947118 0.144470
O O5 0.693650 0.256844 0.064196
O O6 0.714147 0.417699 0.726384
O O7 0.697185 0.505890 0.377835
O O8 0.616102 0.887458 0.737313
O O9 0.686228 0.223925 0.422494
O O10 0.964334 0.265911 0.714237
O O11 0.076379 0.295049 0.060331
O O12 0.000000 0.500000 0.000000
O O13 0.310406 0.476645 0.917207
O O14 0.000000 0.000000 0.000000
#
# Coordination Sequence:
#
# PCOD9063849 Si02
#       7
#     2   1   2   2   2   2   2
#     4  11  24  44  75 106 140 185 241 297 353 427
#     4  12  26  44  72 108 142 182 244 296 356 416
#     4  11  24  46  74 104 142 189 235 294 361 419
#     4  11  24  47  74 102 139 192 242 286 357 434
#     4  12  26  45  71 108 145 188 236 302 353 425
#     4  11  25  45  74 101 138 190 243 289 350 433
#     4  12  27  44  69 105 149 185 230 295 363 421
#
# _framework density 25.025894999999998
#
# number of rings (size 3 to 8) (size 9 to 14) (size 15 to 20)
#    0.000    0.615    3.077    4.154    2.154    8.000 
#    0.000    0.000    0.000    0.000    0.000    0.000 
#    0.000    0.000    0.000    0.000    0.000    0.000 
#
# Total GULP energy -72503.130026 kJ/mol
# GULP energy per Si atom -5577.163848 kJ/mol
# Density = 2.496894 g / cm^3
# Si number density = 25.025895 Si / 1000 Ang^3
#
#
#
# Elastic Constant Matrix: (Units=GPa)
#
#
# Indices 1 2 3 4 5 6 
#
# 1 84.3722 51.3545 7.0469 1.9252 2.5918 -10.7066
# 2 51.3545 99.1560 -13.2828 -3.5582 -6.3176 0.2780
# 3 7.0469 -13.2828 34.4676 1.9609 6.0079 -1.9200
# 4 1.9252 -3.5582 1.9609 39.0452 1.3199 -5.2939
# 5 2.5918 -6.3176 6.0079 1.3199 47.1901 3.3329
# 6 -10.7066 0.2780 -1.9200 -5.2939 3.3329 53.6588
#
#
#
# Elastic Compliance Matrix: (Units=1/GPa)
#
#
# Indices 1 2 3 4 5 6 
#
# 1 0.020229 -0.011726 -0.008050 -0.001080 -0.001896 0.003820
# 2 -0.011726 0.017492 0.008593 0.001387 0.002002 -0.002110
# 3 -0.008050 0.008593 0.034463 -0.000498 -0.002760 -0.000295
# 4 -0.001080 0.001387 -0.000498 0.026158 -0.000591 0.002377
# 5 -0.001896 0.002002 -0.002760 -0.000591 0.022066 -0.001916
# 6 0.003820 -0.002110 -0.000295 0.002377 -0.001916 0.019752
#
#
# Mechanical properties :
#
#
# Convention : Reuss Voigt Hill
#
# Bulk Modulus (GPa) = 20.07253 34.24810 27.16031
# Shear Modulus (GPa) = 27.91217 39.50396 33.70806
#
# Velocity S-wave (km/s) = 3.34328 3.97737 3.67403
# Velocity P-wave (km/s) = 4.78973 5.89978 5.37350
#
# Compressibility (1/GPa) = 0.04981932
#
# Stress axis : x y z
#
# Youngs Moduli (GPa) = 49.43340 57.16786 29.01660
#
# Poissons Ratio (x) = 0.67033 0.23358
# Poissons Ratio (y) = 0.57964 -0.24934
# Poissons Ratio (z) = 0.39794 -0.49124
#
# Static dielectric constant tensor:
#      x y z
#    x 2.036760 0.084360 -0.091950 
#    y 0.084360 1.983820 -0.130540 
#    z -0.091950 -0.130540 2.081860 
# 
# From -- ./inp_files/183688.got.cif
#   From: 2010.05.17/outbox.cif.g08.bks.cpg/sg2_92_cif.got.tgz:183688.got - 2010.06.03 11:33:40.
