data_PCOD9063510
_publ_section_title
;
Structure prediction by ZEFSAII (Michael W. Deem and Ramdas Pophale) SiO2 
 PCOD9063510
Probable space group: P -1
;
_chemical_formula_sum "Si O2"
_cell_formula_units_Z 16
_cell_length_a 9.549064
_cell_length_b 14.571033
_cell_length_c 8.970439
_cell_angle_alpha 140.749195
_cell_angle_beta 67.660302
_cell_angle_gamma 114.366740
_cell_volume 715.387335
_symmetry_space_group_name_H-M "P -1"
_symmetry_group_IT_number 2
_symmetry_cell_setting 'triclinic'
loop_
_space_group_symop_operation_xyz
x,y,z
-x,-y,-z
loop_
_atom_site_type_symbol
_atom_site_label
_atom_site_fract_x
_atom_site_fract_y
_atom_site_fract_z
Si Si1 0.485502 0.227680 0.859688
Si Si2 0.037551 0.546968 0.374121
Si Si3 0.273368 0.596651 0.798406
Si Si4 0.001646 0.873776 0.717040
Si Si5 0.331953 0.926371 0.641502
Si Si6 0.583317 0.168310 0.215046
Si Si7 0.320023 0.423754 0.000353
Si Si8 0.286419 0.295029 0.533285
O O1 0.554557 0.153452 0.598711
O O2 0.345332 0.302652 0.959683
O O3 0.416403 0.096620 0.835644
O O4 0.631810 0.334275 0.008314
O O5 0.000000 0.500000 0.500000
O O6 0.912353 0.441467 0.185150
O O7 0.007723 0.711157 0.572428
O O8 0.208274 0.526416 0.235871
O O9 0.331671 0.718286 0.800590
O O10 0.310770 0.430762 0.574390
O O11 0.847843 0.838961 0.635647
O O12 0.166220 0.918561 0.622253
O O13 0.000000 0.000000 0.000000
O O14 0.306309 0.853064 0.720816
O O15 0.445920 0.243324 0.421633
O O16 0.500000 0.000000 0.000000
O O17 0.251519 0.355377 0.785365
O O18 0.500000 0.500000 0.000000
#
# Coordination Sequence:
#
# PCOD9063510 Si02
#       8
#     2   2   2   2   2   2   2   2
#     4  11  24  44  70 105 136 190 239 302 354 433
#     4  11  28  46  73 109 145 190 241 303 373 427
#     4  11  25  43  74 103 144 179 242 302 360 424
#     4  11  26  46  69 100 147 190 235 298 362 434
#     4  11  24  44  69  99 146 187 239 287 370 426
#     4  12  23  44  70 104 143 189 243 296 358 435
#     4  12  25  46  76 105 148 188 247 301 366 437
#     4  11  26  44  71 109 138 193 244 299 366 428
#
# _framework density 22.365507999999998
#
# number of rings (size 3 to 8) (size 9 to 14) (size 15 to 20)
#    0.000    0.750    3.750    2.625    5.250    2.000 
#    0.000    0.625    0.000    0.000    0.000    0.000 
#    0.000    0.000    0.000    0.000    0.000    0.000 
#
# Total GULP energy -89370.938931 kJ/mol
# GULP energy per Si atom -5585.683683 kJ/mol
# Density = 2.231460 g / cm^3
# Si number density = 22.365508 Si / 1000 Ang^3
#
#
#
# Elastic Constant Matrix: (Units=GPa)
#
#
# Indices 1 2 3 4 5 6 
#
# 1 118.7612 36.8354 34.0608 11.5920 13.6491 11.7774
# 2 36.8354 76.7119 37.1890 11.8120 3.1110 -9.3562
# 3 34.0608 37.1890 91.7352 19.5153 -0.1173 2.4270
# 4 11.5920 11.8120 19.5153 26.9878 5.4931 5.8708
# 5 13.6491 3.1110 -0.1173 5.4931 48.8140 5.4881
# 6 11.7774 -9.3562 2.4270 5.8708 5.4881 31.2240
#
#
#
# Elastic Compliance Matrix: (Units=1/GPa)
#
#
# Indices 1 2 3 4 5 6 
#
# 1 0.011340 -0.005041 -0.002137 0.000507 -0.002315 -0.005310
# 2 -0.005041 0.019963 -0.005505 -0.004517 -0.000406 0.009232
# 3 -0.002137 -0.005505 0.015707 -0.008252 0.002012 -0.000866
# 4 0.000507 -0.004517 -0.008252 0.047620 -0.004207 -0.009118
# 5 -0.002315 -0.000406 0.002012 -0.004207 0.021914 -0.002466
# 6 -0.005310 0.009232 -0.000866 -0.009118 -0.002466 0.039011
#
#
# Mechanical properties :
#
#
# Convention : Reuss Voigt Hill
#
# Bulk Modulus (GPa) = 46.20321 55.93097 51.06709
# Shear Modulus (GPa) = 26.57648 33.34670 29.96159
#
# Velocity S-wave (km/s) = 3.45088 3.86552 3.66407
# Velocity P-wave (km/s) = 6.04824 6.70708 6.38616
#
# Compressibility (1/GPa) = 0.02164352
#
# Stress axis : x y z
#
# Youngs Moduli (GPa) = 88.18440 50.09239 63.66525
#
# Poissons Ratio (x) = 0.25251 0.13607
# Poissons Ratio (y) = 0.44454 0.35048
# Poissons Ratio (z) = 0.18847 0.27576
#
# Static dielectric constant tensor:
#      x y z
#    x 1.914620 0.001500 -0.019050 
#    y 0.001500 1.872750 0.018850 
#    z -0.019050 0.018850 1.882500 
# 
# From -- ./inp_files/209227.got.cif
#   From: 2010.05.17/outbox.cif.g08.bks.cpg/sg2_105_cif.got.tgz:209227.got - 2010.06.03 11:33:40.
