data_PCOD9063278
_publ_section_title
;
Structure prediction by ZEFSAII (Michael W. Deem and Ramdas Pophale) SiO2 
 PCOD9063278
Probable space group: P -1
;
_chemical_formula_sum "Si O2"
_cell_formula_units_Z 14
_cell_length_a 5.500441
_cell_length_b 10.438263
_cell_length_c 11.244292
_cell_angle_alpha 59.303794
_cell_angle_beta 94.342589
_cell_angle_gamma 100.786486
_cell_volume 545.176665
_symmetry_space_group_name_H-M "P -1"
_symmetry_group_IT_number 2
_symmetry_cell_setting 'triclinic'
loop_
_space_group_symop_operation_xyz
x,y,z
-x,-y,-z
loop_
_atom_site_type_symbol
_atom_site_label
_atom_site_fract_x
_atom_site_fract_y
_atom_site_fract_z
Si Si1 0.891287 0.875143 0.652860
Si Si2 0.484211 0.608769 0.055366
Si Si3 0.153449 0.235899 0.608612
Si Si4 0.233912 0.878234 0.895393
Si Si5 0.821090 0.549085 0.685143
Si Si6 0.586869 0.065152 0.663411
Si Si7 0.931671 0.746862 0.137335
O O1 0.909356 0.709433 0.681210
O O2 0.046979 0.899942 0.770487
O O3 0.623301 0.919382 0.653812
O O4 0.000000 0.000000 0.500000
O O5 0.423621 0.519204 0.218638
O O6 0.735020 0.720154 0.037353
O O7 0.500000 0.500000 0.000000
O O8 0.277960 0.706258 0.968696
O O9 0.197596 0.402108 0.474545
O O10 0.370775 0.162872 0.585595
O O11 0.185378 0.218714 0.758694
O O12 0.857193 0.169793 0.616967
O O13 0.487727 0.988257 0.820398
O O14 0.139963 0.876179 0.027964
O O15 0.975002 0.413019 0.763566
#
# Coordination Sequence:
#
# PCOD9063278 Si02
#       7
#     2   2   2   2   2   2   2
#     4  12  24  48  77 111 151 192 252 315 380 443
#     4  11  24  43  74 107 151 197 251 312 373 442
#     4  12  29  48  77 110 156 199 256 302 379 448
#     4  11  24  45  73 109 148 194 255 308 378 436
#     4  11  25  46  75 110 148 201 247 319 367 451
#     4  12  26  49  74 112 149 200 247 315 370 445
#     4  11  27  48  73 111 150 204 249 309 374 449
#
# _framework density 25.679748
#
# number of rings (size 3 to 8) (size 9 to 14) (size 15 to 20)
#    0.000    0.571    2.857    3.857    6.000    7.429 
#    0.000    0.000    0.000    0.000    0.000    0.000 
#    0.000    0.000    0.000    0.000    0.000    0.000 
#
# Total GULP energy -78188.069135 kJ/mol
# GULP energy per Si atom -5584.862081 kJ/mol
# Density = 2.562130 g / cm^3
# Si number density = 25.679748 Si / 1000 Ang^3
#
#
#
# Elastic Constant Matrix: (Units=GPa)
#
#
# Indices 1 2 3 4 5 6 
#
# 1 119.6144 40.7173 63.3180 7.6675 -15.1791 -25.7208
# 2 40.7173 58.3736 8.8170 15.5662 -7.7704 -23.2521
# 3 63.3180 8.8170 190.2747 -8.4170 -19.1181 -12.1926
# 4 7.6675 15.5662 -8.4170 43.7405 -1.4434 0.9216
# 5 -15.1791 -7.7704 -19.1181 -1.4434 41.5170 -1.5474
# 6 -25.7208 -23.2521 -12.1926 0.9216 -1.5474 51.0330
#
#
#
# Elastic Compliance Matrix: (Units=1/GPa)
#
#
# Indices 1 2 3 4 5 6 
#
# 1 0.013887 -0.007669 -0.003924 -0.000453 0.001917 0.002634
# 2 -0.007669 0.029005 0.001821 -0.008723 0.003535 0.010050
# 3 -0.003924 0.001821 0.006783 0.001403 0.002097 0.000511
# 4 -0.000453 -0.008723 0.001403 0.026394 -0.000396 -0.004356
# 5 0.001917 0.003535 0.002097 -0.000396 0.026546 0.003890
# 6 0.002634 0.010050 0.000511 -0.004356 0.003890 0.025820
#
#
# Mechanical properties :
#
#
# Convention : Reuss Voigt Hill
#
# Bulk Modulus (GPa) = 33.18896 65.99636 49.59266
# Shear Modulus (GPa) = 31.64121 44.28544 37.96333
#
# Velocity S-wave (km/s) = 3.51400 4.15725 3.84909
# Velocity P-wave (km/s) = 5.42370 6.98564 6.25363
#
# Compressibility (1/GPa) = 0.03013050
#
# Stress axis : x y z
#
# Youngs Moduli (GPa) = 72.01193 34.47689 147.43610
#
# Poissons Ratio (x) = 0.26439 0.57859
# Poissons Ratio (y) = 0.55223 -0.26851
# Poissons Ratio (z) = 0.28260 -0.06279
#
# Static dielectric constant tensor:
#      x y z
#    x 2.053450 0.015590 -0.027850 
#    y 0.015590 2.104260 0.027290 
#    z -0.027850 0.027290 2.046530 
# 
# From -- ./inp_files/363690.got.cif
#   From: 2010.05.17/outbox.cif.g08.bks.cpg/sg2_182_cif.got.tgz:363690.got - 2010.06.03 11:33:40.
