data_PCOD9063113
_publ_section_title
;
Structure prediction by ZEFSAII (Michael W. Deem and Ramdas Pophale) SiO2 
 PCOD9063113
Probable space group: P -1
;
_chemical_formula_sum "Si O2"
_cell_formula_units_Z 16
_cell_length_a 5.303150
_cell_length_b 7.849307
_cell_length_c 18.160457
_cell_angle_alpha 125.752632
_cell_angle_beta 73.144228
_cell_angle_gamma 109.132329
_cell_volume 574.801800
_symmetry_space_group_name_H-M "P -1"
_symmetry_group_IT_number 2
_symmetry_cell_setting 'triclinic'
loop_
_space_group_symop_operation_xyz
x,y,z
-x,-y,-z
loop_
_atom_site_type_symbol
_atom_site_label
_atom_site_fract_x
_atom_site_fract_y
_atom_site_fract_z
Si Si1 0.602447 0.938459 0.163300
Si Si2 0.292958 0.636685 0.205726
Si Si3 0.036624 0.972001 0.374080
Si Si4 0.697744 0.365575 0.993658
Si Si5 0.814035 0.269346 0.123670
Si Si6 0.168815 0.761390 0.653935
Si Si7 0.304913 0.307602 0.540565
Si Si8 0.385576 0.456630 0.303019
O O1 0.579347 0.730422 0.167096
O O2 0.812155 0.041370 0.106938
O O3 0.634497 0.115553 0.269491
O O4 0.348528 0.845516 0.108311
O O5 0.124872 0.824009 0.266683
O O6 0.323634 0.607894 0.281974
O O7 0.110242 0.419408 0.135706
O O8 0.885370 0.823267 0.413622
O O9 0.277770 0.143956 0.434231
O O10 0.843271 0.106755 0.385390
O O11 0.672444 0.279210 0.058836
O O12 0.500000 0.500000 0.000000
O O13 0.000000 0.500000 0.000000
O O14 0.636582 0.377263 0.224063
O O15 0.212862 0.522800 0.576940
O O16 0.872131 0.728494 0.707932
O O17 0.562739 0.408538 0.592586
#
# Coordination Sequence:
#
# PCOD9063113 Si02
#       8
#     2   2   2   2   2   2   2   2
#     4  12  25  48  77 107 142 202 245 305 392 457
#     4  12  24  46  72 106 147 194 251 304 380 451
#     4  11  24  43  71 100 146 199 247 313 384 451
#     4  12  29  51  79 116 155 199 251 321 387 466
#     4  12  25  49  73 109 151 188 251 312 373 457
#     4  12  25  46  70 106 144 195 259 305 379 461
#     4  11  24  47  64 104 149 190 254 316 375 446
#     4  12  22  45  73  99 151 195 239 326 364 450
#
# _framework density 27.835684000000001
#
# number of rings (size 3 to 8) (size 9 to 14) (size 15 to 20)
#    0.000    0.250    6.250    3.000    1.750    2.000 
#    2.250    1.875    0.000    0.000    0.000    0.000 
#    0.000    0.000    0.000    0.000    0.000    0.000 
#
# Total GULP energy -89440.438355 kJ/mol
# GULP energy per Si atom -5590.027397 kJ/mol
# Density = 2.777233 g / cm^3
# Si number density = 27.835684 Si / 1000 Ang^3
#
#
#
# Elastic Constant Matrix: (Units=GPa)
#
#
# Indices 1 2 3 4 5 6 
#
# 1 115.9377 47.3433 36.2223 -5.6392 24.2409 0.8147
# 2 47.3433 123.8533 24.0833 -7.0821 3.9196 4.7451
# 3 36.2223 24.0833 146.5396 -7.8946 36.9957 6.9635
# 4 -5.6392 -7.0821 -7.8946 43.1306 5.2817 17.7417
# 5 24.2409 3.9196 36.9957 5.2817 39.5441 -3.9536
# 6 0.8147 4.7451 6.9635 17.7417 -3.9536 53.4417
#
#
#
# Elastic Compliance Matrix: (Units=1/GPa)
#
#
# Indices 1 2 3 4 5 6 
#
# 1 0.011995 -0.004137 -0.000366 0.002077 -0.006976 -0.000973
# 2 -0.004137 0.009880 -0.001122 0.000906 0.002407 -0.000791
# 3 -0.000366 -0.001122 0.009976 0.004165 -0.009885 -0.003309
# 4 0.002077 0.000906 0.004165 0.030388 -0.010470 -0.011518
# 5 -0.006976 0.002407 -0.009885 -0.010470 0.040739 0.007670
# 6 -0.000973 -0.000791 -0.003309 -0.011518 0.007670 0.023619
#
#
# Mechanical properties :
#
#
# Convention : Reuss Voigt Hill
#
# Bulk Modulus (GPa) = 48.54276 66.84762 57.69519
# Shear Modulus (GPa) = 34.55050 45.80205 40.17628
#
# Velocity S-wave (km/s) = 3.52693 4.06081 3.80325
# Velocity P-wave (km/s) = 5.83631 6.78632 6.32917
#
# Compressibility (1/GPa) = 0.02060039
#
# Stress axis : x y z
#
# Youngs Moduli (GPa) = 83.36468 101.21693 100.23881
#
# Poissons Ratio (x) = 0.41877 0.03668
# Poissons Ratio (y) = 0.34491 0.11249
# Poissons Ratio (z) = 0.03051 0.11359
#
# Static dielectric constant tensor:
#      x y z
#    x 2.275260 -0.070780 -0.134410 
#    y -0.070780 2.263830 0.060030 
#    z -0.134410 0.060030 2.193530 
# 
# From -- ./inp_files/548287.got.cif
#   From: 2010.05.17/outbox.cif.g08.bks.cpg/sg2_275_cif.got.tgz:548287.got - 2010.06.03 11:33:40.
