data_PCOD9063290
_publ_section_title
;
Structure prediction by ZEFSAII (Michael W. Deem and Ramdas Pophale) SiO2 
 PCOD9063290
Probable space group: P -1
;
_chemical_formula_sum "Si O2"
_cell_formula_units_Z 16
_cell_length_a 11.556491
_cell_length_b 12.171946
_cell_length_c 15.513775
_cell_angle_alpha 26.416005
_cell_angle_beta 121.689149
_cell_angle_gamma 104.009228
_cell_volume 658.831829
_symmetry_space_group_name_H-M "P -1"
_symmetry_group_IT_number 2
_symmetry_cell_setting 'triclinic'
loop_
_space_group_symop_operation_xyz
x,y,z
-x,-y,-z
loop_
_atom_site_type_symbol
_atom_site_label
_atom_site_fract_x
_atom_site_fract_y
_atom_site_fract_z
Si Si1 0.190788 0.414668 0.130676
Si Si2 0.896541 0.382184 0.580218
Si Si3 0.806694 0.267858 0.790637
Si Si4 0.380784 0.531382 0.250530
Si Si5 0.862678 0.342393 0.246086
Si Si6 0.390824 0.710639 0.728210
Si Si7 0.563412 0.683441 0.124089
Si Si8 0.690908 0.937561 0.860196
O O1 0.230027 0.584325 0.096104
O O2 0.330790 0.054079 0.460790
O O3 0.225073 0.478412 0.003599
O O4 0.000000 0.500000 0.000000
O O5 0.833233 0.465225 0.596728
O O6 0.738438 0.500459 0.373868
O O7 0.000000 0.500000 0.500000
O O8 0.024652 0.010166 0.898876
O O9 0.671732 0.445783 0.687128
O O10 0.752722 0.097691 0.828881
O O11 0.418478 0.779821 0.070345
O O12 0.559386 0.183719 0.564680
O O13 0.780055 0.257767 0.344693
O O14 0.847764 0.617325 0.100985
O O15 0.000000 0.000000 0.500000
O O16 0.468119 0.521890 0.804119
O O17 0.500000 0.500000 0.000000
O O18 0.585310 0.874956 0.928232
#
# Coordination Sequence:
#
# PCOD9063290 Si02
#       8
#     2   2   2   2   2   2   2   2
#     4  12  26  44  71 106 142 194 245 313 380 442
#     4  11  24  46  70 108 143 194 241 304 369 438
#     4  11  26  45  74 106 150 192 248 302 372 443
#     4  12  27  46  71 108 146 196 251 301 375 454
#     4  11  24  45  72 103 142 192 248 308 374 440
#     4  11  24  46  71 106 145 185 247 309 380 445
#     4  11  24  43  75 101 143 191 243 302 370 440
#     4  11  24  45  73 106 147 190 245 314 368 439
#
# _framework density 24.285408
#
# number of rings (size 3 to 8) (size 9 to 14) (size 15 to 20)
#    0.000    0.750    3.750    3.375    1.750    4.000 
#    0.000    0.000    0.000    0.000    0.000    0.000 
#    0.000    0.000    0.000    0.000    0.000    0.000 
#
# Total GULP energy -89250.299162 kJ/mol
# GULP energy per Si atom -5578.143698 kJ/mol
# Density = 2.423013 g / cm^3
# Si number density = 24.285408 Si / 1000 Ang^3
#
#
#
# Elastic Constant Matrix: (Units=GPa)
#
#
# Indices 1 2 3 4 5 6 
#
# 1 136.9687 37.6277 29.0917 2.8675 -31.6082 2.0454
# 2 37.6277 105.7149 25.1631 19.3401 -1.7462 8.8968
# 3 29.0917 25.1631 115.1907 12.4957 -28.4276 2.9932
# 4 2.8675 19.3401 12.4957 29.4721 -10.3403 2.2113
# 5 -31.6082 -1.7462 -28.4276 -10.3403 47.0993 10.3661
# 6 2.0454 8.8968 2.9932 2.2113 10.3661 41.1924
#
#
#
# Elastic Compliance Matrix: (Units=1/GPa)
#
#
# Indices 1 2 3 4 5 6 
#
# 1 0.010298 -0.004220 -0.000143 0.004829 0.008146 -0.001899
# 2 -0.004220 0.013110 -0.002153 -0.009178 -0.005533 -0.000581
# 3 -0.000143 -0.002153 0.010977 -0.000719 0.006728 -0.001980
# 4 0.004829 -0.009178 -0.000719 0.044691 0.013139 -0.003911
# 5 0.008146 -0.005533 0.006728 0.013139 0.035493 -0.009336
# 6 -0.001899 -0.000581 -0.001980 -0.003911 -0.009336 0.027199
#
#
# Mechanical properties :
#
#
# Convention : Reuss Voigt Hill
#
# Bulk Modulus (GPa) = 46.83084 60.18214 53.50649
# Shear Modulus (GPa) = 30.87956 41.28553 36.08255
#
# Velocity S-wave (km/s) = 3.56972 4.12760 3.85875
# Velocity P-wave (km/s) = 6.02627 6.89573 6.47561
#
# Compressibility (1/GPa) = 0.02135345
#
# Stress axis : x y z
#
# Youngs Moduli (GPa) = 97.10768 76.27485 91.09622
#
# Poissons Ratio (x) = 0.32191 0.01302
# Poissons Ratio (y) = 0.40983 0.19611
# Poissons Ratio (z) = 0.01388 0.16421
#
# Static dielectric constant tensor:
#      x y z
#    x 1.965830 -0.105890 0.072860 
#    y -0.105890 2.104900 -0.035020 
#    z 0.072860 -0.035020 1.984630 
# 
# From -- ./inp_files/519516.got.cif
#   From: 2010.05.17/outbox.cif.g08.bks.cpg/sg2_260_cif.got.tgz:519516.got - 2010.06.03 11:33:40.
