data_PCOD9063897
_publ_section_title
;
Structure prediction by ZEFSAII (Michael W. Deem and Ramdas Pophale) SiO2 
 PCOD9063897
Probable space group: P -1
;
_chemical_formula_sum "Si O2"
_cell_formula_units_Z 16
_cell_length_a 15.561389
_cell_length_b 8.989961
_cell_length_c 11.084580
_cell_angle_alpha 70.727414
_cell_angle_beta 109.781864
_cell_angle_gamma 47.920658
_cell_volume 653.651880
_symmetry_space_group_name_H-M "P -1"
_symmetry_group_IT_number 2
_symmetry_cell_setting 'triclinic'
loop_
_space_group_symop_operation_xyz
x,y,z
-x,-y,-z
loop_
_atom_site_type_symbol
_atom_site_label
_atom_site_fract_x
_atom_site_fract_y
_atom_site_fract_z
Si Si1 0.104595 0.003238 0.387331
Si Si2 0.907737 0.175866 0.037901
Si Si3 0.416716 0.079161 0.312103
Si Si4 0.756397 0.479552 0.252410
Si Si5 0.773478 0.666514 0.446417
Si Si6 0.801071 0.897784 0.790441
Si Si7 0.414596 0.799288 0.920947
Si Si8 0.827383 0.971480 0.051390
O O1 0.198119 0.008625 0.361109
O O2 0.890511 0.348108 0.246840
O O3 0.197139 0.765627 0.604010
O O4 0.076504 0.927953 0.281651
O O5 0.783860 0.520930 0.896432
O O6 0.773837 0.231886 0.990396
O O7 0.000000 0.000000 0.000000
O O8 0.371332 0.963869 0.318724
O O9 0.500000 0.000000 0.500000
O O10 0.581305 0.884394 0.352929
O O11 0.797147 0.534113 0.368429
O O12 0.556198 0.733397 0.028814
O O13 0.954142 0.382347 0.700377
O O14 0.734802 0.907373 0.327637
O O15 0.801827 0.993411 0.890262
O O16 0.000000 0.500000 0.000000
O O17 0.307108 0.936879 0.960001
O O18 0.500000 0.500000 0.000000
#
# Coordination Sequence:
#
# PCOD9063897 Si02
#       8
#     2   2   2   2   2   2   2   2
#     4  11  24  44  77 109 146 196 251 303 372 443
#     4  12  22  47  72 104 149 196 237 305 372 442
#     4  12  27  46  71 112 151 192 246 304 376 441
#     4  11  26  47  76 104 148 200 250 301 376 445
#     4  12  26  49  75 105 149 199 249 303 376 447
#     4  12  25  43  74 110 147 185 246 306 363 439
#     4  12  28  47  70 111 151 190 248 314 368 441
#     4  12  26  47  76 109 143 197 251 301 376 442
#
# _framework density 24.477861000000001
#
# number of rings (size 3 to 8) (size 9 to 14) (size 15 to 20)
#    0.000    0.250    3.750    5.250    3.500    3.000 
#    0.000    1.875    0.000    0.000    0.000    0.000 
#    0.000    0.000    0.000    0.000    0.000    0.000 
#
# Total GULP energy -89443.051938 kJ/mol
# GULP energy per Si atom -5590.190746 kJ/mol
# Density = 2.442215 g / cm^3
# Si number density = 24.477861 Si / 1000 Ang^3
#
#
#
# Elastic Constant Matrix: (Units=GPa)
#
#
# Indices 1 2 3 4 5 6 
#
# 1 141.9382 51.2062 29.0001 2.5364 -14.6837 -19.4477
# 2 51.2062 76.7524 16.7471 14.1536 -1.8646 -19.1191
# 3 29.0001 16.7471 73.8927 14.4205 -9.0750 -3.2481
# 4 2.5364 14.1536 14.4205 31.9853 -0.1436 -2.0488
# 5 -14.6837 -1.8646 -9.0750 -0.1436 38.1064 4.0346
# 6 -19.4477 -19.1191 -3.2481 -2.0488 4.0346 54.8243
#
#
#
# Elastic Compliance Matrix: (Units=1/GPa)
#
#
# Indices 1 2 3 4 5 6 
#
# 1 0.010406 -0.006606 -0.002858 0.003472 0.002899 0.001135
# 2 -0.006606 0.020057 -0.000492 -0.007852 -0.002186 0.004489
# 3 -0.002858 -0.000492 0.016452 -0.007004 0.002838 -0.000681
# 4 0.003472 -0.007852 -0.007004 0.037588 -0.000522 -0.000478
# 5 0.002899 -0.002186 0.002838 -0.000522 0.028101 -0.001653
# 6 0.001135 0.004489 -0.000681 -0.000478 -0.001653 0.020272
#
#
# Mechanical properties :
#
#
# Convention : Reuss Voigt Hill
#
# Bulk Modulus (GPa) = 37.03473 54.05445 45.54459
# Shear Modulus (GPa) = 30.90451 38.02518 34.46484
#
# Velocity S-wave (km/s) = 3.55709 3.94566 3.75640
# Velocity P-wave (km/s) = 5.65979 6.54894 6.12053
#
# Compressibility (1/GPa) = 0.02700168
#
# Stress axis : x y z
#
# Youngs Moduli (GPa) = 96.10017 49.85894 60.78313
#
# Poissons Ratio (x) = 0.32936 0.17375
# Poissons Ratio (y) = 0.63483 0.02990
# Poissons Ratio (z) = 0.27470 0.02453
#
# Static dielectric constant tensor:
#      x y z
#    x 0.874900 0.292380 1.038030 
#    y 0.292380 1.917010 -0.383050 
#    z 1.038030 -0.383050 1.125600 
# 
# From -- ./inp_files/447175.got.cif
#   From: 2010.05.17/outbox.cif.g08.bks.cpg/sg2_224_cif.got.tgz:447175.got - 2010.06.03 11:33:40.
