data_PCOD9063780
_publ_section_title
;
Structure prediction by ZEFSAII (Michael W. Deem and Ramdas Pophale) SiO2 
 PCOD9063780
Probable space group: P -1
;
_chemical_formula_sum "Si O2"
_cell_formula_units_Z 14
_cell_length_a 9.063420
_cell_length_b 16.888581
_cell_length_c 7.191138
_cell_angle_alpha 103.415199
_cell_angle_beta 127.905602
_cell_angle_gamma 111.825996
_cell_volume 627.050736
_symmetry_space_group_name_H-M "P -1"
_symmetry_group_IT_number 2
_symmetry_cell_setting 'triclinic'
loop_
_space_group_symop_operation_xyz
x,y,z
-x,-y,-z
loop_
_atom_site_type_symbol
_atom_site_label
_atom_site_fract_x
_atom_site_fract_y
_atom_site_fract_z
Si Si1 0.357683 0.351366 0.646004
Si Si2 0.256051 0.953769 0.669971
Si Si3 0.379435 0.082850 0.468895
Si Si4 0.877645 0.251891 0.745529
Si Si5 0.444353 0.414971 0.177751
Si Si6 0.732295 0.386533 0.671404
Si Si7 0.009257 0.890634 0.814572
O O1 0.410862 0.457528 0.670238
O O2 0.561336 0.353791 0.702437
O O3 0.093831 0.231258 0.327953
O O4 0.389296 0.365307 0.900675
O O5 0.321333 0.036148 0.605046
O O6 0.150779 0.840278 0.437939
O O7 0.068660 0.930609 0.669921
O O8 0.500000 0.000000 0.000000
O O9 0.326015 0.817551 0.284687
O O10 0.215875 0.114547 0.304249
O O11 0.253606 0.978649 0.177744
O O12 0.772901 0.304566 0.601786
O O13 0.178559 0.351406 0.044313
O O14 0.607386 0.400145 0.415235
O O15 0.000000 0.500000 0.000000
#
# Coordination Sequence:
#
# PCOD9063780 Si02
#       7
#     2   2   2   2   2   2   2
#     4  11  24  47  71 107 142 189 226 291 360 400
#     4  12  26  44  66 104 144 185 232 286 350 411
#     4  11  26  45  69 106 137 186 239 285 343 421
#     4  12  25  47  71 106 140 185 239 284 348 421
#     4  11  27  47  74 106 143 178 240 292 341 433
#     4  12  27  48  72 107 142 185 234 288 355 415
#     4  11  24  44  74 100 143 185 234 287 347 413
#
# _framework density 22.326740999999998
#
# number of rings (size 3 to 8) (size 9 to 14) (size 15 to 20)
#    0.000    0.571    5.714    1.286    2.000    1.714 
#    0.000    0.000    0.000    0.000    0.000    0.000 
#    0.000    0.000    0.000    0.000    0.000    0.000 
#
# Total GULP energy -78265.384778 kJ/mol
# GULP energy per Si atom -5590.384627 kJ/mol
# Density = 2.227592 g / cm^3
# Si number density = 22.326741 Si / 1000 Ang^3
#
#
#
# Elastic Constant Matrix: (Units=GPa)
#
#
# Indices 1 2 3 4 5 6 
#
# 1 74.2168 25.2194 32.7826 -9.8845 10.7895 24.8454
# 2 25.2194 128.6734 76.5556 4.7333 21.8036 11.0449
# 3 32.7826 76.5556 100.1629 -1.1987 12.2853 16.3267
# 4 -9.8845 4.7333 -1.1987 31.0504 -6.0339 10.9213
# 5 10.7895 21.8036 12.2853 -6.0339 29.0163 2.5747
# 6 24.8454 11.0449 16.3267 10.9213 2.5747 40.5878
#
#
#
# Elastic Compliance Matrix: (Units=1/GPa)
#
#
# Indices 1 2 3 4 5 6 
#
# 1 0.022399 -0.000933 -0.003753 0.011985 -0.002213 -0.015032
# 2 -0.000933 0.016286 -0.011659 -0.005910 -0.008446 0.002955
# 3 -0.003753 -0.011659 0.020472 0.003186 0.002486 -0.003780
# 4 0.011985 -0.005910 0.003186 0.046030 0.009985 -0.020029
# 5 -0.002213 -0.008446 0.002486 0.009985 0.042901 -0.002755
# 6 -0.015032 0.002955 -0.003780 -0.020029 -0.002755 0.040120
#
#
# Mechanical properties :
#
#
# Convention : Reuss Voigt Hill
#
# Bulk Modulus (GPa) = 37.78100 63.57426 50.67763
# Shear Modulus (GPa) = 21.76568 31.36393 26.56480
#
# Velocity S-wave (km/s) = 3.12568 3.75209 3.45312
# Velocity P-wave (km/s) = 5.47586 6.87803 6.21660
#
# Compressibility (1/GPa) = 0.02646833
#
# Stress axis : x y z
#
# Youngs Moduli (GPa) = 44.64468 61.40358 48.84690
#
# Poissons Ratio (x) = 0.05728 0.18331
# Poissons Ratio (y) = 0.04165 0.56948
# Poissons Ratio (z) = 0.16754 0.71588
#
# Static dielectric constant tensor:
#      x y z
#    x 1.840560 0.008660 -0.004610 
#    y 0.008660 1.847830 0.045310 
#    z -0.004610 0.045310 1.821010 
# 
# From -- ./inp_files/203425.got.cif
#   From: 2010.05.17/outbox.cif.g08.bks.cpg/sg2_102_cif.got.tgz:203425.got - 2010.06.03 11:33:40.
