data_PCOD9063565
_publ_section_title
;
Structure prediction by ZEFSAII (Michael W. Deem and Ramdas Pophale) SiO2 
 PCOD9063565
Probable space group: P -1
;
_chemical_formula_sum "Si O2"
_cell_formula_units_Z 15
_cell_length_a 9.079048
_cell_length_b 13.167712
_cell_length_c 13.504214
_cell_angle_alpha 143.488300
_cell_angle_beta 40.592933
_cell_angle_gamma 140.166545
_cell_volume 570.895781
_symmetry_space_group_name_H-M "P -1"
_symmetry_group_IT_number 2
_symmetry_cell_setting 'triclinic'
loop_
_space_group_symop_operation_xyz
x,y,z
-x,-y,-z
loop_
_atom_site_type_symbol
_atom_site_label
_atom_site_fract_x
_atom_site_fract_y
_atom_site_fract_z
Si Si1 0.360750 0.849814 0.200124
Si Si2 0.731448 0.676507 0.246316
Si Si3 0.988710 0.320010 0.089026
Si Si4 0.130304 0.976601 0.804420
Si Si5 0.000000 0.500000 0.000000
Si Si6 0.912911 0.109358 0.449845
Si Si7 0.438942 0.133693 0.214961
Si Si8 0.169738 0.433475 0.293020
O O1 0.187190 0.796742 0.343248
O O2 0.272959 0.683496 0.035844
O O3 0.633873 0.924391 0.168300
O O4 0.359108 0.022187 0.271641
O O5 0.839339 0.604344 0.223918
O O6 0.450689 0.560661 0.275163
O O7 0.812926 0.894052 0.369005
O O8 0.915610 0.630886 0.035111
O O9 0.140447 0.448040 0.201343
O O10 0.708564 0.294094 0.220331
O O11 0.019787 0.124730 0.940509
O O12 0.206124 0.903928 0.607602
O O13 0.932393 0.788178 0.806101
O O14 0.208914 0.181531 0.340234
O O15 0.500000 0.000000 0.000000
O O16 0.000000 0.500000 0.500000
#
# Coordination Sequence:
#
# PCOD9063565 Si02
#       8
#     2   2   2   2   1   2   2   2
#     4  12  25  44  73 101 145 185 237 288 353 419
#     4  11  25  43  67  99 143 181 232 285 351 417
#     4  11  24  44  70  96 137 191 233 278 348 423
#     4  11  24  45  74 103 136 190 240 283 348 426
#     4  12  26  40  68 106 138 182 230 290 354 406
#     4  11  25  46  74 105 138 189 239 286 352 427
#     4  12  22  43  72  99 137 178 240 282 341 421
#     4  12  26  41  68 104 144 176 229 295 351 404
#
# _framework density 26.274498999999999
#
# number of rings (size 3 to 8) (size 9 to 14) (size 15 to 20)
#    0.000    0.533    5.333    3.200    1.867    4.267 
#    0.000    0.000    0.000    4.000    0.000    0.000 
#    0.000    0.000    0.000    0.000    0.000    0.000 
#
# Total GULP energy -83826.254208 kJ/mol
# GULP energy per Si atom -5588.416947 kJ/mol
# Density = 2.621470 g / cm^3
# Si number density = 26.274499 Si / 1000 Ang^3
#
#
#
# Elastic Constant Matrix: (Units=GPa)
#
#
# Indices 1 2 3 4 5 6 
#
# 1 129.4842 54.0874 30.9780 -0.1652 4.0604 21.7251
# 2 54.0874 126.2322 12.8627 -1.8775 -19.4288 17.7622
# 3 30.9780 12.8627 89.3505 -19.8597 19.6744 1.2061
# 4 -0.1652 -1.8775 -19.8597 33.8991 -3.6767 -6.4695
# 5 4.0604 -19.4288 19.6744 -3.6767 44.4117 -13.2671
# 6 21.7251 17.7622 1.2061 -6.4695 -13.2671 60.1428
#
#
#
# Elastic Compliance Matrix: (Units=1/GPa)
#
#
# Indices 1 2 3 4 5 6 
#
# 1 0.010991 -0.004361 -0.003191 -0.003044 -0.002817 -0.003567
# 2 -0.004361 0.010823 -0.001177 0.000435 0.005597 -0.000316
# 3 -0.003191 -0.001177 0.015752 0.008606 -0.006272 0.000727
# 4 -0.003044 0.000435 0.008606 0.035592 0.001054 0.004860
# 5 -0.002817 0.005597 -0.006272 0.001054 0.029943 0.006209
# 6 -0.003567 -0.000316 0.000727 0.004860 0.006209 0.019887
#
#
# Mechanical properties :
#
#
# Convention : Reuss Voigt Hill
#
# Bulk Modulus (GPa) = 49.73475 60.10256 54.91866
# Shear Modulus (GPa) = 33.97935 44.16665 39.07300
#
# Velocity S-wave (km/s) = 3.60007 4.10441 3.86049
# Velocity P-wave (km/s) = 6.02085 6.73692 6.38893
#
# Compressibility (1/GPa) = 0.02010666
#
# Stress axis : x y z
#
# Youngs Moduli (GPa) = 90.98388 92.39728 63.48537
#
# Poissons Ratio (x) = 0.40295 0.20258
# Poissons Ratio (y) = 0.39679 0.07475
# Poissons Ratio (z) = 0.29032 0.10879
#
# Static dielectric constant tensor:
#      x y z
#    x 2.502120 -0.210380 -0.092000 
#    y -0.210380 2.145680 0.052750 
#    z -0.092000 0.052750 2.137480 
# 
# From -- ./inp_files/500640.got.cif
#   From: 2010.05.17/outbox.cif.g08.bks.cpg/sg2_251_cif.got.tgz:500640.got - 2010.06.03 11:33:40.
