data_PCOD9063958
_publ_section_title
;
Structure prediction by ZEFSAII (Michael W. Deem and Ramdas Pophale) SiO2 
 PCOD9063958
Probable space group: P -1
;
_chemical_formula_sum "Si O2"
_cell_formula_units_Z 16
_cell_length_a 17.971820
_cell_length_b 24.911893
_cell_length_c 4.975552
_cell_angle_alpha 116.173009
_cell_angle_beta 65.565052
_cell_angle_gamma 161.858277
_cell_volume 622.370286
_symmetry_space_group_name_H-M "P -1"
_symmetry_group_IT_number 2
_symmetry_cell_setting 'triclinic'
loop_
_space_group_symop_operation_xyz
x,y,z
-x,-y,-z
loop_
_atom_site_type_symbol
_atom_site_label
_atom_site_fract_x
_atom_site_fract_y
_atom_site_fract_z
Si Si1 0.282949 0.695931 0.119772
Si Si2 0.038478 0.313476 0.652588
Si Si3 0.605641 0.638529 0.632360
Si Si4 0.024260 0.602685 0.886487
Si Si5 0.637296 0.862515 0.668651
Si Si6 0.934621 0.102696 0.273746
Si Si7 0.503056 0.946973 0.580269
Si Si8 0.555057 0.400268 0.717072
O O1 0.514157 0.894255 0.278657
O O2 0.171156 0.583150 0.288277
O O3 0.119276 0.634916 0.090982
O O4 0.387225 0.717483 0.819645
O O5 0.049528 0.247809 0.474667
O O6 0.172655 0.418263 0.397734
O O7 0.756656 0.125841 0.735784
O O8 0.106899 0.424171 0.940988
O O9 0.500000 0.500000 0.500000
O O10 0.571827 0.640648 0.389986
O O11 0.872489 0.814027 0.730775
O O12 0.460509 0.582634 0.925448
O O13 0.261795 0.773697 0.729993
O O14 0.589083 0.759872 0.458636
O O15 0.719209 0.948606 0.462774
O O16 0.838464 0.017329 0.935058
O O17 0.500000 0.000000 0.500000
#
# Coordination Sequence:
#
# PCOD9063958 Si02
#       8
#     2   2   2   2   2   2   2   2
#     4  11  24  45  68 100 146 198 242 302 365 436
#     4  12  25  45  70 109 139 196 246 305 363 439
#     4  12  27  50  79 113 148 189 242 308 377 440
#     4  11  25  46  67 101 145 195 247 299 369 433
#     4  12  27  50  73 115 148 195 248 303 365 442
#     4  12  28  46  81 106 148 194 244 309 372 441
#     4  12  25  42  69 104 142 192 248 307 362 436
#     4  12  28  50  77 109 151 192 246 305 370 444
#
# _framework density 25.708169000000002
#
# number of rings (size 3 to 8) (size 9 to 14) (size 15 to 20)
#    0.000    0.250    5.000    3.375    3.500    4.000 
#    2.250    0.000    0.000    0.000    0.000    0.000 
#    0.000    0.000    0.000    0.000    0.000    0.000 
#
# Total GULP energy -89303.392676 kJ/mol
# GULP energy per Si atom -5581.462042 kJ/mol
# Density = 2.564966 g / cm^3
# Si number density = 25.708169 Si / 1000 Ang^3
#
#
#
# Elastic Constant Matrix: (Units=GPa)
#
#
# Indices 1 2 3 4 5 6 
#
# 1 119.4032 37.4936 19.2867 15.5173 -16.7081 -24.9007
# 2 37.4936 113.6709 9.1765 -4.6555 -11.6116 -27.3173
# 3 19.2867 9.1765 50.4297 8.3035 -18.4441 -9.2007
# 4 15.5173 -4.6555 8.3035 54.6848 -4.6161 -10.5604
# 5 -16.7081 -11.6116 -18.4441 -4.6161 43.7625 3.7729
# 6 -24.9007 -27.3173 -9.2007 -10.5604 3.7729 48.9581
#
#
#
# Elastic Compliance Matrix: (Units=1/GPa)
#
#
# Indices 1 2 3 4 5 6 
#
# 1 0.010690 -0.002515 -0.001949 -0.002189 0.002101 0.003034
# 2 -0.002515 0.011249 0.000145 0.002872 0.001915 0.005497
# 3 -0.001949 0.000145 0.024738 -0.001902 0.009295 0.002612
# 4 -0.002189 0.002872 -0.001902 0.020377 0.000890 0.004459
# 5 0.002101 0.001915 0.009295 0.000890 0.028007 0.001917
# 6 0.003034 0.005497 0.002612 0.004459 0.001917 0.026341
#
#
# Mechanical properties :
#
#
# Convention : Reuss Voigt Hill
#
# Bulk Modulus (GPa) = 26.28783 46.15751 36.22267
# Shear Modulus (GPa) = 35.03377 43.98420 39.50898
#
# Velocity S-wave (km/s) = 3.69555 4.14079 3.92449
# Velocity P-wave (km/s) = 5.33452 6.39179 5.88694
#
# Compressibility (1/GPa) = 0.03804042
#
# Stress axis : x y z
#
# Youngs Moduli (GPa) = 93.54114 88.89345 40.42428
#
# Poissons Ratio (x) = 0.22355 0.07878
# Poissons Ratio (y) = 0.23524 -0.00587
# Poissons Ratio (z) = 0.18230 -0.01290
#
# Static dielectric constant tensor:
#      x y z
#    x 2.280190 0.422570 0.179120 
#    y 0.422570 2.569440 0.372270 
#    z 0.179120 0.372270 2.353030 
# 
# From -- ./inp_files/112981.got.cif
#   From: 2010.05.17/outbox.cif.g08.bks.cpg/sg2_57_cif.got.tgz:112981.got - 2010.06.03 11:33:40.
