data_PCOD9063597
_publ_section_title
;
Structure prediction by ZEFSAII (Michael W. Deem and Ramdas Pophale) SiO2 
 PCOD9063597
Probable space group: P -1
;
_chemical_formula_sum "Si O2"
_cell_formula_units_Z 12
_cell_length_a 19.306900
_cell_length_b 13.261209
_cell_length_c 15.842394
_cell_angle_alpha 152.522479
_cell_angle_beta 23.264485
_cell_angle_gamma 160.691090
_cell_volume 523.389165
_symmetry_space_group_name_H-M "P -1"
_symmetry_group_IT_number 2
_symmetry_cell_setting 'triclinic'
loop_
_space_group_symop_operation_xyz
x,y,z
-x,-y,-z
loop_
_atom_site_type_symbol
_atom_site_label
_atom_site_fract_x
_atom_site_fract_y
_atom_site_fract_z
Si Si1 0.855688 0.748924 0.896147
Si Si2 0.992283 0.394583 0.024000
Si Si3 0.030881 0.218626 0.560135
Si Si4 0.451912 0.172340 0.629273
Si Si5 0.836333 0.926008 0.377820
Si Si6 0.413175 0.933787 0.328466
O O1 0.627246 0.716279 0.132276
O O2 0.750020 0.412380 0.779004
O O3 0.974945 0.869521 0.759647
O O4 0.000000 0.000000 0.000000
O O5 0.077373 0.656751 0.187038
O O6 0.694273 0.097196 0.149771
O O7 0.000000 0.500000 0.000000
O O8 0.159828 0.331248 0.806242
O O9 0.320144 0.518647 0.445173
O O10 0.924038 0.081669 0.486296
O O11 0.000000 0.000000 0.500000
O O12 0.500000 0.000000 0.500000
O O13 0.301417 0.935268 0.542315
O O14 0.603911 0.872095 0.570728
#
# Coordination Sequence:
#
# PCOD9063597 Si02
#       6
#     2   2   2   2   2   2
#     4  12  25  42  69 105 142 174 236 294 350 423
#     4  11  25  48  70  99 140 185 237 287 350 424
#     4  11  24  44  71 103 143 184 236 296 351 419
#     4  11  24  44  72 102 143 188 235 291 361 421
#     4  12  25  44  73 100 141 187 232 292 355 414
#     4  11  26  44  69 106 138 181 238 287 352 425
#
# _framework density 22.927489999999999
#
# number of rings (size 3 to 8) (size 9 to 14) (size 15 to 20)
#    0.000    0.667    3.333    4.500    4.667    2.667 
#    0.000    0.833    0.000    0.000    0.000    0.000 
#    0.000    0.000    0.000    0.000    0.000    0.000 
#
# Total GULP energy -66936.985308 kJ/mol
# GULP energy per Si atom -5578.082109 kJ/mol
# Density = 2.287531 g / cm^3
# Si number density = 22.927490 Si / 1000 Ang^3
#
#
#
# Elastic Constant Matrix: (Units=GPa)
#
#
# Indices 1 2 3 4 5 6 
#
# 1 152.0869 36.1759 58.2659 28.2953 11.3576 -16.8813
# 2 36.1759 67.3699 24.2174 15.7244 -1.2085 -21.0969
# 3 58.2659 24.2174 142.2232 44.4663 10.0604 -7.9602
# 4 28.2953 15.7244 44.4663 34.7368 -6.9565 8.0326
# 5 11.3576 -1.2085 10.0604 -6.9565 55.3997 8.5077
# 6 -16.8813 -21.0969 -7.9602 8.0326 8.5077 33.2952
#
#
#
# Elastic Compliance Matrix: (Units=1/GPa)
#
#
# Indices 1 2 3 4 5 6 
#
# 1 0.010052 0.000204 0.000622 -0.012360 -0.005209 0.009688
# 2 0.000204 0.028401 0.006870 -0.030412 -0.009000 0.029379
# 3 0.000622 0.006870 0.017678 -0.032802 -0.010292 0.019439
# 4 -0.012360 -0.030412 -0.032802 0.117546 0.033378 -0.070267
# 5 -0.005209 -0.009000 -0.010292 0.033378 0.029017 -0.026272
# 6 0.009688 0.029379 0.019439 -0.070267 -0.026272 0.081874
#
#
# Mechanical properties :
#
#
# Convention : Reuss Voigt Hill
#
# Bulk Modulus (GPa) = 13.98145 66.55538 40.26842
# Shear Modulus (GPa) = 17.06379 40.88774 28.97577
#
# Velocity S-wave (km/s) = 2.73105 4.22755 3.55885
# Velocity P-wave (km/s) = 4.00702 7.27470 5.87271
#
# Compressibility (1/GPa) = 0.07152333
#
# Stress axis : x y z
#
# Youngs Moduli (GPa) = 99.48020 35.20961 56.56679
#
# Poissons Ratio (x) = -0.00717 -0.03520
# Poissons Ratio (y) = -0.02026 -0.38860
# Poissons Ratio (z) = -0.06190 -0.24188
#
# Static dielectric constant tensor:
#      x y z
#    x 1.928270 0.136450 -0.123310 
#    y 0.136450 1.982520 -0.167770 
#    z -0.123310 -0.167770 2.131400 
# 
# From -- ./inp_files/170947.got.cif
#   From: 2010.05.17/outbox.cif.g08.bks.cpg/sg2_86_cif.got.tgz:170947.got - 2010.06.03 11:33:40.
