data_PCOD9063687
_publ_section_title
;
Structure prediction by ZEFSAII (Michael W. Deem and Ramdas Pophale) SiO2 
 PCOD9063687
Probable space group: P -1
;
_chemical_formula_sum "Si O2"
_cell_formula_units_Z 12
_cell_length_a 9.506416
_cell_length_b 14.538064
_cell_length_c 9.875703
_cell_angle_alpha 54.901811
_cell_angle_beta 106.891254
_cell_angle_gamma 149.897041
_cell_volume 483.703526
_symmetry_space_group_name_H-M "P -1"
_symmetry_group_IT_number 2
_symmetry_cell_setting 'triclinic'
loop_
_space_group_symop_operation_xyz
x,y,z
-x,-y,-z
loop_
_atom_site_type_symbol
_atom_site_label
_atom_site_fract_x
_atom_site_fract_y
_atom_site_fract_z
Si Si1 0.083050 0.443842 0.146874
Si Si2 0.960411 0.068382 0.576885
Si Si3 0.787226 0.206963 0.798570
Si Si4 0.318334 0.757005 0.549932
Si Si5 0.160990 0.996033 0.093632
Si Si6 0.785717 0.697097 0.805462
O O1 0.069172 0.329072 0.137787
O O2 0.833428 0.269410 0.350099
O O3 0.456149 0.718155 0.060327
O O4 0.000000 0.500000 0.000000
O O5 0.636387 0.901111 0.558000
O O6 0.933534 0.086985 0.706745
O O7 0.970075 0.938862 0.687862
O O8 0.258003 0.314826 0.359642
O O9 0.661233 0.157131 0.655555
O O10 0.043026 0.475032 0.686181
O O11 0.936316 0.183914 0.856003
O O12 0.500000 0.000000 0.000000
O O13 0.000000 0.000000 0.000000
O O14 0.500000 0.500000 0.000000
#
# Coordination Sequence:
#
# PCOD9063687 Si02
#       6
#     2   2   2   2   2   2
#     4  12  24  45  76 106 142 193 245 294 355 432
#     4  11  26  47  76 105 140 196 241 295 359 433
#     4  11  26  46  70 107 147 187 235 303 357 425
#     4  11  25  47  75 107 139 193 247 291 359 427
#     4  12  27  46  71 109 148 191 236 298 368 423
#     4  11  24  44  72 108 140 179 242 301 353 424
#
# _framework density 24.808585000000001
#
# number of rings (size 3 to 8) (size 9 to 14) (size 15 to 20)
#    0.000    0.667    5.000    1.000    4.667    6.667 
#    0.000    1.667    0.000    0.000    0.000    0.000 
#    0.000    0.000    0.000    0.000    0.000    0.000 
#
# Total GULP energy -67186.381896 kJ/mol
# GULP energy per Si atom -5598.865158 kJ/mol
# Density = 2.475212 g / cm^3
# Si number density = 24.808585 Si / 1000 Ang^3
#
#
#
# Elastic Constant Matrix: (Units=GPa)
#
#
# Indices 1 2 3 4 5 6 
#
# 1 236.1177 50.3641 77.7413 1.2207 3.3872 -11.9419
# 2 50.3641 56.0035 31.8326 8.1962 -9.6432 16.3261
# 3 77.7413 31.8326 214.6343 18.8943 -23.2548 2.1458
# 4 1.2207 8.1962 18.8943 35.4798 -7.9321 -0.2025
# 5 3.3872 -9.6432 -23.2548 -7.9321 63.1116 5.3922
# 6 -11.9419 16.3261 2.1458 -0.2025 5.3922 45.8007
#
#
#
# Elastic Compliance Matrix: (Units=1/GPa)
#
#
# Indices 1 2 3 4 5 6 
#
# 1 0.006527 -0.006800 -0.001801 0.001838 -0.002205 0.004478
# 2 -0.006800 0.029865 -0.000831 -0.005160 0.005084 -0.013001
# 3 -0.001801 -0.000831 0.005861 -0.002451 0.001879 -0.000680
# 4 0.001838 -0.005160 -0.002451 0.031060 0.001913 0.002345
# 5 -0.002205 0.005084 0.001879 0.001913 0.018066 -0.004594
# 6 0.004478 -0.013001 -0.000680 0.002345 -0.004594 0.028219
#
#
# Mechanical properties :
#
#
# Convention : Reuss Voigt Hill
#
# Bulk Modulus (GPa) = 42.75723 91.84794 67.30259
# Shear Modulus (GPa) = 34.18611 51.99960 43.09285
#
# Velocity S-wave (km/s) = 3.71616 4.58321 4.17227
# Velocity P-wave (km/s) = 5.97373 8.06913 7.09916
#
# Compressibility (1/GPa) = 0.02338786
#
# Stress axis : x y z
#
# Youngs Moduli (GPa) = 153.20259 33.48432 170.62302
#
# Poissons Ratio (x) = 0.22770 0.30731
# Poissons Ratio (y) = 1.04183 0.14180
# Poissons Ratio (z) = 0.27593 0.02783
#
# Static dielectric constant tensor:
#      x y z
#    x 1.964780 0.012680 0.013500 
#    y 0.012680 2.017260 0.010690 
#    z 0.013500 0.010690 1.950500 
# 
# From -- ./inp_files/393846.got.cif
#   From: 2010.05.17/outbox.cif.g08.bks.cpg/sg2_197_cif.got.tgz:393846.got - 2010.06.03 11:33:40.
