data_PCOD9063284
_publ_section_title
;
Structure prediction by ZEFSAII (Michael W. Deem and Ramdas Pophale) SiO2 
 PCOD9063284
Probable space group: P -1
;
_chemical_formula_sum "Si O2"
_cell_formula_units_Z 12
_cell_length_a 25.309638
_cell_length_b 5.324289
_cell_length_c 11.486960
_cell_angle_alpha 117.538588
_cell_angle_beta 22.197732
_cell_angle_gamma 117.296710
_cell_volume 516.399899
_symmetry_space_group_name_H-M "P -1"
_symmetry_group_IT_number 2
_symmetry_cell_setting 'triclinic'
loop_
_space_group_symop_operation_xyz
x,y,z
-x,-y,-z
loop_
_atom_site_type_symbol
_atom_site_label
_atom_site_fract_x
_atom_site_fract_y
_atom_site_fract_z
Si Si1 0.252528 0.210983 0.720707
Si Si2 0.088589 0.480767 0.698121
Si Si3 0.238211 0.087962 0.468248
Si Si4 0.594145 0.219412 0.433956
Si Si5 0.521788 0.198872 0.835179
Si Si6 0.090797 0.935135 0.188439
O O1 0.365373 0.443924 0.599377
O O2 0.224903 0.272171 0.654029
O O3 0.327517 0.920926 0.485858
O O4 0.123897 0.158488 0.061381
O O5 0.142119 0.796295 0.616624
O O6 0.202631 0.273794 0.468400
O O7 0.996353 0.326477 0.752343
O O8 0.000000 0.500000 0.000000
O O9 0.395877 0.002261 0.107929
O O10 0.510653 0.215606 0.723872
O O11 0.500000 0.000000 0.500000
O O12 0.751519 0.120401 0.106129
O O13 0.500000 0.500000 0.000000
O O14 0.000000 0.000000 0.500000
#
# Coordination Sequence:
#
# PCOD9063284 Si02
#       6
#     2   2   2   2   2   2
#     4  11  24  46  75 106 155 189 250 320 377 444
#     4  12  26  45  74 109 147 195 251 312 376 454
#     4  12  25  42  78 112 147 190 248 311 383 444
#     4  11  27  47  73 105 149 199 253 308 376 451
#     4  11  24  43  74 112 145 193 251 313 378 447
#     4  11  28  48  71 106 150 200 253 310 376 450
#
# _framework density 23.237805999999999
#
# number of rings (size 3 to 8) (size 9 to 14) (size 15 to 20)
#    0.000    0.667    3.333    3.000    7.000    4.667 
#    0.000    0.000    0.000    0.000    0.000    0.000 
#    0.000    0.000    0.000    0.000    0.000    0.000 
#
# Total GULP energy -67035.368949 kJ/mol
# GULP energy per Si atom -5586.280746 kJ/mol
# Density = 2.318492 g / cm^3
# Si number density = 23.237806 Si / 1000 Ang^3
#
#
#
# Elastic Constant Matrix: (Units=GPa)
#
#
# Indices 1 2 3 4 5 6 
#
# 1 101.3086 57.9353 61.0527 14.7020 8.6326 33.5974
# 2 57.9353 140.6353 37.3937 -10.5940 10.5059 34.7324
# 3 61.0527 37.3937 164.3045 -3.2193 37.0482 18.1987
# 4 14.7020 -10.5940 -3.2193 37.8976 -2.2821 -1.3241
# 5 8.6326 10.5059 37.0482 -2.2821 52.4922 3.9969
# 6 33.5974 34.7324 18.1987 -1.3241 3.9969 54.4218
#
#
#
# Elastic Compliance Matrix: (Units=1/GPa)
#
#
# Indices 1 2 3 4 5 6 
#
# 1 0.020899 -0.006084 -0.006299 -0.010460 0.002330 -0.007338
# 2 -0.006084 0.010707 0.000496 0.005227 -0.001034 -0.003040
# 3 -0.006299 0.000496 0.009575 0.003079 -0.005754 0.000867
# 4 -0.010460 0.005227 0.003079 0.032250 -0.000318 0.002899
# 5 0.002330 -0.001034 -0.005754 -0.000318 0.022963 -0.000549
# 6 -0.007338 -0.003040 0.000867 0.002899 -0.000549 0.024666
#
#
# Mechanical properties :
#
#
# Convention : Reuss Voigt Hill
#
# Bulk Modulus (GPa) = 57.44443 79.89021 68.66732
# Shear Modulus (GPa) = 33.19256 45.62011 39.40634
#
# Velocity S-wave (km/s) = 3.78350 4.43559 4.12246
# Velocity P-wave (km/s) = 6.62272 7.79016 7.23004
#
# Compressibility (1/GPa) = 0.01740813
#
# Stress axis : x y z
#
# Youngs Moduli (GPa) = 47.84903 93.39826 104.43383
#
# Poissons Ratio (x) = 0.56827 0.65778
# Poissons Ratio (y) = 0.29113 -0.05184
# Poissons Ratio (z) = 0.30138 -0.04636
#
# Static dielectric constant tensor:
#      x y z
#    x 1.990310 -0.092370 -0.107900 
#    y -0.092370 1.964190 0.001160 
#    z -0.107900 0.001160 1.904620 
# 
# From -- ./inp_files/36970.got.cif
#   From: 2010.05.17/outbox.cif.g08.bks.cpg/sg2_19_cif.got.tgz:36970.got - 2010.06.03 11:33:40.
