data_PCOD9063576
_publ_section_title
;
Structure prediction by ZEFSAII (Michael W. Deem and Ramdas Pophale) SiO2 
 PCOD9063576
Probable space group: P -1
;
_chemical_formula_sum "Si O2"
_cell_formula_units_Z 16
_cell_length_a 8.742591
_cell_length_b 17.511040
_cell_length_c 20.394263
_cell_angle_alpha 160.571846
_cell_angle_beta 44.566734
_cell_angle_gamma 135.032066
_cell_volume 720.226791
_symmetry_space_group_name_H-M "P -1"
_symmetry_group_IT_number 2
_symmetry_cell_setting 'triclinic'
loop_
_space_group_symop_operation_xyz
x,y,z
-x,-y,-z
loop_
_atom_site_type_symbol
_atom_site_label
_atom_site_fract_x
_atom_site_fract_y
_atom_site_fract_z
Si Si1 0.330041 0.464283 0.962235
Si Si2 0.653634 0.390153 0.412888
Si Si3 0.444816 0.632051 0.422716
Si Si4 0.320719 0.449007 0.178981
Si Si5 0.910105 0.075256 0.019876
Si Si6 0.852341 0.076299 0.423284
Si Si7 0.962220 0.767039 0.364952
Si Si8 0.015686 0.798417 0.649126
O O1 0.467056 0.585604 0.956772
O O2 0.269085 0.186751 0.743586
O O3 0.500000 0.500000 0.000000
O O4 0.117776 0.585578 0.143748
O O5 0.500000 0.500000 0.500000
O O6 0.573890 0.389569 0.510970
O O7 0.686467 0.157140 0.177153
O O8 0.900074 0.536818 0.458701
O O9 0.366054 0.439311 0.235079
O O10 0.702234 0.688426 0.375595
O O11 0.268765 0.808545 0.603387
O O12 0.282261 0.712895 0.385065
O O13 0.099786 0.269453 0.086683
O O14 0.880503 0.879810 0.816029
O O15 0.000000 0.000000 0.000000
O O16 0.973600 0.166289 0.525541
O O17 0.997539 0.066653 0.305343
O O18 0.000000 0.000000 0.500000
#
# Coordination Sequence:
#
# PCOD9063576 Si02
#       8
#     2   2   2   2   2   2   2   2
#     4  12  26  45  76 104 140 193 245 289 359 431
#     4  12  25  46  72 105 145 180 232 301 358 417
#     4  11  24  44  71 100 146 185 231 292 356 417
#     4  11  24  44  76 102 141 191 244 290 351 427
#     4  12  24  44  74 107 138 187 242 285 356 435
#     4  11  24  46  71 103 144 185 240 293 354 418
#     4  12  29  46  69 109 150 183 238 302 361 416
#     4  11  24  44  75 102 139 190 236 286 356 428
#
# _framework density 22.215225
#
# number of rings (size 3 to 8) (size 9 to 14) (size 15 to 20)
#    0.000    0.500    5.000    3.750    5.250    2.500 
#    0.000    0.000    0.000    0.000    0.000    0.000 
#    0.000    0.000    0.000    0.000    0.000    0.000 
#
# Total GULP energy -89287.789763 kJ/mol
# GULP energy per Si atom -5580.486860 kJ/mol
# Density = 2.216466 g / cm^3
# Si number density = 22.215225 Si / 1000 Ang^3
#
#
#
# Elastic Constant Matrix: (Units=GPa)
#
#
# Indices 1 2 3 4 5 6 
#
# 1 109.8872 20.2653 32.1516 -21.4715 -3.9528 -11.4841
# 2 20.2653 89.1723 12.1686 -17.4494 -6.9325 -2.2626
# 3 32.1516 12.1686 83.8316 -14.7853 -6.4049 4.6675
# 4 -21.4715 -17.4494 -14.7853 39.3836 -2.2733 10.7254
# 5 -3.9528 -6.9325 -6.4049 -2.2733 40.6851 -8.0997
# 6 -11.4841 -2.2626 4.6675 10.7254 -8.0997 48.5640
#
#
#
# Elastic Compliance Matrix: (Units=1/GPa)
#
#
# Indices 1 2 3 4 5 6 
#
# 1 0.011385 -0.001229 -0.003580 0.003745 0.001004 0.002319
# 2 -0.001229 0.012688 -0.000281 0.005090 0.002197 -0.000430
# 3 -0.003580 -0.000281 0.014361 0.004196 0.001520 -0.002913
# 4 0.003745 0.005090 0.004196 0.033088 0.002512 -0.006169
# 5 0.001004 0.002197 0.001520 0.002512 0.026230 0.004014
# 6 0.002319 -0.000430 -0.002913 -0.006169 0.004014 0.023432
#
#
# Mechanical properties :
#
#
# Convention : Reuss Voigt Hill
#
# Bulk Modulus (GPa) = 35.39366 45.78468 40.58917
# Shear Modulus (GPa) = 35.51638 40.28024 37.89831
#
# Velocity S-wave (km/s) = 4.00276 4.26277 4.13481
# Velocity P-wave (km/s) = 6.10979 6.69945 6.41140
#
# Compressibility (1/GPa) = 0.02825365
#
# Stress axis : x y z
#
# Youngs Moduli (GPa) = 87.83866 78.81587 69.63404
#
# Poissons Ratio (x) = 0.09687 0.24928
# Poissons Ratio (y) = 0.10796 0.01955
# Poissons Ratio (z) = 0.31445 0.02213
#
# Static dielectric constant tensor:
#      x y z
#    x 1.762900 0.009190 0.021970 
#    y 0.009190 1.890310 -0.007900 
#    z 0.021970 -0.007900 1.828140 
# 
# From -- ./inp_files/591255.got.cif
#   From: 2010.05.17/outbox.cif.g08.bks.cpg/sg2_296_cif.got.tgz:591255.got - 2010.06.03 11:33:40.
