data_PCOD9063397
_publ_section_title
;
Structure prediction by ZEFSAII (Michael W. Deem and Ramdas Pophale) SiO2 
 PCOD9063397
Probable space group: P -1
;
_chemical_formula_sum "Si O2"
_cell_formula_units_Z 16
_cell_length_a 11.435897
_cell_length_b 25.292214
_cell_length_c 9.502905
_cell_angle_alpha 140.678459
_cell_angle_beta 26.930741
_cell_angle_gamma 151.027843
_cell_volume 602.746876
_symmetry_space_group_name_H-M "P -1"
_symmetry_group_IT_number 2
_symmetry_cell_setting 'triclinic'
loop_
_space_group_symop_operation_xyz
x,y,z
-x,-y,-z
loop_
_atom_site_type_symbol
_atom_site_label
_atom_site_fract_x
_atom_site_fract_y
_atom_site_fract_z
Si Si1 0.020156 0.896361 0.426795
Si Si2 0.144425 0.223945 0.108055
Si Si3 0.296710 0.853474 0.806733
Si Si4 0.258336 0.527946 0.477872
Si Si5 0.065239 0.781952 0.395498
Si Si6 0.225174 0.446967 0.811363
Si Si7 0.701907 0.326371 0.491713
Si Si8 0.210735 0.020720 0.955827
O O1 0.998006 0.816536 0.396390
O O2 0.770277 0.911307 0.792630
O O3 0.372981 0.022223 0.317132
O O4 0.036521 0.860631 0.181319
O O5 0.848537 0.212090 0.319273
O O6 0.206939 0.259540 0.274590
O O7 0.459154 0.298590 0.824040
O O8 0.985010 0.098817 0.020113
O O9 0.338824 0.780875 0.708095
O O10 0.554119 0.541590 0.269918
O O11 0.372190 0.631226 0.475117
O O12 0.072184 0.427742 0.361419
O O13 0.978789 0.510968 0.848745
O O14 0.061484 0.682783 0.176513
O O15 0.398217 0.896777 0.336292
O O16 0.500000 0.500000 0.500000
O O17 0.000000 0.000000 0.000000
#
# Coordination Sequence:
#
# PCOD9063397 Si02
#       8
#     2   2   2   2   2   2   2   2
#     4  11  24  44  67 107 150 191 245 304 379 460
#     4  12  25  43  71 107 147 199 248 308 377 471
#     4  11  25  43  70 107 149 195 249 305 379 463
#     4  11  29  52  79 113 152 203 266 327 385 460
#     4  12  27  44  75 104 151 200 246 320 387 453
#     4  12  29  53  80 114 153 200 267 325 389 454
#     4  11  27  47  78 106 150 202 253 318 390 453
#     4  12  24  43  70 109 153 196 250 307 381 465
#
# _framework density 26.545141000000001
#
# number of rings (size 3 to 8) (size 9 to 14) (size 15 to 20)
#    0.000    0.500    3.750    3.000    8.750    2.500 
#    0.000    0.000    0.000    0.000    0.000    0.000 
#    0.000    0.000    0.000    0.000    0.000    0.000 
#
# Total GULP energy -89597.822910 kJ/mol
# GULP energy per Si atom -5599.863932 kJ/mol
# Density = 2.648472 g / cm^3
# Si number density = 26.545141 Si / 1000 Ang^3
#
#
#
# Elastic Constant Matrix: (Units=GPa)
#
#
# Indices 1 2 3 4 5 6 
#
# 1 105.0844 9.5832 3.2102 -11.0697 19.9041 -2.5025
# 2 9.5832 102.8032 -0.3389 -7.8275 12.6937 -0.4496
# 3 3.2102 -0.3389 102.8012 -7.9780 28.6562 -7.4712
# 4 -11.0697 -7.8275 -7.9780 42.7537 -6.3073 4.6247
# 5 19.9041 12.6937 28.6562 -6.3073 40.7947 -7.4759
# 6 -2.5025 -0.4496 -7.4712 4.6247 -7.4759 36.7831
#
#
#
# Elastic Compliance Matrix: (Units=1/GPa)
#
#
# Indices 1 2 3 4 5 6 
#
# 1 0.010849 -0.000092 0.001486 0.002228 -0.006050 -0.000471
# 2 -0.000092 0.010337 0.001197 0.001587 -0.003882 -0.000625
# 3 0.001486 0.001197 0.012501 0.001470 -0.009555 0.000528
# 4 0.002228 0.001587 0.001470 0.024918 0.000780 -0.002505
# 5 -0.006050 -0.003882 -0.009555 0.000780 0.036403 0.004901
# 6 -0.000471 -0.000625 0.000528 -0.002505 0.004901 0.028565
#
#
# Mechanical properties :
#
#
# Convention : Reuss Voigt Hill
#
# Bulk Modulus (GPa) = 25.72751 37.28864 31.50808
# Shear Modulus (GPa) = 38.06722 43.94857 41.00790
#
# Velocity S-wave (km/s) = 3.79100 4.07334 3.93470
# Velocity P-wave (km/s) = 5.37357 6.01669 5.70420
#
# Compressibility (1/GPa) = 0.03886889
#
# Stress axis : x y z
#
# Youngs Moduli (GPa) = 92.17774 96.73787 79.99416
#
# Poissons Ratio (x) = 0.00888 -0.11888
# Poissons Ratio (y) = 0.00846 -0.09573
# Poissons Ratio (z) = -0.13699 -0.11576
#
# Static dielectric constant tensor:
#      x y z
#    x 2.111190 0.001490 -0.036890 
#    y 0.001490 2.047080 -0.021550 
#    z -0.036890 -0.021550 2.121520 
# 
# From -- ./inp_files/285837.got.cif
#   From: 2010.05.17/outbox.cif.g08.bks.cpg/sg2_143_cif.got.tgz:285837.got - 2010.06.03 11:33:40.
