data_PCOD9063178
_publ_section_title
;
Structure prediction by ZEFSAII (Michael W. Deem and Ramdas Pophale) SiO2 
 PCOD9063178
Probable space group: P -1
;
_chemical_formula_sum "Si O2"
_cell_formula_units_Z 12
_cell_length_a 17.069735
_cell_length_b 8.586258
_cell_length_c 5.346840
_cell_angle_alpha 58.120792
_cell_angle_beta 57.032595
_cell_angle_gamma 52.602033
_cell_volume 498.831965
_symmetry_space_group_name_H-M "P -1"
_symmetry_group_IT_number 2
_symmetry_cell_setting 'triclinic'
loop_
_space_group_symop_operation_xyz
x,y,z
-x,-y,-z
loop_
_atom_site_type_symbol
_atom_site_label
_atom_site_fract_x
_atom_site_fract_y
_atom_site_fract_z
Si Si1 0.216701 0.643246 0.173154
Si Si2 0.555649 0.878794 0.257472
Si Si3 0.658984 0.423667 0.473771
Si Si4 0.088735 0.060120 0.213063
Si Si5 0.097226 0.389912 0.610763
Si Si6 0.264743 0.035534 0.298296
O O1 0.296787 0.598665 0.301470
O O2 0.152929 0.887112 0.044425
O O3 0.138088 0.553836 0.469156
O O4 0.267895 0.559565 0.888443
O O5 0.563235 0.650826 0.441915
O O6 0.500000 0.000000 0.500000
O O7 0.500000 0.000000 0.000000
O O8 0.669844 0.873955 0.051594
O O9 0.657868 0.207767 0.589016
O O10 0.169416 0.030483 0.317113
O O11 0.000000 0.000000 0.500000
O O12 0.056393 0.283757 0.975905
O O13 0.000000 0.500000 0.500000
O O14 0.204182 0.200136 0.479439
#
# Coordination Sequence:
#
# PCOD9063178 Si02
#       6
#     2   2   2   2   2   2
#     4  11  24  43  72 100 146 194 243 293 367 431
#     4  12  28  47  78 111 142 186 249 310 375 440
#     4  11  24  47  75 103 142 192 238 304 370 437
#     4  11  26  44  70 106 150 199 250 301 363 441
#     4  12  26  41  72 105 149 196 251 297 369 436
#     4  11  26  46  74 103 151 195 242 303 369 438
#
# _framework density 24.056197000000001
#
# number of rings (size 3 to 8) (size 9 to 14) (size 15 to 20)
#    0.000    0.667    3.333    3.000    7.000    4.000 
#    0.000    0.000    0.000    0.000    0.000    0.000 
#    0.000    0.000    0.000    0.000    0.000    0.000 
#
# Total GULP energy -67070.281529 kJ/mol
# GULP energy per Si atom -5589.190127 kJ/mol
# Density = 2.400144 g / cm^3
# Si number density = 24.056197 Si / 1000 Ang^3
#
#
#
# Elastic Constant Matrix: (Units=GPa)
#
#
# Indices 1 2 3 4 5 6 
#
# 1 63.9047 3.6152 12.3199 -8.2230 -4.9594 -9.0780
# 2 3.6152 164.9071 34.2126 -24.0586 13.3574 12.5421
# 3 12.3199 34.2126 111.0781 -6.5447 3.6403 0.6354
# 4 -8.2230 -24.0586 -6.5447 58.9575 -2.9481 1.6596
# 5 -4.9594 13.3574 3.6403 -2.9481 33.1487 -10.1427
# 6 -9.0780 12.5421 0.6354 1.6596 -10.1427 27.2177
#
#
#
# Elastic Compliance Matrix: (Units=1/GPa)
#
#
# Indices 1 2 3 4 5 6 
#
# 1 0.018002 -0.000856 -0.001861 0.002016 0.006045 0.008572
# 2 -0.000856 0.007671 -0.001928 0.002731 -0.004482 -0.005612
# 3 -0.001861 -0.001928 0.009826 0.000018 -0.000641 -0.000202
# 4 0.002016 0.002731 0.000018 0.018421 0.000355 -0.001577
# 5 0.006045 -0.004482 -0.000641 0.000355 0.038631 0.018470
# 6 0.008572 -0.005612 -0.000202 -0.001577 0.018470 0.049170
#
#
# Mechanical properties :
#
#
# Convention : Reuss Voigt Hill
#
# Bulk Modulus (GPa) = 38.15553 48.90946 43.53250
# Shear Modulus (GPa) = 31.29960 43.18094 37.24027
#
# Velocity S-wave (km/s) = 3.61099 4.24134 3.93880
# Velocity P-wave (km/s) = 5.76898 6.66039 6.23065
#
# Compressibility (1/GPa) = 0.02620852
#
# Stress axis : x y z
#
# Youngs Moduli (GPa) = 55.55035 130.36145 101.76932
#
# Poissons Ratio (x) = 0.11158 0.18943
# Poissons Ratio (y) = 0.04755 0.19620
# Poissons Ratio (z) = 0.10340 0.25132
#
# Static dielectric constant tensor:
#      x y z
#    x 1.799730 -0.011620 -0.065570 
#    y -0.011620 2.007050 0.046020 
#    z -0.065570 0.046020 1.856160 
# 
# From -- ./inp_files/35312.got.cif
#   From: 2010.05.17/outbox.cif.g08.bks.cpg/sg2_18_cif.got.tgz:35312.got - 2010.06.03 11:33:40.
