data_PCOD9063962
_publ_section_title
;
Structure prediction by ZEFSAII (Michael W. Deem and Ramdas Pophale) SiO2 
 PCOD9063962
Probable space group: P -1
;
_chemical_formula_sum "Si O2"
_cell_formula_units_Z 16
_cell_length_a 14.350416
_cell_length_b 17.174589
_cell_length_c 8.169960
_cell_angle_alpha 41.576771
_cell_angle_beta 44.436790
_cell_angle_gamma 27.188501
_cell_volume 602.667634
_symmetry_space_group_name_H-M "P -1"
_symmetry_group_IT_number 2
_symmetry_cell_setting 'triclinic'
loop_
_space_group_symop_operation_xyz
x,y,z
-x,-y,-z
loop_
_atom_site_type_symbol
_atom_site_label
_atom_site_fract_x
_atom_site_fract_y
_atom_site_fract_z
Si Si1 0.922959 0.125117 0.242358
Si Si2 0.671806 0.980178 0.793207
Si Si3 0.843253 0.427820 0.448952
Si Si4 0.473091 0.252810 0.895772
Si Si5 0.269299 0.761791 0.195539
Si Si6 0.218215 0.284956 0.391406
Si Si7 0.962817 0.692738 0.106359
Si Si8 0.455226 0.720568 0.693243
O O1 0.687730 0.256592 0.287297
O O2 0.000000 0.000000 0.500000
O O3 0.070409 0.978111 0.142838
O O4 0.941760 0.250028 0.046169
O O5 0.635503 0.089753 0.821702
O O6 0.629992 0.089120 0.519693
O O7 0.500000 0.000000 0.000000
O O8 0.882030 0.773473 0.897050
O O9 0.735105 0.582654 0.204387
O O10 0.812565 0.314907 0.604163
O O11 0.688568 0.553077 0.602112
O O12 0.068241 0.313351 0.411949
O O13 0.569266 0.308660 0.754719
O O14 0.426628 0.186315 0.196616
O O15 0.396371 0.711993 0.954910
O O16 0.209977 0.228093 0.667463
O O17 0.113979 0.482033 0.242079
#
# Coordination Sequence:
#
# PCOD9063962 Si02
#       8
#     2   2   2   2   2   2   2   2
#     4  12  24  46  70 104 138 188 230 291 356 415
#     4  11  24  45  70  98 142 186 229 291 351 420
#     4  11  25  48  68 104 143 186 238 284 353 416
#     4  11  25  44  70 106 137 184 237 283 356 413
#     4  12  26  43  71 108 141 182 238 291 347 422
#     4  11  27  43  73 102 139 186 231 290 346 415
#     4  11  24  45  68 102 140 177 238 284 352 415
#     4  11  25  43  71 102 141 184 238 286 358 407
#
# _framework density 26.548629999999999
#
# number of rings (size 3 to 8) (size 9 to 14) (size 15 to 20)
#    0.000    0.750    2.500    4.500    8.750    2.500 
#    0.000    0.000    0.000    0.000    0.000    0.000 
#    0.000    0.000    0.000    0.000    0.000    0.000 
#
# Total GULP energy -89713.188777 kJ/mol
# GULP energy per Si atom -5607.074299 kJ/mol
# Density = 2.648820 g / cm^3
# Si number density = 26.548630 Si / 1000 Ang^3
#
#
#
# Elastic Constant Matrix: (Units=GPa)
#
#
# Indices 1 2 3 4 5 6 
#
# 1 119.5618 13.0014 31.9431 -11.6114 -22.2541 10.0381
# 2 13.0014 80.3632 9.3831 -2.2344 -10.6924 6.3764
# 3 31.9431 9.3831 118.2982 -1.6255 -20.3442 18.8867
# 4 -11.6114 -2.2344 -1.6255 43.1326 7.2219 -2.3547
# 5 -22.2541 -10.6924 -20.3442 7.2219 50.0806 2.3646
# 6 10.0381 6.3764 18.8867 -2.3547 2.3646 30.2550
#
#
#
# Elastic Compliance Matrix: (Units=1/GPa)
#
#
# Indices 1 2 3 4 5 6 
#
# 1 0.009884 -0.000726 -0.001646 0.001870 0.003404 -0.002219
# 2 -0.000726 0.013124 0.000051 -0.000108 0.002647 -0.002772
# 3 -0.001646 0.000051 0.010612 -0.001073 0.004051 -0.006489
# 4 0.001870 -0.000108 -0.001073 0.024305 -0.003238 0.002217
# 5 0.003404 0.002647 0.004051 -0.003238 0.024459 -0.006380
# 6 -0.002219 -0.002772 -0.006489 0.002217 -0.006380 0.039095
#
#
# Mechanical properties :
#
#
# Convention : Reuss Voigt Hill
#
# Bulk Modulus (GPa) = 34.50815 47.43091 40.96953
# Shear Modulus (GPa) = 36.82440 42.28668 39.55554
#
# Velocity S-wave (km/s) = 3.72836 3.99532 3.86415
# Velocity P-wave (km/s) = 5.61788 6.26002 5.94762
#
# Compressibility (1/GPa) = 0.02897866
#
# Stress axis : x y z
#
# Youngs Moduli (GPa) = 101.17328 76.19577 94.23646
#
# Poissons Ratio (x) = 0.05531 0.15511
# Poissons Ratio (y) = 0.07345 -0.00484
# Poissons Ratio (z) = 0.16653 -0.00392
#
# Static dielectric constant tensor:
#      x y z
#    x 2.089240 -0.010960 0.046770 
#    y -0.010960 2.141400 -0.004890 
#    z 0.046770 -0.004890 2.163620 
# 
# From -- ./inp_files/317957.got.cif
#   From: 2010.05.17/outbox.cif.g08.bks.cpg/sg2_159_cif.got.tgz:317957.got - 2010.06.03 11:33:40.
