data_PCOD9063866
_publ_section_title
;
Structure prediction by ZEFSAII (Michael W. Deem and Ramdas Pophale) SiO2 
 PCOD9063866
Probable space group: P -1
;
_chemical_formula_sum "Si O2"
_cell_formula_units_Z 13
_cell_length_a 11.148837
_cell_length_b 9.075954
_cell_length_c 9.109069
_cell_angle_alpha 92.608141
_cell_angle_beta 54.363034
_cell_angle_gamma 54.820401
_cell_volume 501.433695
_symmetry_space_group_name_H-M "P -1"
_symmetry_group_IT_number 2
_symmetry_cell_setting 'triclinic'
loop_
_space_group_symop_operation_xyz
x,y,z
-x,-y,-z
loop_
_atom_site_type_symbol
_atom_site_label
_atom_site_fract_x
_atom_site_fract_y
_atom_site_fract_z
Si Si1 0.419761 0.039936 0.724103
Si Si2 0.500000 0.500000 0.500000
Si Si3 0.311061 0.828115 0.184015
Si Si4 0.991394 0.223756 0.625971
Si Si5 0.368568 0.373045 0.310812
Si Si6 0.435913 0.361319 0.746734
Si Si7 0.001968 0.169060 0.957248
O O1 0.368273 0.245527 0.816930
O O2 0.194418 0.114410 0.898632
O O3 0.500000 0.000000 0.500000
O O4 0.621297 0.799309 0.640149
O O5 0.411971 0.457135 0.414461
O O6 0.615691 0.262696 0.490004
O O7 0.125009 0.849418 0.289587
O O8 0.498812 0.619133 0.144538
O O9 0.424254 0.786527 0.953526
O O10 0.213827 0.027405 0.367069
O O11 0.838877 0.436068 0.637666
O O12 0.009665 0.233939 0.788547
O O13 0.252708 0.597996 0.804531
O O14 0.000000 0.000000 0.000000
#
# Coordination Sequence:
#
# PCOD9063866 Si02
#       7
#     2   1   2   2   2   2   2
#     4  12  27  49  74 112 159 202 256 325 388 461
#     4  12  24  42  84 104 146 206 254 314 386 448
#     4  11  24  44  75 112 154 199 255 323 382 463
#     4  11  24  45  75 114 154 201 263 318 385 458
#     4  12  25  48  75 110 151 205 254 323 384 459
#     4  12  25  47  77 111 158 201 258 318 392 459
#     4  12  27  48  80 117 153 211 265 316 385 466
#
# _framework density 25.925661999999999
#
# number of rings (size 3 to 8) (size 9 to 14) (size 15 to 20)
#    0.000    0.308    4.615    4.615    2.154    1.846 
#    2.769    2.308    0.000    0.000    0.000    0.000 
#    0.000    0.000    0.000    0.000    0.000    0.000 
#
# Total GULP energy -72482.181972 kJ/mol
# GULP energy per Si atom -5575.552459 kJ/mol
# Density = 2.586665 g / cm^3
# Si number density = 25.925662 Si / 1000 Ang^3
#
#
#
# Elastic Constant Matrix: (Units=GPa)
#
#
# Indices 1 2 3 4 5 6 
#
# 1 102.8246 39.1224 20.6031 -10.7093 0.8219 -3.3453
# 2 39.1224 175.2877 47.4008 -20.8050 9.7295 -13.5703
# 3 20.6031 47.4008 113.8879 -5.8272 24.5435 -12.4154
# 4 -10.7093 -20.8050 -5.8272 46.1265 -12.2785 0.8476
# 5 0.8219 9.7295 24.5435 -12.2785 46.7789 -12.1317
# 6 -3.3453 -13.5703 -12.4154 0.8476 -12.1317 51.6082
#
#
#
# Elastic Compliance Matrix: (Units=1/GPa)
#
#
# Indices 1 2 3 4 5 6 
#
# 1 0.010919 -0.001906 -0.001383 0.001890 0.001475 0.000190
# 2 -0.001906 0.007197 -0.002570 0.002704 0.000939 0.001327
# 3 -0.001383 -0.002570 0.011301 -0.001557 -0.005608 0.000661
# 4 0.001890 0.002704 -0.001557 0.025039 0.007248 0.001752
# 5 0.001475 0.000939 -0.005608 0.007248 0.027378 0.005310
# 6 0.000190 0.001327 0.000661 0.001752 0.005310 0.021116
#
#
# Mechanical properties :
#
#
# Convention : Reuss Voigt Hill
#
# Bulk Modulus (GPa) = 56.49731 67.36143 61.92937
# Shear Modulus (GPa) = 41.47097 47.89431 44.68264
#
# Velocity S-wave (km/s) = 4.00385 4.30277 4.15600
# Velocity P-wave (km/s) = 6.57372 7.12208 6.85339
#
# Compressibility (1/GPa) = 0.01769996
#
# Stress axis : x y z
#
# Youngs Moduli (GPa) = 91.58587 138.94988 88.48635
#
# Poissons Ratio (x) = 0.26483 0.12234
# Poissons Ratio (y) = 0.17456 0.22740
# Poissons Ratio (z) = 0.12662 0.35709
#
# Static dielectric constant tensor:
#      x y z
#    x 3.087220 0.389810 -3.610750 
#    y 0.389810 2.362620 -1.259980 
#    z -3.610750 -1.259980 14.939870 
# 
# From -- ./inp_files/243289.got.cif
#   From: 2010.05.17/outbox.cif.g08.bks.cpg/sg2_122_cif.got.tgz:243289.got - 2010.06.03 11:33:40.
