data_PCOD9063465
_publ_section_title
;
Structure prediction by ZEFSAII (Michael W. Deem and Ramdas Pophale) SiO2 
 PCOD9063465
Probable space group: P -1
;
_chemical_formula_sum "Si O2"
_cell_formula_units_Z 12
_cell_length_a 7.796078
_cell_length_b 13.063403
_cell_length_c 5.182389
_cell_angle_alpha 84.239462
_cell_angle_beta 69.104694
_cell_angle_gamma 68.239286
_cell_volume 457.635202
_symmetry_space_group_name_H-M "P -1"
_symmetry_group_IT_number 2
_symmetry_cell_setting 'triclinic'
loop_
_space_group_symop_operation_xyz
x,y,z
-x,-y,-z
loop_
_atom_site_type_symbol
_atom_site_label
_atom_site_fract_x
_atom_site_fract_y
_atom_site_fract_z
Si Si1 0.521973 0.654353 0.489234
Si Si2 0.524588 0.879015 0.416138
Si Si3 0.060733 0.158064 0.916702
Si Si4 0.775015 0.557139 0.871868
Si Si5 0.824488 0.060770 0.781632
Si Si6 0.877349 0.367858 0.246471
O O1 0.454313 0.782676 0.585131
O O2 0.656015 0.628914 0.165203
O O3 0.333641 0.622298 0.538182
O O4 0.642505 0.586233 0.683495
O O5 0.500000 0.000000 0.500000
O O6 0.393617 0.905052 0.220421
O O7 0.759304 0.818205 0.309732
O O8 0.153453 0.031669 0.992542
O O9 0.989643 0.239099 0.171253
O O10 0.881541 0.160783 0.832611
O O11 0.835455 0.432821 0.977379
O O12 0.971233 0.585167 0.713396
O O13 0.000000 0.000000 0.500000
#
# Coordination Sequence:
#
# PCOD9063465 Si02
#       6
#     2   2   2   2   2   2
#     4  12  28  50  77 111 153 199 249 314 380 443
#     4  12  26  44  70 108 147 197 244 308 367 452
#     4  11  25  45  69 104 145 192 246 309 371 442
#     4  11  28  52  76 115 147 198 256 314 376 446
#     4  11  24  44  69 101 140 192 247 297 373 440
#     4  11  26  48  79 108 150 198 251 317 375 449
#
# _framework density 26.22176
#
# number of rings (size 3 to 8) (size 9 to 14) (size 15 to 20)
#    0.000    0.667    3.333    2.500    7.000    5.333 
#    3.000    0.000    0.000    0.000    0.000    0.000 
#    0.000    0.000    0.000    0.000    0.000    0.000 
#
# Total GULP energy -67168.053375 kJ/mol
# GULP energy per Si atom -5597.337781 kJ/mol
# Density = 2.616208 g / cm^3
# Si number density = 26.221760 Si / 1000 Ang^3
#
#
#
# Elastic Constant Matrix: (Units=GPa)
#
#
# Indices 1 2 3 4 5 6 
#
# 1 184.8631 57.8245 47.2128 3.1201 -7.5341 32.7750
# 2 57.8245 99.4802 14.3967 -6.9967 2.2927 14.7525
# 3 47.2128 14.3967 78.6696 8.6229 -10.7624 12.7423
# 4 3.1201 -6.9967 8.6229 30.6673 -5.4311 -4.1865
# 5 -7.5341 2.2927 -10.7624 -5.4311 46.9484 -5.3635
# 6 32.7750 14.7525 12.7423 -4.1865 -5.3635 40.5568
#
#
#
# Elastic Compliance Matrix: (Units=1/GPa)
#
#
# Indices 1 2 3 4 5 6 
#
# 1 0.008250 -0.003751 -0.003404 -0.001320 0.000076 -0.004360
# 2 -0.003751 0.012715 -0.000342 0.003002 -0.001105 -0.001322
# 3 -0.003404 -0.000342 0.015958 -0.004100 0.002398 -0.002245
# 4 -0.001320 0.003002 -0.004100 0.035938 0.003480 0.005433
# 5 0.000076 -0.001105 0.002398 0.003480 0.022654 0.002942
# 6 -0.004360 -0.001322 -0.002245 0.005433 0.002942 0.030316
#
#
# Mechanical properties :
#
#
# Convention : Reuss Voigt Hill
#
# Bulk Modulus (GPa) = 45.59982 66.87565 56.23773
# Shear Modulus (GPa) = 33.75310 39.87309 36.81309
#
# Velocity S-wave (km/s) = 3.59167 3.90373 3.75095
# Velocity P-wave (km/s) = 5.88455 6.77333 6.34453
#
# Compressibility (1/GPa) = 0.02192991
#
# Stress axis : x y z
#
# Youngs Moduli (GPa) = 121.20717 78.64812 62.66571
#
# Poissons Ratio (x) = 0.29502 0.21329
# Poissons Ratio (y) = 0.45466 0.02141
# Poissons Ratio (z) = 0.41255 0.02687
#
# Static dielectric constant tensor:
#      x y z
#    x 1.963030 0.096720 0.010720 
#    y 0.096720 1.652850 -0.147910 
#    z 0.010720 -0.147910 2.001820 
# 
# From -- ./inp_files/34983.got.cif
#   From: 2010.05.17/outbox.cif.g08.bks.cpg/sg2_18_cif.got.tgz:34983.got - 2010.06.03 11:33:40.
