data_PCOD9063211
_publ_section_title
;
Structure prediction by ZEFSAII (Michael W. Deem and Ramdas Pophale) SiO2 
 PCOD9063211
Probable space group: P -1
;
_chemical_formula_sum "Si O2"
_cell_formula_units_Z 16
_cell_length_a 22.826560
_cell_length_b 6.696689
_cell_length_c 5.207536
_cell_angle_alpha 74.386975
_cell_angle_beta 117.737038
_cell_angle_gamma 101.163712
_cell_volume 676.383667
_symmetry_space_group_name_H-M "P -1"
_symmetry_group_IT_number 2
_symmetry_cell_setting 'triclinic'
loop_
_space_group_symop_operation_xyz
x,y,z
-x,-y,-z
loop_
_atom_site_type_symbol
_atom_site_label
_atom_site_fract_x
_atom_site_fract_y
_atom_site_fract_z
Si Si1 0.141636 0.954812 0.747253
Si Si2 0.676755 0.348886 0.242471
Si Si3 0.436386 0.988219 0.056969
Si Si4 0.663577 0.633514 0.613348
Si Si5 0.467377 0.276111 0.435232
Si Si6 0.965667 0.818707 0.823361
Si Si7 0.774380 0.006622 0.592190
Si Si8 0.060600 0.558641 0.794706
O O1 0.118420 0.710720 0.740452
O O2 0.078694 0.085585 0.516803
O O3 0.196138 0.020145 0.621117
O O4 0.169808 0.987563 0.076758
O O5 0.660340 0.474464 0.421850
O O6 0.742752 0.229096 0.458895
O O7 0.623220 0.155170 0.135223
O O8 0.677973 0.502997 0.946120
O O9 0.465018 0.842450 0.388295
O O10 0.431873 0.205639 0.119768
O O11 0.500000 0.000000 0.000000
O O12 0.595241 0.744497 0.489463
O O13 0.720343 0.816941 0.611428
O O14 0.500000 0.500000 0.500000
O O15 0.026573 0.700284 0.883429
O O16 0.921126 0.650188 0.958431
O O17 0.000000 0.000000 0.000000
O O18 0.000000 0.500000 0.500000
#
# Coordination Sequence:
#
# PCOD9063211 Si02
#       8
#     2   2   2   2   2   2   2   2
#     4  12  27  49  77 109 150 202 250 304 365 454
#     4  12  28  49  76 105 149 198 255 313 373 444
#     4  11  25  41  73 108 148 188 239 319 385 447
#     4  12  28  49  77 105 147 200 254 313 381 448
#     4  11  24  43  72 111 142 186 248 310 386 453
#     4  11  24  46  75 114 153 193 239 305 379 438
#     4  12  30  50  72 106 153 201 258 307 363 441
#     4  11  25  44  77 113 152 187 240 308 374 435
#
# _framework density 23.655215999999999
#
# number of rings (size 3 to 8) (size 9 to 14) (size 15 to 20)
#    0.000    0.500    2.500    4.125   12.250    4.000 
#    0.000    0.000    0.000    0.000    0.000    0.000 
#    0.000    0.000    0.000    0.000    0.000    0.000 
#
# Total GULP energy -89458.455670 kJ/mol
# GULP energy per Si atom -5591.153479 kJ/mol
# Density = 2.360138 g / cm^3
# Si number density = 23.655216 Si / 1000 Ang^3
#
#
#
# Elastic Constant Matrix: (Units=GPa)
#
#
# Indices 1 2 3 4 5 6 
#
# 1 85.5375 30.1216 12.0849 -0.0020 -11.4912 10.2542
# 2 30.1216 125.8588 41.2449 11.9449 -6.7795 10.5652
# 3 12.0849 41.2449 119.6543 -3.0970 -2.0344 -11.1598
# 4 -0.0020 11.9449 -3.0970 51.9173 -6.3095 -8.4145
# 5 -11.4912 -6.7795 -2.0344 -6.3095 44.7017 -0.2285
# 6 10.2542 10.5652 -11.1598 -8.4145 -0.2285 60.9059
#
#
#
# Elastic Compliance Matrix: (Units=1/GPa)
#
#
# Indices 1 2 3 4 5 6 
#
# 1 0.013366 -0.002797 -0.000478 0.000707 0.003081 -0.001743
# 2 -0.002797 0.010268 -0.003549 -0.002927 0.000251 -0.002364
# 3 -0.000478 -0.003549 0.009937 0.001867 0.000069 0.002775
# 4 0.000707 -0.002927 0.001867 0.020977 0.002802 0.003639
# 5 0.003081 0.000251 0.000069 0.002802 0.023599 -0.000074
# 6 -0.001743 -0.002364 0.002775 0.003639 -0.000074 0.018133
#
#
# Mechanical properties :
#
#
# Convention : Reuss Voigt Hill
#
# Bulk Modulus (GPa) = 50.19102 55.32812 52.75957
# Shear Modulus (GPa) = 42.89342 48.01160 45.45251
#
# Velocity S-wave (km/s) = 4.26288 4.51004 4.38820
# Velocity P-wave (km/s) = 6.74487 7.11061 6.93015
#
# Compressibility (1/GPa) = 0.01992388
#
# Stress axis : x y z
#
# Youngs Moduli (GPa) = 74.81557 97.39467 100.63202
#
# Poissons Ratio (x) = 0.27243 0.04807
# Poissons Ratio (y) = 0.20928 0.35711
# Poissons Ratio (z) = 0.03574 0.34562
#
# Static dielectric constant tensor:
#      x y z
#    x 1.944320 -0.048870 -0.074510 
#    y -0.048870 2.203170 0.000770 
#    z -0.074510 0.000770 1.959340 
# 
# From -- ./inp_files/121600.got.cif
#   From: 2010.05.17/outbox.cif.g08.bks.cpg/sg2_61_cif.got.tgz:121600.got - 2010.06.03 11:33:40.
