data_PCOD9063386
_publ_section_title
;
Structure prediction by ZEFSAII (Michael W. Deem and Ramdas Pophale) SiO2 
 PCOD9063386
Probable space group: P -1
;
_chemical_formula_sum "Si O2"
_cell_formula_units_Z 14
_cell_length_a 11.935066
_cell_length_b 25.336090
_cell_length_c 8.951139
_cell_angle_alpha 150.381527
_cell_angle_beta 141.537799
_cell_angle_gamma 28.430981
_cell_volume 634.909306
_symmetry_space_group_name_H-M "P -1"
_symmetry_group_IT_number 2
_symmetry_cell_setting 'triclinic'
loop_
_space_group_symop_operation_xyz
x,y,z
-x,-y,-z
loop_
_atom_site_type_symbol
_atom_site_label
_atom_site_fract_x
_atom_site_fract_y
_atom_site_fract_z
Si Si1 0.077638 0.434681 0.758645
Si Si2 0.377856 0.470525 0.630329
Si Si3 0.774102 0.839767 0.632060
Si Si4 0.523180 0.633565 0.186707
Si Si5 0.720662 0.032885 0.625737
Si Si6 0.254949 0.954637 0.664833
Si Si7 0.855212 0.213442 0.333895
O O1 0.190574 0.274689 0.504784
O O2 0.264767 0.440404 0.891158
O O3 0.838027 0.515921 0.617981
O O4 0.000000 0.500000 0.000000
O O5 0.392078 0.438928 0.742251
O O6 0.626184 0.347642 0.507859
O O7 0.337411 0.611595 0.898400
O O8 0.542383 0.903272 0.446019
O O9 0.006161 0.768077 0.596407
O O10 0.735969 0.959461 0.987188
O O11 0.421570 0.791116 0.476283
O O12 0.710777 0.016631 0.397397
O O13 0.765134 0.140522 0.975886
O O14 0.941261 0.892525 0.592449
O O15 0.000000 0.000000 0.500000
#
# Coordination Sequence:
#
# PCOD9063386 Si02
#       7
#     2   2   2   2   2   2   2
#     4  12  26  45  72 103 138 179 227 281 339 409
#     4  11  26  47  71  97 137 185 227 281 339 403
#     4  12  25  44  71 106 136 183 223 282 346 402
#     4  11  26  48  67 101 135 183 232 276 340 402
#     4  11  24  44  67 102 139 178 228 279 344 404
#     4  12  23  44  71 101 140 179 228 281 338 408
#     4  11  25  45  69 102 139 178 227 283 342 405
#
# _framework density 22.050391999999999
#
# number of rings (size 3 to 8) (size 9 to 14) (size 15 to 20)
#    0.000    0.571    2.857    4.714    2.000    2.286 
#    5.143    0.000    0.000    0.000    0.000    0.000 
#    0.000    0.000    0.000    0.000    0.000    0.000 
#
# Total GULP energy -78289.874273 kJ/mol
# GULP energy per Si atom -5592.133877 kJ/mol
# Density = 2.200020 g / cm^3
# Si number density = 22.050392 Si / 1000 Ang^3
#
#
#
# Elastic Constant Matrix: (Units=GPa)
#
#
# Indices 1 2 3 4 5 6 
#
# 1 119.1248 5.7893 14.8337 6.5843 4.9030 7.3096
# 2 5.7893 57.1499 6.0169 -6.2467 6.2024 -1.0986
# 3 14.8337 6.0169 59.7451 1.4504 5.1367 0.0124
# 4 6.5843 -6.2467 1.4504 36.2350 -6.9376 2.6238
# 5 4.9030 6.2024 5.1367 -6.9376 29.3318 -1.5272
# 6 7.3096 -1.0986 0.0124 2.6238 -1.5272 29.1698
#
#
#
# Elastic Compliance Matrix: (Units=1/GPa)
#
#
# Indices 1 2 3 4 5 6 
#
# 1 0.008977 -0.000776 -0.001974 -0.001821 -0.001536 -0.002194
# 2 -0.000776 0.018351 -0.001482 0.002792 -0.002806 0.000488
# 3 -0.001974 -0.001482 0.017637 -0.001147 -0.002696 0.000393
# 4 -0.001821 0.002792 -0.001147 0.029904 0.006896 -0.001767
# 5 -0.001536 -0.002806 -0.002696 0.006896 0.037129 0.001604
# 6 -0.002194 0.000488 0.000393 -0.001767 0.001604 0.035093
#
#
# Mechanical properties :
#
#
# Convention : Reuss Voigt Hill
#
# Bulk Modulus (GPa) = 27.39682 32.14439 29.77061
# Shear Modulus (GPa) = 29.81119 32.90598 31.35858
#
# Velocity S-wave (km/s) = 3.68089 3.86723 3.77521
# Velocity P-wave (km/s) = 5.52421 5.87792 5.70381
#
# Compressibility (1/GPa) = 0.03650058
#
# Stress axis : x y z
#
# Youngs Moduli (GPa) = 111.40104 54.49149 56.69994
#
# Poissons Ratio (x) = 0.04229 0.11192
# Poissons Ratio (y) = 0.08646 0.08404
# Poissons Ratio (z) = 0.21989 0.08076
#
# Static dielectric constant tensor:
#      x y z
#    x 1.835450 -0.042490 -0.017070 
#    y -0.042490 1.788190 0.021310 
#    z -0.017070 0.021310 1.837740 
# 
# From -- ./inp_files/285242.got.cif
#   From: 2010.05.17/outbox.cif.g08.bks.cpg/sg2_143_cif.got.tgz:285242.got - 2010.06.03 11:33:40.
