data_PCOD9063403
_publ_section_title
;
Structure prediction by ZEFSAII (Michael W. Deem and Ramdas Pophale) SiO2 
 PCOD9063403
Probable space group: P -1
;
_chemical_formula_sum "Si O2"
_cell_formula_units_Z 16
_cell_length_a 6.749137
_cell_length_b 13.682098
_cell_length_c 28.894954
_cell_angle_alpha 27.071592
_cell_angle_beta 138.065671
_cell_angle_gamma 139.517072
_cell_volume 768.046080
_symmetry_space_group_name_H-M "P -1"
_symmetry_group_IT_number 2
_symmetry_cell_setting 'triclinic'
loop_
_space_group_symop_operation_xyz
x,y,z
-x,-y,-z
loop_
_atom_site_type_symbol
_atom_site_label
_atom_site_fract_x
_atom_site_fract_y
_atom_site_fract_z
Si Si1 0.552529 0.194989 0.464811
Si Si2 0.788179 0.070131 0.652043
Si Si3 0.528841 0.539879 0.848165
Si Si4 0.292482 0.744819 0.081751
Si Si5 0.787994 0.402046 0.596438
Si Si6 0.567952 0.674011 0.980633
Si Si7 0.495606 0.145099 0.742152
Si Si8 0.211917 0.542476 0.251911
O O1 0.580586 0.097528 0.561380
O O2 0.277273 0.305325 0.367596
O O3 0.880841 0.397674 0.428335
O O4 0.500000 0.000000 0.500000
O O5 0.776911 0.239970 0.619363
O O6 0.149813 0.140356 0.669844
O O7 0.682292 0.810434 0.759527
O O8 0.658833 0.420698 0.879950
O O9 0.155109 0.485272 0.799404
O O10 0.581158 0.439968 0.949065
O O11 0.353413 0.655346 0.180149
O O12 0.939377 0.747182 0.021187
O O13 0.500000 0.000000 0.000000
O O14 0.500000 0.500000 0.500000
O O15 0.728834 0.250591 0.696307
O O16 0.476632 0.891803 0.858901
O O17 0.500000 0.500000 0.000000
O O18 0.612981 0.300683 0.741754
#
# Coordination Sequence:
#
# PCOD9063403 Si02
#       8
#     2   2   2   2   2   2   2   2
#     4  12  27  46  71 102 137 178 230 280 338 410
#     4  12  26  47  69 102 139 180 228 282 335 407
#     4  11  26  44  69  99 141 180 225 286 336 396
#     4  11  24  44  67  98 138 177 227 281 338 399
#     4  12  26  46  71  99 138 180 224 284 343 397
#     4  11  25  43  67 102 134 176 231 277 335 405
#     4  12  25  44  73  99 137 180 227 276 341 406
#     4  11  26  44  66 103 136 175 231 276 338 407
#
# _framework density 20.832083000000001
#
# number of rings (size 3 to 8) (size 9 to 14) (size 15 to 20)
#    0.000    0.500    2.500    4.875    7.000    8.500 
#    0.000    0.000    0.000    0.000    0.000    0.000 
#    0.000    0.000    0.000    0.000    0.000    0.000 
#
# Total GULP energy -89614.401662 kJ/mol
# GULP energy per Si atom -5600.900104 kJ/mol
# Density = 2.078467 g / cm^3
# Si number density = 20.832083 Si / 1000 Ang^3
#
#
#
# Elastic Constant Matrix: (Units=GPa)
#
#
# Indices 1 2 3 4 5 6 
#
# 1 90.7669 17.1531 38.0198 -4.1213 -14.9789 -21.3734
# 2 17.1531 83.0852 21.4190 -14.9077 -11.8823 -29.5831
# 3 38.0198 21.4190 117.6340 -5.2669 -8.7005 -25.7515
# 4 -4.1213 -14.9077 -5.2669 44.1459 -2.9545 1.6399
# 5 -14.9789 -11.8823 -8.7005 -2.9545 48.0179 1.0345
# 6 -21.3734 -29.5831 -25.7515 1.6399 1.0345 47.3535
#
#
#
# Elastic Compliance Matrix: (Units=1/GPa)
#
#
# Indices 1 2 3 4 5 6 
#
# 1 0.014111 0.000355 -0.003261 0.001133 0.003867 0.004694
# 2 0.000355 0.017523 -0.000393 0.005812 0.004505 0.010594
# 3 -0.003261 -0.000393 0.010591 0.000729 0.000763 0.004000
# 4 0.001133 0.005812 0.000729 0.024900 0.003378 0.003602
# 5 0.003867 0.004505 0.000763 0.003378 0.023399 0.004347
# 6 0.004694 0.010594 0.004000 0.003602 0.004347 0.031811
#
#
# Mechanical properties :
#
#
# Convention : Reuss Voigt Hill
#
# Bulk Modulus (GPa) = 28.06815 49.40776 38.73796
# Shear Modulus (GPa) = 35.50926 42.22975 38.86950
#
# Velocity S-wave (km/s) = 4.13309 4.50727 4.32423
# Velocity P-wave (km/s) = 6.02324 7.13134 6.60058
#
# Compressibility (1/GPa) = 0.03562757
#
# Stress axis : x y z
#
# Youngs Moduli (GPa) = 70.86640 57.06807 94.41699
#
# Poissons Ratio (x) = -0.02026 0.30791
# Poissons Ratio (y) = -0.02516 0.03708
# Poissons Ratio (z) = 0.23110 0.02241
#
# Static dielectric constant tensor:
#      x y z
#    x 1.779180 0.080730 -0.013230 
#    y 0.080730 1.776340 0.013930 
#    z -0.013230 0.013930 1.724300 
# 
# From -- ./inp_files/90823.got.cif
#   From: 2010.05.17/outbox.cif.g08.bks.cpg/sg2_46_cif.got.tgz:90823.got - 2010.06.03 11:33:40.
