data_PCOD9063402
_publ_section_title
;
Structure prediction by ZEFSAII (Michael W. Deem and Ramdas Pophale) SiO2 
 PCOD9063402
Probable space group: P -1
;
_chemical_formula_sum "Si O2"
_cell_formula_units_Z 16
_cell_length_a 13.234359
_cell_length_b 12.143183
_cell_length_c 12.057056
_cell_angle_alpha 109.062148
_cell_angle_beta 149.137111
_cell_angle_gamma 58.811834
_cell_volume 819.051874
_symmetry_space_group_name_H-M "P -1"
_symmetry_group_IT_number 2
_symmetry_cell_setting 'triclinic'
loop_
_space_group_symop_operation_xyz
x,y,z
-x,-y,-z
loop_
_atom_site_type_symbol
_atom_site_label
_atom_site_fract_x
_atom_site_fract_y
_atom_site_fract_z
Si Si1 0.234050 0.599408 0.298103
Si Si2 0.228505 0.098326 0.785575
Si Si3 0.570031 0.221394 0.415542
Si Si4 0.454585 0.149258 0.522349
Si Si5 0.861973 0.115712 0.002432
Si Si6 0.061905 0.646155 0.905015
Si Si7 0.850523 0.626828 0.088806
Si Si8 0.952518 0.973364 0.607104
O O1 0.500000 0.500000 0.500000
O O2 0.244598 0.730001 0.388182
O O3 0.101215 0.562876 0.250736
O O4 0.101048 0.625440 0.067130
O O5 0.189437 0.240675 0.841012
O O6 0.080853 0.122785 0.541695
O O7 0.119128 0.025455 0.733482
O O8 0.500000 0.000000 0.000000
O O9 0.527144 0.191082 0.489871
O O10 0.694645 0.091620 0.415024
O O11 0.337671 0.322022 0.169428
O O12 0.612271 0.137366 0.768754
O O13 0.198710 0.258315 0.336763
O O14 0.500000 0.000000 0.500000
O O15 0.832898 0.260013 0.994568
O O16 0.973262 0.074189 0.213362
O O17 0.000000 0.000000 0.000000
O O18 0.157976 0.496427 0.899704
#
# Coordination Sequence:
#
# PCOD9063402 Si02
#       8
#     2   2   2   2   2   2   2   2
#     4  12  22  37  59  96 139 172 204 263 334 399
#     4  11  25  44  71  95 126 170 228 284 318 377
#     4  12  21  37  64  94 134 167 213 270 322 388
#     4  12  24  36  59  95 132 177 211 251 323 399
#     4  12  24  42  65  95 136 175 213 267 327 400
#     4  12  24  39  59  96 137 173 212 262 330 394
#     4  12  25  39  65  99 132 174 223 269 329 390
#     4  11  24  44  67  97 126 171 225 274 329 380
#
# _framework density 19.534783999999998
#
# number of rings (size 3 to 8) (size 9 to 14) (size 15 to 20)
#    0.000    0.250    8.750    1.125    1.750    1.000 
#    0.000    0.625    0.000    1.500    0.000    0.000 
#    0.000    0.000    0.000    0.000    0.000    0.000 
#
# Total GULP energy -89246.247897 kJ/mol
# GULP energy per Si atom -5577.890494 kJ/mol
# Density = 1.949032 g / cm^3
# Si number density = 19.534784 Si / 1000 Ang^3
#
#
#
# Elastic Constant Matrix: (Units=GPa)
#
#
# Indices 1 2 3 4 5 6 
#
# 1 41.5273 21.2013 13.4850 6.8494 -11.3695 0.8193
# 2 21.2013 131.0218 45.2713 17.0822 -12.0617 8.0864
# 3 13.4850 45.2713 115.1510 2.1505 -10.8724 -8.9296
# 4 6.8494 17.0822 2.1505 42.5951 -4.3720 2.3168
# 5 -11.3695 -12.0617 -10.8724 -4.3720 31.9049 0.5722
# 6 0.8193 8.0864 -8.9296 2.3168 0.5722 24.6682
#
#
#
# Elastic Compliance Matrix: (Units=1/GPa)
#
#
# Indices 1 2 3 4 5 6 
#
# 1 0.028778 -0.003078 -0.001362 -0.002451 0.008299 -0.000402
# 2 -0.003078 0.010229 -0.003837 -0.003060 0.001122 -0.004379
# 3 -0.001362 -0.003837 0.010901 0.001119 0.001841 0.005101
# 4 -0.002451 -0.003060 0.001119 0.025280 0.001832 -0.000927
# 5 0.008299 0.001122 0.001841 0.001832 0.035620 -0.000975
# 6 -0.000402 -0.004379 0.005101 -0.000927 -0.000975 0.043943
#
#
# Mechanical properties :
#
#
# Convention : Reuss Voigt Hill
#
# Bulk Modulus (GPa) = 29.98178 49.73505 39.85842
# Shear Modulus (GPa) = 27.40866 33.68314 30.54590
#
# Velocity S-wave (km/s) = 3.74982 4.15693 3.95861
# Velocity P-wave (km/s) = 5.84204 6.96815 6.42980
#
# Compressibility (1/GPa) = 0.03335359
#
# Stress axis : x y z
#
# Youngs Moduli (GPa) = 34.74820 97.76347 91.73552
#
# Poissons Ratio (x) = 0.30090 0.12494
# Poissons Ratio (y) = 0.10695 0.35203
# Poissons Ratio (z) = 0.04733 0.37516
#
# Static dielectric constant tensor:
#      x y z
#    x 1.737830 -0.029660 0.052990 
#    y -0.029660 1.791320 0.003040 
#    z 0.052990 0.003040 1.707660 
# 
# From -- ./inp_files/428616.got.cif
#   From: 2010.05.17/outbox.cif.g08.bks.cpg/sg2_215_cif.got.tgz:428616.got - 2010.06.03 11:33:40.
