data_PCOD9063702
_publ_section_title
;
Structure prediction by ZEFSAII (Michael W. Deem and Ramdas Pophale) SiO2 
 PCOD9063702
Probable space group: P -1
;
_chemical_formula_sum "Si O2"
_cell_formula_units_Z 16
_cell_length_a 16.874169
_cell_length_b 25.026446
_cell_length_c 25.571399
_cell_angle_alpha 11.622823
_cell_angle_beta 159.263939
_cell_angle_gamma 159.172754
_cell_volume 743.623701
_symmetry_space_group_name_H-M "P -1"
_symmetry_group_IT_number 2
_symmetry_cell_setting 'triclinic'
loop_
_space_group_symop_operation_xyz
x,y,z
-x,-y,-z
loop_
_atom_site_type_symbol
_atom_site_label
_atom_site_fract_x
_atom_site_fract_y
_atom_site_fract_z
Si Si1 0.242907 0.093435 0.001589
Si Si2 0.977052 0.796309 0.791617
Si Si3 0.481381 0.138191 0.412879
Si Si4 0.469189 0.352394 0.389734
Si Si5 0.782584 0.678530 0.629625
Si Si6 0.054682 0.944431 0.816430
Si Si7 0.352455 0.544141 0.417923
Si Si8 0.279893 0.231004 0.015518
O O1 0.387524 0.869500 0.305768
O O2 0.361495 0.346310 0.795516
O O3 0.266125 0.215617 0.958138
O O4 0.983969 0.940618 0.970167
O O5 0.698893 0.697394 0.716370
O O6 0.067090 0.884956 0.819676
O O7 0.066305 0.050462 0.564449
O O8 0.082640 0.551851 0.073760
O O9 0.639494 0.452700 0.217807
O O10 0.213253 0.144176 0.247413
O O11 0.500000 0.000000 0.500000
O O12 0.555237 0.940741 0.691375
O O13 0.286811 0.309227 0.365373
O O14 0.539252 0.607688 0.517648
O O15 0.159760 0.267572 0.577558
O O16 0.222050 0.781498 0.102539
O O17 0.500000 0.500000 0.500000
#
# Coordination Sequence:
#
# PCOD9063702 Si02
#       8
#     2   2   2   2   2   2   2   2
#     4  11  24  44  72  99 130 178 226 281 336 409
#     4  12  22  41  64  90 132 173 225 267 330 400
#     4  12  27  46  70 106 142 175 226 286 346 406
#     4  12  25  41  64 101 134 169 225 277 344 399
#     4  12  25  40  63  92 134 177 214 280 333 389
#     4  12  24  41  70  95 127 182 223 273 336 396
#     4  12  23  43  64  95 132 172 234 275 321 401
#     4  11  24  47  73  97 136 177 226 280 344 402
#
# _framework density 21.516259000000002
#
# number of rings (size 3 to 8) (size 9 to 14) (size 15 to 20)
#    0.000    0.250    2.500    7.500    0.000    5.000 
#    0.000    0.000    0.000    0.000    0.000    0.000 
#    0.000    0.000    0.000    0.000    0.000    0.000 
#
# Total GULP energy -89539.741904 kJ/mol
# GULP energy per Si atom -5596.233869 kJ/mol
# Density = 2.146729 g / cm^3
# Si number density = 21.516259 Si / 1000 Ang^3
#
#
#
# Elastic Constant Matrix: (Units=GPa)
#
#
# Indices 1 2 3 4 5 6 
#
# 1 69.3034 29.6819 33.1060 -19.1435 3.7463 8.1027
# 2 29.6819 147.0852 46.4056 -9.2317 -23.5021 19.5182
# 3 33.1060 46.4056 144.7130 -11.5119 -11.3750 17.5172
# 4 -19.1435 -9.2317 -11.5119 59.2001 -1.8358 -1.4962
# 5 3.7463 -23.5021 -11.3750 -1.8358 37.7881 -5.0508
# 6 8.1027 19.5182 17.5172 -1.4962 -5.0508 36.8333
#
#
#
# Elastic Compliance Matrix: (Units=1/GPa)
#
#
# Indices 1 2 3 4 5 6 
#
# 1 0.019045 -0.003096 -0.003167 0.004876 -0.004730 -0.001493
# 2 -0.003096 0.009082 -0.001451 0.000225 0.005166 -0.002724
# 3 -0.003167 -0.001451 0.008550 0.000405 0.001691 -0.002352
# 4 0.004876 0.000225 0.000405 0.018587 0.000608 -0.000546
# 5 -0.004730 0.005166 0.001691 0.000608 0.030919 0.001764
# 6 -0.001493 -0.002724 -0.002352 -0.000546 0.001764 0.030260
#
#
# Mechanical properties :
#
#
# Convention : Reuss Voigt Hill
#
# Bulk Modulus (GPa) = 47.05856 64.38762 55.72309
# Shear Modulus (GPa) = 35.98309 43.55817 39.77063
#
# Velocity S-wave (km/s) = 4.09390 4.50425 4.30397
# Velocity P-wave (km/s) = 6.65322 7.55255 7.11710
#
# Compressibility (1/GPa) = 0.02125012
#
# Stress axis : x y z
#
# Youngs Moduli (GPa) = 52.50664 110.10651 116.96061
#
# Poissons Ratio (x) = 0.34084 0.37047
# Poissons Ratio (y) = 0.16254 0.16966
# Poissons Ratio (z) = 0.16631 0.15972
#
# Static dielectric constant tensor:
#      x y z
#    x 1.813620 -0.032330 -0.030220 
#    y -0.032330 1.777710 0.011580 
#    z -0.030220 0.011580 1.714990 
# 
# From -- ./inp_files/620536.got.cif
#   From: 2010.05.17/outbox.cif.g08.bks.cpg/sg2_311_cif.got.tgz:620536.got - 2010.06.03 11:33:40.
