data_PCOD9063529
_publ_section_title
;
Structure prediction by ZEFSAII (Michael W. Deem and Ramdas Pophale) SiO2 
 PCOD9063529
Probable space group: P -1
;
_chemical_formula_sum "Si O2"
_cell_formula_units_Z 12
_cell_length_a 9.814128
_cell_length_b 17.642631
_cell_length_c 5.245335
_cell_angle_alpha 75.563133
_cell_angle_beta 93.184864
_cell_angle_gamma 144.165600
_cell_volume 497.416601
_symmetry_space_group_name_H-M "P -1"
_symmetry_group_IT_number 2
_symmetry_cell_setting 'triclinic'
loop_
_space_group_symop_operation_xyz
x,y,z
-x,-y,-z
loop_
_atom_site_type_symbol
_atom_site_label
_atom_site_fract_x
_atom_site_fract_y
_atom_site_fract_z
Si Si1 0.079333 0.118569 0.033827
Si Si2 0.508602 0.071096 0.152129
Si Si3 0.610175 0.628369 0.535242
Si Si4 0.275431 0.606818 0.453184
Si Si5 0.496342 0.759051 0.837245
Si Si6 0.089695 0.828802 0.707491
O O1 0.227482 0.241053 0.745790
O O2 0.893355 0.090359 0.162287
O O3 0.255259 0.170274 0.230921
O O4 0.000000 0.000000 0.000000
O O5 0.791483 0.194755 0.159926
O O6 0.285512 0.941345 0.418412
O O7 0.470675 0.145393 0.082493
O O8 0.500000 0.000000 0.000000
O O9 0.500000 0.500000 0.500000
O O10 0.378810 0.574607 0.612437
O O11 0.810446 0.694813 0.706910
O O12 0.351714 0.642260 0.134166
O O13 0.000000 0.500000 0.500000
O O14 0.388013 0.720045 0.579478
#
# Coordination Sequence:
#
# PCOD9063529 Si02
#       6
#     2   2   2   2   2   2
#     4  11  24  45  73 105 141 189 245 303 365 443
#     4  11  26  42  68 105 141 188 243 303 366 433
#     4  11  26  45  69 105 146 188 239 302 369 435
#     4  11  26  47  70 103 139 197 241 300 364 445
#     4  11  25  45  73 101 143 186 250 302 365 432
#     4  11  24  44  70 101 142 186 240 300 368 436
#
# _framework density 24.124649999999999
#
# number of rings (size 3 to 8) (size 9 to 14) (size 15 to 20)
#    0.000    1.000    1.667    3.500   11.667    3.333 
#    0.000    0.000    0.000    0.000    0.000    0.000 
#    0.000    0.000    0.000    0.000    0.000    0.000 
#
# Total GULP energy -66874.745937 kJ/mol
# GULP energy per Si atom -5572.895495 kJ/mol
# Density = 2.406974 g / cm^3
# Si number density = 24.124650 Si / 1000 Ang^3
#
#
#
# Elastic Constant Matrix: (Units=GPa)
#
#
# Indices 1 2 3 4 5 6 
#
# 1 158.5964 30.3361 2.3509 1.6644 -25.3036 26.1149
# 2 30.3361 75.0964 5.7875 21.9875 -0.4313 3.3855
# 3 2.3509 5.7875 80.7123 5.4825 -27.3622 2.4768
# 4 1.6644 21.9875 5.4825 27.3311 7.6678 -0.4974
# 5 -25.3036 -0.4313 -27.3622 7.6678 42.9479 4.6867
# 6 26.1149 3.3855 2.4768 -0.4974 4.6867 49.7110
#
#
#
# Elastic Compliance Matrix: (Units=1/GPa)
#
#
# Indices 1 2 3 4 5 6 
#
# 1 0.009060 -0.003387 0.002848 -0.000695 0.007833 -0.005416
# 2 -0.003387 0.019232 0.000121 -0.015576 0.001033 0.000210
# 3 0.002848 0.000121 0.018094 -0.008208 0.015099 -0.003912
# 4 -0.000695 -0.015576 -0.008208 0.055399 -0.016112 0.003908
# 5 0.007833 0.001033 0.015099 -0.016112 0.041388 -0.009001
# 6 -0.005416 0.000210 -0.003912 0.003908 -0.009001 0.024030
#
#
# Mechanical properties :
#
#
# Convention : Reuss Voigt Hill
#
# Bulk Modulus (GPa) = 21.95335 43.48379 32.71857
# Shear Modulus (GPa) = 27.28925 42.39336 34.84131
#
# Velocity S-wave (km/s) = 3.36695 4.19652 3.80441
# Velocity P-wave (km/s) = 4.92289 6.44553 5.73496
#
# Compressibility (1/GPa) = 0.04555114
#
# Stress axis : x y z
#
# Youngs Moduli (GPa) = 110.37762 51.99693 55.26550
#
# Poissons Ratio (x) = 0.17610 -0.15739
# Poissons Ratio (y) = 0.37383 -0.00671
# Poissons Ratio (z) = -0.31434 -0.00631
#
# Static dielectric constant tensor:
#      x y z
#    x 1.921880 0.119500 0.070760 
#    y 0.119500 1.561760 0.144260 
#    z 0.070760 0.144260 2.053230 
# 
# From -- ./inp_files/48219.got.cif
#   From: 2010.05.17/outbox.cif.g08.bks.cpg/sg2_25_cif.got.tgz:48219.got - 2010.06.03 11:33:40.
