data_PCOD9063619
_publ_section_title
;
Structure prediction by ZEFSAII (Michael W. Deem and Ramdas Pophale) SiO2 
 PCOD9063619
Probable space group: P -1
;
_chemical_formula_sum "Si O2"
_cell_formula_units_Z 16
_cell_length_a 17.996256
_cell_length_b 9.296406
_cell_length_c 12.364622
_cell_angle_alpha 46.597314
_cell_angle_beta 32.205630
_cell_angle_gamma 50.115751
_cell_volume 791.379653
_symmetry_space_group_name_H-M "P -1"
_symmetry_group_IT_number 2
_symmetry_cell_setting 'triclinic'
loop_
_space_group_symop_operation_xyz
x,y,z
-x,-y,-z
loop_
_atom_site_type_symbol
_atom_site_label
_atom_site_fract_x
_atom_site_fract_y
_atom_site_fract_z
Si Si1 0.150686 0.549150 0.255015
Si Si2 0.648684 0.753870 0.981131
Si Si3 0.106683 0.660501 0.804621
Si Si4 0.672469 0.204316 0.702241
Si Si5 0.635358 0.607084 0.300038
Si Si6 0.082577 0.995061 0.014819
Si Si7 0.368546 0.180966 0.570551
Si Si8 0.649881 0.483728 0.768250
O O1 0.126325 0.775176 0.124017
O O2 0.242146 0.505830 0.273518
O O3 0.000000 0.500000 0.500000
O O4 0.234071 0.410849 0.131014
O O5 0.491711 0.710260 0.166691
O O6 0.647916 0.759049 0.109075
O O7 0.676933 0.970120 0.795129
O O8 0.205547 0.709909 0.558303
O O9 0.225016 0.557769 0.794771
O O10 0.018667 0.862917 0.852698
O O11 0.000000 0.500000 0.000000
O O12 0.690271 0.271459 0.767976
O O13 0.500000 0.500000 0.500000
O O14 0.630026 0.709745 0.371028
O O15 0.225202 0.089789 0.779827
O O16 0.000000 0.000000 0.000000
O O17 0.364540 0.344379 0.395099
O O18 0.500000 0.000000 0.500000
O O19 0.500000 0.500000 0.000000
#
# Coordination Sequence:
#
# PCOD9063619 Si02
#       8
#     2   2   2   2   2   2   2   2
#     4  12  27  48  71 106 146 190 240 294 366 427
#     4  11  25  44  71 107 141 187 242 293 354 436
#     4  12  24  47  71 102 148 183 241 299 362 431
#     4  11  24  44  71 106 140 188 236 293 368 419
#     4  12  25  46  75 103 144 189 244 299 357 434
#     4  12  27  47  72 105 146 193 238 297 364 430
#     4  12  28  45  73 111 141 191 243 294 363 430
#     4  12  24  46  73 101 146 183 238 296 354 431
#
# _framework density 20.217855
#
# number of rings (size 3 to 8) (size 9 to 14) (size 15 to 20)
#    0.000    0.250    5.000    3.000    7.000    1.000 
#    0.000    1.875    0.000    0.000    0.000    0.000 
#    0.000    0.000    0.000    0.000    0.000    0.000 
#
# Total GULP energy -89420.162729 kJ/mol
# GULP energy per Si atom -5588.760171 kJ/mol
# Density = 2.017184 g / cm^3
# Si number density = 20.217855 Si / 1000 Ang^3
#
#
#
# Elastic Constant Matrix: (Units=GPa)
#
#
# Indices 1 2 3 4 5 6 
#
# 1 143.1426 37.1951 74.0408 -1.4329 -5.7403 1.7906
# 2 37.1951 137.1402 66.5666 10.6163 -3.6680 1.4435
# 3 74.0408 66.5666 180.3976 0.9082 -17.0559 8.8771
# 4 -1.4329 10.6163 0.9082 38.4291 -3.4544 -0.5566
# 5 -5.7403 -3.6680 -17.0559 -3.4544 44.1032 4.6669
# 6 1.7906 1.4435 8.8771 -0.5566 4.6669 31.7227
#
#
#
# Elastic Compliance Matrix: (Units=1/GPa)
#
#
# Indices 1 2 3 4 5 6 
#
# 1 0.008963 -0.000830 -0.003424 0.000631 -0.000234 0.000536
# 2 -0.000830 0.009219 -0.003155 -0.002569 -0.000825 0.000587
# 3 -0.003424 -0.003155 0.008504 0.000768 0.002901 -0.002456
# 4 0.000631 -0.002569 0.000768 0.026942 0.002275 0.000004
# 5 -0.000234 -0.000825 0.002901 0.002275 0.024330 -0.004300
# 6 0.000536 0.000587 -0.002456 0.000004 -0.004300 0.032786
#
#
# Mechanical properties :
#
#
# Convention : Reuss Voigt Hill
#
# Bulk Modulus (GPa) = 84.25897 90.69837 87.47867
# Shear Modulus (GPa) = 38.60458 41.70953 40.15705
#
# Velocity S-wave (km/s) = 4.37444 4.54696 4.46153
# Velocity P-wave (km/s) = 8.20246 8.51612 8.36076
#
# Compressibility (1/GPa) = 0.01186817
#
# Stress axis : x y z
#
# Youngs Moduli (GPa) = 111.56930 108.47234 117.58838
#
# Poissons Ratio (x) = 0.08999 0.40265
# Poissons Ratio (y) = 0.09256 0.37101
# Poissons Ratio (z) = 0.38204 0.34225
#
# Static dielectric constant tensor:
#      x y z
#    x 1.847920 -0.102670 0.011520 
#    y -0.102670 1.797550 -0.016370 
#    z 0.011520 -0.016370 1.687010 
# 
# From -- ./inp_files/207767.got.cif
#   From: 2010.05.17/outbox.cif.g08.bks.cpg/sg2_104_cif.got.tgz:207767.got - 2010.06.03 11:33:40.
