data_PCOD9063275
_publ_section_title
;
Structure prediction by ZEFSAII (Michael W. Deem and Ramdas Pophale) SiO2 
 PCOD9063275
Probable space group: P -1
;
_chemical_formula_sum "Si O2"
_cell_formula_units_Z 16
_cell_length_a 9.493466
_cell_length_b 9.111010
_cell_length_c 11.378233
_cell_angle_alpha 103.699088
_cell_angle_beta 56.577649
_cell_angle_gamma 115.582625
_cell_volume 740.884140
_symmetry_space_group_name_H-M "P -1"
_symmetry_group_IT_number 2
_symmetry_cell_setting 'triclinic'
loop_
_space_group_symop_operation_xyz
x,y,z
-x,-y,-z
loop_
_atom_site_type_symbol
_atom_site_label
_atom_site_fract_x
_atom_site_fract_y
_atom_site_fract_z
Si Si1 0.198228 0.967044 0.596253
Si Si2 0.448619 0.069502 0.916405
Si Si3 0.564566 0.137373 0.345947
Si Si4 0.098408 0.373386 0.415452
Si Si5 0.658818 0.437688 0.872653
Si Si6 0.955893 0.377502 0.891239
Si Si7 0.934900 0.034068 0.908522
Si Si8 0.293619 0.487005 0.589732
O O1 0.330918 0.938744 0.627505
O O2 0.058376 0.803679 0.567643
O O3 0.349040 0.086342 0.462509
O O4 0.070198 0.031980 0.743446
O O5 0.575023 0.245544 0.839842
O O6 0.426493 0.937681 0.799429
O O7 0.500000 0.000000 0.000000
O O8 0.265248 0.099195 0.037637
O O9 0.674372 0.325918 0.358861
O O10 0.231656 0.439593 0.256298
O O11 0.215590 0.402909 0.485508
O O12 0.000000 0.500000 0.500000
O O13 0.807490 0.423808 0.894764
O O14 0.500000 0.500000 0.000000
O O15 0.898440 0.199503 0.940127
O O16 0.134526 0.395767 0.737120
O O17 0.000000 0.500000 0.000000
O O18 0.000000 0.000000 0.000000
O O19 0.500000 0.500000 0.500000
#
# Coordination Sequence:
#
# PCOD9063275 Si02
#       8
#     2   2   2   2   2   2   2   2
#     4  11  24  43  74 107 139 193 246 302 357 442
#     4  12  26  46  71 102 151 192 242 307 364 431
#     4  11  24  44  72 104 147 188 246 299 368 431
#     4  12  24  48  76 104 148 197 250 300 375 439
#     4  12  28  46  75 111 146 196 250 307 373 440
#     4  12  28  48  73 107 154 192 249 311 366 442
#     4  12  26  46  73 106 146 196 245 296 370 440
#     4  12  28  47  74 110 151 195 244 309 373 445
#
# _framework density 21.59582
#
# number of rings (size 3 to 8) (size 9 to 14) (size 15 to 20)
#    0.000    0.250    5.000    3.000    7.000    1.000 
#    0.000    1.875    0.000    0.000    0.000    0.000 
#    0.000    0.000    0.000    0.000    0.000    0.000 
#
# Total GULP energy -89237.564462 kJ/mol
# GULP energy per Si atom -5577.347779 kJ/mol
# Density = 2.154667 g / cm^3
# Si number density = 21.595820 Si / 1000 Ang^3
#
#
#
# Elastic Constant Matrix: (Units=GPa)
#
#
# Indices 1 2 3 4 5 6 
#
# 1 129.4646 24.0474 59.1959 0.4350 3.1688 24.9421
# 2 24.0474 108.5288 50.8607 -3.4187 15.9123 21.4274
# 3 59.1959 50.8607 132.1923 -3.9647 -6.5014 14.2409
# 4 0.4350 -3.4187 -3.9647 41.0331 7.3164 -4.3555
# 5 3.1688 15.9123 -6.5014 7.3164 42.1189 -0.2040
# 6 24.9421 21.4274 14.2409 -4.3555 -0.2040 29.7928
#
#
#
# Elastic Compliance Matrix: (Units=1/GPa)
#
#
# Indices 1 2 3 4 5 6 
#
# 1 0.011392 0.001811 -0.005008 -0.000977 -0.002186 -0.008604
# 2 0.001811 0.014198 -0.005604 0.000839 -0.006554 -0.008971
# 3 -0.005008 -0.005604 0.011903 0.000245 0.004301 0.002599
# 4 -0.000977 0.000839 0.000245 0.025710 -0.004653 0.003825
# 5 -0.002186 -0.006554 0.004301 -0.004653 0.027875 0.003999
# 6 -0.008604 -0.008971 0.002599 0.003825 0.003999 0.046564
#
#
# Mechanical properties :
#
#
# Convention : Reuss Voigt Hill
#
# Bulk Modulus (GPa) = 50.27724 70.93262 60.60493
# Shear Modulus (GPa) = 30.88827 38.32775 34.60801
#
# Velocity S-wave (km/s) = 3.78602 4.21738 4.00751
# Velocity P-wave (km/s) = 6.51487 7.52542 7.03830
#
# Compressibility (1/GPa) = 0.01988972
#
# Stress axis : x y z
#
# Youngs Moduli (GPa) = 87.78112 70.43317 84.01538
#
# Poissons Ratio (x) = -0.12758 0.42077
# Poissons Ratio (y) = -0.15900 0.47086
# Poissons Ratio (z) = 0.43963 0.39474
#
# Static dielectric constant tensor:
#      x y z
#    x 1.936340 -0.244430 0.034200 
#    y -0.244430 2.264980 -0.093730 
#    z 0.034200 -0.093730 1.815750 
# 
# From -- ./inp_files/382872.got.cif
#   From: 2010.05.17/outbox.cif.g08.bks.cpg/sg2_192_cif.got.tgz:382872.got - 2010.06.03 11:33:40.
