data_PCOD9063706
_publ_section_title
;
Structure prediction by ZEFSAII (Michael W. Deem and Ramdas Pophale) SiO2 
 PCOD9063706
Probable space group: P -1
;
_chemical_formula_sum "Si O2"
_cell_formula_units_Z 14
_cell_length_a 9.769122
_cell_length_b 15.833109
_cell_length_c 15.289095
_cell_angle_alpha 146.124624
_cell_angle_beta 26.660022
_cell_angle_gamma 143.967257
_cell_volume 570.023321
_symmetry_space_group_name_H-M "P -1"
_symmetry_group_IT_number 2
_symmetry_cell_setting 'triclinic'
loop_
_space_group_symop_operation_xyz
x,y,z
-x,-y,-z
loop_
_atom_site_type_symbol
_atom_site_label
_atom_site_fract_x
_atom_site_fract_y
_atom_site_fract_z
Si Si1 0.702173 0.176034 0.019832
Si Si2 0.180608 0.260220 0.955302
Si Si3 0.075894 0.986660 0.546182
Si Si4 0.146822 0.381214 0.593738
Si Si5 0.472152 0.537806 0.914232
Si Si6 0.243765 0.341597 0.319433
Si Si7 0.797552 0.039786 0.229949
O O1 0.511435 0.269312 0.149928
O O2 0.985361 0.134385 0.769381
O O3 0.839535 0.248758 0.097187
O O4 0.500000 0.000000 0.000000
O O5 0.415255 0.371506 0.850131
O O6 0.278492 0.337144 0.060353
O O7 0.208600 0.084833 0.796420
O O8 0.897668 0.807110 0.525872
O O9 0.444900 0.012621 0.374516
O O10 0.000000 0.000000 0.500000
O O11 0.500000 0.500000 0.500000
O O12 0.083461 0.400959 0.544166
O O13 0.868729 0.420791 0.844565
O O14 0.586092 0.542226 0.753890
O O15 0.980866 0.206825 0.306154
O O16 0.000000 0.000000 0.000000
#
# Coordination Sequence:
#
# PCOD9063706 Si02
#       7
#     2   2   2   2   2   2   2
#     4  12  24  42  72 104 142 182 243 296 358 421
#     4  11  24  44  72  99 144 191 230 304 361 420
#     4  12  27  44  73 110 144 187 244 302 363 432
#     4  12  26  45  73 104 148 190 243 297 360 434
#     4  11  26  47  70 104 147 190 241 294 365 436
#     4  12  26  48  77 109 142 199 241 299 367 432
#     4  12  23  45  77 104 145 189 241 302 361 428
#
# _framework density 24.560399
#
# number of rings (size 3 to 8) (size 9 to 14) (size 15 to 20)
#    0.000    0.286    5.714    2.571    2.000    4.571 
#    0.000    2.857    0.000    0.000    0.000    0.000 
#    0.000    0.000    0.000    0.000    0.000    0.000 
#
# Total GULP energy -78343.517420 kJ/mol
# GULP energy per Si atom -5595.965530 kJ/mol
# Density = 2.450450 g / cm^3
# Si number density = 24.560399 Si / 1000 Ang^3
#
#
#
# Elastic Constant Matrix: (Units=GPa)
#
#
# Indices 1 2 3 4 5 6 
#
# 1 131.5901 39.7674 14.0869 -28.6079 -15.5299 4.6523
# 2 39.7674 107.4260 15.7499 -21.3892 -5.4059 -1.0471
# 3 14.0869 15.7499 88.0077 -10.9425 -24.5096 -0.7033
# 4 -28.6079 -21.3892 -10.9425 25.7243 2.2104 -4.1704
# 5 -15.5299 -5.4059 -24.5096 2.2104 53.4329 -11.1843
# 6 4.6523 -1.0471 -0.7033 -4.1704 -11.1843 68.5684
#
#
#
# Elastic Compliance Matrix: (Units=1/GPa)
#
#
# Indices 1 2 3 4 5 6 
#
# 1 0.010680 -0.001824 0.000730 0.010481 0.002897 0.000365
# 2 -0.001824 0.011585 -0.000827 0.007365 0.000117 0.000759
# 3 0.000730 -0.000827 0.013960 0.005739 0.006610 0.001508
# 4 0.010481 0.007365 0.005739 0.059308 0.004776 0.003846
# 5 0.002897 0.000117 0.006610 0.004776 0.023231 0.003953
# 6 0.000365 0.000759 0.001508 0.003846 0.003953 0.015465
#
#
# Mechanical properties :
#
#
# Convention : Reuss Voigt Hill
#
# Bulk Modulus (GPa) = 30.88062 51.80359 41.34210
# Shear Modulus (GPa) = 33.58707 46.70642 40.14674
#
# Velocity S-wave (km/s) = 3.70202 4.36558 4.04742
# Velocity P-wave (km/s) = 5.55643 6.82269 6.22186
#
# Compressibility (1/GPa) = 0.03238277
#
# Stress axis : x y z
#
# Youngs Moduli (GPa) = 93.63110 86.31806 71.63130
#
# Poissons Ratio (x) = 0.15748 -0.05229
# Poissons Ratio (y) = 0.17082 0.05923
# Poissons Ratio (z) = -0.06834 0.07138
#
# Static dielectric constant tensor:
#      x y z
#    x 1.949880 0.034340 0.012990 
#    y 0.034340 1.960410 0.017340 
#    z 0.012990 0.017340 2.107370 
# 
# From -- ./inp_files/297810.got.cif
#   From: 2010.05.17/outbox.cif.g08.bks.cpg/sg2_149_cif.got.tgz:297810.got - 2010.06.03 11:33:40.
