data_PCOD9063723
_publ_section_title
;
Structure prediction by ZEFSAII (Michael W. Deem and Ramdas Pophale) SiO2 
 PCOD9063723
Probable space group: P -1
;
_chemical_formula_sum "Si O2"
_cell_formula_units_Z 14
_cell_length_a 15.766281
_cell_length_b 9.752864
_cell_length_c 5.166324
_cell_angle_alpha 46.547792
_cell_angle_beta 82.085902
_cell_angle_gamma 69.962553
_cell_volume 536.172450
_symmetry_space_group_name_H-M "P -1"
_symmetry_group_IT_number 2
_symmetry_cell_setting 'triclinic'
loop_
_space_group_symop_operation_xyz
x,y,z
-x,-y,-z
loop_
_atom_site_type_symbol
_atom_site_label
_atom_site_fract_x
_atom_site_fract_y
_atom_site_fract_z
Si Si1 0.153090 0.330729 0.107245
Si Si2 0.769060 0.093770 0.601120
Si Si3 0.843686 0.245192 0.873401
Si Si4 0.595415 0.356788 0.037350
Si Si5 0.999419 0.670976 0.480038
Si Si6 0.556183 0.029072 0.182542
Si Si7 0.716283 0.632053 0.594986
O O1 0.239176 0.370509 0.140583
O O2 0.098833 0.241768 0.460462
O O3 0.189987 0.147959 0.127100
O O4 0.075148 0.546478 0.816925
O O5 0.793771 0.166314 0.771057
O O6 0.663542 0.193539 0.419032
O O7 0.820285 0.176041 0.250053
O O8 0.950971 0.193525 0.856389
O O9 0.800448 0.491580 0.572738
O O10 0.573081 0.235452 0.966968
O O11 0.500000 0.500000 0.000000
O O12 0.648065 0.508742 0.753690
O O13 0.000000 0.500000 0.500000
O O14 0.655102 0.863286 0.301002
O O15 0.500000 0.000000 0.500000
O O16 0.500000 0.000000 0.000000
#
# Coordination Sequence:
#
# PCOD9063723 Si02
#       7
#     2   2   2   2   2   2   2
#     4  11  25  47  73 106 146 198 245 306 367 445
#     4  11  27  47  72 110 144 193 250 302 366 441
#     4  11  26  46  72 104 147 191 243 309 365 432
#     4  11  24  47  75 107 148 190 242 300 365 429
#     4  11  24  44  73 103 146 194 248 303 378 429
#     4  12  28  47  74 110 143 192 245 301 364 435
#     4  11  24  49  74 103 150 194 244 298 368 437
#
# _framework density 26.111004000000001
#
# number of rings (size 3 to 8) (size 9 to 14) (size 15 to 20)
#    0.000    0.857    4.286    1.714    6.000    5.143 
#    0.000    0.000    0.000    0.000    0.000    0.000 
#    0.000    0.000    0.000    0.000    0.000    0.000 
#
# Total GULP energy -78358.022183 kJ/mol
# GULP energy per Si atom -5597.001585 kJ/mol
# Density = 2.605157 g / cm^3
# Si number density = 26.111004 Si / 1000 Ang^3
#
#
#
# Elastic Constant Matrix: (Units=GPa)
#
#
# Indices 1 2 3 4 5 6 
#
# 1 109.0942 30.2166 2.2005 -1.6821 -20.2105 13.2823
# 2 30.2166 200.4041 22.8376 -26.6839 3.2783 16.1505
# 3 2.2005 22.8376 64.4683 0.0454 5.6417 3.0821
# 4 -1.6821 -26.6839 0.0454 52.0227 -0.1627 6.1800
# 5 -20.2105 3.2783 5.6417 -0.1627 34.8520 12.9293
# 6 13.2823 16.1505 3.0821 6.1800 12.9293 62.9649
#
#
#
# Elastic Compliance Matrix: (Units=1/GPa)
#
#
# Indices 1 2 3 4 5 6 
#
# 1 0.011598 -0.001528 -0.000404 0.000063 0.008327 -0.003751
# 2 -0.001528 0.005980 -0.001951 0.003172 -0.000637 -0.001296
# 3 -0.000404 -0.001951 0.016448 -0.001094 -0.002897 0.000483
# 4 0.000063 0.003172 -0.001094 0.021223 0.001163 -0.003095
# 5 0.008327 -0.000637 -0.002897 0.001163 0.037492 -0.009264
# 6 -0.003751 -0.001296 0.000483 -0.003095 -0.009264 0.019188
#
#
# Mechanical properties :
#
#
# Convention : Reuss Voigt Hill
#
# Bulk Modulus (GPa) = 38.08101 53.83065 45.95583
# Shear Modulus (GPa) = 38.92623 51.21539 45.07081
#
# Velocity S-wave (km/s) = 3.86527 4.43363 4.15917
# Velocity P-wave (km/s) = 5.87677 6.84619 6.37992
#
# Compressibility (1/GPa) = 0.02625981
#
# Stress axis : x y z
#
# Youngs Moduli (GPa) = 86.22167 167.22896 60.79935
#
# Poissons Ratio (x) = 0.25556 0.02456
# Poissons Ratio (y) = 0.13177 0.11860
# Poissons Ratio (z) = 0.03482 0.32621
#
# Static dielectric constant tensor:
#      x y z
#    x 2.141620 -0.077870 -0.031110 
#    y -0.077870 2.026900 0.012210 
#    z -0.031110 0.012210 2.294390 
# 
# From -- ./inp_files/89666.got.cif
#   From: 2010.05.17/outbox.cif.g08.bks.cpg/sg2_45_cif.got.tgz:89666.got - 2010.06.03 11:33:40.
