data_PCOD9063411
_publ_section_title
;
Structure prediction by ZEFSAII (Michael W. Deem and Ramdas Pophale) SiO2 
 PCOD9063411
Probable space group: P -1
;
_chemical_formula_sum "Si O2"
_cell_formula_units_Z 16
_cell_length_a 8.064895
_cell_length_b 7.382733
_cell_length_c 14.449192
_cell_angle_alpha 119.182819
_cell_angle_beta 80.847316
_cell_angle_gamma 123.415307
_cell_volume 619.845921
_symmetry_space_group_name_H-M "P -1"
_symmetry_group_IT_number 2
_symmetry_cell_setting 'triclinic'
loop_
_space_group_symop_operation_xyz
x,y,z
-x,-y,-z
loop_
_atom_site_type_symbol
_atom_site_label
_atom_site_fract_x
_atom_site_fract_y
_atom_site_fract_z
Si Si1 0.764044 0.452968 0.762892
Si Si2 0.341604 0.665753 0.598598
Si Si3 0.722308 0.186924 0.887989
Si Si4 0.734048 0.040943 0.552978
Si Si5 0.813090 0.620920 0.111770
Si Si6 0.534067 0.396327 0.240702
Si Si7 0.972001 0.853652 0.591999
Si Si8 0.131758 0.895065 0.782543
O O1 0.700309 0.268665 0.808337
O O2 0.603232 0.516768 0.767399
O O3 0.982091 0.702527 0.824317
O O4 0.785719 0.311435 0.639768
O O5 0.507158 0.845747 0.554663
O O6 0.439117 0.577745 0.644524
O O7 0.161133 0.424026 0.505253
O O8 0.264013 0.804681 0.702478
O O9 0.950945 0.259572 0.893491
O O10 0.572620 0.895420 0.843073
O O11 0.698495 0.361375 0.003647
O O12 0.871807 0.991724 0.595087
O O13 0.806491 0.027161 0.441442
O O14 0.745064 0.557331 0.208617
O O15 0.763151 0.818837 0.129430
O O16 0.986023 0.863562 0.702531
#
# Coordination Sequence:
#
# PCOD9063411 Si02
#       8
#     2   2   2   2   2   2   2   2
#     4  12  24  47  76 100 150 185 228 302 346 418
#     4  12  25  45  70 104 140 190 234 290 356 415
#     4  11  25  51  73 108 143 183 237 293 358 419
#     4  11  24  44  68 101 140 187 231 295 344 416
#     4  11  26  47  77 104 143 190 231 294 359 419
#     4  12  26  47  74 107 145 183 239 293 353 420
#     4  11  26  46  68 101 146 186 238 290 348 420
#     4  12  25  47  71 105 146 188 239 291 351 421
#
# _framework density 25.812868000000002
#
# number of rings (size 3 to 8) (size 9 to 14) (size 15 to 20)
#    0.000    0.500    3.750    4.125    3.500    1.500 
#    2.250    0.000    0.000    0.000    0.000    0.000 
#    0.000    0.000    0.000    0.000    0.000    0.000 
#
# Total GULP energy -89849.162442 kJ/mol
# GULP energy per Si atom -5615.572653 kJ/mol
# Density = 2.575412 g / cm^3
# Si number density = 25.812868 Si / 1000 Ang^3
#
#
#
# Elastic Constant Matrix: (Units=GPa)
#
#
# Indices 1 2 3 4 5 6 
#
# 1 93.0402 18.0507 18.4751 15.5814 -22.2232 -10.6204
# 2 18.0507 132.2751 13.3622 17.1883 -23.1193 12.4452
# 3 18.4751 13.3622 85.4460 22.5163 -23.8646 -3.9559
# 4 15.5814 17.1883 22.5163 39.6710 -9.4430 -7.4280
# 5 -22.2232 -23.1193 -23.8646 -9.4430 34.0706 5.6530
# 6 -10.6204 12.4452 -3.9559 -7.4280 5.6530 45.8522
#
#
#
# Elastic Compliance Matrix: (Units=1/GPa)
#
#
# Indices 1 2 3 4 5 6 
#
# 1 0.013260 -0.000296 0.000136 -0.003067 0.007403 0.001754
# 2 -0.000296 0.009537 0.001307 -0.003895 0.006780 -0.004011
# 3 0.000136 0.001307 0.016373 -0.007671 0.010559 -0.001455
# 4 -0.003067 -0.003895 -0.007671 0.033023 -0.001735 0.005249
# 5 0.007403 0.006780 0.010559 -0.001735 0.046564 -0.005236
# 6 0.001754 -0.004011 -0.001455 0.005249 -0.005236 0.024674
#
#
# Mechanical properties :
#
#
# Convention : Reuss Voigt Hill
#
# Bulk Modulus (GPa) = 24.11749 45.61527 34.86638
# Shear Modulus (GPa) = 32.26653 41.31031 36.78842
#
# Velocity S-wave (km/s) = 3.53939 4.00481 3.77927
# Velocity P-wave (km/s) = 5.10554 6.25256 5.70794
#
# Compressibility (1/GPa) = 0.04146368
#
# Stress axis : x y z
#
# Youngs Moduli (GPa) = 75.41213 104.85650 61.07708
#
# Poissons Ratio (x) = 0.03103 -0.00831
# Poissons Ratio (y) = 0.02232 -0.07981
# Poissons Ratio (z) = -0.01026 -0.13702
#
# Static dielectric constant tensor:
#      x y z
#    x 2.034950 -0.000940 0.001380 
#    y -0.000940 2.030720 0.032940 
#    z 0.001380 0.032940 2.000880 
# 
# From -- ./inp_files/556541.got.cif
#   From: 2010.05.17/outbox.cif.g08.bks.cpg/sg2_279_cif.got.tgz:556541.got - 2010.06.03 11:33:40.
