data_PCOD9063689
_publ_section_title
;
Structure prediction by ZEFSAII (Michael W. Deem and Ramdas Pophale) SiO2 
 PCOD9063689
Probable space group: P -1
;
_chemical_formula_sum "Si O2"
_cell_formula_units_Z 12
_cell_length_a 5.843201
_cell_length_b 14.086500
_cell_length_c 11.977994
_cell_angle_alpha 43.627941
_cell_angle_beta 76.035873
_cell_angle_gamma 50.670676
_cell_volume 480.537139
_symmetry_space_group_name_H-M "P -1"
_symmetry_group_IT_number 2
_symmetry_cell_setting 'triclinic'
loop_
_space_group_symop_operation_xyz
x,y,z
-x,-y,-z
loop_
_atom_site_type_symbol
_atom_site_label
_atom_site_fract_x
_atom_site_fract_y
_atom_site_fract_z
Si Si1 0.425217 0.968801 0.913496
Si Si2 0.527577 0.331134 0.114931
Si Si3 0.849488 0.403113 0.599865
Si Si4 0.834934 0.713711 0.653823
Si Si5 0.480795 0.636290 0.170887
Si Si6 0.786030 0.931045 0.687936
O O1 0.688157 0.888407 0.850227
O O2 0.382480 0.824055 0.069582
O O3 0.114931 0.180588 0.727176
O O4 0.500000 0.000000 0.000000
O O5 0.249053 0.379755 0.179449
O O6 0.877424 0.127711 0.277184
O O7 0.500000 0.500000 0.000000
O O8 0.501080 0.334115 0.985184
O O9 0.500000 0.500000 0.500000
O O10 0.757875 0.392724 0.746671
O O11 0.000000 0.500000 0.500000
O O12 0.857759 0.819650 0.658697
O O13 0.156373 0.558827 0.678554
O O14 0.530204 0.857742 0.487094
#
# Coordination Sequence:
#
# PCOD9063689 Si02
#       6
#     2   2   2   2   2   2
#     4  12  26  50  79 114 157 212 267 322 394 473
#     4  12  23  41  72 112 148 195 250 312 396 463
#     4  12  29  53  78 114 155 212 269 327 396 474
#     4  11  24  47  71 111 152 194 251 314 395 455
#     4  12  25  49  79 109 157 200 262 330 387 474
#     4  11  24  44  72 109 152 198 249 319 381 465
#
# _framework density 24.972052999999999
#
# number of rings (size 3 to 8) (size 9 to 14) (size 15 to 20)
#    0.000    0.333    3.333    5.500    0.000    4.000 
#    6.000    0.000    0.000    0.000    0.000    0.000 
#    0.000    0.000    0.000    0.000    0.000    0.000 
#
# Total GULP energy -67009.602520 kJ/mol
# GULP energy per Si atom -5584.133543 kJ/mol
# Density = 2.491522 g / cm^3
# Si number density = 24.972053 Si / 1000 Ang^3
#
#
#
# Elastic Constant Matrix: (Units=GPa)
#
#
# Indices 1 2 3 4 5 6 
#
# 1 105.5742 55.4290 61.4461 -6.8358 -16.8042 -16.4219
# 2 55.4290 116.1803 44.9864 -12.5641 -15.1414 -25.5448
# 3 61.4461 44.9864 117.3852 -4.8581 -7.0830 -11.1194
# 4 -6.8358 -12.5641 -4.8581 56.6761 -13.1878 -1.7259
# 5 -16.8042 -15.1414 -7.0830 -13.1878 67.0360 3.0408
# 6 -16.4219 -25.5448 -11.1194 -1.7259 3.0408 51.7005
#
#
#
# Elastic Compliance Matrix: (Units=1/GPa)
#
#
# Indices 1 2 3 4 5 6 
#
# 1 0.016301 -0.004513 -0.006472 0.001042 0.002523 0.001443
# 2 -0.004513 0.013095 -0.001988 0.002783 0.001956 0.004587
# 3 -0.006472 -0.001988 0.012579 -0.000337 -0.000795 -0.000297
# 4 0.001042 0.002783 -0.000337 0.019489 0.004597 0.002014
# 5 0.002523 0.001956 -0.000795 0.004597 0.016777 0.000763
# 6 0.001443 0.004587 -0.000297 0.002014 0.000763 0.022025
#
#
# Mechanical properties :
#
#
# Convention : Reuss Voigt Hill
#
# Bulk Modulus (GPa) = 62.38730 73.65138 68.01934
# Shear Modulus (GPa) = 38.00726 46.90106 42.45416
#
# Velocity S-wave (km/s) = 3.90550 4.33846 4.12766
# Velocity P-wave (km/s) = 6.73605 7.39282 7.07206
#
# Compressibility (1/GPa) = 0.01602890
#
# Stress axis : x y z
#
# Youngs Moduli (GPa) = 61.34485 76.36745 79.50067
#
# Poissons Ratio (x) = 0.34462 0.51449
# Poissons Ratio (y) = 0.27683 0.15808
# Poissons Ratio (z) = 0.39700 0.15185
#
# Static dielectric constant tensor:
#      x y z
#    x 2.108120 0.083230 -0.012810 
#    y 0.083230 2.124530 -0.129590 
#    z -0.012810 -0.129590 2.197070 
# 
# From -- ./inp_files/26638.got.cif
#   From: 2010.05.17/outbox.cif.g08.bks.cpg/sg2_14_cif.got.tgz:26638.got - 2010.06.03 11:33:40.
