data_PCOD9063792
_publ_section_title
;
Structure prediction by ZEFSAII (Michael W. Deem and Ramdas Pophale) SiO2 
 PCOD9063792
Probable space group: P -1
;
_chemical_formula_sum "Si O2"
_cell_formula_units_Z 12
_cell_length_a 5.260590
_cell_length_b 11.903584
_cell_length_c 11.587866
_cell_angle_alpha 130.516049
_cell_angle_beta 68.803454
_cell_angle_gamma 117.209886
_cell_volume 488.357502
_symmetry_space_group_name_H-M "P -1"
_symmetry_group_IT_number 2
_symmetry_cell_setting 'triclinic'
loop_
_space_group_symop_operation_xyz
x,y,z
-x,-y,-z
loop_
_atom_site_type_symbol
_atom_site_label
_atom_site_fract_x
_atom_site_fract_y
_atom_site_fract_z
Si Si1 0.836926 0.601829 0.528549
Si Si2 0.854706 0.925799 0.853114
Si Si3 0.605397 0.006361 0.619829
Si Si4 0.141035 0.267687 0.625510
Si Si5 0.667750 0.470694 0.062273
Si Si6 0.429419 0.871524 0.068450
O O1 0.500000 0.500000 0.500000
O O2 0.957714 0.654576 0.415799
O O3 0.000000 0.500000 0.500000
O O4 0.890190 0.767349 0.694165
O O5 0.526592 0.864834 0.915624
O O6 0.841304 0.062556 0.858863
O O7 0.000000 0.000000 0.000000
O O8 0.418839 0.023539 0.773445
O O9 0.876721 0.164119 0.676496
O O10 0.500000 0.000000 0.500000
O O11 0.702136 0.854884 0.522005
O O12 0.347921 0.406061 0.756804
O O13 0.500000 0.500000 0.000000
O O14 0.566772 0.295557 0.003509
O O15 0.000000 0.500000 0.000000
#
# Coordination Sequence:
#
# PCOD9063792 Si02
#       6
#     2   2   2   2   2   2
#     4  12  30  51  78 111 155 200 252 314 377 450
#     4  11  28  46  78 107 146 206 252 314 370 454
#     4  11  24  44  74 104 146 194 243 312 367 447
#     4  11  26  44  72 110 145 194 249 303 380 441
#     4  12  27  46  72 109 149 193 240 306 373 444
#     4  11  25  48  73 106 151 192 257 302 380 441
#
# _framework density 24.572164999999998
#
# number of rings (size 3 to 8) (size 9 to 14) (size 15 to 20)
#    0.000    0.667    3.333    2.000   14.000    0.000 
#    0.000    0.000    0.000    0.000    0.000    0.000 
#    0.000    0.000    0.000    0.000    0.000    0.000 
#
# Total GULP energy -66995.302453 kJ/mol
# GULP energy per Si atom -5582.941871 kJ/mol
# Density = 2.451624 g / cm^3
# Si number density = 24.572165 Si / 1000 Ang^3
#
#
#
# Elastic Constant Matrix: (Units=GPa)
#
#
# Indices 1 2 3 4 5 6 
#
# 1 81.9054 38.6068 22.4120 16.3896 21.5764 -42.9303
# 2 38.6068 160.7986 58.5212 18.6465 10.6087 -56.6651
# 3 22.4120 58.5212 176.2896 18.8559 21.6933 -16.6470
# 4 16.3896 18.6465 18.8559 58.2799 0.7181 0.7442
# 5 21.5764 10.6087 21.6933 0.7181 28.3074 -8.7348
# 6 -42.9303 -56.6651 -16.6470 0.7442 -8.7348 52.1491
#
#
#
# Elastic Compliance Matrix: (Units=1/GPa)
#
#
# Indices 1 2 3 4 5 6 
#
# 1 0.031277 0.004650 0.000351 -0.010550 -0.016871 0.028238
# 2 0.004650 0.012412 -0.002533 -0.004655 -0.001079 0.016392
# 3 0.000351 -0.002533 0.007162 -0.001530 -0.005079 -0.001006
# 4 -0.010550 -0.004655 -0.001530 0.022206 0.006228 -0.013506
# 5 -0.016871 -0.001079 -0.005079 0.006228 0.049719 -0.008443
# 6 0.028238 0.016392 -0.001006 -0.013506 -0.008443 0.058691
#
#
# Mechanical properties :
#
#
# Convention : Reuss Voigt Hill
#
# Bulk Modulus (GPa) = 17.92495 73.11928 45.52211
# Shear Modulus (GPa) = 25.62439 47.71083 36.66761
#
# Velocity S-wave (km/s) = 3.23278 4.41121 3.86715
# Velocity P-wave (km/s) = 4.60924 7.46770 6.20531
#
# Compressibility (1/GPa) = 0.05578818
#
# Stress axis : x y z
#
# Youngs Moduli (GPa) = 31.97190 80.56841 139.61964
#
# Poissons Ratio (x) = -0.37466 -0.04900
# Poissons Ratio (y) = -0.14868 0.35363
# Poissons Ratio (z) = -0.01122 0.20407
#
# Static dielectric constant tensor:
#      x y z
#    x 2.768310 0.355920 -0.299970 
#    y 0.355920 2.100370 -0.187310 
#    z -0.299970 -0.187310 2.125510 
# 
# From -- ./inp_files/365421.got.cif
#   From: 2010.05.17/outbox.cif.g08.bks.cpg/sg2_183_cif.got.tgz:365421.got - 2010.06.03 11:33:40.
