data_PCOD9063955
_publ_section_title
;
Structure prediction by ZEFSAII (Michael W. Deem and Ramdas Pophale) SiO2 
 PCOD9063955
Probable space group: P -1
;
_chemical_formula_sum "Si O2"
_cell_formula_units_Z 16
_cell_length_a 5.470069
_cell_length_b 8.897761
_cell_length_c 16.501628
_cell_angle_alpha 101.014378
_cell_angle_beta 80.984118
_cell_angle_gamma 126.315586
_cell_volume 634.272189
_symmetry_space_group_name_H-M "P -1"
_symmetry_group_IT_number 2
_symmetry_cell_setting 'triclinic'
loop_
_space_group_symop_operation_xyz
x,y,z
-x,-y,-z
loop_
_atom_site_type_symbol
_atom_site_label
_atom_site_fract_x
_atom_site_fract_y
_atom_site_fract_z
Si Si1 0.647983 0.391461 0.289731
Si Si2 0.635203 0.052121 0.221082
Si Si3 0.156594 0.741364 0.089351
Si Si4 0.534388 0.503901 0.152745
Si Si5 0.426615 0.798482 0.497163
Si Si6 0.994736 0.675673 0.916877
Si Si7 0.656932 0.304976 0.692633
Si Si8 0.238836 0.326745 0.442302
O O1 0.625867 0.204429 0.289139
O O2 0.606553 0.388195 0.195269
O O3 0.366798 0.362813 0.348881
O O4 0.973590 0.587675 0.311853
O O5 0.892504 0.197041 0.157585
O O6 0.577629 0.902590 0.277537
O O7 0.382653 0.905108 0.154744
O O8 0.828997 0.692627 0.123577
O O9 0.105433 0.541830 0.092193
O O10 0.195995 0.776552 0.995290
O O11 0.387111 0.567480 0.231774
O O12 0.345115 0.377489 0.073516
O O13 0.417189 0.714752 0.400602
O O14 0.696731 0.819879 0.538850
O O15 0.076464 0.694103 0.536994
O O16 0.500000 0.000000 0.500000
O O17 0.500000 0.500000 0.500000
#
# Coordination Sequence:
#
# PCOD9063955 Si02
#       8
#     2   2   2   2   2   2   2   2
#     4  12  26  45  73 101 145 186 235 301 356 428
#     4  12  22  47  66 104 136 187 235 283 362 428
#     4  11  24  45  68 100 142 182 225 299 350 422
#     4  12  22  46  69 102 135 186 231 287 360 419
#     4  12  28  49  74 112 147 191 249 307 366 438
#     4  11  24  45  69  99 143 181 229 289 359 422
#     4  12  26  46  72  99 149 184 229 303 361 424
#     4  12  26  48  77 105 146 199 246 295 375 440
#
# _framework density 25.225763000000001
#
# number of rings (size 3 to 8) (size 9 to 14) (size 15 to 20)
#    0.000    0.250    6.250    3.000    1.750    3.000 
#    0.000    1.250    0.000    0.000    0.000    0.000 
#    0.000    0.000    0.000    0.000    0.000    0.000 
#
# Total GULP energy -89091.936478 kJ/mol
# GULP energy per Si atom -5568.246030 kJ/mol
# Density = 2.516835 g / cm^3
# Si number density = 25.225763 Si / 1000 Ang^3
#
#
#
# Elastic Constant Matrix: (Units=GPa)
#
#
# Indices 1 2 3 4 5 6 
#
# 1 51.0725 14.4756 14.6779 -14.4879 -2.3111 -2.4344
# 2 14.4756 106.4812 17.4493 -20.4810 -3.7200 -0.6389
# 3 14.6779 17.4493 102.6460 -21.7660 12.0751 1.1917
# 4 -14.4879 -20.4810 -21.7660 34.8316 1.6196 5.7846
# 5 -2.3111 -3.7200 12.0751 1.6196 36.4617 -8.4554
# 6 -2.4344 -0.6389 1.1917 5.7846 -8.4554 27.7822
#
#
#
# Elastic Compliance Matrix: (Units=1/GPa)
#
#
# Indices 1 2 3 4 5 6 
#
# 1 0.022649 -0.001324 -0.001678 0.007339 0.001770 0.001037
# 2 -0.001324 0.010744 -0.000550 0.005513 0.000774 -0.000758
# 3 -0.001678 -0.000550 0.012391 0.007636 -0.005524 -0.003962
# 4 0.007339 0.005513 0.007636 0.041693 -0.005664 -0.009963
# 5 0.001770 0.000774 -0.005524 -0.005664 0.032350 0.011435
# 6 0.001037 -0.000758 -0.003962 -0.009963 0.011435 0.041792
#
#
# Mechanical properties :
#
#
# Convention : Reuss Voigt Hill
#
# Bulk Modulus (GPa) = 25.85360 39.26726 32.56043
# Shear Modulus (GPa) = 27.53036 34.05488 30.79262
#
# Velocity S-wave (km/s) = 3.30716 3.67823 3.49762
# Velocity P-wave (km/s) = 4.98540 5.79994 5.40802
#
# Compressibility (1/GPa) = 0.03867934
#
# Stress axis : x y z
#
# Youngs Moduli (GPa) = 44.15216 93.07168 80.70500
#
# Poissons Ratio (x) = 0.12326 0.13539
# Poissons Ratio (y) = 0.05847 0.04442
# Poissons Ratio (z) = 0.07407 0.05123
#
# Static dielectric constant tensor:
#      x y z
#    x 2.334610 -0.080260 -0.038030 
#    y -0.080260 2.065580 -0.017370 
#    z -0.038030 -0.017370 2.000160 
# 
# From -- ./inp_files/548164.got.cif
#   From: 2010.05.17/outbox.cif.g08.bks.cpg/sg2_275_cif.got.tgz:548164.got - 2010.06.03 11:33:40.
