data_PCOD9063259
_publ_section_title
;
Structure prediction by ZEFSAII (Michael W. Deem and Ramdas Pophale) SiO2 
 PCOD9063259
Probable space group: P -1
;
_chemical_formula_sum "Si O2"
_cell_formula_units_Z 14
_cell_length_a 12.379680
_cell_length_b 6.519329
_cell_length_c 13.901623
_cell_angle_alpha 79.899430
_cell_angle_beta 133.832461
_cell_angle_gamma 127.485534
_cell_volume 579.845185
_symmetry_space_group_name_H-M "P -1"
_symmetry_group_IT_number 2
_symmetry_cell_setting 'triclinic'
loop_
_space_group_symop_operation_xyz
x,y,z
-x,-y,-z
loop_
_atom_site_type_symbol
_atom_site_label
_atom_site_fract_x
_atom_site_fract_y
_atom_site_fract_z
Si Si1 0.806191 0.692099 0.863758
Si Si2 0.594593 0.464212 0.317388
Si Si3 0.643261 0.241878 0.965030
Si Si4 0.314545 0.837965 0.473195
Si Si5 0.099250 0.978635 0.428643
Si Si6 0.311385 0.619889 0.803923
Si Si7 0.993512 0.266701 0.211944
O O1 0.608942 0.654131 0.743704
O O2 0.878474 0.666896 0.809852
O O3 0.737504 0.450526 0.916415
O O4 0.000000 0.000000 0.000000
O O5 0.646844 0.286960 0.406323
O O6 0.566098 0.415248 0.189941
O O7 0.781104 0.799555 0.428361
O O8 0.670885 0.394155 0.069225
O O9 0.772111 0.150947 0.063580
O O10 0.410045 0.944576 0.827807
O O11 0.275103 0.030467 0.471369
O O12 0.114331 0.564657 0.316777
O O13 0.500000 0.000000 0.500000
O O14 0.920295 0.636307 0.356503
O O15 0.997273 0.067494 0.297415
#
# Coordination Sequence:
#
# PCOD9063259 Si02
#       7
#     2   2   2   2   2   2   2
#     4  12  26  45  74 104 143 184 235 290 355 415
#     4  11  27  44  70 110 134 186 235 289 351 415
#     4  11  26  45  71 106 138 194 233 285 345 419
#     4  11  24  43  74 101 142 179 232 297 350 409
#     4  11  24  48  72 105 139 187 231 290 357 407
#     4  11  25  47  70 100 147 187 238 281 344 424
#     4  11  24  45  72 104 138 179 236 291 352 409
#
# _framework density 24.144376000000001
#
# number of rings (size 3 to 8) (size 9 to 14) (size 15 to 20)
#    0.000    0.857    1.429    4.286    6.000    6.286 
#    0.000    0.000    0.000    0.000    0.000    0.000 
#    0.000    0.000    0.000    0.000    0.000    0.000 
#
# Total GULP energy -78393.433452 kJ/mol
# GULP energy per Si atom -5599.530961 kJ/mol
# Density = 2.408942 g / cm^3
# Si number density = 24.144376 Si / 1000 Ang^3
#
#
#
# Elastic Constant Matrix: (Units=GPa)
#
#
# Indices 1 2 3 4 5 6 
#
# 1 23.6638 8.3418 -41.4984 -4.3986 -76.4484 31.1736
# 2 8.3418 78.1012 47.6942 12.8754 -0.2664 5.7614
# 3 -41.4984 47.6942 51.4592 18.2957 -48.0375 22.7158
# 4 -4.3986 12.8754 18.2957 44.5707 -5.0526 7.6436
# 5 -76.4484 -0.2664 -48.0375 -5.0526 19.5875 24.8066
# 6 31.1736 5.7614 22.7158 7.6436 24.8066 25.6704
#
#
#
# Elastic Compliance Matrix: (Units=1/GPa)
#
#
# Indices 1 2 3 4 5 6 
#
# 1 0.004558 0.003268 -0.007029 0.000908 -0.005509 0.005005
# 2 0.003268 0.016980 -0.006571 -0.000428 0.004094 -0.005793
# 3 -0.007029 -0.006571 0.012725 -0.005959 -0.006630 0.006932
# 4 0.000908 -0.000428 -0.005959 0.025800 0.000425 -0.003826
# 5 -0.005509 0.004094 -0.006630 0.000425 0.005029 0.006653
# 6 0.005005 -0.005793 0.006932 -0.003826 0.006653 0.022754
#
#
# Mechanical properties :
#
#
# Convention : Reuss Voigt Hill
#
# Bulk Modulus (GPa) = 73.54488 20.25549 46.90019
# Shear Modulus (GPa) = 44.23164 27.21149 35.72157
#
# Velocity S-wave (km/s) = 4.28479 3.36077 3.85060
# Velocity P-wave (km/s) = 7.41659 4.84430 6.26391
#
# Compressibility (1/GPa) = 0.01359714
#
# Stress axis : x y z
#
# Youngs Moduli (GPa) = 219.41463 58.89393 78.58782
#
# Poissons Ratio (x) = -0.19244 0.55236
# Poissons Ratio (y) = -0.71696 0.51644
# Poissons Ratio (z) = 1.54216 0.38702
#
# Static dielectric constant tensor:
#      x y z
#    x 1.949350 0.011550 0.010680 
#    y 0.011550 1.911580 0.006060 
#    z 0.010680 0.006060 1.949390 
# 
# From -- ./inp_files/258426.got.cif
#   From: 2010.05.17/outbox.cif.g08.bks.cpg/sg2_130_cif.got.tgz:258426.got - 2010.06.03 11:33:40.
