data_PCOD9063082
_publ_section_title
;
Structure prediction by ZEFSAII (Michael W. Deem and Ramdas Pophale) SiO2 
 PCOD9063082
Probable space group: P -1
;
_chemical_formula_sum "Si O2"
_cell_formula_units_Z 14
_cell_length_a 9.143875
_cell_length_b 5.744026
_cell_length_c 18.739528
_cell_angle_alpha 76.529816
_cell_angle_beta 143.010520
_cell_angle_gamma 107.901841
_cell_volume 563.384559
_symmetry_space_group_name_H-M "P -1"
_symmetry_group_IT_number 2
_symmetry_cell_setting 'triclinic'
loop_
_space_group_symop_operation_xyz
x,y,z
-x,-y,-z
loop_
_atom_site_type_symbol
_atom_site_label
_atom_site_fract_x
_atom_site_fract_y
_atom_site_fract_z
Si Si1 0.599590 0.299574 0.505720
Si Si2 0.217918 0.375735 0.566263
Si Si3 0.968420 0.075807 0.104439
Si Si4 0.135976 0.924791 0.661976
Si Si5 0.939272 0.840730 0.249761
Si Si6 0.390857 0.619033 0.017141
Si Si7 0.654888 0.808775 0.875068
O O1 0.500000 0.500000 0.500000
O O2 0.588020 0.405952 0.412889
O O3 0.891650 0.329601 0.637631
O O4 0.500000 0.000000 0.500000
O O5 0.266557 0.195160 0.661494
O O6 0.000000 0.500000 0.500000
O O7 0.093711 0.187548 0.469701
O O8 0.224504 0.163179 0.157208
O O9 0.012130 0.874335 0.192773
O O10 0.822204 0.230619 0.087709
O O11 0.779224 0.010158 0.968041
O O12 0.024164 0.937357 0.695801
O O13 0.361345 0.784503 0.760088
O O14 0.643154 0.765550 0.138860
O O15 0.273952 0.422909 0.043648
O O16 0.500000 0.500000 0.000000
#
# Coordination Sequence:
#
# PCOD9063082 Si02
#       7
#     2   2   2   2   2   2   2
#     4  12  29  50  74 110 154 196 252 323 390 452
#     4  11  25  48  75 105 140 194 258 314 372 459
#     4  11  25  44  66 106 148 181 240 306 372 444
#     4  11  24  45  78 103 146 198 256 308 380 454
#     4  12  24  48  71 106 141 199 244 304 376 457
#     4  12  23  43  72 102 143 196 246 299 363 455
#     4  11  24  43  70 104 145 187 236 308 375 442
#
# _framework density 24.849810000000002
#
# number of rings (size 3 to 8) (size 9 to 14) (size 15 to 20)
#    0.000    0.571    4.286    3.429    4.000    1.143 
#    0.000    0.000    0.000    0.000    0.000    0.000 
#    0.000    0.000    0.000    0.000    0.000    0.000 
#
# Total GULP energy -78105.249305 kJ/mol
# GULP energy per Si atom -5578.946379 kJ/mol
# Density = 2.479325 g / cm^3
# Si number density = 24.849810 Si / 1000 Ang^3
#
#
#
# Elastic Constant Matrix: (Units=GPa)
#
#
# Indices 1 2 3 4 5 6 
#
# 1 135.9096 30.9413 26.7306 8.0793 -16.5674 0.8646
# 2 30.9413 88.2088 1.7842 -7.1895 -9.7662 8.5089
# 3 26.7306 1.7842 69.8687 -6.6719 -14.9553 -8.7881
# 4 8.0793 -7.1895 -6.6719 32.7348 -2.3131 -9.9638
# 5 -16.5674 -9.7662 -14.9553 -2.3131 43.5306 -10.3078
# 6 0.8646 8.5089 -8.7881 -9.9638 -10.3078 39.5252
#
#
#
# Elastic Compliance Matrix: (Units=1/GPa)
#
#
# Indices 1 2 3 4 5 6 
#
# 1 0.009205 -0.003263 -0.003737 -0.004005 0.001020 -0.001073
# 2 -0.003263 0.013099 0.001686 0.003952 0.002302 -0.000777
# 3 -0.003737 0.001686 0.019204 0.008241 0.007917 0.008130
# 4 -0.004005 0.003952 0.008241 0.038445 0.007231 0.012646
# 5 0.001020 0.002302 0.007917 0.007231 0.029531 0.010766
# 6 -0.001073 -0.000777 0.008130 0.012646 0.010766 0.033295
#
#
# Mechanical properties :
#
#
# Convention : Reuss Voigt Hill
#
# Bulk Modulus (GPa) = 32.38401 45.87771 39.13086
# Shear Modulus (GPa) = 30.54374 38.79352 34.66863
#
# Velocity S-wave (km/s) = 3.50970 3.95539 3.73919
# Velocity P-wave (km/s) = 5.42994 6.27393 5.86713
#
# Compressibility (1/GPa) = 0.03087943
#
# Stress axis : x y z
#
# Youngs Moduli (GPa) = 108.63535 76.34021 52.07377
#
# Poissons Ratio (x) = 0.24912 0.19462
# Poissons Ratio (y) = 0.35450 -0.08782
# Poissons Ratio (z) = 0.40602 -0.12875
#
# Static dielectric constant tensor:
#      x y z
#    x 2.472910 -0.578900 -0.232680 
#    y -0.578900 2.841250 0.335330 
#    z -0.232680 0.335330 2.023420 
# 
# From -- ./inp_files/37018.got.cif
#   From: 2010.05.17/outbox.cif.g08.bks.cpg/sg2_19_cif.got.tgz:37018.got - 2010.06.03 11:33:40.
