data_PCOD9063561
_publ_section_title
;
Structure prediction by ZEFSAII (Michael W. Deem and Ramdas Pophale) SiO2 
 PCOD9063561
Probable space group: P -1
;
_chemical_formula_sum "Si O2"
_cell_formula_units_Z 16
_cell_length_a 11.828183
_cell_length_b 24.978130
_cell_length_c 5.653981
_cell_angle_alpha 128.353529
_cell_angle_beta 112.070172
_cell_angle_gamma 32.723415
_cell_volume 664.643399
_symmetry_space_group_name_H-M "P -1"
_symmetry_group_IT_number 2
_symmetry_cell_setting 'triclinic'
loop_
_space_group_symop_operation_xyz
x,y,z
-x,-y,-z
loop_
_atom_site_type_symbol
_atom_site_label
_atom_site_fract_x
_atom_site_fract_y
_atom_site_fract_z
Si Si1 0.899228 0.090750 0.459913
Si Si2 0.238354 0.392182 0.010916
Si Si3 0.877827 0.832619 0.609117
Si Si4 0.183943 0.519565 0.686252
Si Si5 0.467147 0.631120 0.067810
Si Si6 0.866461 0.316431 0.108561
Si Si7 0.710446 0.767930 0.219418
Si Si8 0.309488 0.935133 0.018633
O O1 0.767076 0.221336 0.755288
O O2 0.718030 0.123973 0.296739
O O3 0.000000 0.000000 0.500000
O O4 0.110745 0.015035 0.268405
O O5 0.207225 0.433078 0.366005
O O6 0.374028 0.391249 0.006182
O O7 0.351072 0.265014 0.743030
O O8 0.000000 0.500000 0.000000
O O9 0.709070 0.846854 0.516200
O O10 0.020584 0.757329 0.755746
O O11 0.761307 0.961243 0.879458
O O12 0.010364 0.762610 0.264972
O O13 0.414531 0.427231 0.745637
O O14 0.138860 0.598874 0.673355
O O15 0.968129 0.630250 0.984911
O O16 0.385208 0.593803 0.848978
O O17 0.545804 0.836009 0.055979
#
# Coordination Sequence:
#
# PCOD9063561 Si02
#       8
#     2   2   2   2   2   2   2   2
#     4  11  24  44  70 108 140 186 242 300 359 431
#     4  12  25  42  67 102 144 188 240 293 363 436
#     4  11  25  50  73 110 146 193 244 302 360 438
#     4  11  26  45  69 105 144 189 242 298 362 437
#     4  12  25  44  74 103 144 193 235 305 362 432
#     4  11  26  47  77 106 151 185 249 301 366 432
#     4  11  24  47  70 104 145 192 238 298 364 432
#     4  11  24  44  74 100 144 188 243 297 365 430
#
# _framework density 24.073060999999999
#
# number of rings (size 3 to 8) (size 9 to 14) (size 15 to 20)
#    0.000    0.750    2.500    4.125    5.250    2.500 
#    4.500    3.125    0.000    0.000    0.000    0.000 
#    0.000    0.000    0.000    0.000    0.000    0.000 
#
# Total GULP energy -89315.021884 kJ/mol
# GULP energy per Si atom -5582.188868 kJ/mol
# Density = 2.401827 g / cm^3
# Si number density = 24.073061 Si / 1000 Ang^3
#
#
#
# Elastic Constant Matrix: (Units=GPa)
#
#
# Indices 1 2 3 4 5 6 
#
# 1 103.0741 10.3487 4.1115 1.7482 1.9298 15.9342
# 2 10.3487 115.3812 -2.0194 -28.0219 -0.5925 11.7926
# 3 4.1115 -2.0194 36.5040 -5.3935 4.2972 -0.0302
# 4 1.7482 -28.0219 -5.3935 35.1652 -3.3359 11.4156
# 5 1.9298 -0.5925 4.2972 -3.3359 33.8460 -1.1868
# 6 15.9342 11.7926 -0.0302 11.4156 -1.1868 51.4826
#
#
#
# Elastic Compliance Matrix: (Units=1/GPa)
#
#
# Indices 1 2 3 4 5 6 
#
# 1 0.010297 -0.000739 -0.001190 -0.000383 -0.000590 -0.002947
# 2 -0.000739 0.012199 0.002401 0.011897 0.000942 -0.005180
# 3 -0.001190 0.002401 0.028999 0.006696 -0.002972 -0.001718
# 4 -0.000383 0.011897 0.006696 0.043198 0.003213 -0.012107
# 5 -0.000590 0.000942 -0.002972 0.003213 0.030288 -0.000049
# 6 -0.002947 -0.005180 -0.001718 -0.012107 -0.000049 0.024205
#
#
# Mechanical properties :
#
#
# Convention : Reuss Voigt Hill
#
# Bulk Modulus (GPa) = 19.07046 31.09342 25.08194
# Shear Modulus (GPa) = 30.17099 40.26666 35.21883
#
# Velocity S-wave (km/s) = 3.54405 4.09428 3.82906
# Velocity P-wave (km/s) = 4.96852 5.94098 5.47638
#
# Compressibility (1/GPa) = 0.05243713
#
# Stress axis : x y z
#
# Youngs Moduli (GPa) = 97.11986 81.97521 34.48408
#
# Poissons Ratio (x) = 0.06059 0.04104
# Poissons Ratio (y) = 0.07178 -0.08279
# Poissons Ratio (z) = 0.11559 -0.19680
#
# Static dielectric constant tensor:
#      x y z
#    x 1.988170 0.036360 -0.112070 
#    y 0.036360 1.721230 0.030830 
#    z -0.112070 0.030830 1.993470 
# 
# From -- ./inp_files/84535.got.cif
#   From: 2010.05.17/outbox.cif.g08.bks.cpg/sg2_43_cif.got.tgz:84535.got - 2010.06.03 11:33:40.
