data_PCOD9063122
_publ_section_title
;
Structure prediction by ZEFSAII (Michael W. Deem and Ramdas Pophale) SiO2 
 PCOD9063122
Probable space group: P -1
;
_chemical_formula_sum "Si O2"
_cell_formula_units_Z 16
_cell_length_a 9.344326
_cell_length_b 9.999598
_cell_length_c 11.352276
_cell_angle_alpha 121.713646
_cell_angle_beta 55.281700
_cell_angle_gamma 100.804823
_cell_volume 732.146220
_symmetry_space_group_name_H-M "P -1"
_symmetry_group_IT_number 2
_symmetry_cell_setting 'triclinic'
loop_
_space_group_symop_operation_xyz
x,y,z
-x,-y,-z
loop_
_atom_site_type_symbol
_atom_site_label
_atom_site_fract_x
_atom_site_fract_y
_atom_site_fract_z
Si Si1 0.052206 0.815869 0.918684
Si Si2 0.676448 0.894014 0.820118
Si Si3 0.100371 0.885572 0.301633
Si Si4 0.333732 0.607448 0.189636
Si Si5 0.111068 0.324398 0.854161
Si Si6 0.915581 0.606654 0.699227
Si Si7 0.447315 0.727536 0.698052
Si Si8 0.499168 0.620803 0.370418
O O1 0.046215 0.697712 0.755252
O O2 0.250703 0.792733 0.864407
O O3 0.915486 0.764899 0.053005
O O4 0.000000 0.000000 0.000000
O O5 0.761447 0.745721 0.791238
O O6 0.603972 0.820878 0.702911
O O7 0.824440 0.000390 0.773455
O O8 0.500000 0.000000 0.000000
O O9 0.265478 0.767741 0.225196
O O10 0.972730 0.776822 0.251719
O O11 0.000000 0.000000 0.500000
O O12 0.172438 0.508659 0.227814
O O13 0.382555 0.640272 0.316909
O O14 0.500000 0.500000 0.000000
O O15 0.308474 0.345976 0.741387
O O16 0.000000 0.500000 0.000000
O O17 0.000000 0.500000 0.500000
O O18 0.436333 0.726439 0.561807
O O19 0.491195 0.556286 0.661930
#
# Coordination Sequence:
#
# PCOD9063122 Si02
#       8
#     2   2   2   2   2   2   2   2
#     4  12  26  44  68 104 141 182 228 287 352 411
#     4  12  25  45  70 100 140 184 227 282 354 411
#     4  12  27  46  69 103 143 182 223 291 356 408
#     4  12  25  44  70 105 136 180 237 284 336 413
#     4  12  24  45  72 100 139 185 237 281 343 420
#     4  12  25  44  70 102 136 181 237 283 334 414
#     4  11  24  44  70  99 138 179 230 283 346 410
#     4  11  24  43  71 102 133 179 234 288 335 402
#
# _framework density 21.853559000000001
#
# number of rings (size 3 to 8) (size 9 to 14) (size 15 to 20)
#    0.000    0.250    2.500    7.500    1.750    2.000 
#    0.000    1.875    0.000    0.000    0.000    0.000 
#    0.000    0.000    0.000    0.000    0.000    0.000 
#
# Total GULP energy -89565.012176 kJ/mol
# GULP energy per Si atom -5597.813261 kJ/mol
# Density = 2.180382 g / cm^3
# Si number density = 21.853559 Si / 1000 Ang^3
#
#
#
# Elastic Constant Matrix: (Units=GPa)
#
#
# Indices 1 2 3 4 5 6 
#
# 1 81.8356 -4.7242 -1.5885 10.0544 25.6270 18.1287
# 2 -4.7242 90.9722 20.6596 2.2863 8.4709 15.0024
# 3 -1.5885 20.6596 88.2401 0.6029 9.5287 7.6870
# 4 10.0544 2.2863 0.6029 31.4354 4.6326 0.3395
# 5 25.6270 8.4709 9.5287 4.6326 43.5639 -2.7985
# 6 18.1287 15.0024 7.6870 0.3395 -2.7985 41.3867
#
#
#
# Elastic Compliance Matrix: (Units=1/GPa)
#
#
# Indices 1 2 3 4 5 6 
#
# 1 0.019496 0.003723 0.001859 -0.004532 -0.012828 -0.011065
# 2 0.003723 0.013133 -0.001953 -0.001366 -0.004578 -0.006327
# 3 0.001859 -0.001953 0.012444 -0.000133 -0.003593 -0.002660
# 4 -0.004532 -0.001366 -0.000133 0.033405 -0.000450 0.002201
# 5 -0.012828 -0.004578 -0.003593 -0.000450 0.032879 0.010173
# 6 -0.011065 -0.006327 -0.002660 0.002201 0.010173 0.032467
#
#
# Mechanical properties :
#
#
# Convention : Reuss Voigt Hill
#
# Bulk Modulus (GPa) = 19.10849 32.19353 25.65101
# Shear Modulus (GPa) = 32.46574 39.72393 36.09483
#
# Velocity S-wave (km/s) = 3.85854 4.26811 4.06848
# Velocity P-wave (km/s) = 5.34920 6.24920 5.81663
#
# Compressibility (1/GPa) = 0.05233277
#
# Stress axis : x y z
#
# Youngs Moduli (GPa) = 51.29278 76.14239 80.36006
#
# Poissons Ratio (x) = -0.28350 -0.14942
# Poissons Ratio (y) = -0.19098 0.15694
# Poissons Ratio (z) = -0.09537 0.14870
#
# Static dielectric constant tensor:
#      x y z
#    x 1.802200 0.020360 0.038300 
#    y 0.020360 1.733860 -0.013270 
#    z 0.038300 -0.013270 1.781890 
# 
# From -- ./inp_files/383122.got.cif
#   From: 2010.05.17/outbox.cif.g08.bks.cpg/sg2_192_cif.got.tgz:383122.got - 2010.06.03 11:33:40.
