data_PCOD9063959
_publ_section_title
;
Structure prediction by ZEFSAII (Michael W. Deem and Ramdas Pophale) SiO2 
 PCOD9063959
Probable space group: P -1
;
_chemical_formula_sum "Si O2"
_cell_formula_units_Z 16
_cell_length_a 17.015998
_cell_length_b 7.707685
_cell_length_c 7.570005
_cell_angle_alpha 110.178848
_cell_angle_beta 124.861902
_cell_angle_gamma 49.436669
_cell_volume 618.312249
_symmetry_space_group_name_H-M "P -1"
_symmetry_group_IT_number 2
_symmetry_cell_setting 'triclinic'
loop_
_space_group_symop_operation_xyz
x,y,z
-x,-y,-z
loop_
_atom_site_type_symbol
_atom_site_label
_atom_site_fract_x
_atom_site_fract_y
_atom_site_fract_z
Si Si1 0.999730 0.194695 0.166368
Si Si2 0.205452 0.713327 0.838547
Si Si3 0.362072 0.212208 0.925355
Si Si4 0.170752 0.319841 0.998950
Si Si5 0.305683 0.202916 0.474852
Si Si6 0.815720 0.012795 0.379301
Si Si7 0.637049 0.251620 0.722620
Si Si8 0.610313 0.472090 0.393633
O O1 0.895765 0.294331 0.211843
O O2 0.944337 0.419472 0.061200
O O3 0.120628 0.082348 0.386882
O O4 0.000000 0.000000 0.000000
O O5 0.328113 0.462228 0.927052
O O6 0.154453 0.827520 0.624329
O O7 0.240552 0.850061 0.052406
O O8 0.297113 0.243040 0.038777
O O9 0.288884 0.206727 0.665173
O O10 0.500000 0.000000 0.000000
O O11 0.146319 0.181792 0.782133
O O12 0.201683 0.280903 0.231187
O O13 0.350407 0.361889 0.544494
O O14 0.384578 0.932220 0.441143
O O15 0.677941 0.223694 0.300016
O O16 0.631673 0.400717 0.604495
O O17 0.527975 0.391799 0.764507
#
# Coordination Sequence:
#
# PCOD9063959 Si02
#       8
#     2   2   2   2   2   2   2   2
#     4  11  25  47  74  97 137 185 239 308 366 420
#     4  11  24  45  68 101 141 182 235 294 362 433
#     4  11  27  42  71 106 147 191 240 290 359 439
#     4  11  26  45  72 104 141 186 242 303 358 436
#     4  12  24  46  70 103 149 195 236 293 363 431
#     4  12  23  46  69 102 140 183 239 299 369 419
#     4  11  25  42  68 108 143 186 245 291 354 445
#     4  11  25  42  72 102 147 190 236 296 359 432
#
# _framework density 25.876894
#
# number of rings (size 3 to 8) (size 9 to 14) (size 15 to 20)
#    0.000    0.750    2.500    4.875    8.750    0.500 
#    0.000    0.625    0.000    0.000    0.000    0.000 
#    0.000    0.000    0.000    0.000    0.000    0.000 
#
# Total GULP energy -89237.778278 kJ/mol
# GULP energy per Si atom -5577.361142 kJ/mol
# Density = 2.581800 g / cm^3
# Si number density = 25.876894 Si / 1000 Ang^3
#
#
#
# Elastic Constant Matrix: (Units=GPa)
#
#
# Indices 1 2 3 4 5 6 
#
# 1 45.4816 27.0627 12.7842 -12.8807 4.5215 2.7034
# 2 27.0627 117.1638 9.6838 12.1130 9.0756 8.4750
# 3 12.7842 9.6838 106.2179 3.8315 -10.3322 6.0064
# 4 -12.8807 12.1130 3.8315 36.1462 10.2534 -2.4234
# 5 4.5215 9.0756 -10.3322 10.2534 36.9934 0.6655
# 6 2.7034 8.4750 6.0064 -2.4234 0.6655 29.5996
#
#
#
# Elastic Compliance Matrix: (Units=1/GPa)
#
#
# Indices 1 2 3 4 5 6 
#
# 1 0.034711 -0.009007 -0.004979 0.018494 -0.008588 0.002126
# 2 -0.009007 0.011536 0.000539 -0.007507 0.000560 -0.003217
# 3 -0.004979 0.000539 0.010731 -0.004611 0.004794 -0.002363
# 4 0.018494 -0.007507 -0.004611 0.041363 -0.013262 0.005081
# 5 -0.008588 0.000560 0.004794 -0.013262 0.032998 -0.002176
# 6 0.002126 -0.003217 -0.002363 0.005081 -0.002176 0.035456
#
#
# Mechanical properties :
#
#
# Convention : Reuss Voigt Hill
#
# Bulk Modulus (GPa) = 33.23908 40.88055 37.05981
# Shear Modulus (GPa) = 24.54401 35.16999 29.85700
#
# Velocity S-wave (km/s) = 3.08310 3.69063 3.40046
# Velocity P-wave (km/s) = 5.05440 5.83039 5.45621
#
# Compressibility (1/GPa) = 0.03008507
#
# Stress axis : x y z
#
# Youngs Moduli (GPa) = 28.80965 86.68295 93.18829
#
# Poissons Ratio (x) = 0.78071 0.46401
# Poissons Ratio (y) = 0.25948 -0.05027
# Poissons Ratio (z) = 0.14345 -0.04676
#
# Static dielectric constant tensor:
#      x y z
#    x 2.173580 0.082760 -0.017490 
#    y 0.082760 2.210850 0.075700 
#    z -0.017490 0.075700 2.056430 
# 
# From -- ./inp_files/343795.got.cif
#   From: 2010.05.17/outbox.cif.g08.bks.cpg/sg2_172_cif.got.tgz:343795.got - 2010.06.03 11:33:40.
