data_PCOD9063802
_publ_section_title
;
Structure prediction by ZEFSAII (Michael W. Deem and Ramdas Pophale) SiO2 
 PCOD9063802
Probable space group: P -1
;
_chemical_formula_sum "Si O2"
_cell_formula_units_Z 16
_cell_length_a 11.869779
_cell_length_b 8.162476
_cell_length_c 11.022532
_cell_angle_alpha 70.480747
_cell_angle_beta 96.674123
_cell_angle_gamma 49.254297
_cell_volume 673.851294
_symmetry_space_group_name_H-M "P -1"
_symmetry_group_IT_number 2
_symmetry_cell_setting 'triclinic'
loop_
_space_group_symop_operation_xyz
x,y,z
-x,-y,-z
loop_
_atom_site_type_symbol
_atom_site_label
_atom_site_fract_x
_atom_site_fract_y
_atom_site_fract_z
Si Si1 0.660614 0.447306 0.538969
Si Si2 0.432013 0.017073 0.359996
Si Si3 0.267677 0.876284 0.932731
Si Si4 0.410993 0.322725 0.079060
Si Si5 0.920108 0.463555 0.101414
Si Si6 0.893296 0.681399 0.615710
Si Si7 0.988670 0.228907 0.603914
Si Si8 0.872403 0.056874 0.871313
O O1 0.500000 0.500000 0.500000
O O2 0.564402 0.725370 0.406823
O O3 0.844005 0.254006 0.544379
O O4 0.739693 0.329474 0.715189
O O5 0.500000 0.000000 0.500000
O O6 0.420636 0.197870 0.231761
O O7 0.254254 0.136882 0.348209
O O8 0.406730 0.853015 0.910470
O O9 0.342818 0.595637 0.021087
O O10 0.220573 0.970105 0.042515
O O11 0.117543 0.035418 0.775907
O O12 0.273240 0.370363 0.976549
O O13 0.947861 0.500811 0.230708
O O14 0.022565 0.170060 0.157273
O O15 0.000000 0.500000 0.000000
O O16 0.890315 0.507103 0.581469
O O17 0.908439 0.817591 0.486896
O O18 0.000000 0.000000 0.000000
#
# Coordination Sequence:
#
# PCOD9063802 Si02
#       8
#     2   2   2   2   2   2   2   2
#     4  12  27  45  73 111 147 189 242 304 364 431
#     4  12  23  43  70 105 141 185 240 289 361 436
#     4  11  24  44  74 106 143 190 246 298 357 437
#     4  11  25  43  68 110 142 185 241 299 362 422
#     4  12  24  44  74 108 143 189 244 296 356 432
#     4  11  25  44  74 106 144 194 241 303 362 437
#     4  11  24  48  71 106 144 194 245 295 374 431
#     4  12  24  47  75 104 146 197 242 289 367 439
#
# _framework density 23.744111
#
# number of rings (size 3 to 8) (size 9 to 14) (size 15 to 20)
#    0.000    0.500    5.000    3.000    1.750    2.000 
#    0.000    6.875    0.000    0.000    0.000    0.000 
#    0.000    0.000    0.000    0.000    0.000    0.000 
#
# Total GULP energy -89274.442220 kJ/mol
# GULP energy per Si atom -5579.652639 kJ/mol
# Density = 2.369007 g / cm^3
# Si number density = 23.744111 Si / 1000 Ang^3
#
#
#
# Elastic Constant Matrix: (Units=GPa)
#
#
# Indices 1 2 3 4 5 6 
#
# 1 169.0707 22.9794 57.1065 -4.4375 3.0150 -28.0941
# 2 22.9794 46.1156 11.9068 -11.6194 -5.8698 -12.6664
# 3 57.1065 11.9068 137.0348 -8.6600 -18.4356 -15.5523
# 4 -4.4375 -11.6194 -8.6600 32.9298 -3.3332 1.4593
# 5 3.0150 -5.8698 -18.4356 -3.3332 50.1708 8.0940
# 6 -28.0941 -12.6664 -15.5523 1.4593 8.0940 41.3425
#
#
#
# Elastic Compliance Matrix: (Units=1/GPa)
#
#
# Indices 1 2 3 4 5 6 
#
# 1 0.008006 -0.002717 -0.003073 -0.001134 -0.002651 0.004011
# 2 -0.002717 0.027286 0.000441 0.009451 0.003224 0.005714
# 3 -0.003073 0.000441 0.009279 0.002524 0.003697 0.000724
# 4 -0.001134 0.009451 0.002524 0.034597 0.004235 0.001024
# 5 -0.002651 0.003224 0.003697 0.004235 0.022758 -0.004028
# 6 0.004011 0.005714 0.000724 0.001024 -0.004028 0.029689
#
#
# Mechanical properties :
#
#
# Convention : Reuss Voigt Hill
#
# Bulk Modulus (GPa) = 29.52343 59.57849 44.55096
# Shear Modulus (GPa) = 32.55109 42.23718 37.39413
#
# Velocity S-wave (km/s) = 3.70660 4.22222 3.97278
# Velocity P-wave (km/s) = 5.54793 6.99399 6.31250
#
# Compressibility (1/GPa) = 0.03387140
#
# Stress axis : x y z
#
# Youngs Moduli (GPa) = 124.90513 36.64889 107.77173
#
# Poissons Ratio (x) = 0.09959 0.33122
# Poissons Ratio (y) = 0.33943 -0.04754
# Poissons Ratio (z) = 0.38388 -0.01617
#
# Static dielectric constant tensor:
#      x y z
#    x 2.307870 -0.297850 0.249730 
#    y -0.297850 2.214730 -0.278890 
#    z 0.249730 -0.278890 2.078010 
# 
# From -- ./inp_files/419155.got.cif
#   From: 2010.05.17/outbox.cif.g08.bks.cpg/sg2_210_cif.got.tgz:419155.got - 2010.06.03 11:33:40.
