data_PCOD9063698
_publ_section_title
;
Structure prediction by ZEFSAII (Michael W. Deem and Ramdas Pophale) SiO2 
 PCOD9063698
Probable space group: P -1
;
_chemical_formula_sum "Si O2"
_cell_formula_units_Z 16
_cell_length_a 16.275819
_cell_length_b 9.119200
_cell_length_c 15.555311
_cell_angle_alpha 65.499581
_cell_angle_beta 29.401889
_cell_angle_gamma 87.754524
_cell_volume 714.651020
_symmetry_space_group_name_H-M "P -1"
_symmetry_group_IT_number 2
_symmetry_cell_setting 'triclinic'
loop_
_space_group_symop_operation_xyz
x,y,z
-x,-y,-z
loop_
_atom_site_type_symbol
_atom_site_label
_atom_site_fract_x
_atom_site_fract_y
_atom_site_fract_z
Si Si1 0.300250 0.779944 0.176969
Si Si2 0.609400 0.716041 0.905750
Si Si3 0.081792 0.548153 0.270997
Si Si4 0.104835 0.943253 0.727269
Si Si5 0.722064 0.532987 0.306938
Si Si6 0.953463 0.799338 0.705504
Si Si7 0.494914 0.963892 0.411216
Si Si8 0.040569 0.261189 0.776785
O O1 0.052731 0.644463 0.483761
O O2 0.281369 0.781447 0.090376
O O3 0.371575 0.647217 0.160274
O O4 0.500000 0.000000 0.000000
O O5 0.748357 0.758849 0.853884
O O6 0.795582 0.960100 0.623785
O O7 0.500000 0.500000 0.000000
O O8 0.119585 0.435161 0.194215
O O9 0.919934 0.569087 0.367957
O O10 0.985490 0.843989 0.766529
O O11 0.362149 0.027455 0.474509
O O12 0.095668 0.124321 0.719784
O O13 0.940705 0.738181 0.996689
O O14 0.500000 0.500000 0.500000
O O15 0.656462 0.302894 0.404076
O O16 0.800560 0.608429 0.315169
O O17 0.500000 0.000000 0.500000
O O18 0.761483 0.103613 0.098509
#
# Coordination Sequence:
#
# PCOD9063698 Si02
#       8
#     2   2   2   2   2   2   2   2
#     4  11  24  44  72  95 139 187 229 286 352 413
#     4  11  24  45  69  97 138 184 226 287 351 414
#     4  11  26  44  68 104 138 181 235 289 349 421
#     4  12  27  47  73 107 142 187 241 292 357 421
#     4  12  25  50  75 102 148 187 234 294 355 421
#     4  11  26  44  67 104 140 175 238 289 345 425
#     4  12  26  47  77 101 141 191 234 295 355 416
#     4  12  28  48  71 107 146 184 243 292 351 429
#
# _framework density 22.388552000000001
#
# number of rings (size 3 to 8) (size 9 to 14) (size 15 to 20)
#    0.000    0.500    5.000    2.250    7.000    2.000 
#    0.000    0.000    0.000    0.000    0.000    0.000 
#    0.000    0.000    0.000    0.000    0.000    0.000 
#
# Total GULP energy -89322.181567 kJ/mol
# GULP energy per Si atom -5582.636348 kJ/mol
# Density = 2.233759 g / cm^3
# Si number density = 22.388552 Si / 1000 Ang^3
#
#
#
# Elastic Constant Matrix: (Units=GPa)
#
#
# Indices 1 2 3 4 5 6 
#
# 1 195.5448 79.6562 30.2029 3.9802 -29.4378 34.5243
# 2 79.6562 177.1897 21.5650 10.4843 -11.9493 27.8467
# 3 30.2029 21.5650 51.8982 4.3969 -24.1599 -2.0242
# 4 3.9802 10.4843 4.3969 31.1177 -2.5851 -7.5026
# 5 -29.4378 -11.9493 -24.1599 -2.5851 37.1155 0.3063
# 6 34.5243 27.8467 -2.0242 -7.5026 0.3063 51.1321
#
#
#
# Elastic Compliance Matrix: (Units=1/GPa)
#
#
# Indices 1 2 3 4 5 6 
#
# 1 0.007682 -0.002280 -0.001637 -0.000622 0.004284 -0.004127
# 2 -0.002280 0.007500 -0.002110 -0.002744 -0.000933 -0.003026
# 3 -0.001637 -0.002110 0.029187 -0.001037 0.016923 0.003156
# 4 -0.000622 -0.002744 -0.001037 0.035004 0.000328 0.007008
# 5 0.004284 -0.000933 0.016923 0.000328 0.041094 -0.001912
# 6 -0.004127 -0.003026 0.003156 0.007008 -0.001912 0.025156
#
#
# Mechanical properties :
#
#
# Convention : Reuss Voigt Hill
#
# Bulk Modulus (GPa) = 30.94484 76.38677 53.66580
# Shear Modulus (GPa) = 29.68267 43.42028 36.55147
#
# Velocity S-wave (km/s) = 3.64510 4.40864 4.04492
# Velocity P-wave (km/s) = 5.61849 7.75290 6.77034
#
# Compressibility (1/GPa) = 0.03231557
#
# Stress axis : x y z
#
# Youngs Moduli (GPa) = 130.18097 133.32717 34.26197
#
# Poissons Ratio (x) = 0.30396 0.05610
# Poissons Ratio (y) = 0.29678 0.07228
# Poissons Ratio (z) = 0.21314 0.28127
#
# Static dielectric constant tensor:
#      x y z
#    x 1.828620 -0.005180 0.042580 
#    y -0.005180 1.805960 -0.014720 
#    z 0.042580 -0.014720 1.973930 
# 
# From -- ./inp_files/529541.got.cif
#   From: 2010.05.17/outbox.cif.g08.bks.cpg/sg2_265_cif.got.tgz:529541.got - 2010.06.03 11:33:40.
