data_PCOD9063109
_publ_section_title
;
Structure prediction by ZEFSAII (Michael W. Deem and Ramdas Pophale) SiO2 
 PCOD9063109
Probable space group: P -1
;
_chemical_formula_sum "Si O2"
_cell_formula_units_Z 15
_cell_length_a 7.754929
_cell_length_b 12.078479
_cell_length_c 9.340559
_cell_angle_alpha 130.784161
_cell_angle_beta 90.265722
_cell_angle_gamma 84.773613
_cell_volume 657.957116
_symmetry_space_group_name_H-M "P -1"
_symmetry_group_IT_number 2
_symmetry_cell_setting 'triclinic'
loop_
_space_group_symop_operation_xyz
x,y,z
-x,-y,-z
loop_
_atom_site_type_symbol
_atom_site_label
_atom_site_fract_x
_atom_site_fract_y
_atom_site_fract_z
Si Si1 0.000000 0.500000 0.000000
Si Si2 0.635336 0.377668 0.968214
Si Si3 0.127378 0.932590 0.065337
Si Si4 0.736298 0.614278 0.553463
Si Si5 0.366617 0.675221 0.747655
Si Si6 0.416457 0.119952 0.748493
Si Si7 0.698380 0.862769 0.547414
Si Si8 0.128621 0.289835 0.073186
O O1 0.908699 0.569988 0.909913
O O2 0.174383 0.586109 0.041478
O O3 0.601459 0.387783 0.146284
O O4 0.500000 0.500000 0.000000
O O5 0.573605 0.217911 0.795796
O O6 0.290814 0.843337 0.911303
O O7 0.025432 0.809786 0.032648
O O8 0.181761 0.044243 0.277558
O O9 0.000000 0.000000 0.000000
O O10 0.537475 0.657940 0.639501
O O11 0.762959 0.437370 0.405419
O O12 0.741928 0.698825 0.473499
O O13 0.849358 0.673883 0.729685
O O14 0.288243 0.135175 0.622841
O O15 0.505887 0.955251 0.641521
O O16 0.305174 0.193706 0.940149
#
# Coordination Sequence:
#
# PCOD9063109 Si02
#       8
#     1   2   2   2   2   2   2   2
#     4  12  24  40  70 102 140 186 232 286 360 422
#     4  12  21  42  68  97 139 188 225 292 354 419
#     4  12  25  45  68 102 145 186 229 298 354 421
#     4  11  24  43  72 102 130 185 241 288 353 421
#     4  11  24  44  66 101 136 175 241 291 345 424
#     4  11  24  43  71 100 140 183 238 295 355 425
#     4  11  24  44  71 102 135 187 237 292 356 425
#     4  12  24  43  69 102 138 189 233 290 363 416
#
# _framework density 22.797837000000001
#
# number of rings (size 3 to 8) (size 9 to 14) (size 15 to 20)
#    0.000    0.533    6.667    0.800    1.867    3.200 
#    2.400    0.000    0.000    0.000    0.000    0.000 
#    0.000    0.000    0.000    0.000    0.000    0.000 
#
# Total GULP energy -83550.263920 kJ/mol
# GULP energy per Si atom -5570.017595 kJ/mol
# Density = 2.274595 g / cm^3
# Si number density = 22.797837 Si / 1000 Ang^3
#
#
#
# Elastic Constant Matrix: (Units=GPa)
#
#
# Indices 1 2 3 4 5 6 
#
# 1 65.1938 -10.5129 1.1466 3.5459 7.4583 0.0827
# 2 -10.5129 78.1890 -15.7193 -16.1199 4.2451 -17.9517
# 3 1.1466 -15.7193 85.2494 -0.2182 22.8162 2.9800
# 4 3.5459 -16.1199 -0.2182 34.6775 -1.0311 11.8702
# 5 7.4583 4.2451 22.8162 -1.0311 26.4016 1.2339
# 6 0.0827 -17.9517 2.9800 11.8702 1.2339 32.1721
#
#
#
# Elastic Compliance Matrix: (Units=1/GPa)
#
#
# Indices 1 2 3 4 5 6 
#
# 1 0.016761 0.003431 0.002313 -0.001134 -0.007440 0.002361
# 2 0.003431 0.017564 0.005195 0.004918 -0.008456 0.007820
# 3 0.002313 0.005195 0.016928 0.001305 -0.016135 0.001462
# 4 -0.001134 0.004918 0.001305 0.034747 0.000236 -0.010203
# 5 -0.007440 -0.008456 -0.016135 0.000236 0.055544 -0.005422
# 6 0.002361 0.007820 0.001462 -0.010203 -0.005422 0.039277
#
#
# Mechanical properties :
#
#
# Convention : Reuss Voigt Hill
#
# Bulk Modulus (GPa) = 13.67422 19.82899 16.75160
# Shear Modulus (GPa) = 27.27468 35.56477 31.41973
#
# Velocity S-wave (km/s) = 3.46261 3.95398 3.71642
# Velocity P-wave (km/s) = 4.69013 5.43708 5.07736
#
# Compressibility (1/GPa) = 0.07313030
#
# Stress axis : x y z
#
# Youngs Moduli (GPa) = 59.66127 56.93552 59.07501
#
# Poissons Ratio (x) = -0.19534 -0.13664
# Poissons Ratio (y) = -0.20469 -0.30689
# Poissons Ratio (z) = -0.13800 -0.29577
#
# Static dielectric constant tensor:
#      x y z
#    x 1.910090 -0.032450 -0.017870 
#    y -0.032450 1.879800 0.073130 
#    z -0.017870 0.073130 1.934550 
# 
# From -- ./inp_files/190935.got.cif
#   From: 2010.05.17/outbox.cif.g08.bks.cpg/sg2_96_cif.got.tgz:190935.got - 2010.06.03 11:33:40.
