data_PCOD9063760
_publ_section_title
;
Structure prediction by ZEFSAII (Michael W. Deem and Ramdas Pophale) SiO2 
 PCOD9063760
Probable space group: P -1
;
_chemical_formula_sum "Si O2"
_cell_formula_units_Z 16
_cell_length_a 14.472870
_cell_length_b 14.122513
_cell_length_c 11.648712
_cell_angle_alpha 41.212400
_cell_angle_beta 120.114220
_cell_angle_gamma 150.911864
_cell_volume 666.500076
_symmetry_space_group_name_H-M "P -1"
_symmetry_group_IT_number 2
_symmetry_cell_setting 'triclinic'
loop_
_space_group_symop_operation_xyz
x,y,z
-x,-y,-z
loop_
_atom_site_type_symbol
_atom_site_label
_atom_site_fract_x
_atom_site_fract_y
_atom_site_fract_z
Si Si1 0.936680 0.809920 0.535959
Si Si2 0.665311 0.482083 0.113683
Si Si3 0.907697 0.288639 0.971867
Si Si4 0.972128 0.636962 0.258679
Si Si5 0.679512 0.715944 0.316111
Si Si6 0.700881 0.285380 0.990509
Si Si7 0.610842 0.673140 0.731832
Si Si8 0.634090 0.059232 0.711384
O O1 0.842104 0.778246 0.394526
O O2 0.757833 0.495950 0.764609
O O3 0.000000 0.000000 0.500000
O O4 0.163517 0.997749 0.475851
O O5 0.892964 0.700213 0.111535
O O6 0.510749 0.369662 0.214600
O O7 0.556181 0.208106 0.249686
O O8 0.676786 0.604084 0.902721
O O9 0.105739 0.503713 0.987546
O O10 0.796926 0.005576 0.139503
O O11 0.736245 0.195790 0.006816
O O12 0.004342 0.438709 0.769846
O O13 0.791889 0.365582 0.480802
O O14 0.210537 0.899528 0.221248
O O15 0.500000 0.500000 0.500000
O O16 0.553849 0.551442 0.269009
O O17 0.480610 0.036259 0.153371
#
# Coordination Sequence:
#
# PCOD9063760 Si02
#       8
#     2   2   2   2   2   2   2   2
#     4  12  23  45  72 105 148 192 238 294 366 437
#     4  11  24  46  74 101 144 190 242 304 357 432
#     4  11  24  44  73 109 140 192 240 298 364 437
#     4  11  25  44  74 101 143 191 241 296 362 435
#     4  12  25  45  74 105 149 189 240 302 362 436
#     4  11  25  44  74 106 148 190 240 295 371 435
#     4  11  26  45  73 108 140 193 245 298 365 427
#     4  11  25  46  70 102 146 191 239 297 363 429
#
# _framework density 24.005998999999999
#
# number of rings (size 3 to 8) (size 9 to 14) (size 15 to 20)
#    0.000    0.750    3.750    2.625    3.500    3.500 
#    2.250    3.125    0.000    0.000    0.000    0.000 
#    0.000    0.000    0.000    0.000    0.000    0.000 
#
# Total GULP energy -89642.213511 kJ/mol
# GULP energy per Si atom -5602.638344 kJ/mol
# Density = 2.395136 g / cm^3
# Si number density = 24.005999 Si / 1000 Ang^3
#
#
#
# Elastic Constant Matrix: (Units=GPa)
#
#
# Indices 1 2 3 4 5 6 
#
# 1 107.3994 35.3953 64.1102 -2.9952 -27.7257 13.6417
# 2 35.3953 101.5478 33.4067 16.8997 -13.6121 12.4478
# 3 64.1102 33.4067 139.0364 2.5677 -32.3069 1.1892
# 4 -2.9952 16.8997 2.5677 35.3302 9.6661 -3.0113
# 5 -27.7257 -13.6121 -32.3069 9.6661 36.9840 3.5737
# 6 13.6417 12.4478 1.1892 -3.0113 3.5737 40.3749
#
#
#
# Elastic Compliance Matrix: (Units=1/GPa)
#
#
# Indices 1 2 3 4 5 6 
#
# 1 0.015400 -0.002330 -0.004954 0.000532 0.006694 -0.004892
# 2 -0.002330 0.013563 -0.000784 -0.008430 0.005195 -0.004460
# 3 -0.004954 -0.000784 0.011177 -0.002521 0.006340 0.000837
# 4 0.000532 -0.008430 -0.002521 0.037316 -0.015300 0.006631
# 5 0.006694 0.005195 0.006340 -0.015300 0.044387 -0.009120
# 6 -0.004892 -0.004460 0.000837 0.006631 -0.009120 0.029073
#
#
# Mechanical properties :
#
#
# Convention : Reuss Voigt Hill
#
# Bulk Modulus (GPa) = 41.65527 68.20088 54.92808
# Shear Modulus (GPa) = 28.56267 36.87592 32.71930
#
# Velocity S-wave (km/s) = 3.45311 3.92358 3.69584
# Velocity P-wave (km/s) = 5.76960 6.99983 6.41428
#
# Compressibility (1/GPa) = 0.02400656
#
# Stress axis : x y z
#
# Youngs Moduli (GPa) = 64.93402 73.72747 89.46634
#
# Poissons Ratio (x) = 0.17176 0.44321
# Poissons Ratio (y) = 0.15127 0.07012
# Poissons Ratio (z) = 0.32168 0.05778
#
# Static dielectric constant tensor:
#      x y z
#    x 1.900670 0.054440 -0.005130 
#    y 0.054440 1.926460 0.036340 
#    z -0.005130 0.036340 1.945660 
# 
# From -- ./inp_files/455495.got.cif
#   From: 2010.05.17/outbox.cif.g08.bks.cpg/sg2_228_cif.got.tgz:455495.got - 2010.06.03 11:33:40.
