data_PCOD9063317
_publ_section_title
;
Structure prediction by ZEFSAII (Michael W. Deem and Ramdas Pophale) SiO2 
 PCOD9063317
Probable space group: P -1
;
_chemical_formula_sum "Si O2"
_cell_formula_units_Z 12
_cell_length_a 12.004200
_cell_length_b 9.845117
_cell_length_c 17.471308
_cell_angle_alpha 45.344989
_cell_angle_beta 19.761124
_cell_angle_gamma 44.264536
_cell_volume 483.597855
_symmetry_space_group_name_H-M "P -1"
_symmetry_group_IT_number 2
_symmetry_cell_setting 'triclinic'
loop_
_space_group_symop_operation_xyz
x,y,z
-x,-y,-z
loop_
_atom_site_type_symbol
_atom_site_label
_atom_site_fract_x
_atom_site_fract_y
_atom_site_fract_z
Si Si1 0.559477 0.089131 0.538662
Si Si2 0.877765 0.642911 0.159613
Si Si3 0.306762 0.027868 0.035517
Si Si4 0.484459 0.282270 0.354779
Si Si5 0.656542 0.628618 0.907840
Si Si6 0.339436 0.657793 0.386190
O O1 0.353067 0.191611 0.703380
O O2 0.378232 0.184891 0.539854
O O3 0.600688 0.854041 0.603528
O O4 0.930023 0.119713 0.270822
O O5 0.609564 0.554335 0.318288
O O6 0.146747 0.498355 0.097762
O O7 0.117369 0.731417 0.912426
O O8 0.504702 0.161028 0.807179
O O9 0.362282 0.812924 0.048399
O O10 0.500000 0.000000 0.000000
O O11 0.343069 0.511543 0.370360
O O12 0.962536 0.708531 0.640823
O O13 0.500000 0.500000 0.000000
#
# Coordination Sequence:
#
# PCOD9063317 Si02
#       6
#     2   2   2   2   2   2
#     4  11  25  46  72 107 145 189 246 293 355 433
#     4  12  25  46  81 106 140 195 249 292 354 435
#     4  12  27  46  71 108 150 187 237 306 366 422
#     4  11  24  43  76 106 139 183 251 297 341 421
#     4  12  28  47  72 108 152 186 237 304 370 424
#     4  12  25  48  76 106 143 196 248 291 356 442
#
# _framework density 24.814007
#
# number of rings (size 3 to 8) (size 9 to 14) (size 15 to 20)
#    0.000    0.333    3.333    5.000    4.667    2.667 
#    0.000    3.333    0.000    0.000    0.000    0.000 
#    0.000    0.000    0.000    0.000    0.000    0.000 
#
# Total GULP energy -67103.753245 kJ/mol
# GULP energy per Si atom -5591.979437 kJ/mol
# Density = 2.475753 g / cm^3
# Si number density = 24.814007 Si / 1000 Ang^3
#
#
#
# Elastic Constant Matrix: (Units=GPa)
#
#
# Indices 1 2 3 4 5 6 
#
# 1 49.4333 25.2065 13.2331 5.2522 0.1770 -6.4241
# 2 25.2065 130.7708 -2.6718 17.8847 2.1091 24.6566
# 3 13.2331 -2.6718 98.7221 25.9518 2.1746 -5.7161
# 4 5.2522 17.8847 25.9518 37.9274 13.0142 3.9336
# 5 0.1770 2.1091 2.1746 13.0142 34.9427 12.7392
# 6 -6.4241 24.6566 -5.7161 3.9336 12.7392 27.4996
#
#
#
# Elastic Compliance Matrix: (Units=1/GPa)
#
#
# Indices 1 2 3 4 5 6 
#
# 1 0.027426 -0.008746 -0.003756 0.003467 -0.006495 0.015980
# 2 -0.008746 0.013341 0.002487 -0.007807 0.007824 -0.015995
# 3 -0.003756 0.002487 0.013499 -0.010962 0.003188 -0.000210
# 4 0.003467 -0.007807 -0.010962 0.042237 -0.017337 0.007521
# 5 -0.006495 0.007824 0.003188 -0.017337 0.043800 -0.025680
# 6 0.015980 -0.015995 -0.000210 0.007521 -0.025680 0.065215
#
#
# Mechanical properties :
#
#
# Convention : Reuss Voigt Hill
#
# Bulk Modulus (GPa) = 29.20795 38.94019 34.07407
# Shear Modulus (GPa) = 21.10059 36.28449 28.69254
#
# Velocity S-wave (km/s) = 2.91924 3.82810 3.40414
# Velocity P-wave (km/s) = 4.81237 5.93852 5.40486
#
# Compressibility (1/GPa) = 0.03423725
#
# Stress axis : x y z
#
# Youngs Moduli (GPa) = 36.46199 74.95692 74.07697
#
# Poissons Ratio (x) = 0.65555 0.27824
# Poissons Ratio (y) = 0.31888 -0.18425
# Poissons Ratio (z) = 0.13695 -0.18644
#
# Static dielectric constant tensor:
#      x y z
#    x 1.996820 0.017010 -0.045170 
#    y 0.017010 1.882370 0.026370 
#    z -0.045170 0.026370 1.954510 
# 
# From -- ./inp_files/152636.got.cif
#   From: 2010.05.17/outbox.cif.g08.bks.cpg/sg2_77_cif.got.tgz:152636.got - 2010.06.03 11:33:40.
