data_PCOD9063346
_publ_section_title
;
Structure prediction by ZEFSAII (Michael W. Deem and Ramdas Pophale) SiO2 
 PCOD9063346
Probable space group: P -1
;
_chemical_formula_sum "Si O2"
_cell_formula_units_Z 16
_cell_length_a 7.625284
_cell_length_b 14.231868
_cell_length_c 10.625136
_cell_angle_alpha 136.144278
_cell_angle_beta 67.134831
_cell_angle_gamma 89.623706
_cell_volume 657.678346
_symmetry_space_group_name_H-M "P -1"
_symmetry_group_IT_number 2
_symmetry_cell_setting 'triclinic'
loop_
_space_group_symop_operation_xyz
x,y,z
-x,-y,-z
loop_
_atom_site_type_symbol
_atom_site_label
_atom_site_fract_x
_atom_site_fract_y
_atom_site_fract_z
Si Si1 0.124310 0.501988 0.102414
Si Si2 0.978371 0.211602 0.209682
Si Si3 0.725808 0.285049 0.587507
Si Si4 0.200719 0.507358 0.623887
Si Si5 0.524224 0.969845 0.160012
Si Si6 0.529499 0.207589 0.779030
Si Si7 0.579089 0.189994 0.193289
Si Si8 0.678175 0.425232 0.100253
O O1 0.242662 0.599796 0.216659
O O2 0.943491 0.542285 0.296916
O O3 0.294059 0.326288 0.910810
O O4 0.128932 0.555373 0.006822
O O5 0.924977 0.205862 0.364812
O O6 0.910377 0.385775 0.358726
O O7 0.812721 0.164270 0.142153
O O8 0.220649 0.121920 0.016304
O O9 0.673639 0.173001 0.580618
O O10 0.518863 0.405034 0.684825
O O11 0.410051 0.362583 0.384867
O O12 0.251305 0.609043 0.809506
O O13 0.464400 0.931128 0.275743
O O14 0.482698 0.135353 0.286183
O O15 0.421773 0.906382 0.020646
O O16 0.607866 0.304780 0.944467
#
# Coordination Sequence:
#
# PCOD9063346 Si02
#       8
#     2   2   2   2   2   2   2   2
#     4   9  18  32  56  90 117 153 190 241 301 348
#     4  12  23  39  65  92 119 152 202 252 295 347
#     4   9  19  34  57  88 120 150 189 253 295 340
#     4  12  21  34  60  94 119 148 201 254 293 343
#     4  11  24  44  63  82 122 165 200 237 294 370
#     4   9  18  38  60  84 115 159 197 232 299 357
#     4  11  26  40  59  90 123 158 194 250 303 343
#     4   9  18  33  56  87 125 147 187 254 298 340
#
# _framework density 24.328001
#
# number of rings (size 3 to 8) (size 9 to 14) (size 15 to 20)
#    0.000    1.750    2.500    4.125    3.500    1.000 
#    0.000    0.625    0.000   13.500    0.000    0.000 
#    0.000    0.000    0.000    0.000    0.000    0.000 
#
# Total GULP energy -89399.473012 kJ/mol
# GULP energy per Si atom -5587.467063 kJ/mol
# Density = 2.427263 g / cm^3
# Si number density = 24.328001 Si / 1000 Ang^3
#
#
#
# Elastic Constant Matrix: (Units=GPa)
#
#
# Indices 1 2 3 4 5 6 
#
# 1 -207.5555 47.4397 -10.4724 -11.3146 -59.9383 44.6902
# 2 47.4397 160.0484 19.5831 -18.9478 -1.7322 1.6133
# 3 -10.4724 19.5831 30.1132 -3.4628 -11.6423 4.8374
# 4 -11.3146 -18.9478 -3.4628 32.7272 3.7667 -6.3162
# 5 -59.9383 -1.7322 -11.6423 3.7667 13.8242 1.2621
# 6 44.6902 1.6133 4.8374 -6.3162 1.2621 27.8111
#
#
#
# Elastic Compliance Matrix: (Units=1/GPa)
#
#
# Indices 1 2 3 4 5 6 
#
# 1 -0.001056 0.000943 -0.004927 0.001349 -0.009271 0.003226
# 2 0.000943 0.006790 -0.002996 0.003649 0.001478 -0.000626
# 3 -0.004927 -0.002996 0.036775 -0.000379 0.009225 0.001191
# 4 0.001349 0.003649 -0.000379 0.034660 -0.003981 0.005739
# 5 -0.009271 0.001478 0.009225 -0.003981 0.040224 0.010477
# 6 0.003226 -0.000626 0.001191 0.005739 0.010477 0.031430
#
#
# Mechanical properties :
#
#
# Convention : Reuss Voigt Hill
#
# Bulk Modulus (GPa) = 35.03017 10.63408 22.83212
# Shear Modulus (GPa) = 29.01903 9.94288 19.48095
#
# Velocity S-wave (km/s) = 3.45748 2.02383 2.83284
# Velocity P-wave (km/s) = 5.51083 3.13716 4.48392
#
# Compressibility (1/GPa) = 0.02854682
#
# Stress axis : x y z
#
# Youngs Moduli (GPa) = -947.27998 147.28432 27.19256
#
# Poissons Ratio (x) = -0.13884 0.13399
# Poissons Ratio (y) = 0.89297 0.08147
# Poissons Ratio (z) = -4.66767 0.44129
#
# Static dielectric constant tensor:
#      x y z
#    x 2.058700 0.018320 0.058800 
#    y 0.018320 1.972140 -0.017600 
#    z 0.058800 -0.017600 1.897810 
# 
# From -- ./inp_files/272162.got.cif
#   From: 2010.05.17/outbox.cif.g08.bks.cpg/sg2_137_cif.got.tgz:272162.got - 2010.06.03 11:33:40.
