data_PCOD9063664
_publ_section_title
;
Structure prediction by ZEFSAII (Michael W. Deem and Ramdas Pophale) SiO2 
 PCOD9063664
Probable space group: P -1
;
_chemical_formula_sum "Si O2"
_cell_formula_units_Z 16
_cell_length_a 10.055151
_cell_length_b 10.798594
_cell_length_c 11.748237
_cell_angle_alpha 129.151552
_cell_angle_beta 96.478649
_cell_angle_gamma 117.524006
_cell_volume 709.373547
_symmetry_space_group_name_H-M "P -1"
_symmetry_group_IT_number 2
_symmetry_cell_setting 'triclinic'
loop_
_space_group_symop_operation_xyz
x,y,z
-x,-y,-z
loop_
_atom_site_type_symbol
_atom_site_label
_atom_site_fract_x
_atom_site_fract_y
_atom_site_fract_z
Si Si1 0.699944 0.573760 0.881469
Si Si2 0.894229 0.040965 0.199032
Si Si3 0.005497 0.693512 0.848702
Si Si4 0.579580 0.979000 0.885376
Si Si5 0.397168 0.079647 0.569807
Si Si6 0.858572 0.879934 0.527437
Si Si7 0.501970 0.451056 0.341190
Si Si8 0.236471 0.771507 0.575617
O O1 0.547511 0.331429 0.777686
O O2 0.630743 0.531917 0.721103
O O3 0.896089 0.652318 0.928626
O O4 0.721432 0.775018 0.036965
O O5 0.964125 0.128500 0.128436
O O6 0.858252 0.194629 0.320110
O O7 0.031090 0.068327 0.316950
O O8 0.885522 0.467429 0.632275
O O9 0.205396 0.794938 0.968441
O O10 0.574175 0.788585 0.803260
O O11 0.435694 0.884488 0.712302
O O12 0.500000 0.000000 0.000000
O O13 0.263100 0.057228 0.453371
O O14 0.500000 0.000000 0.500000
O O15 0.265561 0.922516 0.567117
O O16 0.688772 0.612280 0.374173
O O17 0.000000 0.000000 0.500000
O O18 0.500000 0.500000 0.500000
#
# Coordination Sequence:
#
# PCOD9063664 Si02
#       8
#     2   2   2   2   2   2   2   2
#     4  11  24  45  69 101 140 183 234 303 354 424
#     4  12  24  44  70 105 136 179 243 298 351 423
#     4  12  25  45  74 104 146 184 234 299 365 430
#     4  12  26  43  67 109 142 182 236 296 364 424
#     4  11  25  49  68  97 145 191 239 290 363 438
#     4  11  25  44  73 102 140 196 245 291 370 433
#     4  11  24  44  72 103 141 185 242 301 358 430
#     4  12  25  47  71 102 147 189 229 295 361 431
#
# _framework density 22.555112999999999
#
# number of rings (size 3 to 8) (size 9 to 14) (size 15 to 20)
#    0.000    0.500    5.000    3.000    5.250    0.500 
#    4.500    1.250    0.000    0.000    0.000    0.000 
#    0.000    0.000    0.000    0.000    0.000    0.000 
#
# Total GULP energy -89140.831431 kJ/mol
# GULP energy per Si atom -5571.301964 kJ/mol
# Density = 2.250378 g / cm^3
# Si number density = 22.555113 Si / 1000 Ang^3
#
#
#
# Elastic Constant Matrix: (Units=GPa)
#
#
# Indices 1 2 3 4 5 6 
#
# 1 95.4492 2.4950 36.8201 3.6253 10.2757 -6.8500
# 2 2.4950 60.4358 12.3993 18.3787 6.9633 -16.8534
# 3 36.8201 12.3993 115.5514 25.0329 5.9560 -16.6268
# 4 3.6253 18.3787 25.0329 27.9714 -12.6478 3.5827
# 5 10.2757 6.9633 5.9560 -12.6478 52.7208 -9.4978
# 6 -6.8500 -16.8534 -16.6268 3.5827 -9.4978 33.3736
#
#
#
# Elastic Compliance Matrix: (Units=1/GPa)
#
#
# Indices 1 2 3 4 5 6 
#
# 1 0.012176 0.000105 -0.004102 0.001300 -0.001629 -0.000095
# 2 0.000105 0.033136 0.007889 -0.036173 -0.010056 0.021707
# 3 -0.004102 0.007889 0.016144 -0.023106 -0.005426 0.012121
# 4 0.001300 -0.036173 -0.023106 0.095104 0.024026 -0.032883
# 5 -0.001629 -0.010056 -0.005426 0.024026 0.026418 -0.003176
# 6 -0.000095 0.021707 0.012121 -0.032883 -0.003176 0.049571
#
#
# Mechanical properties :
#
#
# Convention : Reuss Voigt Hill
#
# Bulk Modulus (GPa) = 14.44285 41.65169 28.04727
# Shear Modulus (GPa) = 20.17393 37.46130 28.81762
#
# Velocity S-wave (km/s) = 2.99394 4.07981 3.57831
# Velocity P-wave (km/s) = 4.28589 6.37964 5.43455
#
# Compressibility (1/GPa) = 0.06923843
#
# Stress axis : x y z
#
# Youngs Moduli (GPa) = 82.13076 30.17906 61.94151
#
# Poissons Ratio (x) = -0.00316 0.25411
# Poissons Ratio (y) = -0.00861 -0.48866
# Poissons Ratio (z) = 0.33693 -0.23808
#
# Static dielectric constant tensor:
#      x y z
#    x 1.982720 0.101750 0.031650 
#    y 0.101750 1.860740 -0.016050 
#    z 0.031650 -0.016050 1.955880 
# 
# From -- ./inp_files/428937.got.cif
#   From: 2010.05.17/outbox.cif.g08.bks.cpg/sg2_215_cif.got.tgz:428937.got - 2010.06.03 11:33:40.
