data_PCOD9063949
_publ_section_title
;
Structure prediction by ZEFSAII (Michael W. Deem and Ramdas Pophale) SiO2 
 PCOD9063949
Probable space group: P -1
;
_chemical_formula_sum "Si O2"
_cell_formula_units_Z 16
_cell_length_a 15.799756
_cell_length_b 13.272084
_cell_length_c 16.336603
_cell_angle_alpha 143.218217
_cell_angle_beta 26.351148
_cell_angle_gamma 124.192141
_cell_volume 737.807992
_symmetry_space_group_name_H-M "P -1"
_symmetry_group_IT_number 2
_symmetry_cell_setting 'triclinic'
loop_
_space_group_symop_operation_xyz
x,y,z
-x,-y,-z
loop_
_atom_site_type_symbol
_atom_site_label
_atom_site_fract_x
_atom_site_fract_y
_atom_site_fract_z
Si Si1 0.746095 0.357133 0.239131
Si Si2 0.849631 0.444557 0.644525
Si Si3 0.223432 0.787160 0.573984
Si Si4 0.104550 0.077961 0.603478
Si Si5 0.310413 0.882639 0.725512
Si Si6 0.723487 0.740565 0.556412
Si Si7 0.824567 0.902545 0.730920
Si Si8 0.446554 0.890625 0.323446
O O1 0.500000 0.500000 0.500000
O O2 0.707216 0.229908 0.255206
O O3 0.799355 0.509008 0.332408
O O4 0.937708 0.221899 0.915938
O O5 0.726464 0.387481 0.647112
O O6 0.000000 0.500000 0.500000
O O7 0.025593 0.243824 0.417461
O O8 0.665059 0.650677 0.989609
O O9 0.363728 0.745522 0.509002
O O10 0.262545 0.934699 0.581942
O O11 0.953544 0.904754 0.912537
O O12 0.153079 0.200911 0.578035
O O13 0.344069 0.908263 0.333397
O O14 0.975107 0.981328 0.617030
O O15 0.481229 0.952557 0.632300
O O16 0.786757 0.779317 0.615834
O O17 0.440849 0.900644 0.890560
#
# Coordination Sequence:
#
# PCOD9063949 Si02
#       8
#     2   2   2   2   2   2   2   2
#     4  12  24  46  70  98 135 180 231 275 340 397
#     4  12  24  43  71 100 138 178 221 273 343 407
#     4  11  24  45  67  98 137 180 221 279 337 398
#     4  12  24  46  71  97 139 177 229 279 334 405
#     4  11  25  45  67  99 141 173 227 283 331 399
#     4  11  26  45  73  99 134 183 225 285 336 391
#     4  11  25  48  67 102 140 171 231 280 336 404
#     4  12  24  44  72 100 137 182 222 273 342 403
#
# _framework density 21.685859000000001
#
# number of rings (size 3 to 8) (size 9 to 14) (size 15 to 20)
#    0.000    0.500    5.000    3.000    1.750    0.000 
#    4.500    0.000    0.000    0.000    0.000    0.000 
#    0.000    0.000    0.000    0.000    0.000    0.000 
#
# Total GULP energy -89466.583798 kJ/mol
# GULP energy per Si atom -5591.661487 kJ/mol
# Density = 2.163650 g / cm^3
# Si number density = 21.685859 Si / 1000 Ang^3
#
#
#
# Elastic Constant Matrix: (Units=GPa)
#
#
# Indices 1 2 3 4 5 6 
#
# 1 85.5595 23.8886 22.6183 4.2106 9.9519 20.1090
# 2 23.8886 127.5857 7.2337 -19.0840 0.1102 27.0929
# 3 22.6183 7.2337 34.9277 6.3885 -2.9168 5.3391
# 4 4.2106 -19.0840 6.3885 33.4142 5.2743 4.0661
# 5 9.9519 0.1102 -2.9168 5.2743 22.4569 -5.5185
# 6 20.1090 27.0929 5.3391 4.0661 -5.5185 36.3191
#
#
#
# Elastic Compliance Matrix: (Units=1/GPa)
#
#
# Indices 1 2 3 4 5 6 
#
# 1 0.018981 0.000063 -0.012372 0.003519 -0.013597 -0.011198
# 2 0.000063 0.011478 -0.002990 0.009129 -0.005062 -0.009949
# 3 -0.012372 -0.002990 0.039454 -0.010854 0.014829 0.006749
# 4 0.003519 0.009129 -0.010854 0.041051 -0.016147 -0.014212
# 5 -0.013597 -0.005062 0.014829 -0.016147 0.061273 0.020242
# 6 -0.011198 -0.009949 0.006749 -0.014212 0.020242 0.044830
#
#
# Mechanical properties :
#
#
# Convention : Reuss Voigt Hill
#
# Bulk Modulus (GPa) = 25.43521 39.50601 32.47061
# Shear Modulus (GPa) = 19.17416 31.39354 25.28385
#
# Velocity S-wave (km/s) = 2.97674 3.80893 3.41825
# Velocity P-wave (km/s) = 4.85480 6.13195 5.53037
#
# Compressibility (1/GPa) = 0.03931558
#
# Stress axis : x y z
#
# Youngs Moduli (GPa) = 52.68479 87.12347 25.34626
#
# Poissons Ratio (x) = -0.00553 0.31358
# Poissons Ratio (y) = -0.00334 0.07578
# Poissons Ratio (z) = 0.65182 0.26048
#
# Static dielectric constant tensor:
#      x y z
#    x 1.808780 0.016770 -0.013780 
#    y 0.016770 1.755160 0.001300 
#    z -0.013780 0.001300 1.856480 
# 
# From -- ./inp_files/532705.got.cif
#   From: 2010.05.17/outbox.cif.g08.bks.cpg/sg2_267_cif.got.tgz:532705.got - 2010.06.03 11:33:40.
