data_PCOD9063747
_publ_section_title
;
Structure prediction by ZEFSAII (Michael W. Deem and Ramdas Pophale) SiO2 
 PCOD9063747
Probable space group: P -1
;
_chemical_formula_sum "Si O2"
_cell_formula_units_Z 14
_cell_length_a 9.356262
_cell_length_b 17.496924
_cell_length_c 12.318102
_cell_angle_alpha 142.320023
_cell_angle_beta 51.596063
_cell_angle_gamma 150.351475
_cell_volume 594.764662
_symmetry_space_group_name_H-M "P -1"
_symmetry_group_IT_number 2
_symmetry_cell_setting 'triclinic'
loop_
_space_group_symop_operation_xyz
x,y,z
-x,-y,-z
loop_
_atom_site_type_symbol
_atom_site_label
_atom_site_fract_x
_atom_site_fract_y
_atom_site_fract_z
Si Si1 0.913742 0.325422 0.910066
Si Si2 0.159735 0.763662 0.904045
Si Si3 0.737263 0.720378 0.403075
Si Si4 0.250004 0.923141 0.729199
Si Si5 0.698453 0.329347 0.578382
Si Si6 0.780889 0.738119 0.901849
Si Si7 0.740434 0.932490 0.309069
O O1 0.031228 0.255281 0.729855
O O2 0.565756 0.142438 0.857832
O O3 0.950119 0.323693 0.019790
O O4 0.000000 0.500000 0.000000
O O5 0.029728 0.566195 0.690062
O O6 0.951394 0.750712 0.927959
O O7 0.500000 0.000000 0.000000
O O8 0.545972 0.718067 0.422220
O O9 0.480599 0.480701 0.278918
O O10 0.943210 0.908916 0.600972
O O11 0.250896 0.782635 0.612573
O O12 0.009255 0.873665 0.849084
O O13 0.222276 0.918536 0.607628
O O14 0.529683 0.221737 0.653339
O O15 0.683749 0.801639 0.092956
#
# Coordination Sequence:
#
# PCOD9063747 Si02
#       7
#     2   2   2   2   2   2   2
#     4  12  25  45  76 110 146 192 249 308 364 439
#     4  11  24  44  73 106 146 195 241 299 376 429
#     4  11  26  46  76 104 148 193 248 302 368 438
#     4  12  26  45  71 109 151 186 250 306 366 436
#     4  11  25  46  75 108 143 192 257 301 355 455
#     4  11  26  47  69 109 148 195 246 302 366 450
#     4  12  25  45  76 105 151 195 240 311 373 427
#
# _framework density 23.538722
#
# number of rings (size 3 to 8) (size 9 to 14) (size 15 to 20)
#    0.000    0.571    2.857    4.714    4.000    6.286 
#    0.000    0.000    0.000    0.000    0.000    0.000 
#    0.000    0.000    0.000    0.000    0.000    0.000 
#
# Total GULP energy -77991.279049 kJ/mol
# GULP energy per Si atom -5570.805646 kJ/mol
# Density = 2.348515 g / cm^3
# Si number density = 23.538722 Si / 1000 Ang^3
#
#
#
# Elastic Constant Matrix: (Units=GPa)
#
#
# Indices 1 2 3 4 5 6 
#
# 1 226.4315 77.0732 70.9230 20.1886 -50.2660 30.7671
# 2 77.0732 160.1700 62.3862 25.0866 -14.5563 10.1598
# 3 70.9230 62.3862 97.7505 22.0298 -40.1608 6.3253
# 4 20.1886 25.0866 22.0298 46.8735 -3.9826 9.5586
# 5 -50.2660 -14.5563 -40.1608 -3.9826 55.9176 -16.5009
# 6 30.7671 10.1598 6.3253 9.5586 -16.5009 49.6052
#
#
#
# Elastic Compliance Matrix: (Units=1/GPa)
#
#
# Indices 1 2 3 4 5 6 
#
# 1 0.006851 -0.001990 -0.002128 -0.000104 0.003390 -0.002423
# 2 -0.001990 0.009382 -0.005686 -0.001629 -0.003817 -0.000918
# 3 -0.002128 -0.005686 0.022079 -0.006367 0.013611 0.005424
# 4 -0.000104 -0.001629 -0.006367 0.025932 -0.004835 -0.005396
# 5 0.003390 -0.003817 0.013611 -0.004835 0.031870 0.008477
# 6 -0.002423 -0.000918 0.005424 -0.005396 0.008477 0.025018
#
#
# Mechanical properties :
#
#
# Convention : Reuss Voigt Hill
#
# Bulk Modulus (GPa) = 53.46130 100.56852 77.01491
# Shear Modulus (GPa) = 34.01957 48.74390 41.38174
#
# Velocity S-wave (km/s) = 3.80578 4.55554 4.19743
# Velocity P-wave (km/s) = 6.48640 8.39571 7.50205
#
# Compressibility (1/GPa) = 0.01870512
#
# Stress axis : x y z
#
# Youngs Moduli (GPa) = 145.95924 106.58763 45.29224
#
# Poissons Ratio (x) = 0.21210 0.09638
# Poissons Ratio (y) = 0.29045 0.25751
# Poissons Ratio (z) = 0.31059 0.60601
#
# Static dielectric constant tensor:
#      x y z
#    x 1.939040 -0.023820 0.011500 
#    y -0.023820 1.892680 0.030520 
#    z 0.011500 0.030520 1.952880 
# 
# From -- ./inp_files/403340.got.cif
#   From: 2010.05.17/outbox.cif.g08.bks.cpg/sg2_202_cif.got.tgz:403340.got - 2010.06.03 11:33:40.
