data_PCOD9063952
_publ_section_title
;
Structure prediction by ZEFSAII (Michael W. Deem and Ramdas Pophale) SiO2 
 PCOD9063952
Probable space group: P -1
;
_chemical_formula_sum "Si O2"
_cell_formula_units_Z 16
_cell_length_a 8.939825
_cell_length_b 24.402050
_cell_length_c 11.985940
_cell_angle_alpha 30.199533
_cell_angle_beta 146.803897
_cell_angle_gamma 137.245352
_cell_volume 719.526204
_symmetry_space_group_name_H-M "P -1"
_symmetry_group_IT_number 2
_symmetry_cell_setting 'triclinic'
loop_
_space_group_symop_operation_xyz
x,y,z
-x,-y,-z
loop_
_atom_site_type_symbol
_atom_site_label
_atom_site_fract_x
_atom_site_fract_y
_atom_site_fract_z
Si Si1 0.503301 0.239054 0.727581
Si Si2 0.962138 0.677953 0.203821
Si Si3 0.330790 0.904805 0.721309
Si Si4 0.216319 0.028386 0.823346
Si Si5 0.035768 0.400081 0.115739
Si Si6 0.223616 0.924031 0.223470
Si Si7 0.179610 0.472993 0.829737
Si Si8 0.585205 0.223375 0.219290
O O1 0.286667 0.141206 0.733203
O O2 0.320356 0.344082 0.424343
O O3 0.759500 0.254512 0.776146
O O4 0.622598 0.200089 0.988217
O O5 0.862414 0.619354 0.129125
O O6 0.041915 0.580934 0.507384
O O7 0.712564 0.741519 0.989515
O O8 0.420487 0.873099 0.707418
O O9 0.022882 0.942548 0.458685
O O10 0.497494 0.006489 0.700455
O O11 0.500000 0.000000 0.000000
O O12 0.149715 0.927861 0.041424
O O13 0.774875 0.318668 0.115959
O O14 0.057752 0.434765 0.939428
O O15 0.000000 0.500000 0.000000
O O16 0.253366 0.814622 0.502432
O O17 0.000000 0.000000 0.000000
O O18 0.500000 0.500000 0.000000
#
# Coordination Sequence:
#
# PCOD9063952 Si02
#       8
#     2   2   2   2   2   2   2   2
#     4  11  25  46  68 104 140 179 238 284 345 423
#     4  11  27  42  72 104 133 184 233 288 351 407
#     4  11  24  45  70  99 144 182 228 294 345 419
#     4  11  26  44  71 101 138 186 229 285 354 414
#     4  12  26  47  73 101 143 189 232 288 351 415
#     4  11  24  45  67  99 142 175 232 288 346 418
#     4  11  24  50  69  97 145 178 234 295 341 410
#     4  12  25  44  69 105 135 185 232 282 355 412
#
# _framework density 22.236853
#
# number of rings (size 3 to 8) (size 9 to 14) (size 15 to 20)
#    0.000    0.750    3.750    2.625    7.000    1.500 
#    4.500    0.000    0.000    0.000    0.000    0.000 
#    0.000    0.000    0.000    0.000    0.000    0.000 
#
# Total GULP energy -89483.910099 kJ/mol
# GULP energy per Si atom -5592.744381 kJ/mol
# Density = 2.218624 g / cm^3
# Si number density = 22.236853 Si / 1000 Ang^3
#
#
#
# Elastic Constant Matrix: (Units=GPa)
#
#
# Indices 1 2 3 4 5 6 
#
# 1 120.3512 15.8910 69.1057 -6.9838 0.6688 20.0151
# 2 15.8910 81.4445 23.2846 8.5412 -8.0391 13.1215
# 3 69.1057 23.2846 152.0806 13.5487 -3.6602 4.1135
# 4 -6.9838 8.5412 13.5487 32.1861 11.3819 3.6100
# 5 0.6688 -8.0391 -3.6602 11.3819 51.1482 -3.2981
# 6 20.0151 13.1215 4.1135 3.6100 -3.2981 34.7019
#
#
#
# Elastic Compliance Matrix: (Units=1/GPa)
#
#
# Indices 1 2 3 4 5 6 
#
# 1 0.014282 -0.000626 -0.006980 0.008255 -0.003159 -0.008332
# 2 -0.000626 0.014127 -0.001362 -0.003802 0.002709 -0.004166
# 3 -0.006980 -0.001362 0.010516 -0.006920 0.002443 0.004246
# 4 0.008255 -0.003802 -0.006920 0.041537 -0.010951 -0.007865
# 5 -0.003159 0.002709 0.002443 -0.010951 0.022876 0.003822
# 6 -0.008332 -0.004166 0.004246 -0.007865 0.003822 0.035876
#
#
# Mechanical properties :
#
#
# Convention : Reuss Voigt Hill
#
# Bulk Modulus (GPa) = 47.64343 63.38211 55.51277
# Shear Modulus (GPa) = 30.46062 39.98025 35.22043
#
# Velocity S-wave (km/s) = 3.70513 4.24480 3.98411
# Velocity P-wave (km/s) = 6.30682 7.25186 6.79579
#
# Compressibility (1/GPa) = 0.02098925
#
# Stress axis : x y z
#
# Youngs Moduli (GPa) = 70.01936 70.78590 95.09242
#
# Poissons Ratio (x) = 0.04432 0.66373
# Poissons Ratio (y) = 0.04384 0.12950
# Poissons Ratio (z) = 0.48872 0.09640
#
# Static dielectric constant tensor:
#      x y z
#    x 1.845620 -0.012850 -0.012140 
#    y -0.012850 1.864740 -0.035390 
#    z -0.012140 -0.035390 1.836250 
# 
# From -- ./inp_files/78042.got.cif
#   From: 2010.05.17/outbox.cif.g08.bks.cpg/sg2_40_cif.got.tgz:78042.got - 2010.06.03 11:33:40.
