data_PCOD9063332
_publ_section_title
;
Structure prediction by ZEFSAII (Michael W. Deem and Ramdas Pophale) SiO2 
 PCOD9063332
Probable space group: P -1
;
_chemical_formula_sum "Si O2"
_cell_formula_units_Z 12
_cell_length_a 8.475277
_cell_length_b 11.143231
_cell_length_c 11.174712
_cell_angle_alpha 101.856710
_cell_angle_beta 120.144605
_cell_angle_gamma 127.041886
_cell_volume 493.203823
_symmetry_space_group_name_H-M "P -1"
_symmetry_group_IT_number 2
_symmetry_cell_setting 'triclinic'
loop_
_space_group_symop_operation_xyz
x,y,z
-x,-y,-z
loop_
_atom_site_type_symbol
_atom_site_label
_atom_site_fract_x
_atom_site_fract_y
_atom_site_fract_z
Si Si1 0.345163 0.445066 0.719240
Si Si2 0.917552 0.330551 0.355356
Si Si3 0.748384 0.026700 0.580235
Si Si4 0.515625 0.884538 0.071764
Si Si5 0.108462 0.072375 0.920457
Si Si6 0.643478 0.359358 0.822227
O O1 0.610495 0.485172 0.825440
O O2 0.211237 0.407855 0.530161
O O3 0.046801 0.237539 0.650305
O O4 0.528651 0.664060 0.887852
O O5 0.000000 0.500000 0.500000
O O6 0.598184 0.061193 0.202824
O O7 0.821699 0.304068 0.174723
O O8 0.881005 0.037239 0.752602
O O9 0.500000 0.000000 0.500000
O O10 0.549254 0.809032 0.393631
O O11 0.824658 0.021905 0.132477
O O12 0.530801 0.786908 0.154696
O O13 0.000000 0.000000 0.000000
O O14 0.000000 0.500000 0.000000
#
# Coordination Sequence:
#
# PCOD9063332 Si02
#       6
#     2   2   2   2   2   2
#     4  12  25  49  78 109 157 204 257 324 388 456
#     4  11  24  43  77 109 147 205 248 309 396 459
#     4  12  27  46  78 112 153 202 266 320 388 467
#     4  11  25  48  76 108 161 198 256 325 385 458
#     4  12  28  47  75 114 157 205 260 317 396 470
#     4  12  27  49  79 113 149 207 268 319 394 468
#
# _framework density 24.330708999999999
#
# number of rings (size 3 to 8) (size 9 to 14) (size 15 to 20)
#    0.000    0.333    5.000    3.000    4.667    4.000 
#    0.000    2.500    0.000    0.000    0.000    0.000 
#    0.000    0.000    0.000    0.000    0.000    0.000 
#
# Total GULP energy -67052.455261 kJ/mol
# GULP energy per Si atom -5587.704605 kJ/mol
# Density = 2.427533 g / cm^3
# Si number density = 24.330709 Si / 1000 Ang^3
#
#
#
# Elastic Constant Matrix: (Units=GPa)
#
#
# Indices 1 2 3 4 5 6 
#
# 1 106.4251 32.8209 37.1777 -5.2713 9.8484 -14.5551
# 2 32.8209 61.8650 49.4077 -17.3254 0.9352 -25.0114
# 3 37.1777 49.4077 184.7621 -25.6164 -8.5521 -20.4373
# 4 -5.2713 -17.3254 -25.6164 59.0108 -17.4438 6.3310
# 5 9.8484 0.9352 -8.5521 -17.4438 47.3222 -2.1007
# 6 -14.5551 -25.0114 -20.4373 6.3310 -2.1007 38.9532
#
#
#
# Elastic Compliance Matrix: (Units=1/GPa)
#
#
# Indices 1 2 3 4 5 6 
#
# 1 0.011850 -0.005722 -0.001290 -0.002211 -0.003390 0.000254
# 2 -0.005722 0.029896 -0.004408 0.005588 0.002483 0.013971
# 3 -0.001290 -0.004408 0.007354 0.002530 0.002630 0.000277
# 4 -0.002211 0.005588 0.002530 0.022034 0.008973 0.000992
# 5 -0.003390 0.002483 0.002630 0.008973 0.025643 0.001632
# 6 0.000254 0.013971 0.000277 0.000992 0.001632 0.034809
#
#
# Mechanical properties :
#
#
# Convention : Reuss Voigt Hill
#
# Bulk Modulus (GPa) = 38.08029 65.76274 51.92152
# Shear Modulus (GPa) = 30.64106 44.63363 37.63735
#
# Velocity S-wave (km/s) = 3.55259 4.28770 3.93734
# Velocity P-wave (km/s) = 5.70202 7.18331 6.48509
#
# Compressibility (1/GPa) = 0.02626030
#
# Stress axis : x y z
#
# Youngs Moduli (GPa) = 84.38542 33.44912 135.98430
#
# Poissons Ratio (x) = 0.19140 0.17537
# Poissons Ratio (y) = 0.48287 0.59943
# Poissons Ratio (z) = 0.10883 0.14745
#
# Static dielectric constant tensor:
#      x y z
#    x 2.064010 -0.023170 -0.002090 
#    y -0.023170 2.057200 0.010540 
#    z -0.002090 0.010540 1.949790 
# 
# From -- ./inp_files/385657.got.cif
#   From: 2010.05.17/outbox.cif.g08.bks.cpg/sg2_193_cif.got.tgz:385657.got - 2010.06.03 11:33:40.
