data_PCOD9063028
_publ_section_title
;
Structure prediction by ZEFSAII (Michael W. Deem and Ramdas Pophale) SiO2 
 PCOD9063028
Probable space group: P -1
;
_chemical_formula_sum "Si O2"
_cell_formula_units_Z 16
_cell_length_a 22.116613
_cell_length_b 6.022883
_cell_length_c 7.807425
_cell_angle_alpha 137.745224
_cell_angle_beta 88.576725
_cell_angle_gamma 89.981604
_cell_volume 698.835200
_symmetry_space_group_name_H-M "P -1"
_symmetry_group_IT_number 2
_symmetry_cell_setting 'triclinic'
loop_
_space_group_symop_operation_xyz
x,y,z
-x,-y,-z
loop_
_atom_site_type_symbol
_atom_site_label
_atom_site_fract_x
_atom_site_fract_y
_atom_site_fract_z
Si Si1 0.066845 0.375472 0.478072
Si Si2 0.434023 0.387475 0.884076
Si Si3 0.192707 0.553642 0.411861
Si Si4 0.933763 0.403420 0.008901
Si Si5 0.565387 0.346480 0.364826
Si Si6 0.313800 0.306903 0.420173
Si Si7 0.309710 0.571004 0.936347
Si Si8 0.190319 0.280111 0.906314
O O1 0.124694 0.522235 0.466112
O O2 0.073419 0.475155 0.729474
O O3 0.000000 0.500000 0.500000
O O4 0.070422 0.986044 0.229127
O O5 0.430843 0.553995 0.784164
O O6 0.367184 0.508709 0.022100
O O7 0.434951 0.011588 0.745184
O O8 0.500000 0.500000 0.000000
O O9 0.249835 0.490202 0.494343
O O10 0.195791 0.947420 0.604633
O O11 0.201049 0.275832 0.106504
O O12 0.877544 0.572801 0.013325
O O13 0.000000 0.500000 0.000000
O O14 0.500000 0.500000 0.500000
O O15 0.625059 0.512705 0.531734
O O16 0.316722 0.312499 0.630973
O O17 0.313741 0.959666 0.124489
O O18 0.242784 0.518995 0.980732
#
# Coordination Sequence:
#
# PCOD9063028 Si02
#       8
#     2   2   2   2   2   2   2   2
#     4  12  24  42  64  91 126 167 216 274 336 408
#     4  11  24  43  69 103 141 185 235 291 353 421
#     4  12  24  41  65  96 130 172 219 273 336 408
#     4  12  24  42  64  91 126 167 216 274 336 408
#     4  11  24  43  69 103 141 185 235 291 353 421
#     4  11  24  44  67  98 134 178 225 280 340 407
#     4  11  24  44  67  98 134 178 225 280 340 407
#     4  12  24  41  65  96 130 172 219 273 336 408
#
# _framework density 22.895240000000001
#
# number of rings (size 3 to 8) (size 9 to 14) (size 15 to 20)
#    0.000    0.500    0.000    9.000    0.000    5.000 
#    0.000    0.000    0.000    0.000    0.000    0.000 
#    0.000    0.000    0.000    0.000    0.000    0.000 
#
# Total GULP energy -89152.042456 kJ/mol
# GULP energy per Si atom -5572.002654 kJ/mol
# Density = 2.284313 g / cm^3
# Si number density = 22.895240 Si / 1000 Ang^3
#
#
#
# Elastic Constant Matrix: (Units=GPa)
#
#
# Indices 1 2 3 4 5 6 
#
# 1 192.9727 37.3659 12.2300 25.5924 28.0136 -1.8670
# 2 37.3659 85.0419 29.7497 18.3943 11.6038 3.7846
# 3 12.2300 29.7497 97.5355 13.1345 8.0601 0.1924
# 4 25.5924 18.3943 13.1345 51.2264 -0.2777 -0.9137
# 5 28.0136 11.6038 8.0601 -0.2777 39.6440 11.9038
# 6 -1.8670 3.7846 0.1924 -0.9137 11.9038 51.3107
#
#
#
# Elastic Compliance Matrix: (Units=1/GPa)
#
#
# Indices 1 2 3 4 5 6 
#
# 1 0.006565 -0.001902 0.000504 -0.002726 -0.004624 0.001402
# 2 -0.001902 0.014957 -0.003678 -0.003502 -0.002089 -0.000736
# 3 0.000504 -0.003678 0.011725 -0.001936 -0.001870 0.000645
# 4 -0.002726 -0.003502 -0.001936 0.022652 0.003582 -0.000261
# 5 -0.004624 -0.002089 -0.001870 0.003582 0.031700 -0.007298
# 6 0.001402 -0.000736 0.000645 -0.000261 -0.007298 0.021280
#
#
# Mechanical properties :
#
#
# Convention : Reuss Voigt Hill
#
# Bulk Modulus (GPa) = 43.30222 59.36014 51.33118
# Shear Modulus (GPa) = 39.45382 48.18318 43.81850
#
# Velocity S-wave (km/s) = 4.15569 4.59247 4.37953
# Velocity P-wave (km/s) = 6.47924 7.35555 6.93126
#
# Compressibility (1/GPa) = 0.02309350
#
# Stress axis : x y z
#
# Youngs Moduli (GPa) = 152.32440 66.86001 85.28549
#
# Poissons Ratio (x) = 0.12720 -0.04295
# Poissons Ratio (y) = 0.28979 0.31366
# Poissons Ratio (z) = -0.07670 0.24590
#
# Static dielectric constant tensor:
#      x y z
#    x 1.699280 0.074550 -0.034960 
#    y 0.074550 1.964680 -0.005660 
#    z -0.034960 -0.005660 1.861310 
# 
# From -- ./inp_files/114537.got.cif
#   From: 2010.05.17/outbox.cif.g08.bks.cpg/sg2_58_cif.got.tgz:114537.got - 2010.06.03 11:33:40.
