data_PCOD9063732
_publ_section_title
;
Structure prediction by ZEFSAII (Michael W. Deem and Ramdas Pophale) SiO2 
 PCOD9063732
Probable space group: P -1
;
_chemical_formula_sum "Si O2"
_cell_formula_units_Z 14
_cell_length_a 15.523700
_cell_length_b 26.409114
_cell_length_c 23.683793
_cell_angle_alpha 10.030836
_cell_angle_beta 146.566605
_cell_angle_gamma 147.846719
_cell_volume 899.994197
_symmetry_space_group_name_H-M "P -1"
_symmetry_group_IT_number 2
_symmetry_cell_setting 'triclinic'
loop_
_space_group_symop_operation_xyz
x,y,z
-x,-y,-z
loop_
_atom_site_type_symbol
_atom_site_label
_atom_site_fract_x
_atom_site_fract_y
_atom_site_fract_z
Si Si1 0.507100 0.436694 0.140684
Si Si2 0.391547 0.721684 0.212483
Si Si3 0.841321 0.866109 0.846444
Si Si4 0.006949 0.441189 0.134412
Si Si5 0.690664 0.183898 0.314636
Si Si6 0.962931 0.511091 0.695865
Si Si7 0.135408 0.855626 0.848529
O O1 0.500000 0.500000 0.000000
O O2 0.687967 0.614965 0.061986
O O3 0.387220 0.587526 0.944390
O O4 0.552852 0.923801 0.493913
O O5 0.500000 0.500000 0.500000
O O6 0.230258 0.541906 0.355550
O O7 0.311530 0.846970 0.977240
O O8 0.500000 0.000000 0.000000
O O9 0.773085 0.011633 0.595295
O O10 0.928831 0.149732 0.620917
O O11 0.973232 0.702001 0.077108
O O12 0.827636 0.339391 0.174610
O O13 0.094025 0.171903 0.486731
O O14 0.100729 0.729227 0.905673
O O15 0.000000 0.500000 0.000000
O O16 0.979102 0.383681 0.908166
#
# Coordination Sequence:
#
# PCOD9063732 Si02
#       7
#     2   2   2   2   2   2   2
#     4  10  20  25  43  62  85 118 156 194 235 271
#     4  10  18  30  48  70  91 125 155 183 246 297
#     4  11  16  29  41  64  87 124 152 184 231 283
#     4  12  22  34  50  66  92 138 176 201 224 260
#     4  11  17  31  40  61  89 116 162 207 218 261
#     4  10  18  27  47  60  94 120 149 182 227 272
#     4  10  20  34  46  68  94 127 162 201 232 269
#
# _framework density 15.555656000000001
#
# number of rings (size 3 to 8) (size 9 to 14) (size 15 to 20)
#    0.857    0.571    2.857    7.286    0.000    0.000 
#    0.000    0.000    0.000    0.000    0.000    0.000 
#    0.000    0.000    0.000   90.000    0.000   10.143 
#
# Total GULP energy -77970.783162 kJ/mol
# GULP energy per Si atom -5569.341654 kJ/mol
# Density = 1.552025 g / cm^3
# Si number density = 15.555656 Si / 1000 Ang^3
#
#
#
# Elastic Constant Matrix: (Units=GPa)
#
#
# Indices 1 2 3 4 5 6 
#
# 1 71.1950 12.2623 21.1105 8.6999 14.3337 2.7980
# 2 12.2623 59.2097 12.6298 -10.1042 -1.1611 8.5139
# 3 21.1105 12.6298 43.1803 -4.3149 24.5604 -0.1929
# 4 8.6999 -10.1042 -4.3149 25.9047 1.0923 8.6371
# 5 14.3337 -1.1611 24.5604 1.0923 29.1975 -1.3346
# 6 2.7980 8.5139 -0.1929 8.6371 -1.3346 19.7084
#
#
#
# Elastic Compliance Matrix: (Units=1/GPa)
#
#
# Indices 1 2 3 4 5 6 
#
# 1 0.018674 -0.004681 -0.007252 -0.010420 -0.002695 0.003684
# 2 -0.004681 0.024744 -0.009019 0.014606 0.009597 -0.015864
# 3 -0.007252 -0.009019 0.055351 0.010721 -0.043860 -0.002201
# 4 -0.010420 0.014606 0.010721 0.060449 -0.007032 -0.031693
# 5 -0.002695 0.009597 -0.043860 -0.007032 0.073288 0.003852
# 6 0.003684 -0.015864 -0.002201 -0.031693 0.003852 0.071199
#
#
# Mechanical properties :
#
#
# Convention : Reuss Voigt Hill
#
# Bulk Modulus (GPa) = 17.58569 29.51001 23.54785
# Shear Modulus (GPa) = 13.71504 23.46761 18.59132
#
# Velocity S-wave (km/s) = 2.97252 3.88831 3.46084
# Velocity P-wave (km/s) = 4.80736 6.25863 5.58037
#
# Compressibility (1/GPa) = 0.05686440
#
# Stress axis : x y z
#
# Youngs Moduli (GPa) = 53.55135 40.41341 18.06657
#
# Poissons Ratio (x) = 0.18918 0.13102
# Poissons Ratio (y) = 0.25068 0.16294
# Poissons Ratio (z) = 0.38837 0.36448
#
# Static dielectric constant tensor:
#      x y z
#    x 1.512590 0.020420 0.001200 
#    y 0.020420 1.545800 -0.032840 
#    z 0.001200 -0.032840 1.523030 
# 
# From -- ./inp_files/612432.got.cif
#   From: 2010.05.17/outbox.cif.g08.bks.cpg/sg2_307_cif.got.tgz:612432.got - 2010.06.03 11:33:40.
