data_PCOD9063398
_publ_section_title
;
Structure prediction by ZEFSAII (Michael W. Deem and Ramdas Pophale) SiO2 
 PCOD9063398
Probable space group: P -1
;
_chemical_formula_sum "Si O2"
_cell_formula_units_Z 14
_cell_length_a 7.827202
_cell_length_b 9.688072
_cell_length_c 13.635541
_cell_angle_alpha 47.181556
_cell_angle_beta 63.988967
_cell_angle_gamma 78.578130
_cell_volume 673.725912
_symmetry_space_group_name_H-M "P -1"
_symmetry_group_IT_number 2
_symmetry_cell_setting 'triclinic'
loop_
_space_group_symop_operation_xyz
x,y,z
-x,-y,-z
loop_
_atom_site_type_symbol
_atom_site_label
_atom_site_fract_x
_atom_site_fract_y
_atom_site_fract_z
Si Si1 0.571823 0.503183 0.366249
Si Si2 0.498845 0.872609 0.960944
Si Si3 0.278646 0.529205 0.264625
Si Si4 0.010054 0.292083 0.645217
Si Si5 0.883194 0.961897 0.696237
Si Si6 0.796319 0.889699 0.143932
Si Si7 0.918422 0.261491 0.382240
O O1 0.500000 0.500000 0.500000
O O2 0.389564 0.446205 0.367152
O O3 0.671545 0.713063 0.203552
O O4 0.740807 0.377196 0.373629
O O5 0.701386 0.902328 0.839486
O O6 0.345727 0.956061 0.888718
O O7 0.435472 0.645831 0.098576
O O8 0.500000 0.000000 0.000000
O O9 0.181632 0.708072 0.242583
O O10 0.106974 0.387689 0.324370
O O11 0.001282 0.136050 0.640487
O O12 0.000000 0.500000 0.500000
O O13 0.159423 0.229108 0.714188
O O14 0.840577 0.067514 0.555065
O O15 0.006098 0.800586 0.711289
O O16 0.000000 0.000000 0.000000
#
# Coordination Sequence:
#
# PCOD9063398 Si02
#       7
#     2   2   2   2   2   2   2
#     4  12  24  40  69 102 132 174 233 280 329 408
#     4  12  22  40  66 100 130 170 232 283 326 399
#     4  12  23  41  70  96 134 175 227 278 337 399
#     4  12  21  39  70 100 127 176 225 274 334 396
#     4  11  24  44  67  92 138 176 217 285 336 398
#     4  12  21  37  67 101 132 169 226 284 334 390
#     4  11  25  47  63  97 139 178 218 274 351 402
#
# _framework density 20.779962000000001
#
# number of rings (size 3 to 8) (size 9 to 14) (size 15 to 20)
#    0.000    0.286    7.143    2.571    0.000    0.571 
#    2.571    2.143    0.000    0.000    0.000    0.000 
#    0.000    0.000    0.000    0.000    0.000    0.000 
#
# Total GULP energy -77943.547708 kJ/mol
# GULP energy per Si atom -5567.396265 kJ/mol
# Density = 2.073267 g / cm^3
# Si number density = 20.779962 Si / 1000 Ang^3
#
#
#
# Elastic Constant Matrix: (Units=GPa)
#
#
# Indices 1 2 3 4 5 6 
#
# 1 125.1109 54.4704 47.9728 2.4278 5.8900 -12.8779
# 2 54.4704 126.4445 31.8964 14.6729 -10.6652 -17.4486
# 3 47.9728 31.8964 107.7636 -5.4405 -8.5423 -12.6782
# 4 2.4278 14.6729 -5.4405 27.3332 -5.7791 -4.0707
# 5 5.8900 -10.6652 -8.5423 -5.7791 41.8607 -4.7678
# 6 -12.8779 -17.4486 -12.6782 -4.0707 -4.7678 28.9859
#
#
#
# Elastic Compliance Matrix: (Units=1/GPa)
#
#
# Indices 1 2 3 4 5 6 
#
# 1 0.011625 -0.004182 -0.004222 -0.000365 -0.003595 0.000158
# 2 -0.004182 0.011364 -0.000961 -0.004592 0.003159 0.004437
# 3 -0.004222 -0.000961 0.012531 0.004902 0.004083 0.004386
# 4 -0.000365 -0.004592 0.004902 0.042346 0.006437 0.006224
# 5 -0.003595 0.003159 0.004083 0.006437 0.027783 0.007564
# 6 0.000158 0.004437 0.004386 0.006224 0.007564 0.041278
#
#
# Mechanical properties :
#
#
# Convention : Reuss Voigt Hill
#
# Bulk Modulus (GPa) = 59.56165 69.77759 64.66962
# Shear Modulus (GPa) = 29.19638 34.63459 31.91548
#
# Velocity S-wave (km/s) = 3.75243 4.08699 3.92328
# Velocity P-wave (km/s) = 6.89199 7.47820 7.19107
#
# Compressibility (1/GPa) = 0.01678933
#
# Stress axis : x y z
#
# Youngs Moduli (GPa) = 86.01991 87.99522 79.80358
#
# Poissons Ratio (x) = 0.36800 0.33694
# Poissons Ratio (y) = 0.35974 0.07672
# Poissons Ratio (z) = 0.36319 0.08459
#
# Static dielectric constant tensor:
#      x y z
#    x 1.865650 0.075590 -0.015010 
#    y 0.075590 1.789770 0.017030 
#    z -0.015010 0.017030 1.913920 
# 
# From -- ./inp_files/377612.got.cif
#   From: 2010.05.17/outbox.cif.g08.bks.cpg/sg2_189_cif.got.tgz:377612.got - 2010.06.03 11:33:40.
