data_PCOD9063041
_publ_section_title
;
Structure prediction by ZEFSAII (Michael W. Deem and Ramdas Pophale) SiO2 
 PCOD9063041
Probable space group: P -1
;
_chemical_formula_sum "Si O2"
_cell_formula_units_Z 16
_cell_length_a 6.938064
_cell_length_b 23.337978
_cell_length_c 16.968925
_cell_angle_alpha 157.967845
_cell_angle_beta 103.433401
_cell_angle_gamma 61.982559
_cell_volume 718.652000
_symmetry_space_group_name_H-M "P -1"
_symmetry_group_IT_number 2
_symmetry_cell_setting 'triclinic'
loop_
_space_group_symop_operation_xyz
x,y,z
-x,-y,-z
loop_
_atom_site_type_symbol
_atom_site_label
_atom_site_fract_x
_atom_site_fract_y
_atom_site_fract_z
Si Si1 0.481681 0.430826 0.027984
Si Si2 0.103498 0.246847 0.546849
Si Si3 0.624790 0.022962 0.115803
Si Si4 0.924288 0.527901 0.315532
Si Si5 0.436574 0.773169 0.386486
Si Si6 0.252599 0.348343 0.269983
Si Si7 0.141767 0.783637 0.064241
Si Si8 0.196315 0.855414 0.988801
O O1 0.566985 0.275682 0.766911
O O2 0.623484 0.304883 0.962478
O O3 0.560661 0.561859 0.177052
O O4 0.151519 0.612119 0.237651
O O5 0.017925 0.404413 0.668591
O O6 0.375892 0.178426 0.521646
O O7 0.151827 0.052156 0.267891
O O8 0.393872 0.267204 0.430334
O O9 0.921149 0.942019 0.030719
O O10 0.500000 0.000000 0.000000
O O11 0.665514 0.873639 0.997032
O O12 0.125649 0.468613 0.329153
O O13 0.957086 0.330327 0.064343
O O14 0.127982 0.966935 0.634952
O O15 0.000000 0.500000 0.500000
O O16 0.540569 0.283488 0.221252
O O17 0.237429 0.737485 0.923436
#
# Coordination Sequence:
#
# PCOD9063041 Si02
#       8
#     2   2   2   2   2   2   2   2
#     4  11  24  43  69 106 143 192 231 282 362 405
#     4  12  23  46  72 104 140 187 239 284 350 412
#     4  12  26  49  69 104 145 178 232 298 360 420
#     4  12  24  45  75  98 142 187 231 298 347 410
#     4  11  24  44  69 103 152 182 228 301 341 411
#     4  12  26  48  69 105 142 178 235 296 354 421
#     4  12  23  46  72 104 141 186 241 281 348 416
#     4  12  26  45  77 102 139 189 237 291 352 427
#
# _framework density 22.263907
#
# number of rings (size 3 to 8) (size 9 to 14) (size 15 to 20)
#    0.000    0.250    6.250    3.750    0.000    1.000 
#    0.000    1.250    0.000    0.000    0.000    0.000 
#    0.000    0.000    0.000    0.000    0.000    0.000 
#
# Total GULP energy -89500.465458 kJ/mol
# GULP energy per Si atom -5593.779091 kJ/mol
# Density = 2.221323 g / cm^3
# Si number density = 22.263907 Si / 1000 Ang^3
#
#
#
# Elastic Constant Matrix: (Units=GPa)
#
#
# Indices 1 2 3 4 5 6 
#
# 1 132.4999 28.4721 17.9205 -2.5155 -15.9470 -24.9242
# 2 28.4721 77.4914 18.6505 4.7668 4.0636 -10.2553
# 3 17.9205 18.6505 56.7795 0.5454 -0.6841 -10.2680
# 4 -2.5155 4.7668 0.5454 32.5261 6.3133 0.1790
# 5 -15.9470 4.0636 -0.6841 6.3133 44.2761 7.4921
# 6 -24.9242 -10.2553 -10.2680 0.1790 7.4921 40.0819
#
#
#
# Elastic Compliance Matrix: (Units=1/GPa)
#
#
# Indices 1 2 3 4 5 6 
#
# 1 0.009485 -0.002793 -0.001265 0.000590 0.002837 0.004326
# 2 -0.002793 0.015330 -0.003864 -0.001926 -0.002480 0.001668
# 3 -0.001265 -0.003864 0.019887 0.000193 -0.000395 0.003392
# 4 0.000590 -0.001926 0.000193 0.031891 -0.004253 0.000576
# 5 0.002837 -0.002480 -0.000395 -0.004253 0.025050 -0.003635
# 6 0.004326 0.001668 0.003392 0.000576 -0.003635 0.029612
#
#
# Mechanical properties :
#
#
# Convention : Reuss Voigt Hill
#
# Bulk Modulus (GPa) = 34.65203 44.09522 39.37362
# Shear Modulus (GPa) = 31.90420 36.82535 34.36477
#
# Velocity S-wave (km/s) = 3.78961 4.07140 3.93303
# Velocity P-wave (km/s) = 5.89459 6.47691 6.19260
#
# Compressibility (1/GPa) = 0.02885834
#
# Stress axis : x y z
#
# Youngs Moduli (GPa) = 105.43077 65.23152 50.28334
#
# Poissons Ratio (x) = 0.18219 0.06362
# Poissons Ratio (y) = 0.29446 0.19428
# Poissons Ratio (z) = 0.13340 0.25204
#
# Static dielectric constant tensor:
#      x y z
#    x 1.825360 -0.024160 0.003480 
#    y -0.024160 1.828770 -0.006780 
#    z 0.003480 -0.006780 1.830170 
# 
# From -- ./inp_files/112958.got.cif
#   From: 2010.05.17/outbox.cif.g08.bks.cpg/sg2_57_cif.got.tgz:112958.got - 2010.06.03 11:33:40.
