data_PCOD9063460
_publ_section_title
;
Structure prediction by ZEFSAII (Michael W. Deem and Ramdas Pophale) SiO2 
 PCOD9063460
Probable space group: P -1
;
_chemical_formula_sum "Si O2"
_cell_formula_units_Z 15
_cell_length_a 5.615380
_cell_length_b 8.083736
_cell_length_c 21.756936
_cell_angle_alpha 53.986866
_cell_angle_beta 95.675793
_cell_angle_gamma 122.726851
_cell_volume 636.304521
_symmetry_space_group_name_H-M "P -1"
_symmetry_group_IT_number 2
_symmetry_cell_setting 'triclinic'
loop_
_space_group_symop_operation_xyz
x,y,z
-x,-y,-z
loop_
_atom_site_type_symbol
_atom_site_label
_atom_site_fract_x
_atom_site_fract_y
_atom_site_fract_z
Si Si1 0.749004 0.284106 0.965527
Si Si2 0.244717 0.999161 0.683731
Si Si3 0.629551 0.485850 0.809799
Si Si4 0.646530 0.849070 0.538115
Si Si5 0.314124 0.613434 0.698951
Si Si6 0.605238 0.360897 0.072978
Si Si7 0.500000 0.500000 0.500000
Si Si8 0.673384 0.175029 0.771070
O O1 0.655363 0.437791 0.891729
O O2 0.097720 0.428618 0.927298
O O3 0.725421 0.274971 0.040108
O O4 0.500000 0.000000 0.000000
O O5 0.311947 0.224717 0.593522
O O6 0.430338 0.107510 0.728171
O O7 0.336275 0.844302 0.680906
O O8 0.902733 0.778972 0.739723
O O9 0.339726 0.457754 0.786785
O O10 0.650328 0.298773 0.806141
O O11 0.569610 0.721282 0.631035
O O12 0.477266 0.636986 0.528644
O O13 0.500000 0.000000 0.500000
O O14 0.000000 0.000000 0.500000
O O15 0.997337 0.408524 0.703514
O O16 0.372951 0.091981 0.159662
O O17 0.500000 0.500000 0.000000
#
# Coordination Sequence:
#
# PCOD9063460 Si02
#       8
#     2   2   2   2   2   2   1   2
#     4  11  24  44  69 100 141 187 242 300 375 447
#     4  11  25  47  71 108 144 193 252 313 387 464
#     4  11  24  46  68  99 147 192 240 314 374 457
#     4  12  28  52  78 115 158 200 265 329 395 482
#     4  11  27  45  73 104 147 195 249 316 387 462
#     4  11  26  43  68 104 141 185 245 308 367 463
#     4  12  26  48  84 104 152 206 256 324 402 468
#     4  11  25  45  68 104 145 188 247 305 387 456
#
# _framework density 23.573619999999998
#
# number of rings (size 3 to 8) (size 9 to 14) (size 15 to 20)
#    0.000    0.800    4.000    1.600    7.467    4.267 
#    0.000    0.000    0.000    0.000    0.000    0.000 
#    0.000    0.000    0.000    0.000    0.000    0.000 
#
# Total GULP energy -83574.366011 kJ/mol
# GULP energy per Si atom -5571.624401 kJ/mol
# Density = 2.351997 g / cm^3
# Si number density = 23.573620 Si / 1000 Ang^3
#
#
#
# Elastic Constant Matrix: (Units=GPa)
#
#
# Indices 1 2 3 4 5 6 
#
# 1 63.3115 37.0779 3.0323 -19.5031 -0.2782 -2.7147
# 2 37.0779 123.8406 35.9280 -12.2803 -0.2128 10.8493
# 3 3.0323 35.9280 123.6177 -16.0618 5.3041 -6.2232
# 4 -19.5031 -12.2803 -16.0618 48.3471 -11.1955 3.0573
# 5 -0.2782 -0.2128 5.3041 -11.1955 35.7638 5.1121
# 6 -2.7147 10.8493 -6.2232 3.0573 5.1121 30.8705
#
#
#
# Elastic Compliance Matrix: (Units=1/GPa)
#
#
# Indices 1 2 3 4 5 6 
#
# 1 0.022540 -0.007037 0.002698 0.008374 0.001801 0.003872
# 2 -0.007037 0.011680 -0.003613 -0.000436 0.001216 -0.005611
# 3 0.002698 -0.003613 0.009666 0.002942 -0.000989 0.003328
# 4 0.008374 -0.000436 0.002942 0.027053 0.008466 -0.002599
# 5 0.001801 0.001216 -0.000989 0.008466 0.031717 -0.006559
# 6 0.003872 -0.005611 0.003328 -0.002599 -0.006559 0.036720
#
#
# Mechanical properties :
#
#
# Convention : Reuss Voigt Hill
#
# Bulk Modulus (GPa) = 35.73776 51.42735 43.58255
# Shear Modulus (GPa) = 30.37496 38.64505 34.51001
#
# Velocity S-wave (km/s) = 3.59348 4.05326 3.83028
# Velocity P-wave (km/s) = 5.69302 6.61576 6.17166
#
# Compressibility (1/GPa) = 0.02798161
#
# Stress axis : x y z
#
# Youngs Moduli (GPa) = 44.36488 85.61294 103.45824
#
# Poissons Ratio (x) = 0.60246 -0.27913
# Poissons Ratio (y) = 0.31220 0.37384
# Poissons Ratio (z) = -0.11969 0.30936
#
# Static dielectric constant tensor:
#      x y z
#    x 2.009460 -0.020580 -0.026120 
#    y -0.020580 1.878370 0.024470 
#    z -0.026120 0.024470 1.899200 
# 
# From -- ./inp_files/54962.got.cif
#   From: 2010.05.17/outbox.cif.g08.bks.cpg/sg2_28_cif.got.tgz:54962.got - 2010.06.03 11:33:40.
