data_PCOD9063274
_publ_section_title
;
Structure prediction by ZEFSAII (Michael W. Deem and Ramdas Pophale) SiO2 
 PCOD9063274
Probable space group: P -1
;
_chemical_formula_sum "Si O2"
_cell_formula_units_Z 16
_cell_length_a 5.334297
_cell_length_b 16.311044
_cell_length_c 21.788120
_cell_angle_alpha 20.296828
_cell_angle_beta 100.721044
_cell_angle_gamma 102.350818
_cell_volume 641.786327
_symmetry_space_group_name_H-M "P -1"
_symmetry_group_IT_number 2
_symmetry_cell_setting 'triclinic'
loop_
_space_group_symop_operation_xyz
x,y,z
-x,-y,-z
loop_
_atom_site_type_symbol
_atom_site_label
_atom_site_fract_x
_atom_site_fract_y
_atom_site_fract_z
Si Si1 0.021940 0.506702 0.207624
Si Si2 0.575086 0.260534 0.293433
Si Si3 0.826549 0.707579 0.843580
Si Si4 0.808969 0.303731 0.788136
Si Si5 0.179256 0.008216 0.797947
Si Si6 0.373972 0.998892 0.278179
Si Si7 0.747079 0.777801 0.216644
Si Si8 0.230550 0.058850 0.566079
O O1 0.061624 0.555153 0.247516
O O2 0.729430 0.436020 0.224066
O O3 0.166505 0.273153 0.370135
O O4 0.125714 0.739270 0.011266
O O5 0.336153 0.336411 0.194076
O O6 0.756193 0.181594 0.302864
O O7 0.500000 0.000000 0.500000
O O8 0.993379 0.967269 0.663307
O O9 0.339447 0.254878 0.129240
O O10 0.000000 0.500000 0.000000
O O11 0.525747 0.362648 0.716184
O O12 0.002720 0.329020 0.722072
O O13 0.768757 0.031625 0.003006
O O14 0.908999 0.075324 0.710741
O O15 0.413608 0.006845 0.761749
O O16 0.249632 0.169330 0.748102
O O17 0.512134 0.878873 0.426073
#
# Coordination Sequence:
#
# PCOD9063274 Si02
#       8
#     2   2   2   2   2   2   2   2
#     4  11  25  42  69 106 134 178 236 285 340 401
#     4  11  25  42  67  97 141 181 228 287 337 393
#     4  11  26  46  68  94 137 190 231 279 338 404
#     4   9  19  37  63  98 138 172 210 276 349 410
#     4  11  24  43  74 107 133 173 235 290 328 412
#     4  11  25  46  68 100 136 185 226 277 339 407
#     4   9  18  38  64  99 137 168 212 279 350 394
#     4  11  25  46  63  96 143 186 220 283 346 398
#
# _framework density 24.930413000000001
#
# number of rings (size 3 to 8) (size 9 to 14) (size 15 to 20)
#    0.000    1.500    2.500    1.125    3.500    6.000 
#    0.000    1.875    0.000    4.500    0.000    0.000 
#    0.000    0.000    0.000    0.000    0.000    0.000 
#
# Total GULP energy -89499.371934 kJ/mol
# GULP energy per Si atom -5593.710746 kJ/mol
# Density = 2.487367 g / cm^3
# Si number density = 24.930413 Si / 1000 Ang^3
#
#
#
# Elastic Constant Matrix: (Units=GPa)
#
#
# Indices 1 2 3 4 5 6 
#
# 1 171.8684 92.2764 22.3530 14.2461 9.8869 11.8619
# 2 92.2764 193.3020 20.8203 11.6850 5.9248 24.7391
# 3 22.3530 20.8203 60.5896 7.6187 10.3905 14.8100
# 4 14.2461 11.6850 7.6187 31.1556 4.7939 5.4531
# 5 9.8869 5.9248 10.3905 4.7939 24.9799 16.1187
# 6 11.8619 24.7391 14.8100 5.4531 16.1187 43.3416
#
#
#
# Elastic Compliance Matrix: (Units=1/GPa)
#
#
# Indices 1 2 3 4 5 6 
#
# 1 0.008224 -0.003777 -0.001465 -0.001888 -0.002372 0.001525
# 2 -0.003777 0.007503 -0.000590 -0.000658 0.002631 -0.003944
# 3 -0.001465 -0.000590 0.019254 -0.002470 -0.004271 -0.003942
# 4 -0.001888 -0.000658 -0.002470 0.034623 -0.003978 -0.001141
# 5 -0.002372 0.002631 -0.004271 -0.003978 0.055488 -0.019529
# 6 0.001525 -0.003944 -0.003942 -0.001141 -0.019529 0.033660
#
#
# Mechanical properties :
#
#
# Convention : Reuss Voigt Hill
#
# Bulk Modulus (GPa) = 42.88276 77.40662 60.14469
# Shear Modulus (GPa) = 28.06024 39.24944 33.65484
#
# Velocity S-wave (km/s) = 3.35855 3.97212 3.67815
# Velocity P-wave (km/s) = 5.68138 7.22174 6.49737
#
# Compressibility (1/GPa) = 0.02331940
#
# Stress axis : x y z
#
# Youngs Moduli (GPa) = 121.59148 133.27292 51.93637
#
# Poissons Ratio (x) = 0.50331 0.07609
# Poissons Ratio (y) = 0.45920 0.03063
# Poissons Ratio (z) = 0.17814 0.07859
#
# Static dielectric constant tensor:
#      x y z
#    x 2.236470 -0.121570 -0.095380 
#    y -0.121570 1.992150 0.008270 
#    z -0.095380 0.008270 2.017170 
# 
# From -- ./inp_files/604981.got.cif
#   From: 2010.05.17/outbox.cif.g08.bks.cpg/sg2_303_cif.got.tgz:604981.got - 2010.06.03 11:33:40.
