data_PCOD9063148
_publ_section_title
;
Structure prediction by ZEFSAII (Michael W. Deem and Ramdas Pophale) SiO2 
 PCOD9063148
Probable space group: P -1
;
_chemical_formula_sum "Si O2"
_cell_formula_units_Z 16
_cell_length_a 18.053142
_cell_length_b 9.296091
_cell_length_c 11.548761
_cell_angle_alpha 54.507467
_cell_angle_beta 133.619432
_cell_angle_gamma 148.766972
_cell_volume 727.315027
_symmetry_space_group_name_H-M "P -1"
_symmetry_group_IT_number 2
_symmetry_cell_setting 'triclinic'
loop_
_space_group_symop_operation_xyz
x,y,z
-x,-y,-z
loop_
_atom_site_type_symbol
_atom_site_label
_atom_site_fract_x
_atom_site_fract_y
_atom_site_fract_z
Si Si1 0.924933 0.057001 0.464906
Si Si2 0.168006 0.695620 0.821726
Si Si3 0.286288 0.359617 0.374571
Si Si4 0.793517 0.399256 0.346485
Si Si5 0.992039 0.834758 0.972140
Si Si6 0.361733 0.103934 0.438848
Si Si7 0.480658 0.210515 0.036172
Si Si8 0.653482 0.783105 0.883690
O O1 0.885911 0.173405 0.289192
O O2 0.055642 0.288289 0.593528
O O3 0.767506 0.785383 0.491047
O O4 0.000000 0.000000 0.500000
O O5 0.165123 0.643892 0.707612
O O6 0.056373 0.410928 0.902092
O O7 0.349699 0.925181 0.957671
O O8 0.147956 0.300130 0.204388
O O9 0.303952 0.214934 0.376319
O O10 0.457978 0.681364 0.419255
O O11 0.637937 0.311607 0.194902
O O12 0.749364 0.197754 0.490877
O O13 0.000000 0.000000 0.000000
O O14 0.163211 0.039995 0.999986
O O15 0.365011 0.126867 0.294130
O O16 0.394977 0.172131 0.076474
O O17 0.540935 0.459675 0.911146
#
# Coordination Sequence:
#
# PCOD9063148 Si02
#       8
#     2   2   2   2   2   2   2   2
#     4  12  28  47  73 106 148 190 234 294 361 424
#     4  12  26  48  75 106 142 185 245 292 351 434
#     4  11  24  43  71 106 138 186 238 289 357 418
#     4  12  26  47  74 104 141 188 241 292 353 427
#     4  12  24  44  73 104 141 187 234 292 357 423
#     4  11  24  44  72 103 142 184 235 296 347 422
#     4  11  27  45  72 103 141 189 238 296 359 419
#     4  11  25  45  69 100 147 185 234 296 361 417
#
# _framework density 21.998722000000001
#
# number of rings (size 3 to 8) (size 9 to 14) (size 15 to 20)
#    0.000    0.500    2.500    5.250    8.750    1.000 
#    4.500    0.000    0.000    0.000    0.000    0.000 
#    0.000    0.000    0.000    0.000    0.000    0.000 
#
# Total GULP energy -89694.631277 kJ/mol
# GULP energy per Si atom -5605.914455 kJ/mol
# Density = 2.194865 g / cm^3
# Si number density = 21.998722 Si / 1000 Ang^3
#
#
#
# Elastic Constant Matrix: (Units=GPa)
#
#
# Indices 1 2 3 4 5 6 
#
# 1 78.8986 27.8237 13.4518 -5.7920 10.6353 14.2895
# 2 27.8237 66.3691 0.7149 -16.5237 -9.1066 21.0914
# 3 13.4518 0.7149 83.1368 -9.0691 10.3377 7.5979
# 4 -5.7920 -16.5237 -9.0691 46.7632 10.5054 -0.4277
# 5 10.6353 -9.1066 10.3377 10.5054 34.8989 -1.3366
# 6 14.2895 21.0914 7.5979 -0.4277 -1.3366 24.2760
#
#
#
# Elastic Compliance Matrix: (Units=1/GPa)
#
#
# Indices 1 2 3 4 5 6 
#
# 1 0.016960 -0.006372 -0.001301 0.001118 -0.006951 -0.004403
# 2 -0.006372 0.026681 0.002875 0.007911 0.004908 -0.019920
# 3 -0.001301 0.002875 0.013841 0.004504 -0.004548 -0.006235
# 4 0.001118 0.007911 0.004504 0.026920 -0.008055 -0.008910
# 5 -0.006951 0.004908 -0.004548 -0.008055 0.035943 0.003088
# 6 -0.004403 -0.019920 -0.006235 -0.008910 0.003088 0.063056
#
#
# Mechanical properties :
#
#
# Convention : Reuss Voigt Hill
#
# Bulk Modulus (GPa) = 20.88313 34.70948 27.79630
# Shear Modulus (GPa) = 23.92807 33.61524 28.77166
#
# Velocity S-wave (km/s) = 3.30161 3.91327 3.62038
# Velocity P-wave (km/s) = 4.90384 6.01918 5.48991
#
# Compressibility (1/GPa) = 0.04788555
#
# Stress axis : x y z
#
# Youngs Moduli (GPa) = 58.96251 37.47929 72.25068
#
# Poissons Ratio (x) = 0.23883 0.09398
# Poissons Ratio (y) = 0.37573 -0.20771
# Poissons Ratio (z) = 0.07669 -0.10775
#
# Static dielectric constant tensor:
#      x y z
#    x 1.759590 -0.008750 0.012580 
#    y -0.008750 1.764230 0.002890 
#    z 0.012580 0.002890 1.808900 
# 
# From -- ./inp_files/462011.got.cif
#   From: 2010.05.17/outbox.cif.g08.bks.cpg/sg2_232_cif.got.tgz:462011.got - 2010.06.03 11:33:40.
