data_PCOD9063563
_publ_section_title
;
Structure prediction by ZEFSAII (Michael W. Deem and Ramdas Pophale) SiO2 
 PCOD9063563
Probable space group: P -1
;
_chemical_formula_sum "Si O2"
_cell_formula_units_Z 16
_cell_length_a 6.214827
_cell_length_b 17.690882
_cell_length_c 9.698833
_cell_angle_alpha 135.428931
_cell_angle_beta 87.096273
_cell_angle_gamma 107.164351
_cell_volume 694.481467
_symmetry_space_group_name_H-M "P -1"
_symmetry_group_IT_number 2
_symmetry_cell_setting 'triclinic'
loop_
_space_group_symop_operation_xyz
x,y,z
-x,-y,-z
loop_
_atom_site_type_symbol
_atom_site_label
_atom_site_fract_x
_atom_site_fract_y
_atom_site_fract_z
Si Si1 0.871831 0.578280 0.668649
Si Si2 0.168835 0.089290 0.774337
Si Si3 0.496592 0.837840 0.891088
Si Si4 0.658029 0.633723 0.199154
Si Si5 0.730163 0.989941 0.826883
Si Si6 0.420621 0.373972 0.491629
Si Si7 0.052179 0.736181 0.112609
Si Si8 0.474216 0.146810 0.597862
O O1 0.623688 0.500739 0.644432
O O2 0.783938 0.639756 0.628596
O O3 0.000000 0.500000 0.500000
O O4 0.043716 0.653391 0.877735
O O5 0.277404 0.061348 0.595128
O O6 0.065491 0.181370 0.842859
O O7 0.376713 0.149493 0.951047
O O8 0.965742 0.998300 0.753493
O O9 0.675204 0.922007 0.883376
O O10 0.450520 0.712306 0.668428
O O11 0.292283 0.886975 0.981555
O O12 0.680910 0.649302 0.382622
O O13 0.566520 0.734004 0.280833
O O14 0.895147 0.662157 0.145393
O O15 0.500000 0.500000 0.000000
O O16 0.532707 0.920055 0.631354
O O17 0.293199 0.811699 0.269194
#
# Coordination Sequence:
#
# PCOD9063563 Si02
#       8
#     2   2   2   2   2   2   2   2
#     4  11  26  41  74 102 135 176 228 275 342 406
#     4  11  24  44  70  93 136 178 226 283 338 396
#     4  11  24  44  71  98 137 172 233 287 334 405
#     4  11  24  45  68  98 138 179 224 275 337 409
#     4  11  25  46  68 101 131 184 231 283 340 398
#     4  11  24  47  70 100 136 182 224 278 337 405
#     4  11  25  44  67 102 133 179 222 278 341 403
#     4  11  26  44  69  98 139 175 230 278 341 408
#
# _framework density 23.03877
#
# number of rings (size 3 to 8) (size 9 to 14) (size 15 to 20)
#    0.000    1.000    3.750    1.500    5.250    5.500 
#    4.500    0.000    0.000    0.000    0.000    0.000 
#    0.000    0.000    0.000    0.000    0.000    0.000 
#
# Total GULP energy -89500.298919 kJ/mol
# GULP energy per Si atom -5593.768682 kJ/mol
# Density = 2.298633 g / cm^3
# Si number density = 23.038770 Si / 1000 Ang^3
#
#
#
# Elastic Constant Matrix: (Units=GPa)
#
#
# Indices 1 2 3 4 5 6 
#
# 1 51.4468 32.6993 15.6212 -5.3052 -4.0373 9.5682
# 2 32.6993 115.7272 37.5741 -22.5300 -6.1090 7.6104
# 3 15.6212 37.5741 133.3535 -10.2604 -11.5774 -7.6279
# 4 -5.3052 -22.5300 -10.2604 45.0868 -0.3865 -4.0192
# 5 -4.0373 -6.1090 -11.5774 -0.3865 29.6522 -1.2587
# 6 9.5682 7.6104 -7.6279 -4.0192 -1.2587 33.9818
#
#
#
# Elastic Compliance Matrix: (Units=1/GPa)
#
#
# Indices 1 2 3 4 5 6 
#
# 1 0.025023 -0.006343 -0.001463 -0.001086 0.001258 -0.006035
# 2 -0.006343 0.012209 -0.002314 0.004756 0.000773 -0.000876
# 3 -0.001463 -0.002314 0.008831 0.000986 0.002918 0.003137
# 4 -0.001086 0.004756 0.000986 0.024887 0.001646 0.002466
# 5 0.001258 0.000773 0.002918 0.001646 0.035285 0.001629
# 6 -0.006035 -0.000876 0.003137 0.002466 0.001629 0.032379
#
#
# Mechanical properties :
#
#
# Convention : Reuss Voigt Hill
#
# Bulk Modulus (GPa) = 38.72748 52.47963 45.60355
# Shear Modulus (GPa) = 29.85741 36.05302 32.95522
#
# Velocity S-wave (km/s) = 3.60386 3.96015 3.78620
# Velocity P-wave (km/s) = 5.84493 6.61352 6.24107
#
# Compressibility (1/GPa) = 0.02582146
#
# Stress axis : x y z
#
# Youngs Moduli (GPa) = 39.96338 81.90618 113.23802
#
# Poissons Ratio (x) = 0.51955 0.16572
# Poissons Ratio (y) = 0.25350 0.26204
# Poissons Ratio (z) = 0.05848 0.18954
#
# Static dielectric constant tensor:
#      x y z
#    x 1.894820 0.035580 -0.003970 
#    y 0.035580 1.868560 0.032630 
#    z -0.003970 0.032630 1.832650 
# 
# From -- ./inp_files/48292.got.cif
#   From: 2010.05.17/outbox.cif.g08.bks.cpg/sg2_25_cif.got.tgz:48292.got - 2010.06.03 11:33:40.
