data_PCOD9063735
_publ_section_title
;
Structure prediction by ZEFSAII (Michael W. Deem and Ramdas Pophale) SiO2 
 PCOD9063735
Probable space group: P -1
;
_chemical_formula_sum "Si O2"
_cell_formula_units_Z 16
_cell_length_a 11.990439
_cell_length_b 21.852441
_cell_length_c 19.036287
_cell_angle_alpha 161.093788
_cell_angle_beta 150.669843
_cell_angle_gamma 39.176851
_cell_volume 752.057716
_symmetry_space_group_name_H-M "P -1"
_symmetry_group_IT_number 2
_symmetry_cell_setting 'triclinic'
loop_
_space_group_symop_operation_xyz
x,y,z
-x,-y,-z
loop_
_atom_site_type_symbol
_atom_site_label
_atom_site_fract_x
_atom_site_fract_y
_atom_site_fract_z
Si Si1 0.263270 0.990335 0.408467
Si Si2 0.802271 0.781115 0.838464
Si Si3 0.355061 0.128598 0.825010
Si Si4 0.855140 0.077175 0.062142
Si Si5 0.622889 0.552013 0.700544
Si Si6 0.917137 0.493974 0.368174
Si Si7 0.175268 0.737406 0.224808
Si Si8 0.635744 0.625372 0.039015
O O1 0.242250 0.202969 0.652022
O O2 0.500000 0.000000 0.500000
O O3 0.284124 0.866982 0.356196
O O4 0.996871 0.888382 0.120338
O O5 0.531854 0.647044 0.560484
O O6 0.932886 0.628032 0.717685
O O7 0.799740 0.935323 0.943973
O O8 0.313196 0.278445 0.906003
O O9 0.179680 0.904214 0.468370
O O10 0.612649 0.098414 0.920132
O O11 0.389230 0.247857 0.047522
O O12 0.018921 0.297100 0.408745
O O13 0.000000 0.000000 0.000000
O O14 0.500000 0.500000 0.500000
O O15 0.907711 0.598529 0.907910
O O16 0.000000 0.500000 0.500000
O O17 0.636741 0.404950 0.122773
O O18 0.312544 0.583256 0.155022
#
# Coordination Sequence:
#
# PCOD9063735 Si02
#       8
#     2   2   2   2   2   2   2   2
#     4  11  25  45  68 108 146 183 235 301 364 432
#     4  12  25  45  70 102 146 187 235 298 359 422
#     4  11  25  46  72 108 139 182 246 301 353 421
#     4  12  24  39  72 109 141 181 234 295 367 427
#     4  12  26  52  74  97 149 198 245 298 352 429
#     4  12  21  40  67 102 145 179 229 295 357 428
#     4  11  27  48  74 101 143 194 243 294 362 426
#     4  11  24  44  73 105 142 186 236 295 368 430
#
# _framework density 21.274963
#
# number of rings (size 3 to 8) (size 9 to 14) (size 15 to 20)
#    0.000    0.500    6.250    1.125    5.250    3.000 
#    4.500    1.250    0.000    0.000    0.000    0.000 
#    0.000    0.000    0.000    0.000    0.000    0.000 
#
# Total GULP energy -89258.398287 kJ/mol
# GULP energy per Si atom -5578.649893 kJ/mol
# Density = 2.122654 g / cm^3
# Si number density = 21.274963 Si / 1000 Ang^3
#
#
#
# Elastic Constant Matrix: (Units=GPa)
#
#
# Indices 1 2 3 4 5 6 
#
# 1 58.5290 -41.0654 -35.0693 19.4276 -5.7434 24.0100
# 2 -41.0654 -209.3154 -290.6586 64.4670 -18.2689 73.3297
# 3 -35.0693 -290.6586 -199.2494 47.9946 -24.3532 81.8085
# 4 19.4276 64.4670 47.9946 40.4741 0.6350 0.4089
# 5 -5.7434 -18.2689 -24.3532 0.6350 37.1207 0.9224
# 6 24.0100 73.3297 81.8085 0.4089 0.9224 9.2198
#
#
#
# Elastic Compliance Matrix: (Units=1/GPa)
#
#
# Indices 1 2 3 4 5 6 
#
# 1 0.016798 -0.001901 -0.002661 -0.001831 0.000072 -0.004940
# 2 -0.001901 0.006562 -0.006227 -0.002218 -0.001317 0.008243
# 3 -0.002661 -0.006227 0.006140 0.003891 0.000441 0.001761
# 4 -0.001831 -0.002218 0.003891 0.024623 0.001087 -0.013312
# 5 0.000072 -0.001317 0.000441 0.001087 0.026482 0.003673
# 6 -0.004940 0.008243 0.001761 -0.013312 0.003673 0.040362
#
#
# Mechanical properties :
#
#
# Convention : Reuss Voigt Hill
#
# Bulk Modulus (GPa) = 126.23628 -120.40249 2.91689
# Shear Modulus (GPa) = 34.43844 18.48008 26.45926
#
# Velocity S-wave (km/s) = 4.02771 2.95045 3.53041
# Velocity P-wave (km/s) = 9.00524 6.71636 4.24175
#
# Compressibility (1/GPa) = 0.00792165
#
# Stress axis : x y z
#
# Youngs Moduli (GPa) = 59.53008 152.38296 162.86845
#
# Poissons Ratio (x) = 0.28973 0.43336
# Poissons Ratio (y) = 0.11319 1.01423
# Poissons Ratio (z) = 0.15840 0.94893
#
# Static dielectric constant tensor:
#      x y z
#    x 1.811110 0.021790 -0.085650 
#    y 0.021790 1.730260 -0.091210 
#    z -0.085650 -0.091210 2.484200 
# 
# From -- ./inp_files/570837.got.cif
#   From: 2010.05.17/outbox.cif.g08.bks.cpg/sg2_286_cif.got.tgz:570837.got - 2010.06.03 11:33:40.
