data_PCOD9063434
_publ_section_title
;
Structure prediction by ZEFSAII (Michael W. Deem and Ramdas Pophale) SiO2 
 PCOD9063434
Probable space group: P -1
;
_chemical_formula_sum "Si O2"
_cell_formula_units_Z 12
_cell_length_a 21.926103
_cell_length_b 15.695527
_cell_length_c 5.328304
_cell_angle_alpha 114.166536
_cell_angle_beta 107.825912
_cell_angle_gamma 17.503099
_cell_volume 478.823801
_symmetry_space_group_name_H-M "P -1"
_symmetry_group_IT_number 2
_symmetry_cell_setting 'triclinic'
loop_
_space_group_symop_operation_xyz
x,y,z
-x,-y,-z
loop_
_atom_site_type_symbol
_atom_site_label
_atom_site_fract_x
_atom_site_fract_y
_atom_site_fract_z
Si Si1 0.013174 0.088834 0.559402
Si Si2 0.583756 0.507756 0.927085
Si Si3 0.203454 0.278424 0.897845
Si Si4 0.174150 0.975896 0.033462
Si Si5 0.202806 0.401820 0.536508
Si Si6 0.612987 0.662057 0.390889
O O1 0.833041 0.347976 0.438845
O O2 0.260538 0.752557 0.393606
O O3 0.000000 0.000000 0.500000
O O4 0.992854 0.189592 0.878110
O O5 0.685520 0.309093 0.051458
O O6 0.342907 0.814500 0.948188
O O7 0.604445 0.589068 0.096056
O O8 0.167763 0.389357 0.731272
O O9 0.412897 0.929973 0.651085
O O10 0.257374 0.266403 0.193887
O O11 0.000000 0.500000 0.000000
O O12 0.035166 0.223689 0.363545
O O13 0.368164 0.258774 0.593213
#
# Coordination Sequence:
#
# PCOD9063434 Si02
#       6
#     2   2   2   2   2   2
#     4  12  23  41  69 107 148 196 246 305 378 448
#     4  11  24  44  68 107 147 194 244 303 380 443
#     4  12  29  52  78 110 151 201 259 317 385 454
#     4  11  24  44  71 105 149 193 247 304 374 451
#     4  12  26  49  78 111 151 199 257 317 379 452
#     4  12  25  48  76 112 151 197 256 315 378 451
#
# _framework density 25.061409999999999
#
# number of rings (size 3 to 8) (size 9 to 14) (size 15 to 20)
#    0.000    0.333    3.333    5.500    0.000    4.000 
#    0.000    0.000    0.000    0.000    0.000    0.000 
#    0.000    0.000    0.000    0.000    0.000    0.000 
#
# Total GULP energy -67068.535024 kJ/mol
# GULP energy per Si atom -5589.044585 kJ/mol
# Density = 2.500437 g / cm^3
# Si number density = 25.061410 Si / 1000 Ang^3
#
#
#
# Elastic Constant Matrix: (Units=GPa)
#
#
# Indices 1 2 3 4 5 6 
#
# 1 110.3415 22.0587 12.0580 -11.3205 -13.4760 3.9337
# 2 22.0587 38.7166 10.2657 0.7018 -6.4782 3.9257
# 3 12.0580 10.2657 117.0808 6.0196 -2.4968 1.6937
# 4 -11.3205 0.7018 6.0196 53.3153 -11.3637 -6.7530
# 5 -13.4760 -6.4782 -2.4968 -11.3637 46.7316 7.5687
# 6 3.9337 3.9257 1.6937 -6.7530 7.5687 42.6626
#
#
#
# Elastic Compliance Matrix: (Units=1/GPa)
#
#
# Indices 1 2 3 4 5 6 
#
# 1 0.010976 -0.005524 -0.000729 0.003098 0.003203 -0.000553
# 2 -0.005524 0.030245 -0.001926 -0.001144 0.002681 -0.002854
# 3 -0.000729 -0.001926 0.008846 -0.001215 -0.000259 -0.000253
# 4 0.003098 -0.001144 -0.001215 0.021004 0.005416 0.002232
# 5 0.003203 0.002681 -0.000259 0.005416 0.024653 -0.004048
# 6 -0.000553 -0.002854 -0.000253 0.002232 -0.004048 0.024835
#
#
# Mechanical properties :
#
#
# Convention : Reuss Voigt Hill
#
# Bulk Modulus (GPa) = 29.66580 39.43374 34.54977
# Shear Modulus (GPa) = 33.74913 43.32567 38.53740
#
# Velocity S-wave (km/s) = 3.67366 4.16237 3.92563
# Velocity P-wave (km/s) = 5.46419 6.23454 5.86203
#
# Compressibility (1/GPa) = 0.03370885
#
# Stress axis : x y z
#
# Youngs Moduli (GPa) = 91.11156 33.06283 113.04973
#
# Poissons Ratio (x) = 0.18265 0.08241
# Poissons Ratio (y) = 0.50332 0.21770
# Poissons Ratio (z) = 0.06642 0.06367
#
# Static dielectric constant tensor:
#      x y z
#    x 1.061450 -0.308520 0.518230 
#    y -0.308520 1.850120 0.273340 
#    z 0.518230 0.273340 1.663610 
# 
# From -- ./inp_files/35164.got.cif
#   From: 2010.05.17/outbox.cif.g08.bks.cpg/sg2_18_cif.got.tgz:35164.got - 2010.06.03 11:33:40.
