data_PCOD9063235
_publ_section_title
;
Structure prediction by ZEFSAII (Michael W. Deem and Ramdas Pophale) SiO2 
 PCOD9063235
Probable space group: P -1
;
_chemical_formula_sum "Si O2"
_cell_formula_units_Z 16
_cell_length_a 15.172580
_cell_length_b 12.801848
_cell_length_c 19.466674
_cell_angle_alpha 153.257436
_cell_angle_beta 151.485748
_cell_angle_gamma 45.195738
_cell_volume 753.770143
_symmetry_space_group_name_H-M "P -1"
_symmetry_group_IT_number 2
_symmetry_cell_setting 'triclinic'
loop_
_space_group_symop_operation_xyz
x,y,z
-x,-y,-z
loop_
_atom_site_type_symbol
_atom_site_label
_atom_site_fract_x
_atom_site_fract_y
_atom_site_fract_z
Si Si1 0.774038 0.986682 0.145400
Si Si2 0.054362 0.484724 0.607837
Si Si3 0.223806 0.546724 0.202900
Si Si4 0.969982 0.253923 0.113231
Si Si5 0.483631 0.962603 0.384931
Si Si6 0.537983 0.487600 0.098717
Si Si7 0.315187 0.583995 0.440320
Si Si8 0.570678 0.906212 0.101311
O O1 0.720249 0.951794 0.167480
O O2 0.742128 0.715406 0.934657
O O3 0.993616 0.189977 0.406793
O O4 0.638344 0.127173 0.100157
O O5 0.991815 0.595972 0.699154
O O6 0.288815 0.620604 0.846199
O O7 0.000000 0.500000 0.500000
O O8 0.233597 0.616484 0.329884
O O9 0.393611 0.770806 0.410283
O O10 0.000000 0.500000 0.000000
O O11 0.138330 0.400668 0.259044
O O12 0.744059 0.171645 0.879368
O O13 0.000000 0.000000 0.000000
O O14 0.584947 0.764219 0.320868
O O15 0.500000 0.000000 0.500000
O O16 0.500000 0.500000 0.000000
O O17 0.398804 0.301944 0.951019
O O18 0.500000 0.500000 0.500000
O O19 0.390730 0.846232 0.684026
#
# Coordination Sequence:
#
# PCOD9063235 Si02
#       8
#     2   2   2   2   2   2   2   2
#     4  11  24  45  71 107 144 186 249 295 363 436
#     4  12  26  46  73 108 149 193 247 301 367 448
#     4  12  26  46  74 107 147 193 241 300 367 436
#     4  12  29  46  73 111 146 194 248 303 372 440
#     4  12  27  49  74 108 153 192 244 305 373 441
#     4  12  25  46  72 104 149 192 243 303 370 440
#     4  12  25  46  73 105 147 190 245 303 365 440
#     4  11  24  43  73 104 141 192 240 303 365 431
#
# _framework density 21.226631000000001
#
# number of rings (size 3 to 8) (size 9 to 14) (size 15 to 20)
#    0.000    0.250    5.000    3.750    5.250    0.000 
#    0.000    1.875    0.000    0.000    0.000    0.000 
#    0.000    0.000    0.000    0.000    0.000    0.000 
#
# Total GULP energy -89224.120484 kJ/mol
# GULP energy per Si atom -5576.507530 kJ/mol
# Density = 2.117832 g / cm^3
# Si number density = 21.226631 Si / 1000 Ang^3
#
#
#
# Elastic Constant Matrix: (Units=GPa)
#
#
# Indices 1 2 3 4 5 6 
#
# 1 168.5013 44.1446 61.4593 -1.5767 -12.8017 35.8627
# 2 44.1446 74.9526 29.8918 0.1067 5.3219 30.2733
# 3 61.4593 29.8918 96.8113 7.1390 -3.4155 19.7488
# 4 -1.5767 0.1067 7.1390 55.1349 4.0577 -3.9071
# 5 -12.8017 5.3219 -3.4155 4.0577 45.1817 -3.2798
# 6 35.8627 30.2733 19.7488 -3.9071 -3.2798 47.3700
#
#
#
# Elastic Compliance Matrix: (Units=1/GPa)
#
#
# Indices 1 2 3 4 5 6 
#
# 1 0.008993 -0.002435 -0.004236 0.000412 0.002238 -0.003297
# 2 -0.002435 0.020315 -0.002757 -0.000185 -0.004021 -0.010283
# 3 -0.004236 -0.002757 0.014263 -0.002065 0.000306 -0.001126
# 4 0.000412 -0.000185 -0.002065 0.018679 -0.001543 0.002101
# 5 0.002238 -0.004021 0.000306 -0.001543 0.023566 0.002252
# 6 -0.003297 -0.010283 -0.001126 0.002101 0.002252 0.030978
#
#
# Mechanical properties :
#
#
# Convention : Reuss Voigt Hill
#
# Bulk Modulus (GPa) = 40.46257 67.91739 54.18998
# Shear Modulus (GPa) = 34.74909 43.18863 38.96886
#
# Velocity S-wave (km/s) = 4.05044 4.51560 4.28933
# Velocity P-wave (km/s) = 6.40143 7.69761 7.07925
#
# Compressibility (1/GPa) = 0.02471420
#
# Stress axis : x y z
#
# Youngs Moduli (GPa) = 111.19146 49.22529 70.11244
#
# Poissons Ratio (x) = 0.11987 0.29702
# Poissons Ratio (y) = 0.27076 0.19330
# Poissons Ratio (z) = 0.47104 0.13572
#
# Static dielectric constant tensor:
#      x y z
#    x 1.722000 0.071090 -0.129080 
#    y 0.071090 1.864700 -0.146300 
#    z -0.129080 -0.146300 1.686190 
# 
# From -- ./inp_files/207382.got.cif
#   From: 2010.05.17/outbox.cif.g08.bks.cpg/sg2_104_cif.got.tgz:207382.got - 2010.06.03 11:33:40.
