data_PCOD9063464
_publ_section_title
;
Structure prediction by ZEFSAII (Michael W. Deem and Ramdas Pophale) SiO2 
 PCOD9063464
Probable space group: P -1
;
_chemical_formula_sum "Si O2"
_cell_formula_units_Z 16
_cell_length_a 7.863928
_cell_length_b 22.897382
_cell_length_c 22.980926
_cell_angle_alpha 167.780180
_cell_angle_beta 135.008140
_cell_angle_gamma 47.395933
_cell_volume 616.426565
_symmetry_space_group_name_H-M "P -1"
_symmetry_group_IT_number 2
_symmetry_cell_setting 'triclinic'
loop_
_space_group_symop_operation_xyz
x,y,z
-x,-y,-z
loop_
_atom_site_type_symbol
_atom_site_label
_atom_site_fract_x
_atom_site_fract_y
_atom_site_fract_z
Si Si1 0.760457 0.654735 0.581075
Si Si2 0.539095 0.150612 0.577775
Si Si3 0.696128 0.639618 0.871404
Si Si4 0.401496 0.518458 0.798224
Si Si5 0.333359 0.220229 0.193912
Si Si6 0.003479 0.819666 0.488917
Si Si7 0.150441 0.366777 0.853834
Si Si8 0.152519 0.026802 0.207857
O O1 0.524918 0.435881 0.299788
O O2 0.729680 0.818495 0.791771
O O3 0.784476 0.862156 0.733925
O O4 0.000000 0.500000 0.500000
O O5 0.520720 0.370717 0.735588
O O6 0.263119 0.098782 0.481104
O O7 0.679936 0.884297 0.336720
O O8 0.691139 0.354911 0.859274
O O9 0.575099 0.524695 0.790563
O O10 0.924016 0.467860 0.746453
O O11 0.798541 0.951294 0.213729
O O12 0.165109 0.309359 0.521966
O O13 0.336162 0.831738 0.091474
O O14 0.500000 0.500000 0.500000
O O15 0.500000 0.000000 0.000000
O O16 0.094206 0.164389 0.043628
O O17 0.004632 0.769990 0.370976
O O18 0.000000 0.500000 0.000000
#
# Coordination Sequence:
#
# PCOD9063464 Si02
#       8
#     2   2   2   2   2   2   2   2
#     4  11  25  49  79 107 144 201 258 306 372 453
#     4  12  26  47  75 110 150 198 246 305 376 443
#     4  11  25  45  72 107 145 194 248 309 369 445
#     4  11  24  44  69 101 140 188 246 299 357 434
#     4  12  26  42  67 106 146 184 236 308 378 444
#     4  12  26  47  73 110 153 192 243 311 380 443
#     4  12  26  47  77 112 150 199 249 304 364 447
#     4  11  24  45  68  97 141 192 241 300 362 439
#
# _framework density 25.956052
#
# number of rings (size 3 to 8) (size 9 to 14) (size 15 to 20)
#    0.000    0.500    0.000    9.000    0.000    9.000 
#    0.000    0.000    0.000    0.000    0.000    0.000 
#    0.000    0.000    0.000    0.000    0.000    0.000 
#
# Total GULP energy -89574.677097 kJ/mol
# GULP energy per Si atom -5598.417319 kJ/mol
# Density = 2.589698 g / cm^3
# Si number density = 25.956052 Si / 1000 Ang^3
#
#
#
# Elastic Constant Matrix: (Units=GPa)
#
#
# Indices 1 2 3 4 5 6 
#
# 1 76.8730 25.7231 26.6745 15.8630 -24.7075 -14.4651
# 2 25.7231 111.3090 49.1409 16.4518 -14.6387 -23.0456
# 3 26.6745 49.1409 185.3014 10.6792 -14.2868 -23.0060
# 4 15.8630 16.4518 10.6792 58.9514 -14.4555 6.8034
# 5 -24.7075 -14.6387 -14.2868 -14.4555 49.8899 -0.8438
# 6 -14.4651 -23.0456 -23.0060 6.8034 -0.8438 38.0578
#
#
#
# Elastic Compliance Matrix: (Units=1/GPa)
#
#
# Indices 1 2 3 4 5 6 
#
# 1 0.017928 -0.000984 -0.000737 -0.003325 0.007526 0.006534
# 2 -0.000984 0.012066 -0.001964 -0.003058 0.001712 0.006330
# 3 -0.000737 -0.001964 0.006428 -0.000515 0.000793 0.002526
# 4 -0.003325 -0.003058 -0.000515 0.020370 0.003093 -0.006999
# 5 0.007526 0.001712 0.000793 0.003093 0.025471 0.004388
# 6 0.006534 0.006330 0.002526 -0.006999 0.004388 0.035468
#
#
# Mechanical properties :
#
#
# Convention : Reuss Voigt Hill
#
# Bulk Modulus (GPa) = 34.42031 64.06225 49.24128
# Shear Modulus (GPa) = 37.09615 47.50949 42.30282
#
# Velocity S-wave (km/s) = 3.78457 4.28294 4.04144
# Velocity P-wave (km/s) = 5.69096 7.01375 6.38669
#
# Compressibility (1/GPa) = 0.02905262
#
# Stress axis : x y z
#
# Youngs Moduli (GPa) = 55.77907 82.87711 155.56937
#
# Poissons Ratio (x) = 0.08153 0.11461
# Poissons Ratio (y) = 0.05487 0.30557
# Poissons Ratio (z) = 0.04109 0.16278
#
# Static dielectric constant tensor:
#      x y z
#    x 2.073230 -0.008270 0.026970 
#    y -0.008270 2.126410 -0.062430 
#    z 0.026970 -0.062430 2.026740 
# 
# From -- ./inp_files/617717.got.cif
#   From: 2010.05.17/outbox.cif.g08.bks.cpg/sg2_309_cif.got.tgz:617717.got - 2010.06.03 11:33:40.
