data_PCOD9063530
_publ_section_title
;
Structure prediction by ZEFSAII (Michael W. Deem and Ramdas Pophale) SiO2 
 PCOD9063530
Probable space group: P -1
;
_chemical_formula_sum "Si O2"
_cell_formula_units_Z 16
_cell_length_a 18.123204
_cell_length_b 5.417642
_cell_length_c 9.220118
_cell_angle_alpha 62.568364
_cell_angle_beta 121.847385
_cell_angle_gamma 105.790864
_cell_volume 682.022724
_symmetry_space_group_name_H-M "P -1"
_symmetry_group_IT_number 2
_symmetry_cell_setting 'triclinic'
loop_
_space_group_symop_operation_xyz
x,y,z
-x,-y,-z
loop_
_atom_site_type_symbol
_atom_site_label
_atom_site_fract_x
_atom_site_fract_y
_atom_site_fract_z
Si Si1 0.658890 0.039492 0.487946
Si Si2 0.490794 0.164182 0.097737
Si Si3 0.752139 0.608217 0.491356
Si Si4 0.165896 0.366009 0.957806
Si Si5 0.819456 0.055455 0.227020
Si Si6 0.016533 0.189743 0.657638
Si Si7 0.915295 0.660579 0.812568
Si Si8 0.682821 0.958844 0.872098
O O1 0.565940 0.065686 0.309615
O O2 0.710142 0.337649 0.442017
O O3 0.701832 0.770377 0.526935
O O4 0.654438 0.048313 0.657686
O O5 0.398542 0.084076 0.097240
O O6 0.500000 0.500000 0.000000
O O7 0.500000 0.000000 0.000000
O O8 0.761668 0.852115 0.317888
O O9 0.849224 0.524043 0.663123
O O10 0.082196 0.189336 0.863182
O O11 0.158507 0.639687 0.779727
O O12 0.146722 0.344886 0.111618
O O13 0.265022 0.308879 0.044170
O O14 0.914859 0.936870 0.347402
O O15 0.763597 0.106830 0.006549
O O16 0.000000 0.500000 0.500000
O O17 0.942542 0.964199 0.693274
O O18 0.000000 0.500000 0.000000
#
# Coordination Sequence:
#
# PCOD9063530 Si02
#       8
#     2   2   2   2   2   2   2   2
#     4  12  27  51  76 115 149 202 246 311 384 453
#     4  12  28  51  81 117 153 193 246 309 381 466
#     4  12  29  46  77 109 156 198 259 312 381 450
#     4  11  24  44  70 101 146 199 255 316 383 444
#     4  11  25  45  69 106 149 202 253 321 382 448
#     4  11  26  41  68 102 143 200 262 321 380 449
#     4  12  25  45  70 104 151 204 261 323 376 450
#     4  11  26  46  77 108 152 194 252 308 379 462
#
# _framework density 23.459631000000002
#
# number of rings (size 3 to 8) (size 9 to 14) (size 15 to 20)
#    0.000    0.500    2.500    4.500   12.250    1.000 
#    0.000    2.500    0.000    0.000    0.000    0.000 
#    0.000    0.000    0.000    0.000    0.000    0.000 
#
# Total GULP energy -89127.002002 kJ/mol
# GULP energy per Si atom -5570.437625 kJ/mol
# Density = 2.340624 g / cm^3
# Si number density = 23.459631 Si / 1000 Ang^3
#
#
#
# Elastic Constant Matrix: (Units=GPa)
#
#
# Indices 1 2 3 4 5 6 
#
# 1 126.6074 41.2600 50.4736 -12.5806 13.6849 1.1745
# 2 41.2600 65.3517 21.6860 -2.7095 3.6405 11.1474
# 3 50.4736 21.6860 130.7832 15.4216 17.2778 0.9100
# 4 -12.5806 -2.7095 15.4216 27.5848 9.7418 6.1814
# 5 13.6849 3.6405 17.2778 9.7418 53.3467 3.9739
# 6 1.1745 11.1474 0.9100 6.1814 3.9739 28.1718
#
#
#
# Elastic Compliance Matrix: (Units=1/GPa)
#
#
# Indices 1 2 3 4 5 6 
#
# 1 0.012968 -0.006214 -0.004616 0.008842 -0.003064 0.000559
# 2 -0.006214 0.021148 -0.001360 0.001587 0.000938 -0.008546
# 3 -0.004616 -0.001360 0.010747 -0.008483 -0.000831 0.002362
# 4 0.008842 0.001587 -0.008483 0.050409 -0.008041 -0.010649
# 5 -0.003064 0.000938 -0.000831 -0.008041 0.021313 -0.001459
# 6 0.000559 -0.008546 0.002362 -0.010649 -0.001459 0.041321
#
#
# Mechanical properties :
#
#
# Convention : Reuss Voigt Hill
#
# Bulk Modulus (GPa) = 48.82275 61.06463 54.94369
# Shear Modulus (GPa) = 26.43916 35.77550 31.10733
#
# Velocity S-wave (km/s) = 3.36073 3.90934 3.64537
# Velocity P-wave (km/s) = 5.99299 6.81641 6.41792
#
# Compressibility (1/GPa) = 0.02048226
#
# Stress axis : x y z
#
# Youngs Moduli (GPa) = 77.11072 47.28680 93.04991
#
# Poissons Ratio (x) = 0.29384 0.42954
# Poissons Ratio (y) = 0.47916 0.12656
# Poissons Ratio (z) = 0.35596 0.06431
#
# Static dielectric constant tensor:
#      x y z
#    x 1.943470 -0.148770 -0.045990 
#    y -0.148770 2.149460 0.039910 
#    z -0.045990 0.039910 1.975360 
# 
# From -- ./inp_files/323361.got.cif
#   From: 2010.05.17/outbox.cif.g08.bks.cpg/sg2_162_cif.got.tgz:323361.got - 2010.06.03 11:33:40.
