data_PCOD9063945
_publ_section_title
;
Structure prediction by ZEFSAII (Michael W. Deem and Ramdas Pophale) SiO2 
 PCOD9063945
Probable space group: P -1
;
_chemical_formula_sum "Si O2"
_cell_formula_units_Z 12
_cell_length_a 19.618956
_cell_length_b 16.089666
_cell_length_c 5.270067
_cell_angle_alpha 116.318120
_cell_angle_beta 118.684861
_cell_angle_gamma 19.646588
_cell_volume 490.461982
_symmetry_space_group_name_H-M "P -1"
_symmetry_group_IT_number 2
_symmetry_cell_setting 'triclinic'
loop_
_space_group_symop_operation_xyz
x,y,z
-x,-y,-z
loop_
_atom_site_type_symbol
_atom_site_label
_atom_site_fract_x
_atom_site_fract_y
_atom_site_fract_z
Si Si1 0.493407 0.709782 0.200348
Si Si2 0.941230 0.815050 0.143494
Si Si3 0.468381 0.954152 0.585907
Si Si4 0.868837 0.585537 0.082267
Si Si5 0.397960 0.656471 0.282152
Si Si6 0.054322 0.789708 0.811680
O O1 0.493777 0.820813 0.362935
O O2 0.442980 0.716165 0.386656
O O3 0.716404 0.428904 0.128050
O O4 0.301691 0.896239 0.930179
O O5 0.986419 0.660858 0.926488
O O6 0.018391 0.750162 0.476910
O O7 0.048481 0.760570 0.050094
O O8 0.660872 0.761892 0.855145
O O9 0.500000 0.000000 0.500000
O O10 0.239559 0.225135 0.657844
O O11 0.000000 0.500000 0.000000
O O12 0.500000 0.500000 0.500000
O O13 0.500000 0.500000 0.000000
O O14 0.148797 0.922915 0.202283
#
# Coordination Sequence:
#
# PCOD9063945 Si02
#       6
#     2   2   2   2   2   2
#     4  11  25  45  78 102 148 196 238 304 365 429
#     4  11  25  44  69 108 145 191 244 291 356 432
#     4  11  24  45  67 110 146 195 251 293 359 439
#     4  11  25  40  69 100 153 193 244 300 355 425
#     4  11  26  49  73 109 141 183 245 302 368 443
#     4  11  25  47  75 105 142 185 242 299 367 436
#
# _framework density 24.466729999999998
#
# number of rings (size 3 to 8) (size 9 to 14) (size 15 to 20)
#    0.000    1.000    1.667    4.000    4.667    8.000 
#    6.000    0.000    0.000    0.000    0.000    0.000 
#    0.000    0.000    0.000    0.000    0.000    0.000 
#
# Total GULP energy -67130.819455 kJ/mol
# GULP energy per Si atom -5594.234955 kJ/mol
# Density = 2.441104 g / cm^3
# Si number density = 24.466730 Si / 1000 Ang^3
#
#
#
# Elastic Constant Matrix: (Units=GPa)
#
#
# Indices 1 2 3 4 5 6 
#
# 1 119.6435 57.9163 13.0911 12.8047 -12.5647 -4.5352
# 2 57.9163 210.1200 15.8745 23.2739 -14.4438 -22.8595
# 3 13.0911 15.8745 68.3242 19.8201 -5.3798 -6.0022
# 4 12.8047 23.2739 19.8201 37.2283 -4.7348 -1.5139
# 5 -12.5647 -14.4438 -5.3798 -4.7348 36.6138 1.9191
# 6 -4.5352 -22.8595 -6.0022 -1.5139 1.9191 58.6614
#
#
#
# Elastic Compliance Matrix: (Units=1/GPa)
#
#
# Indices 1 2 3 4 5 6 
#
# 1 0.009979 -0.002444 -0.000861 -0.001181 0.002201 -0.000371
# 2 -0.002444 0.006030 0.000142 -0.002782 0.001093 0.002068
# 3 -0.000861 0.000142 0.017586 -0.008953 0.001107 0.001521
# 4 -0.001181 -0.002782 -0.008953 0.033930 0.001636 -0.001269
# 5 0.002201 0.001093 0.001107 0.001636 0.028883 -0.000193
# 6 -0.000371 0.002068 0.001521 -0.001269 -0.000193 0.017953
#
#
# Mechanical properties :
#
#
# Convention : Reuss Voigt Hill
#
# Bulk Modulus (GPa) = 36.67095 63.53905 50.10500
# Shear Modulus (GPa) = 38.52797 47.24774 42.88786
#
# Velocity S-wave (km/s) = 3.97257 4.39920 4.19131
# Velocity P-wave (km/s) = 6.00519 7.19930 6.62919
#
# Compressibility (1/GPa) = 0.02726954
#
# Stress axis : x y z
#
# Youngs Moduli (GPa) = 100.21284 165.82969 56.86375
#
# Poissons Ratio (x) = 0.40524 0.04895
# Poissons Ratio (y) = 0.24489 -0.00807
# Poissons Ratio (z) = 0.08626 -0.02352
#
# Static dielectric constant tensor:
#      x y z
#    x 1.895210 -0.039060 0.081540 
#    y -0.039060 1.844980 0.043410 
#    z 0.081540 0.043410 2.011720 
# 
# From -- ./inp_files/110978.got.cif
#   From: 2010.05.17/outbox.cif.g08.bks.cpg/sg2_56_cif.got.tgz:110978.got - 2010.06.03 11:33:40.
