data_PCOD9063484
_publ_section_title
;
Structure prediction by ZEFSAII (Michael W. Deem and Ramdas Pophale) SiO2 
 PCOD9063484
Probable space group: P -1
;
_chemical_formula_sum "Si O2"
_cell_formula_units_Z 16
_cell_length_a 8.942008
_cell_length_b 22.650343
_cell_length_c 14.142491
_cell_angle_alpha 150.216412
_cell_angle_beta 31.637850
_cell_angle_gamma 129.914320
_cell_volume 692.374473
_symmetry_space_group_name_H-M "P -1"
_symmetry_group_IT_number 2
_symmetry_cell_setting 'triclinic'
loop_
_space_group_symop_operation_xyz
x,y,z
-x,-y,-z
loop_
_atom_site_type_symbol
_atom_site_label
_atom_site_fract_x
_atom_site_fract_y
_atom_site_fract_z
Si Si1 0.362219 0.893676 0.300207
Si Si2 0.574973 0.656852 0.719937
Si Si3 0.300235 0.088079 0.314108
Si Si4 0.641516 0.076477 0.313923
Si Si5 0.249663 0.365262 0.712702
Si Si6 0.753295 0.388333 0.341792
Si Si7 0.748596 0.465993 0.900782
Si Si8 0.471897 0.277339 0.840591
O O1 0.448754 0.823309 0.256511
O O2 0.995429 0.948070 0.562189
O O3 0.497873 0.001001 0.356673
O O4 0.503047 0.785416 0.994388
O O5 0.605698 0.540577 0.612852
O O6 0.312436 0.669736 0.802147
O O7 0.903762 0.611568 0.427128
O O8 0.482153 0.082542 0.306110
O O9 0.182687 0.238115 0.557544
O O10 0.500000 0.000000 0.000000
O O11 0.597385 0.205192 0.573989
O O12 0.000000 0.000000 0.000000
O O13 0.565599 0.347575 0.465576
O O14 0.269540 0.400574 0.859548
O O15 0.000000 0.500000 0.000000
O O16 0.105868 0.346599 0.121870
O O17 0.630152 0.380392 0.914663
O O18 0.500000 0.500000 0.000000
#
# Coordination Sequence:
#
# PCOD9063484 Si02
#       8
#     2   2   2   2   2   2   2   2
#     4  12  28  46  75 105 148 194 252 302 368 445
#     4  11  24  44  69 107 145 195 242 304 371 436
#     4  12  29  50  80 109 149 199 250 305 378 445
#     4  12  28  50  75 105 149 196 250 306 369 445
#     4  12  26  46  74 109 148 191 244 304 367 446
#     4  11  25  41  72  99 148 186 244 300 373 433
#     4  12  24  42  69 104 147 189 239 305 369 436
#     4  12  26  45  72 108 147 191 247 305 373 437
#
# _framework density 23.108882999999999
#
# number of rings (size 3 to 8) (size 9 to 14) (size 15 to 20)
#    0.000    0.250    2.500    6.000    8.750    1.000 
#    0.000    0.000    0.000    0.000    0.000    0.000 
#    0.000    0.000    0.000    0.000    0.000    0.000 
#
# Total GULP energy -89659.484712 kJ/mol
# GULP energy per Si atom -5603.717794 kJ/mol
# Density = 2.305629 g / cm^3
# Si number density = 23.108883 Si / 1000 Ang^3
#
#
#
# Elastic Constant Matrix: (Units=GPa)
#
#
# Indices 1 2 3 4 5 6 
#
# 1 101.8636 7.4502 35.9137 3.5519 -10.2272 1.6140
# 2 7.4502 95.2310 24.5540 -15.5109 -10.8238 11.5747
# 3 35.9137 24.5540 84.2663 -11.2818 8.6188 8.1364
# 4 3.5519 -15.5109 -11.2818 45.5330 9.8833 -0.4977
# 5 -10.2272 -10.8238 8.6188 9.8833 46.5639 4.1545
# 6 1.6140 11.5747 8.1364 -0.4977 4.1545 35.8703
#
#
#
# Elastic Compliance Matrix: (Units=1/GPa)
#
#
# Indices 1 2 3 4 5 6 
#
# 1 0.012697 0.000688 -0.006582 -0.003448 0.004891 0.000085
# 2 0.000688 0.012651 -0.003649 0.002540 0.003555 -0.003662
# 3 -0.006582 -0.003649 0.017200 0.004897 -0.006372 -0.001622
# 4 -0.003448 0.002540 0.004897 0.025707 -0.006470 -0.000669
# 5 0.004891 0.003555 -0.006372 -0.006470 0.026201 -0.003046
# 6 0.000085 -0.003662 -0.001622 -0.000669 -0.003046 0.029767
#
#
# Mechanical properties :
#
#
# Convention : Reuss Voigt Hill
#
# Bulk Modulus (GPa) = 42.62472 46.35518 44.48995
# Shear Modulus (GPa) = 33.08407 39.82296 36.45351
#
# Velocity S-wave (km/s) = 3.78783 4.15574 3.97604
# Velocity P-wave (km/s) = 6.13314 6.56733 6.35395
#
# Compressibility (1/GPa) = 0.02346056
#
# Stress axis : x y z
#
# Youngs Moduli (GPa) = 78.75700 79.04692 58.14053
#
# Poissons Ratio (x) = -0.05436 0.38268
# Poissons Ratio (y) = -0.05416 0.21217
# Poissons Ratio (z) = 0.51838 0.28846
#
# Static dielectric constant tensor:
#      x y z
#    x 1.914170 -0.026750 0.003260 
#    y -0.026750 1.887980 0.019100 
#    z 0.003260 0.019100 1.812160 
# 
# From -- ./inp_files/508734.got.cif
#   From: 2010.05.17/outbox.cif.g08.bks.cpg/sg2_255_cif.got.tgz:508734.got - 2010.06.03 11:33:40.
