data_PCOD9063627
_publ_section_title
;
Structure prediction by ZEFSAII (Michael W. Deem and Ramdas Pophale) SiO2 
 PCOD9063627
Probable space group: P -1
;
_chemical_formula_sum "Si O2"
_cell_formula_units_Z 16
_cell_length_a 12.965523
_cell_length_b 16.607504
_cell_length_c 7.339799
_cell_angle_alpha 67.842804
_cell_angle_beta 70.017570
_cell_angle_gamma 26.014709
_cell_volume 641.979738
_symmetry_space_group_name_H-M "P -1"
_symmetry_group_IT_number 2
_symmetry_cell_setting 'triclinic'
loop_
_space_group_symop_operation_xyz
x,y,z
-x,-y,-z
loop_
_atom_site_type_symbol
_atom_site_label
_atom_site_fract_x
_atom_site_fract_y
_atom_site_fract_z
Si Si1 0.627456 0.172518 0.259567
Si Si2 0.538369 0.827699 0.172394
Si Si3 0.514983 0.404540 0.850231
Si Si4 0.868824 0.672600 0.846819
Si Si5 0.980699 0.769358 0.905826
Si Si6 0.353194 0.187721 0.486173
Si Si7 0.571991 0.613473 0.438403
Si Si8 0.915792 0.255118 0.742444
O O1 0.463213 0.202563 0.343178
O O2 0.578257 0.259006 0.401084
O O3 0.557621 0.287732 0.043046
O O4 0.885793 0.950478 0.270477
O O5 0.642466 0.804583 0.305681
O O6 0.628797 0.665652 0.264339
O O7 0.255836 0.015333 0.192802
O O8 0.606531 0.834996 0.947307
O O9 0.567592 0.345355 0.658920
O O10 0.691705 0.354390 0.851492
O O11 0.240398 0.622428 0.830749
O O12 0.951759 0.700298 0.874118
O O13 0.871394 0.666707 0.631990
O O14 0.000000 0.500000 0.000000
O O15 0.983751 0.763291 0.128988
O O16 0.500000 0.000000 0.500000
O O17 0.805198 0.398858 0.542605
#
# Coordination Sequence:
#
# PCOD9063627 Si02
#       8
#     2   2   2   2   2   2   2   2
#     4  11  26  48  76 107 149 192 244 303 372 439
#     4  11  26  47  71 108 147 193 237 296 368 439
#     4  12  26  52  73 106 148 192 251 305 374 431
#     4  12  26  45  72 106 149 194 241 298 365 441
#     4  12  25  46  76 104 148 199 244 303 368 439
#     4  11  24  44  71 108 144 185 239 291 359 438
#     4  11  26  47  73 109 144 184 254 301 362 442
#     4  12  27  48  78 105 147 197 244 316 367 430
#
# _framework density 24.922905
#
# number of rings (size 3 to 8) (size 9 to 14) (size 15 to 20)
#    0.000    0.500    2.500    5.250    7.000    2.000 
#    0.000    0.000    0.000    0.000    0.000    0.000 
#    0.000    0.000    0.000    0.000    0.000    0.000 
#
# Total GULP energy -89598.554455 kJ/mol
# GULP energy per Si atom -5599.909653 kJ/mol
# Density = 2.486618 g / cm^3
# Si number density = 24.922905 Si / 1000 Ang^3
#
#
#
# Elastic Constant Matrix: (Units=GPa)
#
#
# Indices 1 2 3 4 5 6 
#
# 1 92.0558 33.0046 42.4253 -6.0907 9.8855 -5.1119
# 2 33.0046 117.4535 30.6686 -13.0792 8.7710 -10.7825
# 3 42.4253 30.6686 135.0667 -5.4891 24.6255 14.6957
# 4 -6.0907 -13.0792 -5.4891 42.5183 6.5924 -0.6354
# 5 9.8855 8.7710 24.6255 6.5924 51.6015 3.8895
# 6 -5.1119 -10.7825 14.6957 -0.6354 3.8895 35.8565
#
#
#
# Elastic Compliance Matrix: (Units=1/GPa)
#
#
# Indices 1 2 3 4 5 6 
#
# 1 0.013858 -0.002441 -0.003960 0.000874 -0.000685 0.002955
# 2 -0.002441 0.010369 -0.001658 0.002857 -0.001142 0.003624
# 3 -0.003960 -0.001658 0.010233 0.000725 -0.003569 -0.004857
# 4 0.000874 0.002857 0.000725 0.025316 -0.004354 0.001608
# 5 -0.000685 -0.001142 -0.003569 -0.004354 0.022073 -0.001450
# 6 0.002955 0.003624 -0.004857 0.001608 -0.001450 0.031576
#
#
# Mechanical properties :
#
#
# Convention : Reuss Voigt Hill
#
# Bulk Modulus (GPa) = 54.51608 61.86366 58.18987
# Shear Modulus (GPa) = 36.85772 41.89375 39.37574
#
# Velocity S-wave (km/s) = 3.84978 4.10437 3.97911
# Velocity P-wave (km/s) = 6.45619 6.88019 6.67156
#
# Compressibility (1/GPa) = 0.01834321
#
# Stress axis : x y z
#
# Youngs Moduli (GPa) = 72.15836 96.44303 97.72606
#
# Poissons Ratio (x) = 0.23538 0.38700
# Poissons Ratio (y) = 0.17611 0.16201
# Poissons Ratio (z) = 0.28575 0.15988
#
# Static dielectric constant tensor:
#      x y z
#    x 1.992870 -0.194130 -0.051070 
#    y -0.194130 2.460280 0.194720 
#    z -0.051070 0.194720 2.025850 
# 
# From -- ./inp_files/272514.got.cif
#   From: 2010.05.17/outbox.cif.g08.bks.cpg/sg2_137_cif.got.tgz:272514.got - 2010.06.03 11:33:40.
