data_PCOD9063266
_publ_section_title
;
Structure prediction by ZEFSAII (Michael W. Deem and Ramdas Pophale) SiO2 
 PCOD9063266
Probable space group: P -1
;
_chemical_formula_sum "Si O2"
_cell_formula_units_Z 10
_cell_length_a 8.037612
_cell_length_b 9.796943
_cell_length_c 12.394085
_cell_angle_alpha 41.236850
_cell_angle_beta 70.175653
_cell_angle_gamma 44.680268
_cell_volume 410.119966
_symmetry_space_group_name_H-M "P -1"
_symmetry_group_IT_number 2
_symmetry_cell_setting 'triclinic'
loop_
_space_group_symop_operation_xyz
x,y,z
-x,-y,-z
loop_
_atom_site_type_symbol
_atom_site_label
_atom_site_fract_x
_atom_site_fract_y
_atom_site_fract_z
Si Si1 0.773521 0.760036 0.648100
Si Si2 0.251617 0.138624 0.174459
Si Si3 0.792169 0.597246 0.402882
Si Si4 0.303956 0.655082 0.051315
Si Si5 0.254684 0.754875 0.239994
O O1 0.773053 0.898703 0.672260
O O2 0.788665 0.504584 0.827009
O O3 0.500000 0.000000 0.500000
O O4 0.446779 0.042006 0.784382
O O5 0.971257 0.398533 0.379633
O O6 0.264125 0.954607 0.189180
O O7 0.000000 0.500000 0.000000
O O8 0.682907 0.484515 0.550076
O O9 0.000000 0.500000 0.500000
O O10 0.402111 0.623712 0.170019
O O11 0.500000 0.500000 0.000000
O O12 0.048156 0.008248 0.869885
#
# Coordination Sequence:
#
# PCOD9063266 Si02
#       5
#     2   2   2   2   2
#     4  12  24  46  74 109 147 196 250 301 374 444
#     4  12  27  47  72 115 154 189 251 311 369 436
#     4  12  25  46  79 103 150 198 247 305 368 446
#     4  11  24  43  74 105 149 193 247 303 376 443
#     4  11  25  46  71 111 145 192 249 306 371 439
#
# _framework density 24.383111
#
# number of rings (size 3 to 8) (size 9 to 14) (size 15 to 20)
#    0.000    0.400    6.000    1.800    0.000    3.200 
#    0.000    0.000    0.000    0.000    0.000    0.000 
#    0.000    0.000    0.000    0.000    0.000    0.000 
#
# Total GULP energy -55880.044816 kJ/mol
# GULP energy per Si atom -5588.004482 kJ/mol
# Density = 2.432761 g / cm^3
# Si number density = 24.383111 Si / 1000 Ang^3
#
#
#
# Elastic Constant Matrix: (Units=GPa)
#
#
# Indices 1 2 3 4 5 6 
#
# 1 79.9434 55.8376 44.1464 2.9787 25.0056 15.5029
# 2 55.8376 240.2554 64.0715 34.3953 10.8537 -2.4970
# 3 44.1464 64.0715 127.0670 -5.8339 7.1521 -18.7725
# 4 2.9787 34.3953 -5.8339 54.2208 -4.2216 13.0518
# 5 25.0056 10.8537 7.1521 -4.2216 40.9769 -7.7598
# 6 15.5029 -2.4970 -18.7725 13.0518 -7.7598 53.5140
#
#
#
# Elastic Compliance Matrix: (Units=1/GPa)
#
#
# Indices 1 2 3 4 5 6 
#
# 1 0.028259 -0.003851 -0.008956 0.002081 -0.017194 -0.014509
# 2 -0.003851 0.006091 -0.001690 -0.004235 0.000970 0.001981
# 3 -0.008956 -0.001690 0.012696 0.001570 0.005250 0.007348
# 4 0.002081 -0.004235 0.001570 0.022608 0.000839 -0.005642
# 5 -0.017194 0.000970 0.005250 0.000839 0.036062 0.011893
# 6 -0.014509 0.001981 0.007348 -0.005642 0.011893 0.028660
#
#
# Mechanical properties :
#
#
# Convention : Reuss Voigt Hill
#
# Bulk Modulus (GPa) = 55.39730 86.15296 70.77513
# Shear Modulus (GPa) = 29.51832 48.62303 39.07068
#
# Velocity S-wave (km/s) = 3.48315 4.47041 4.00730
# Velocity P-wave (km/s) = 6.24062 7.87755 7.10638
#
# Compressibility (1/GPa) = 0.01805142
#
# Stress axis : x y z
#
# Youngs Moduli (GPa) = 35.38727 164.17742 78.76759
#
# Poissons Ratio (x) = 0.63226 0.70545
# Poissons Ratio (y) = 0.13628 0.13310
# Poissons Ratio (z) = 0.31693 0.27742
#
# Static dielectric constant tensor:
#      x y z
#    x 1.992250 -0.024100 0.024150 
#    y -0.024100 2.060060 -0.031280 
#    z 0.024150 -0.031280 1.995790 
# 
# From -- ./inp_files/146738.got.cif
#   From: 2010.05.17/outbox.cif.g08.bks.cpg/sg2_74_cif.got.tgz:146738.got - 2010.06.03 11:33:40.
