data_PCOD9063462
_publ_section_title
;
Structure prediction by ZEFSAII (Michael W. Deem and Ramdas Pophale) SiO2 
 PCOD9063462
Probable space group: P -1
;
_chemical_formula_sum "Si O2"
_cell_formula_units_Z 16
_cell_length_a 14.730590
_cell_length_b 7.278060
_cell_length_c 7.890752
_cell_angle_alpha 109.287974
_cell_angle_beta 59.083218
_cell_angle_gamma 123.184369
_cell_volume 605.983738
_symmetry_space_group_name_H-M "P -1"
_symmetry_group_IT_number 2
_symmetry_cell_setting 'triclinic'
loop_
_space_group_symop_operation_xyz
x,y,z
-x,-y,-z
loop_
_atom_site_type_symbol
_atom_site_label
_atom_site_fract_x
_atom_site_fract_y
_atom_site_fract_z
Si Si1 0.027542 0.269451 0.391666
Si Si2 0.933957 0.131620 0.823599
Si Si3 0.324136 0.088194 0.962310
Si Si4 0.184637 0.710386 0.533042
Si Si5 0.813040 0.579457 0.247319
Si Si6 0.382553 0.550620 0.870700
Si Si7 0.362069 0.333646 0.353330
Si Si8 0.576109 0.199935 0.745183
O O1 0.972797 0.218151 0.619980
O O2 0.918389 0.219247 0.355508
O O3 0.132223 0.518549 0.379427
O O4 0.084622 0.115002 0.244833
O O5 0.047359 0.269439 0.875157
O O6 0.807984 0.107348 0.993655
O O7 0.330615 0.168115 0.175255
O O8 0.346775 0.305156 0.899715
O O9 0.436121 0.043502 0.803065
O O10 0.186571 0.587953 0.663839
O O11 0.323089 0.873018 0.413733
O O12 0.725911 0.469254 0.143047
O O13 0.751705 0.717946 0.436669
O O14 0.512283 0.635424 0.684125
O O15 0.406833 0.715503 0.053177
O O16 0.392598 0.575244 0.320601
#
# Coordination Sequence:
#
# PCOD9063462 Si02
#       8
#     2   2   2   2   2   2   2   2
#     4   9  17  30  50  70  90 119 159 200 226 262
#     4  10  18  29  47  72  96 119 153 191 231 275
#     4   9  16  28  45  67  95 124 153 188 228 271
#     4   9  17  31  50  70  90 119 160 197 228 264
#     4  10  18  27  45  73  98 121 151 189 233 278
#     4   9  16  26  44  70  98 123 150 190 233 271
#     4   8  14  26  44  67  90 118 161 200 222 252
#     4   8  15  28  47  68  92 121 154 192 229 266
#
# _framework density 26.403348999999999
#
# number of rings (size 3 to 8) (size 9 to 14) (size 15 to 20)
#    0.000    3.000    0.000    5.625    0.000    0.500 
#    0.000    0.625    0.000   13.500    0.000   22.750 
#    0.000    2.000    0.000    0.000    0.000    0.000 
#
# Total GULP energy -89576.371208 kJ/mol
# GULP energy per Si atom -5598.523200 kJ/mol
# Density = 2.634325 g / cm^3
# Si number density = 26.403349 Si / 1000 Ang^3
#
#
#
# Elastic Constant Matrix: (Units=GPa)
#
#
# Indices 1 2 3 4 5 6 
#
# 1 183.9406 36.8206 50.4342 -19.1489 -39.2536 34.0902
# 2 36.8206 51.9018 34.3798 -13.5425 -12.6010 15.7564
# 3 50.4342 34.3798 66.1337 -11.8602 -42.5505 17.5200
# 4 -19.1489 -13.5425 -11.8602 23.9504 9.7429 -14.7660
# 5 -39.2536 -12.6010 -42.5505 9.7429 48.0842 -15.2155
# 6 34.0902 15.7564 17.5200 -14.7660 -15.2155 44.3576
#
#
#
# Elastic Compliance Matrix: (Units=1/GPa)
#
#
# Indices 1 2 3 4 5 6 
#
# 1 0.007686 -0.002457 -0.001704 0.000805 0.002988 -0.003068
# 2 -0.002457 0.039373 -0.028833 0.012155 -0.020875 -0.003824
# 3 -0.001704 -0.028833 0.058664 -0.005672 0.044692 0.001823
# 4 0.000805 0.012155 -0.005672 0.058495 -0.008661 0.013805
# 5 0.002988 -0.020875 0.044692 -0.008661 0.060789 0.005435
# 6 -0.003068 -0.003824 0.001823 0.013805 0.005435 0.032000
#
#
# Mechanical properties :
#
#
# Convention : Reuss Voigt Hill
#
# Bulk Modulus (GPa) = 25.16650 60.58279 42.87464
# Shear Modulus (GPa) = 14.87028 35.30120 25.08574
#
# Velocity S-wave (km/s) = 2.37575 3.66046 3.08571
# Velocity P-wave (km/s) = 4.13253 6.39220 5.38229
#
# Compressibility (1/GPa) = 0.03973537
#
# Stress axis : x y z
#
# Youngs Moduli (GPa) = 130.11190 25.39784 17.04618
#
# Poissons Ratio (x) = 0.06239 0.02905
# Poissons Ratio (y) = 0.31964 0.49149
# Poissons Ratio (z) = 0.22174 0.73230
#
# Static dielectric constant tensor:
#      x y z
#    x 2.049340 -0.003250 -0.005700 
#    y -0.003250 2.062590 -0.056900 
#    z -0.005700 -0.056900 2.064930 
# 
# From -- ./inp_files/298508.got.cif
#   From: 2010.05.17/outbox.cif.g08.bks.cpg/sg2_150_cif.got.tgz:298508.got - 2010.06.03 11:33:40.
