data_PCOD9063124
_publ_section_title
;
Structure prediction by ZEFSAII (Michael W. Deem and Ramdas Pophale) SiO2 
 PCOD9063124
Probable space group: P -1
;
_chemical_formula_sum "Si O2"
_cell_formula_units_Z 16
_cell_length_a 11.846337
_cell_length_b 10.003629
_cell_length_c 9.163642
_cell_angle_alpha 61.056441
_cell_angle_beta 124.373568
_cell_angle_gamma 124.995558
_cell_volume 713.364069
_symmetry_space_group_name_H-M "P -1"
_symmetry_group_IT_number 2
_symmetry_cell_setting 'triclinic'
loop_
_space_group_symop_operation_xyz
x,y,z
-x,-y,-z
loop_
_atom_site_type_symbol
_atom_site_label
_atom_site_fract_x
_atom_site_fract_y
_atom_site_fract_z
Si Si1 0.385501 0.311304 0.050813
Si Si2 0.940659 0.127119 0.327899
Si Si3 0.346534 0.058035 0.919664
Si Si4 0.077499 0.336972 0.803416
Si Si5 0.118730 0.418582 0.114895
Si Si6 0.163106 0.717049 0.574011
Si Si7 0.543727 0.197455 0.444570
Si Si8 0.416268 0.742369 0.215638
O O1 0.418232 0.258794 0.263125
O O2 0.500000 0.500000 0.000000
O O3 0.413560 0.176346 0.043597
O O4 0.223890 0.304458 0.893580
O O5 0.837267 0.170136 0.347293
O O6 0.079398 0.293440 0.288144
O O7 0.832155 0.027658 0.170508
O O8 0.000000 0.000000 0.500000
O O9 0.416623 0.188573 0.767376
O O10 0.377877 0.892524 0.045756
O O11 0.098753 0.528725 0.690643
O O12 0.937610 0.244169 0.643306
O O13 0.070758 0.316124 0.983469
O O14 0.288346 0.564627 0.161710
O O15 0.000000 0.500000 0.000000
O O16 0.312014 0.728927 0.594803
O O17 0.582556 0.252103 0.611664
O O18 0.500000 0.000000 0.500000
#
# Coordination Sequence:
#
# PCOD9063124 Si02
#       8
#     2   2   2   2   2   2   2   2
#     4  12  25  44  69 105 142 182 236 292 349 414
#     4  12  27  46  71 105 145 181 233 298 354 413
#     4  11  24  45  70 100 144 184 230 291 355 411
#     4  11  24  43  71 102 138 184 233 286 344 417
#     4  12  23  44  74 102 135 187 243 280 341 431
#     4  11  24  44  71  98 141 186 228 282 357 415
#     4  12  25  43  70 102 139 181 235 288 348 420
#     4  11  24  43  74 102 136 189 237 281 349 427
#
# _framework density 22.428940999999998
#
# number of rings (size 3 to 8) (size 9 to 14) (size 15 to 20)
#    0.000    0.500    5.000    3.000    3.500    3.000 
#    0.000    3.750    0.000    0.000    0.000    0.000 
#    0.000    0.000    0.000    0.000    0.000    0.000 
#
# Total GULP energy -89296.872140 kJ/mol
# GULP energy per Si atom -5581.054509 kJ/mol
# Density = 2.237789 g / cm^3
# Si number density = 22.428941 Si / 1000 Ang^3
#
#
#
# Elastic Constant Matrix: (Units=GPa)
#
#
# Indices 1 2 3 4 5 6 
#
# 1 51.2441 12.5383 11.3307 0.4386 -10.1445 7.2975
# 2 12.5383 80.9023 31.8535 -4.0876 -5.4131 16.5986
# 3 11.3307 31.8535 110.6908 0.3432 2.3180 0.7006
# 4 0.4386 -4.0876 0.3432 39.3998 -5.9336 0.6616
# 5 -10.1445 -5.4131 2.3180 -5.9336 43.2738 0.7257
# 6 7.2975 16.5986 0.7006 0.6616 0.7257 24.7422
#
#
#
# Elastic Compliance Matrix: (Units=1/GPa)
#
#
# Indices 1 2 3 4 5 6 
#
# 1 0.022117 -0.001012 -0.002049 0.000572 0.005346 -0.005958
# 2 -0.001012 0.016972 -0.004773 0.002400 0.002657 -0.011094
# 3 -0.002049 -0.004773 0.010636 -0.000901 -0.001831 0.003583
# 4 0.000572 0.002400 -0.000901 0.026297 0.004132 -0.002578
# 5 0.005346 0.002657 -0.001831 0.004132 0.025429 -0.004164
# 6 -0.005958 -0.011094 0.003583 -0.002578 -0.004164 0.049707
#
#
# Mechanical properties :
#
#
# Convention : Reuss Voigt Hill
#
# Bulk Modulus (GPa) = 29.36259 39.36471 34.36365
# Shear Modulus (GPa) = 28.06188 33.95746 31.00967
#
# Velocity S-wave (km/s) = 3.54099 3.89524 3.72233
# Velocity P-wave (km/s) = 5.46241 6.14975 5.81625
#
# Compressibility (1/GPa) = 0.03405695
#
# Stress axis : x y z
#
# Youngs Moduli (GPa) = 45.21397 58.92050 94.02063
#
# Poissons Ratio (x) = 0.05962 0.19263
# Poissons Ratio (y) = 0.04575 0.44879
# Poissons Ratio (z) = 0.09263 0.28125
#
# Static dielectric constant tensor:
#      x y z
#    x 1.903890 -0.026750 -0.019070 
#    y -0.026750 1.838150 0.020820 
#    z -0.019070 0.020820 1.877640 
# 
# From -- ./inp_files/243209.got.cif
#   From: 2010.05.17/outbox.cif.g08.bks.cpg/sg2_122_cif.got.tgz:243209.got - 2010.06.03 11:33:40.
