data_PCOD9063796
_publ_section_title
;
Structure prediction by ZEFSAII (Michael W. Deem and Ramdas Pophale) SiO2 
 PCOD9063796
Probable space group: P -1
;
_chemical_formula_sum "Si O2"
_cell_formula_units_Z 15
_cell_length_a 9.774403
_cell_length_b 11.996222
_cell_length_c 8.691913
_cell_angle_alpha 42.811246
_cell_angle_beta 63.437213
_cell_angle_gamma 66.834481
_cell_volume 615.919468
_symmetry_space_group_name_H-M "P -1"
_symmetry_group_IT_number 2
_symmetry_cell_setting 'triclinic'
loop_
_space_group_symop_operation_xyz
x,y,z
-x,-y,-z
loop_
_atom_site_type_symbol
_atom_site_label
_atom_site_fract_x
_atom_site_fract_y
_atom_site_fract_z
Si Si1 0.082046 0.820949 0.680128
Si Si2 0.176705 0.343171 0.175655
Si Si3 0.483576 0.100689 0.247654
Si Si4 0.344750 0.350870 0.634634
Si Si5 0.907264 0.760077 0.348780
Si Si6 0.668225 0.396953 0.339604
Si Si7 0.809678 0.151679 0.054134
Si Si8 0.500000 0.000000 0.000000
O O1 0.227733 0.777925 0.536782
O O2 0.138338 0.822386 0.824485
O O3 0.955068 0.696433 0.836880
O O4 0.000000 0.000000 0.500000
O O5 0.317654 0.200900 0.236391
O O6 0.106808 0.333213 0.389837
O O7 0.252918 0.506500 0.931282
O O8 0.630048 0.205841 0.065725
O O9 0.500000 0.000000 0.500000
O O10 0.505837 0.991381 0.194597
O O11 0.197044 0.315163 0.649826
O O12 0.488653 0.387061 0.419241
O O13 0.313791 0.501727 0.616199
O O14 0.409665 0.189246 0.863194
O O15 0.842348 0.953824 0.206837
O O16 0.080836 0.760740 0.202991
#
# Coordination Sequence:
#
# PCOD9063796 Si02
#       8
#     2   2   2   2   2   2   2   1
#     4  12  26  47  78 108 147 205 254 319 386 468
#     4  12  25  49  74 111 154 205 254 316 403 457
#     4  12  24  45  75 119 150 200 264 317 377 468
#     4  11  25  49  74 114 151 203 254 324 387 469
#     4  11  24  44  74 104 160 191 257 324 384 463
#     4  11  28  47  73 112 155 199 262 316 395 475
#     4  11  25  44  72 118 150 190 262 325 380 458
#     4  12  24  42  86 108 152 204 258 322 386 452
#
# _framework density 24.353833000000002
#
# number of rings (size 3 to 8) (size 9 to 14) (size 15 to 20)
#    0.000    0.533    5.333    1.200    5.600    1.600 
#    0.000    1.333    0.000    0.000    0.000    0.000 
#    0.000    0.000    0.000    0.000    0.000    0.000 
#
# Total GULP energy -83867.314392 kJ/mol
# GULP energy per Si atom -5591.154293 kJ/mol
# Density = 2.429840 g / cm^3
# Si number density = 24.353833 Si / 1000 Ang^3
#
#
#
# Elastic Constant Matrix: (Units=GPa)
#
#
# Indices 1 2 3 4 5 6 
#
# 1 105.8845 32.2306 51.3205 25.3099 -24.8736 5.1479
# 2 32.2306 110.2295 36.2309 21.6911 11.5998 -5.2865
# 3 51.3205 36.2309 122.4669 24.1550 -25.1475 9.2019
# 4 25.3099 21.6911 24.1550 38.3941 -2.8351 -2.5981
# 5 -24.8736 11.5998 -25.1475 -2.8351 38.6373 5.4986
# 6 5.1479 -5.2865 9.2019 -2.5981 5.4986 40.3241
#
#
#
# Elastic Compliance Matrix: (Units=1/GPa)
#
#
# Indices 1 2 3 4 5 6 
#
# 1 0.015635 -0.004011 -0.001680 -0.006494 0.010263 -0.003956
# 2 -0.004011 0.013445 -0.004169 -0.002779 -0.010167 0.004433
# 3 -0.001680 -0.004169 0.013242 -0.004524 0.009154 -0.004894
# 4 -0.006494 -0.002779 -0.004524 0.034713 -0.004359 0.004328
# 5 0.010263 -0.010167 0.009154 -0.004359 0.042722 -0.010838
# 6 -0.003956 0.004433 -0.004894 0.004328 -0.010838 0.028759
#
#
# Mechanical properties :
#
#
# Convention : Reuss Voigt Hill
#
# Bulk Modulus (GPa) = 44.24534 64.23832 54.24183
# Shear Modulus (GPa) = 28.44624 38.05772 33.25198
#
# Velocity S-wave (km/s) = 3.42137 3.95739 3.69910
# Velocity P-wave (km/s) = 5.81505 6.87863 6.36908
#
# Compressibility (1/GPa) = 0.02260125
#
# Stress axis : x y z
#
# Youngs Moduli (GPa) = 63.95972 74.37878 75.51498
#
# Poissons Ratio (x) = 0.29836 0.12684
# Poissons Ratio (y) = 0.25657 0.31484
# Poissons Ratio (z) = 0.10743 0.31010
#
# Static dielectric constant tensor:
#      x y z
#    x 1.897800 -0.054820 -0.013860 
#    y -0.054820 2.004750 -0.075490 
#    z -0.013860 -0.075490 1.979820 
# 
# From -- ./inp_files/183960.got.cif
#   From: 2010.05.17/outbox.cif.g08.bks.cpg/sg2_92_cif.got.tgz:183960.got - 2010.06.03 11:33:40.
