data_PCOD9063880
_publ_section_title
;
Structure prediction by ZEFSAII (Michael W. Deem and Ramdas Pophale) SiO2 
 PCOD9063880
Probable space group: P -1
;
_chemical_formula_sum "Si O2"
_cell_formula_units_Z 12
_cell_length_a 7.976476
_cell_length_b 6.588484
_cell_length_c 14.660940
_cell_angle_alpha 118.857397
_cell_angle_beta 114.420736
_cell_angle_gamma 103.872960
_cell_volume 512.793729
_symmetry_space_group_name_H-M "P -1"
_symmetry_group_IT_number 2
_symmetry_cell_setting 'triclinic'
loop_
_space_group_symop_operation_xyz
x,y,z
-x,-y,-z
loop_
_atom_site_type_symbol
_atom_site_label
_atom_site_fract_x
_atom_site_fract_y
_atom_site_fract_z
Si Si1 0.623401 0.157834 0.155502
Si Si2 0.142931 0.876629 0.035282
Si Si3 0.602264 0.308179 0.627773
Si Si4 0.072248 0.704718 0.185603
Si Si5 0.178145 0.310350 0.576982
Si Si6 0.956280 0.790178 0.672615
O O1 0.781966 0.486058 0.286044
O O2 0.790712 0.072688 0.208091
O O3 0.405471 0.076524 0.147051
O O4 0.500000 0.000000 0.000000
O O5 0.051614 0.762303 0.089481
O O6 0.105961 0.621270 0.909419
O O7 0.000000 0.000000 0.000000
O O8 0.713135 0.296247 0.743198
O O9 0.407894 0.347489 0.613377
O O10 0.784211 0.555423 0.655628
O O11 0.500000 0.000000 0.500000
O O12 0.076863 0.955151 0.289808
O O13 0.096521 0.349189 0.469011
O O14 0.000000 0.000000 0.500000
#
# Coordination Sequence:
#
# PCOD9063880 Si02
#       6
#     2   2   2   2   2   2
#     4  12  27  46  75 104 156 196 250 310 375 446
#     4  11  25  47  73 109 150 197 248 311 378 456
#     4  12  25  46  79 106 148 198 254 308 378 451
#     4  11  24  44  76 107 144 195 254 308 379 445
#     4  12  28  48  76 112 155 197 252 316 381 447
#     4  12  27  48  75 111 152 196 257 313 379 449
#
# _framework density 23.401221
#
# number of rings (size 3 to 8) (size 9 to 14) (size 15 to 20)
#    0.000    0.333    1.667    7.000    7.000    2.000 
#    0.000    0.000    0.000    0.000    0.000    0.000 
#    0.000    0.000    0.000    0.000    0.000    0.000 
#
# Total GULP energy -66943.076151 kJ/mol
# GULP energy per Si atom -5578.589679 kJ/mol
# Density = 2.334796 g / cm^3
# Si number density = 23.401221 Si / 1000 Ang^3
#
#
#
# Elastic Constant Matrix: (Units=GPa)
#
#
# Indices 1 2 3 4 5 6 
#
# 1 128.4137 56.8862 49.0365 -2.4765 14.7953 -19.5539
# 2 56.8862 123.6732 58.4344 -9.5435 5.8713 -12.3753
# 3 49.0365 58.4344 158.0334 -3.0416 -6.2023 -20.4690
# 4 -2.4765 -9.5435 -3.0416 60.7377 -13.5753 4.0009
# 5 14.7953 5.8713 -6.2023 -13.5753 59.4867 2.2593
# 6 -19.5539 -12.3753 -20.4690 4.0009 2.2593 29.3078
#
#
#
# Elastic Compliance Matrix: (Units=1/GPa)
#
#
# Indices 1 2 3 4 5 6 
#
# 1 0.011195 -0.003866 -0.001516 -0.001248 -0.003042 0.005182
# 2 -0.003866 0.011394 -0.002998 0.001454 -0.000142 -0.000049
# 3 -0.001516 -0.002998 0.008414 -0.000026 0.001412 0.003494
# 4 -0.001248 0.001454 -0.000026 0.017809 0.004342 -0.003003
# 5 -0.003042 -0.000142 0.001412 0.004342 0.018839 -0.003149
# 6 0.005182 -0.000049 0.003494 -0.003003 -0.003149 0.040650
#
#
# Mechanical properties :
#
#
# Convention : Reuss Voigt Hill
#
# Bulk Modulus (GPa) = 70.20828 82.09272 76.15050
# Shear Modulus (GPa) = 38.51816 46.29066 42.40441
#
# Velocity S-wave (km/s) = 4.06148 4.45244 4.26145
# Velocity P-wave (km/s) = 7.21535 7.84787 7.53825
#
# Compressibility (1/GPa) = 0.01424333
#
# Stress axis : x y z
#
# Youngs Moduli (GPa) = 89.32884 87.76195 118.84861
#
# Poissons Ratio (x) = 0.33930 0.18021
# Poissons Ratio (y) = 0.34535 0.35625
# Poissons Ratio (z) = 0.13545 0.26307
#
# Static dielectric constant tensor:
#      x y z
#    x 1.913410 0.011330 -0.029020 
#    y 0.011330 1.890270 0.045870 
#    z -0.029020 0.045870 2.011510 
# 
# From -- ./inp_files/27145.got.cif
#   From: 2010.05.17/outbox.cif.g08.bks.cpg/sg2_14_cif.got.tgz:27145.got - 2010.06.03 11:33:40.
