data_PCOD9063205
_publ_section_title
;
Structure prediction by ZEFSAII (Michael W. Deem and Ramdas Pophale) SiO2 
 PCOD9063205
Probable space group: P -1
;
_chemical_formula_sum "Si O2"
_cell_formula_units_Z 14
_cell_length_a 5.853985
_cell_length_b 17.551845
_cell_length_c 9.531584
_cell_angle_alpha 37.302141
_cell_angle_beta 79.460402
_cell_angle_gamma 78.264759
_cell_volume 580.731887
_symmetry_space_group_name_H-M "P -1"
_symmetry_group_IT_number 2
_symmetry_cell_setting 'triclinic'
loop_
_space_group_symop_operation_xyz
x,y,z
-x,-y,-z
loop_
_atom_site_type_symbol
_atom_site_label
_atom_site_fract_x
_atom_site_fract_y
_atom_site_fract_z
Si Si1 0.159293 0.478888 0.150504
Si Si2 0.443472 0.292740 0.825472
Si Si3 0.982302 0.109181 0.640252
Si Si4 0.351734 0.131236 0.340520
Si Si5 0.392726 0.701902 0.718946
Si Si6 0.278642 0.105473 0.892906
Si Si7 0.834628 0.444701 0.486078
O O1 0.399361 0.390260 0.237261
O O2 0.992871 0.427381 0.357983
O O3 0.240288 0.618054 0.958159
O O4 0.000000 0.500000 0.000000
O O5 0.347673 0.228575 0.789238
O O6 0.710575 0.321025 0.722923
O O7 0.348442 0.431513 0.691471
O O8 0.369002 0.201290 0.089101
O O9 0.767370 0.217605 0.492864
O O10 0.107084 0.113670 0.468516
O O11 0.155058 0.132184 0.716721
O O12 0.894129 0.972943 0.880291
O O13 0.483140 0.207785 0.327396
O O14 0.500000 0.000000 0.500000
O O15 0.500000 0.000000 0.000000
O O16 0.000000 0.500000 0.500000
#
# Coordination Sequence:
#
# PCOD9063205 Si02
#       7
#     2   2   2   2   2   2   2
#     4  11  25  45  72 105 141 185 241 300 359 430
#     4  11  26  47  72 105 146 187 241 299 361 431
#     4  11  25  45  72 105 145 192 240 294 362 429
#     4  12  26  47  73 104 142 190 241 295 358 432
#     4  11  24  43  72 107 142 185 241 298 359 432
#     4  11  26  47  71 108 146 187 242 299 359 432
#     4  11  26  46  71 104 143 189 235 298 366 425
#
# _framework density 24.107513000000001
#
# number of rings (size 3 to 8) (size 9 to 14) (size 15 to 20)
#    0.000    0.857    0.000    6.000    0.000   17.143 
#    0.000    0.000    0.000    0.000    0.000    0.000 
#    0.000    0.000    0.000    0.000    0.000    0.000 
#
# Total GULP energy -78350.618808 kJ/mol
# GULP energy per Si atom -5596.472772 kJ/mol
# Density = 2.405264 g / cm^3
# Si number density = 24.107513 Si / 1000 Ang^3
#
#
#
# Elastic Constant Matrix: (Units=GPa)
#
#
# Indices 1 2 3 4 5 6 
#
# 1 70.7271 5.9989 21.3957 26.1706 -14.2993 -12.7218
# 2 5.9989 67.4940 20.1403 7.0341 -14.8049 -4.8750
# 3 21.3957 20.1403 115.5898 29.5666 -26.4890 -20.8893
# 4 26.1706 7.0341 29.5666 47.7031 -1.7768 -2.0314
# 5 -14.2993 -14.8049 -26.4890 -1.7768 65.3594 -8.4954
# 6 -12.7218 -4.8750 -20.8893 -2.0314 -8.4954 43.7486
#
#
#
# Elastic Compliance Matrix: (Units=1/GPa)
#
#
# Indices 1 2 3 4 5 6 
#
# 1 0.020542 0.000742 0.001911 -0.012013 0.006097 0.007595
# 2 0.000742 0.016249 -0.001364 -0.001743 0.003499 0.001974
# 3 0.001911 -0.001364 0.013638 -0.008731 0.006407 0.007754
# 4 -0.012013 -0.001743 -0.008731 0.032649 -0.006667 -0.007635
# 5 0.006097 0.003499 0.006407 -0.006667 0.021011 0.008993
# 6 0.007595 0.001974 0.007754 -0.007635 0.008993 0.030381
#
#
# Mechanical properties :
#
#
# Convention : Reuss Voigt Hill
#
# Bulk Modulus (GPa) = 18.86562 38.76454 28.81508
# Shear Modulus (GPa) = 33.43134 45.11395 39.27264
#
# Velocity S-wave (km/s) = 3.72796 4.33062 4.04054
# Velocity P-wave (km/s) = 5.13545 6.41252 5.80919
#
# Compressibility (1/GPa) = 0.05300646
#
# Stress axis : x y z
#
# Youngs Moduli (GPa) = 48.68181 61.54214 73.32305
#
# Poissons Ratio (x) = -0.04566 -0.14011
# Poissons Ratio (y) = -0.03612 0.10002
# Poissons Ratio (z) = -0.09303 0.08395
#
# Static dielectric constant tensor:
#      x y z
#    x 2.125740 -0.077090 -0.019560 
#    y -0.077090 1.902200 0.007130 
#    z -0.019560 0.007130 1.911750 
# 
# From -- ./inp_files/138382.got.cif
#   From: 2010.05.17/outbox.cif.g08.bks.cpg/sg2_70_cif.got.tgz:138382.got - 2010.06.03 11:33:40.
