data_PCOD9063051
_publ_section_title
;
Structure prediction by ZEFSAII (Michael W. Deem and Ramdas Pophale) SiO2 
 PCOD9063051
Probable space group: P -1
;
_chemical_formula_sum "Si O2"
_cell_formula_units_Z 12
_cell_length_a 8.678365
_cell_length_b 10.648112
_cell_length_c 9.862230
_cell_angle_alpha 76.416297
_cell_angle_beta 121.929565
_cell_angle_gamma 136.075168
_cell_volume 519.788753
_symmetry_space_group_name_H-M "P -1"
_symmetry_group_IT_number 2
_symmetry_cell_setting 'triclinic'
loop_
_space_group_symop_operation_xyz
x,y,z
-x,-y,-z
loop_
_atom_site_type_symbol
_atom_site_label
_atom_site_fract_x
_atom_site_fract_y
_atom_site_fract_z
Si Si1 0.119909 0.375728 0.932801
Si Si2 0.889566 0.620070 0.761332
Si Si3 0.561721 0.081959 0.158913
Si Si4 0.894192 0.921405 0.624700
Si Si5 0.607237 0.225965 0.643667
Si Si6 0.317892 0.210260 0.972173
O O1 0.028608 0.352003 0.050365
O O2 0.395140 0.591118 0.988757
O O3 0.186720 0.259508 0.979015
O O4 0.896571 0.310543 0.740903
O O5 0.827033 0.736527 0.669414
O O6 0.669353 0.400013 0.688215
O O7 0.138341 0.718281 0.757408
O O8 0.524275 0.942380 0.272978
O O9 0.375689 0.106013 0.100936
O O10 0.500000 0.000000 0.000000
O O11 0.628838 0.866720 0.546364
O O12 0.000000 0.000000 0.500000
O O13 0.131299 0.083008 0.791708
#
# Coordination Sequence:
#
# PCOD9063051 Si02
#       6
#     2   2   2   2   2   2
#     4  11  24  43  69  96 131 174 219 269 314 389
#     4  12  23  41  70  99 126 171 222 264 320 382
#     4  12  20  40  68  96 125 168 223 269 306 385
#     4  12  24  41  66  98 134 167 212 273 325 384
#     4  12  24  39  69 100 129 172 217 263 328 385
#     4  11  25  44  66  98 134 170 219 269 323 375
#
# _framework density 23.086300999999999
#
# number of rings (size 3 to 8) (size 9 to 14) (size 15 to 20)
#    0.000    0.333    6.667    3.000    0.000    3.333 
#    0.000    0.000    0.000    5.000    0.000    0.000 
#    0.000    0.000    0.000    0.000    0.000    0.000 
#
# Total GULP energy -67081.890158 kJ/mol
# GULP energy per Si atom -5590.157513 kJ/mol
# Density = 2.303376 g / cm^3
# Si number density = 23.086301 Si / 1000 Ang^3
#
#
#
# Elastic Constant Matrix: (Units=GPa)
#
#
# Indices 1 2 3 4 5 6 
#
# 1 61.3998 57.2939 45.0406 3.9747 34.0002 8.8193
# 2 57.2939 142.5279 35.1640 -16.1560 14.6014 -5.1222
# 3 45.0406 35.1640 103.8304 -1.0880 45.8767 -6.3576
# 4 3.9747 -16.1560 -1.0880 32.3384 1.1010 13.8397
# 5 34.0002 14.6014 45.8767 1.1010 45.6804 -1.0774
# 6 8.8193 -5.1222 -6.3576 13.8397 -1.0774 40.6942
#
#
#
# Elastic Compliance Matrix: (Units=1/GPa)
#
#
# Indices 1 2 3 4 5 6 
#
# 1 0.062796 -0.022200 -0.005709 -0.011772 -0.033962 -0.014191
# 2 -0.022200 0.016012 -0.000795 0.008525 0.012096 0.004123
# 3 -0.005709 -0.000795 0.019012 -0.000183 -0.014497 0.003786
# 4 -0.011772 0.008525 -0.000183 0.040794 0.004998 -0.010146
# 5 -0.033962 0.012096 -0.014497 0.004998 0.057893 0.006451
# 6 -0.014191 0.004123 0.003786 -0.010146 0.006451 0.032381
#
#
# Mechanical properties :
#
#
# Convention : Reuss Voigt Hill
#
# Bulk Modulus (GPa) = 24.74490 64.75057 44.74773
# Shear Modulus (GPa) = 16.67962 35.09322 25.88642
#
# Velocity S-wave (km/s) = 2.69083 3.90306 3.35220
# Velocity P-wave (km/s) = 4.51617 6.95844 5.86582
#
# Compressibility (1/GPa) = 0.04041237
#
# Stress axis : x y z
#
# Youngs Moduli (GPa) = 15.92448 62.45466 52.59839
#
# Poissons Ratio (x) = 1.38648 0.30027
# Poissons Ratio (y) = 0.35352 0.04183
# Poissons Ratio (z) = 0.09091 0.04967
#
# Static dielectric constant tensor:
#      x y z
#    x 1.904420 0.012840 0.050240 
#    y 0.012840 1.859940 0.018030 
#    z 0.050240 0.018030 1.843160 
# 
# From -- ./inp_files/243451.got.cif
#   From: 2010.05.17/outbox.cif.g08.bks.cpg/sg2_122_cif.got.tgz:243451.got - 2010.06.03 11:33:40.
