data_PCOD9063467
_publ_section_title
;
Structure prediction by ZEFSAII (Michael W. Deem and Ramdas Pophale) SiO2 
 PCOD9063467
Probable space group: P -1
;
_chemical_formula_sum "Si O2"
_cell_formula_units_Z 16
_cell_length_a 14.984726
_cell_length_b 11.490443
_cell_length_c 5.400024
_cell_angle_alpha 97.167896
_cell_angle_beta 105.820413
_cell_angle_gamma 132.543807
_cell_volume 593.112035
_symmetry_space_group_name_H-M "P -1"
_symmetry_group_IT_number 2
_symmetry_cell_setting 'triclinic'
loop_
_space_group_symop_operation_xyz
x,y,z
-x,-y,-z
loop_
_atom_site_type_symbol
_atom_site_label
_atom_site_fract_x
_atom_site_fract_y
_atom_site_fract_z
Si Si1 0.295313 0.386376 0.794080
Si Si2 0.582337 0.700670 0.374143
Si Si3 0.165303 0.910278 0.496315
Si Si4 0.621323 0.147162 0.938515
Si Si5 0.472213 0.795160 0.530490
Si Si6 0.886314 0.280440 0.097638
Si Si7 0.072367 0.162187 0.920038
Si Si8 0.180100 0.476926 0.425846
O O1 0.332415 0.339589 0.574179
O O2 0.194879 0.224478 0.863968
O O3 0.211638 0.424733 0.671515
O O4 0.440567 0.546009 0.079234
O O5 0.533122 0.722758 0.588721
O O6 0.684898 0.890780 0.376032
O O7 0.151774 0.847297 0.745317
O O8 0.049136 0.898428 0.355626
O O9 0.139681 0.792336 0.220619
O O10 0.578375 0.224473 0.790172
O O11 0.590152 0.002160 0.709157
O O12 0.788125 0.297017 0.104084
O O13 0.500000 0.000000 0.000000
O O14 0.329932 0.676513 0.543342
O O15 0.052354 0.446002 0.299419
O O16 0.139002 0.336228 0.160576
O O17 0.000000 0.000000 0.000000
#
# Coordination Sequence:
#
# PCOD9063467 Si02
#       8
#     2   2   2   2   2   2   2   2
#     4  11  25  44  67 108 147 195 252 294 370 444
#     4  11  24  44  69 103 147 194 249 303 368 441
#     4  11  24  44  73 107 145 197 243 308 373 440
#     4  11  26  48  77 106 139 192 252 317 382 448
#     4  11  25  47  71 106 146 187 249 314 379 442
#     4  11  25  46  76 109 147 189 250 306 380 448
#     4  11  24  44  69 101 152 195 250 301 357 446
#     4  11  25  45  71 104 150 196 239 308 368 449
#
# _framework density 26.976353
#
# number of rings (size 3 to 8) (size 9 to 14) (size 15 to 20)
#    0.000    1.000    3.750    1.500    8.750    2.000 
#    2.250    0.625    0.000    0.000    0.000    0.000 
#    0.000    0.000    0.000    0.000    0.000    0.000 
#
# Total GULP energy -89480.859039 kJ/mol
# GULP energy per Si atom -5592.553690 kJ/mol
# Density = 2.691495 g / cm^3
# Si number density = 26.976353 Si / 1000 Ang^3
#
#
#
# Elastic Constant Matrix: (Units=GPa)
#
#
# Indices 1 2 3 4 5 6 
#
# 1 166.5867 24.0013 13.9849 11.8650 14.4443 22.9569
# 2 24.0013 111.9631 13.2951 2.1953 5.9939 24.1243
# 3 13.9849 13.2951 72.1557 12.5232 4.1649 2.2404
# 4 11.8650 2.1953 12.5232 54.2790 -1.2618 7.4511
# 5 14.4443 5.9939 4.1649 -1.2618 29.2570 6.8346
# 6 22.9569 24.1243 2.2404 7.4511 6.8346 47.8502
#
#
#
# Elastic Compliance Matrix: (Units=1/GPa)
#
#
# Indices 1 2 3 4 5 6 
#
# 1 0.006789 -0.000699 -0.000789 -0.001013 -0.002593 -0.002340
# 2 -0.000699 0.010340 -0.001736 0.000795 -0.000354 -0.004870
# 3 -0.000789 -0.001736 0.014995 -0.003446 -0.001854 0.001353
# 4 -0.001013 0.000795 -0.003446 0.019904 0.002434 -0.003201
# 5 -0.002593 -0.000354 -0.001854 0.002434 0.036868 -0.004135
# 6 -0.002340 -0.004870 0.001353 -0.003201 -0.004135 0.025502
#
#
# Mechanical properties :
#
#
# Convention : Reuss Voigt Hill
#
# Bulk Modulus (GPa) = 38.94660 50.36313 44.65487
# Shear Modulus (GPa) = 38.63861 46.23884 42.43872
#
# Velocity S-wave (km/s) = 3.78870 4.14460 3.97064
# Velocity P-wave (km/s) = 5.79721 6.45085 6.13275
#
# Compressibility (1/GPa) = 0.02567618
#
# Stress axis : x y z
#
# Youngs Moduli (GPa) = 147.29135 96.71057 66.68991
#
# Poissons Ratio (x) = 0.06759 0.05262
# Poissons Ratio (y) = 0.10294 0.11579
# Poissons Ratio (z) = 0.11621 0.16791
#
# Static dielectric constant tensor:
#      x y z
#    x 2.216000 0.037800 -0.051600 
#    y 0.037800 2.054520 -0.003870 
#    z -0.051600 -0.003870 2.230140 
# 
# From -- ./inp_files/95169.got.cif
#   From: 2010.05.17/outbox.cif.g08.bks.cpg/sg2_48_cif.got.tgz:95169.got - 2010.06.03 11:33:40.
