data_PCOD9063135
_publ_section_title
;
Structure prediction by ZEFSAII (Michael W. Deem and Ramdas Pophale) SiO2 
 PCOD9063135
Probable space group: P -1
;
_chemical_formula_sum "Si O2"
_cell_formula_units_Z 15
_cell_length_a 8.233675
_cell_length_b 7.702999
_cell_length_c 12.713988
_cell_angle_alpha 107.491249
_cell_angle_beta 62.263218
_cell_angle_gamma 123.910740
_cell_volume 591.398952
_symmetry_space_group_name_H-M "P -1"
_symmetry_group_IT_number 2
_symmetry_cell_setting 'triclinic'
loop_
_space_group_symop_operation_xyz
x,y,z
-x,-y,-z
loop_
_atom_site_type_symbol
_atom_site_label
_atom_site_fract_x
_atom_site_fract_y
_atom_site_fract_z
Si Si1 0.543897 0.957914 0.637158
Si Si2 0.500000 0.500000 0.500000
Si Si3 0.461788 0.877526 0.880316
Si Si4 0.150089 0.145455 0.574104
Si Si5 0.308896 0.594146 0.364913
Si Si6 0.996373 0.781470 0.949490
Si Si7 0.444081 0.481538 0.890765
Si Si8 0.062080 0.793094 0.695068
O O1 0.678590 0.182423 0.582284
O O2 0.580203 0.984995 0.755687
O O3 0.616681 0.799711 0.537816
O O4 0.302941 0.864088 0.662382
O O5 0.235356 0.387237 0.610448
O O6 0.407244 0.525835 0.415852
O O7 0.217084 0.797163 0.913743
O O8 0.526378 0.703596 0.852493
O O9 0.500000 0.000000 0.000000
O O10 0.081416 0.999470 0.669748
O O11 0.000000 0.000000 0.500000
O O12 0.464776 0.639347 0.225605
O O13 0.079462 0.407013 0.370341
O O14 0.950729 0.732067 0.830929
O O15 0.808283 0.626273 0.052390
O O16 0.000000 0.000000 0.000000
O O17 0.500000 0.500000 0.000000
#
# Coordination Sequence:
#
# PCOD9063135 Si02
#       8
#     2   1   2   2   2   2   2   2
#     4  11  26  48  70 102 145 184 241 302 354 434
#     4  12  26  44  70 104 144 184 240 290 354 426
#     4  11  25  43  68 105 140 182 236 292 362 428
#     4  12  26  46  70 102 143 185 238 298 358 425
#     4  12  25  45  75 106 142 194 239 293 366 422
#     4  11  24  43  71 104 142 187 233 299 360 427
#     4  12  23  45  73 100 142 185 236 295 357 427
#     4  11  24  44  72 100 141 186 239 291 360 425
#
# _framework density 25.363589000000001
#
# number of rings (size 3 to 8) (size 9 to 14) (size 15 to 20)
#    0.000    0.533    4.000    4.800    0.000    1.600 
#    0.000    0.000    0.000    0.000    0.000    0.000 
#    0.000    0.000    0.000    0.000    0.000    0.000 
#
# Total GULP energy -83834.868644 kJ/mol
# GULP energy per Si atom -5588.991243 kJ/mol
# Density = 2.530586 g / cm^3
# Si number density = 25.363589 Si / 1000 Ang^3
#
#
#
# Elastic Constant Matrix: (Units=GPa)
#
#
# Indices 1 2 3 4 5 6 
#
# 1 96.1587 35.1377 23.9780 0.0533 32.3685 8.4591
# 2 35.1377 133.8064 28.8645 -9.1576 22.6603 6.8191
# 3 23.9780 28.8645 135.3221 -4.9479 27.9300 0.6079
# 4 0.0533 -9.1576 -4.9479 46.9869 2.8496 1.8069
# 5 32.3685 22.6603 27.9300 2.8496 49.7271 -3.0244
# 6 8.4591 6.8191 0.6079 1.8069 -3.0244 57.5950
#
#
#
# Elastic Compliance Matrix: (Units=1/GPa)
#
#
# Indices 1 2 3 4 5 6 
#
# 1 0.014245 -0.002146 -0.000351 0.000116 -0.008243 -0.002271
# 2 -0.002146 0.008789 -0.000967 0.001782 -0.002222 -0.000888
# 3 -0.000351 -0.000967 0.008563 0.000976 -0.004207 -0.000176
# 4 0.000116 0.001782 0.000976 0.021941 -0.002758 -0.001072
# 5 -0.008243 -0.002222 -0.004207 -0.002758 0.029199 0.003138
# 6 -0.002271 -0.000888 -0.000176 -0.001072 0.003138 0.018002
#
#
# Mechanical properties :
#
#
# Convention : Reuss Voigt Hill
#
# Bulk Modulus (GPa) = 40.53390 60.13864 50.33627
# Shear Modulus (GPa) = 43.14471 49.34894 46.24683
#
# Velocity S-wave (km/s) = 4.12885 4.41575 4.27471
# Velocity P-wave (km/s) = 6.22461 7.05412 6.65230
#
# Compressibility (1/GPa) = 0.02467071
#
# Stress axis : x y z
#
# Youngs Moduli (GPa) = 70.19875 113.77932 116.78177
#
# Poissons Ratio (x) = 0.24412 0.04097
# Poissons Ratio (y) = 0.15062 0.11291
# Poissons Ratio (z) = 0.02463 0.11001
#
# Static dielectric constant tensor:
#      x y z
#    x 2.061450 0.036230 -0.163010 
#    y 0.036230 2.039650 0.237070 
#    z -0.163010 0.237070 1.900670 
# 
# From -- ./inp_files/177162.got.cif
#   From: 2010.05.17/outbox.cif.g08.bks.cpg/sg2_89_cif.got.tgz:177162.got - 2010.06.03 11:33:40.
