data_PCOD9063294
_publ_section_title
;
Structure prediction by ZEFSAII (Michael W. Deem and Ramdas Pophale) SiO2 
 PCOD9063294
Probable space group: P -1
;
_chemical_formula_sum "Si O2"
_cell_formula_units_Z 14
_cell_length_a 25.490314
_cell_length_b 14.714874
_cell_length_c 5.484434
_cell_angle_alpha 121.602510
_cell_angle_beta 57.676920
_cell_angle_gamma 158.418489
_cell_volume 637.034105
_symmetry_space_group_name_H-M "P -1"
_symmetry_group_IT_number 2
_symmetry_cell_setting 'triclinic'
loop_
_space_group_symop_operation_xyz
x,y,z
-x,-y,-z
loop_
_atom_site_type_symbol
_atom_site_label
_atom_site_fract_x
_atom_site_fract_y
_atom_site_fract_z
Si Si1 0.246002 0.117815 0.570717
Si Si2 0.791542 0.568694 0.401339
Si Si3 0.910730 0.342444 0.755060
Si Si4 0.669277 0.149396 0.142958
Si Si5 0.491041 0.148586 0.375245
Si Si6 0.082512 0.063934 0.097262
Si Si7 0.498523 0.407638 0.671330
O O1 0.374433 0.255376 0.583840
O O2 0.336806 0.331292 0.460114
O O3 0.143861 0.864080 0.383476
O O4 0.154046 0.061927 0.861448
O O5 0.760936 0.399250 0.305244
O O6 0.662497 0.396533 0.296277
O O7 0.952772 0.831689 0.273688
O O8 0.792891 0.662393 0.735027
O O9 0.000000 0.500000 0.500000
O O10 0.776358 0.215479 0.931042
O O11 0.000000 0.500000 0.000000
O O12 0.571548 0.989460 0.404169
O O13 0.578650 0.009585 0.918083
O O14 0.461714 0.229679 0.573375
O O15 0.000000 0.000000 0.000000
O O16 0.500000 0.500000 0.000000
#
# Coordination Sequence:
#
# PCOD9063294 Si02
#       7
#     2   2   2   2   2   2   2
#     4  11  25  45  71 107 140 191 237 298 361 425
#     4  11  27  46  70 105 142 194 240 297 358 428
#     4  12  27  46  73 105 148 189 234 292 361 436
#     4  12  27  48  75 108 143 190 242 301 361 426
#     4  12  26  47  76 107 143 186 248 299 360 422
#     4  11  26  45  72 102 148 190 243 292 358 435
#     4  11  24  43  75 102 145 183 242 302 356 428
#
# _framework density 21.976845000000001
#
# number of rings (size 3 to 8) (size 9 to 14) (size 15 to 20)
#    0.000    0.571    1.429    5.143   12.000    1.143 
#    0.000    0.000    0.000    0.000    0.000    0.000 
#    0.000    0.000    0.000    0.000    0.000    0.000 
#
# Total GULP energy -78200.697253 kJ/mol
# GULP energy per Si atom -5585.764090 kJ/mol
# Density = 2.192682 g / cm^3
# Si number density = 21.976845 Si / 1000 Ang^3
#
#
#
# Elastic Constant Matrix: (Units=GPa)
#
#
# Indices 1 2 3 4 5 6 
#
# 1 63.8608 37.3543 39.9591 12.9366 -10.8588 -12.4822
# 2 37.3543 132.9977 80.2010 27.4928 3.6271 -11.4781
# 3 39.9591 80.2010 123.7968 27.3838 -4.1482 -8.9225
# 4 12.9366 27.4928 27.3838 55.2498 -1.5319 -11.6538
# 5 -10.8588 3.6271 -4.1482 -1.5319 52.9193 6.3304
# 6 -12.4822 -11.4781 -8.9225 -11.6538 6.3304 45.7290
#
#
#
# Elastic Compliance Matrix: (Units=1/GPa)
#
#
# Indices 1 2 3 4 5 6 
#
# 1 0.021756 -0.003072 -0.004544 -0.000440 0.003871 0.003633
# 2 -0.003072 0.013280 -0.007131 -0.002239 -0.002266 0.000846
# 3 -0.004544 -0.007131 0.014757 -0.002890 0.000748 -0.000991
# 4 -0.000440 -0.002239 -0.002890 0.021650 -0.000048 0.004278
# 5 0.003871 -0.002266 0.000748 -0.000048 0.020163 -0.002170
# 6 0.003633 0.000846 -0.000991 0.004278 -0.002170 0.024269
#
#
# Mechanical properties :
#
#
# Convention : Reuss Voigt Hill
#
# Bulk Modulus (GPa) = 49.26148 70.63156 59.94652
# Shear Modulus (GPa) = 32.86534 41.65569 37.26051
#
# Velocity S-wave (km/s) = 3.87130 4.35838 4.12204
# Velocity P-wave (km/s) = 6.51510 7.58526 7.07046
#
# Compressibility (1/GPa) = 0.02029984
#
# Stress axis : x y z
#
# Youngs Moduli (GPa) = 45.96349 75.30316 67.76316
#
# Poissons Ratio (x) = 0.23131 0.30789
# Poissons Ratio (y) = 0.14119 0.48325
# Poissons Ratio (z) = 0.20884 0.53702
#
# Static dielectric constant tensor:
#      x y z
#    x 1.816940 -0.029430 0.094810 
#    y -0.029430 1.792100 -0.026490 
#    z 0.094810 -0.026490 1.777630 
# 
# From -- ./inp_files/106673.got.cif
#   From: 2010.05.17/outbox.cif.g08.bks.cpg/sg2_54_cif.got.tgz:106673.got - 2010.06.03 11:33:40.
