data_PCOD9063123
_publ_section_title
;
Structure prediction by ZEFSAII (Michael W. Deem and Ramdas Pophale) SiO2 
 PCOD9063123
Probable space group: P -1
;
_chemical_formula_sum "Si O2"
_cell_formula_units_Z 16
_cell_length_a 15.113077
_cell_length_b 8.896978
_cell_length_c 20.441342
_cell_angle_alpha 131.728130
_cell_angle_beta 22.445349
_cell_angle_gamma 131.837748
_cell_volume 770.107730
_symmetry_space_group_name_H-M "P -1"
_symmetry_group_IT_number 2
_symmetry_cell_setting 'triclinic'
loop_
_space_group_symop_operation_xyz
x,y,z
-x,-y,-z
loop_
_atom_site_type_symbol
_atom_site_label
_atom_site_fract_x
_atom_site_fract_y
_atom_site_fract_z
Si Si1 0.757282 0.632635 0.856736
Si Si2 0.827035 0.528135 0.406223
Si Si3 0.704620 0.159668 0.288942
Si Si4 0.822363 0.869978 0.404965
Si Si5 0.508230 0.663975 0.775069
Si Si6 0.892334 0.704892 0.637226
Si Si7 0.127197 0.912055 0.076429
Si Si8 0.873065 0.740846 0.073111
O O1 0.788220 0.697565 0.778962
O O2 0.948590 0.502382 0.713155
O O3 0.815924 0.851274 0.917002
O O4 0.500000 0.500000 0.000000
O O5 0.721407 0.308524 0.382997
O O6 0.887240 0.689696 0.353051
O O7 0.642406 0.609128 0.602931
O O8 0.457509 0.165071 0.424380
O O9 0.728901 0.927817 0.221763
O O10 0.927337 0.238362 0.112839
O O11 0.950880 0.880137 0.249583
O O12 0.913562 0.089014 0.439968
O O13 0.694841 0.704229 0.717547
O O14 0.306591 0.469484 0.872064
O O15 0.373235 0.850426 0.910083
O O16 0.000000 0.500000 0.500000
O O17 0.007472 0.769208 0.058549
#
# Coordination Sequence:
#
# PCOD9063123 Si02
#       8
#     2   2   2   2   2   2   2   2
#     4  11  27  44  72  96 141 179 225 276 338 405
#     4  12  25  46  68 104 132 182 224 281 339 393
#     4  11  24  43  71 102 137 175 225 282 338 400
#     4  11  26  43  71  98 142 174 228 276 338 402
#     4  12  26  42  73  97 141 174 232 277 333 401
#     4  11  25  47  67 102 134 184 224 270 341 399
#     4  11  25  46  68 104 133 180 224 280 338 398
#     4  11  24  43  71 103 135 177 226 280 338 397
#
# _framework density 20.776315
#
# number of rings (size 3 to 8) (size 9 to 14) (size 15 to 20)
#    0.000    0.750    2.500    3.750    7.000    4.500 
#    0.000    0.000    0.000    0.000    0.000    0.000 
#    0.000    0.000    0.000    0.000    0.000    0.000 
#
# Total GULP energy -89545.395933 kJ/mol
# GULP energy per Si atom -5596.587246 kJ/mol
# Density = 2.072903 g / cm^3
# Si number density = 20.776315 Si / 1000 Ang^3
#
#
#
# Elastic Constant Matrix: (Units=GPa)
#
#
# Indices 1 2 3 4 5 6 
#
# 1 75.7866 -7.1904 1.5411 -0.4796 -13.6314 6.1638
# 2 -7.1904 61.1691 15.8675 -2.7430 -9.6607 -2.5297
# 3 1.5411 15.8675 67.1695 6.2708 -12.3804 -4.5783
# 4 -0.4796 -2.7430 6.2708 34.3189 -2.0489 -5.2073
# 5 -13.6314 -9.6607 -12.3804 -2.0489 21.0935 2.2194
# 6 6.1638 -2.5297 -4.5783 -5.2073 2.2194 37.7903
#
#
#
# Elastic Compliance Matrix: (Units=1/GPa)
#
#
# Indices 1 2 3 4 5 6 
#
# 1 0.016094 0.003613 0.000902 0.000676 0.012960 -0.002942
# 2 0.003613 0.019218 -0.003107 0.002746 0.009566 0.000137
# 3 0.000902 -0.003107 0.017602 -0.002776 0.009131 0.000858
# 4 0.000676 0.002746 -0.002776 0.030609 0.002639 0.003800
# 5 0.012960 0.009566 0.009131 0.002639 0.066190 -0.003891
# 6 -0.002942 0.000137 0.000858 0.003800 -0.003891 0.027807
#
#
# Mechanical properties :
#
#
# Convention : Reuss Voigt Hill
#
# Bulk Modulus (GPa) = 17.94307 24.95131 21.44719
# Shear Modulus (GPa) = 25.86935 31.56769 28.71852
#
# Velocity S-wave (km/s) = 3.53248 3.90219 3.72193
# Velocity P-wave (km/s) = 5.02921 5.68668 5.36802
#
# Compressibility (1/GPa) = 0.05573183
#
# Stress axis : x y z
#
# Youngs Moduli (GPa) = 62.13467 52.03354 56.81289
#
# Poissons Ratio (x) = -0.18802 -0.05126
# Poissons Ratio (y) = -0.22451 0.17650
# Poissons Ratio (z) = -0.05606 0.16166
#
# Static dielectric constant tensor:
#      x y z
#    x 1.756000 0.001740 0.025920 
#    y 0.001740 1.752270 0.023190 
#    z 0.025920 0.023190 1.712650 
# 
# From -- ./inp_files/188786.got.cif
#   From: 2010.05.17/outbox.cif.g08.bks.cpg/sg2_95_cif.got.tgz:188786.got - 2010.06.03 11:33:40.
