data_PCOD9063234
_publ_section_title
;
Structure prediction by ZEFSAII (Michael W. Deem and Ramdas Pophale) SiO2 
 PCOD9063234
Probable space group: P -1
;
_chemical_formula_sum "Si O2"
_cell_formula_units_Z 16
_cell_length_a 19.851786
_cell_length_b 9.909817
_cell_length_c 5.885619
_cell_angle_alpha 61.385175
_cell_angle_beta 117.203525
_cell_angle_gamma 134.221340
_cell_volume 714.343449
_symmetry_space_group_name_H-M "P -1"
_symmetry_group_IT_number 2
_symmetry_cell_setting 'triclinic'
loop_
_space_group_symop_operation_xyz
x,y,z
-x,-y,-z
loop_
_atom_site_type_symbol
_atom_site_label
_atom_site_fract_x
_atom_site_fract_y
_atom_site_fract_z
Si Si1 0.766547 0.781039 0.658478
Si Si2 0.266299 0.528962 0.832437
Si Si3 0.344722 0.370336 0.809534
Si Si4 0.449431 0.971503 0.698655
Si Si5 0.462986 0.339687 0.373814
Si Si6 0.918231 0.541124 0.551554
Si Si7 0.051710 0.178435 0.264433
Si Si8 0.909526 0.183523 0.729130
O O1 0.704937 0.771951 0.364643
O O2 0.864940 0.819178 0.712895
O O3 0.807778 0.976296 0.703608
O O4 0.712590 0.564065 0.854603
O O5 0.270178 0.409575 0.731476
O O6 0.351275 0.752876 0.737329
O O7 0.164101 0.486654 0.714733
O O8 0.444731 0.565521 0.722878
O O9 0.378259 0.310426 0.120592
O O10 0.500000 0.000000 0.500000
O O11 0.432838 0.132872 0.561104
O O12 0.500000 0.000000 0.000000
O O13 0.500000 0.500000 0.500000
O O14 0.910152 0.624511 0.703901
O O15 0.900984 0.338583 0.709371
O O16 0.024908 0.700630 0.486202
O O17 0.000000 0.000000 0.500000
O O18 0.973581 0.144006 0.998805
#
# Coordination Sequence:
#
# PCOD9063234 Si02
#       8
#     2   2   2   2   2   2   2   2
#     4  12  24  42  72 104 139 187 248 298 355 444
#     4  12  25  45  71 104 143 190 249 301 367 448
#     4  11  24  43  73 104 139 183 244 295 368 441
#     4  12  27  50  79 111 152 196 244 312 387 453
#     4  11  25  49  76 104 142 189 239 309 376 449
#     4  11  24  44  67  99 142 186 235 298 361 426
#     4  12  22  42  71  96 135 193 237 291 362 433
#     4  11  25  44  65 102 143 185 235 297 364 423
#
# _framework density 22.39819
#
# number of rings (size 3 to 8) (size 9 to 14) (size 15 to 20)
#    0.000    0.500    5.000    3.750    1.750    2.000 
#    0.000    0.000    2.750    0.000    0.000    0.000 
#    0.000    0.000    0.000    0.000    0.000    0.000 
#
# Total GULP energy -89326.721471 kJ/mol
# GULP energy per Si atom -5582.920092 kJ/mol
# Density = 2.234721 g / cm^3
# Si number density = 22.398190 Si / 1000 Ang^3
#
#
#
# Elastic Constant Matrix: (Units=GPa)
#
#
# Indices 1 2 3 4 5 6 
#
# 1 72.8566 20.3074 10.0574 -13.4884 7.3490 -1.6413
# 2 20.3074 149.6299 64.1720 -13.5664 5.3226 -5.3150
# 3 10.0574 64.1720 114.2058 0.6274 12.7340 10.8070
# 4 -13.4884 -13.5664 0.6274 44.3515 5.2099 2.4139
# 5 7.3490 5.3226 12.7340 5.2099 31.2737 1.8741
# 6 -1.6413 -5.3150 10.8070 2.4139 1.8741 31.3017
#
#
#
# Elastic Compliance Matrix: (Units=1/GPa)
#
#
# Indices 1 2 3 4 5 6 
#
# 1 0.015451 -0.001431 -0.000170 0.004722 -0.004135 0.000509
# 2 -0.001431 0.009616 -0.005648 0.002359 0.000409 0.003302
# 3 -0.000170 -0.005648 0.012847 -0.001248 -0.003717 -0.005085
# 4 0.004722 0.002359 -0.001248 0.025363 -0.005194 -0.000566
# 5 -0.004135 0.000409 -0.003717 -0.005194 0.035291 -0.000576
# 6 0.000509 0.003302 -0.005085 -0.000566 -0.000576 0.034368
#
#
# Mechanical properties :
#
#
# Convention : Reuss Voigt Hill
#
# Bulk Modulus (GPa) = 42.70493 58.41844 50.56168
# Shear Modulus (GPa) = 32.20812 37.52907 34.86859
#
# Velocity S-wave (km/s) = 3.79618 4.09778 3.94986
# Velocity P-wave (km/s) = 6.19050 6.96616 6.58975
#
# Compressibility (1/GPa) = 0.02341650
#
# Stress axis : x y z
#
# Youngs Moduli (GPa) = 64.72248 103.98972 77.83696
#
# Poissons Ratio (x) = 0.14879 0.01321
# Poissons Ratio (y) = 0.09261 0.43965
# Poissons Ratio (z) = 0.01098 0.58737
#
# Static dielectric constant tensor:
#      x y z
#    x 1.908170 0.000990 -0.098390 
#    y 0.000990 1.785910 0.013180 
#    z -0.098390 0.013180 1.920880 
# 
# From -- ./inp_files/47091.got.cif
#   From: 2010.05.17/outbox.cif.g08.bks.cpg/sg2_24_cif.got.tgz:47091.got - 2010.06.03 11:33:40.
