data_PCOD9063656
_publ_section_title
;
Structure prediction by ZEFSAII (Michael W. Deem and Ramdas Pophale) SiO2 
 PCOD9063656
Probable space group: P -1
;
_chemical_formula_sum "Si O2"
_cell_formula_units_Z 10
_cell_length_a 11.526152
_cell_length_b 7.749550
_cell_length_c 6.325700
_cell_angle_alpha 59.629699
_cell_angle_beta 106.143331
_cell_angle_gamma 71.376260
_cell_volume 389.542971
_symmetry_space_group_name_H-M "P -1"
_symmetry_group_IT_number 2
_symmetry_cell_setting 'triclinic'
loop_
_space_group_symop_operation_xyz
x,y,z
-x,-y,-z
loop_
_atom_site_type_symbol
_atom_site_label
_atom_site_fract_x
_atom_site_fract_y
_atom_site_fract_z
Si Si1 0.083920 0.840448 0.840823
Si Si2 0.671999 0.849109 0.211299
Si Si3 0.613313 0.554129 0.635811
Si Si4 0.853676 0.899211 0.936170
Si Si5 0.607776 0.220675 0.307085
O O1 0.991212 0.740954 0.952250
O O2 0.254228 0.640585 0.029897
O O3 0.000000 0.000000 0.500000
O O4 0.086864 0.019123 0.896938
O O5 0.696988 0.609520 0.471598
O O6 0.677290 0.019647 0.284479
O O7 0.765292 0.810596 0.073724
O O8 0.500000 0.000000 0.000000
O O9 0.500000 0.500000 0.500000
O O10 0.508347 0.777594 0.594787
O O11 0.741308 0.130629 0.592247
O O12 0.500000 0.500000 0.000000
#
# Coordination Sequence:
#
# PCOD9063656 Si02
#       5
#     2   2   2   2   2
#     4  11  24  47  72 106 144 194 243 300 366 437
#     4  12  25  43  71 110 150 186 249 305 355 435
#     4  12  24  47  75 105 143 196 245 301 366 428
#     4  11  24  44  72 101 148 191 240 303 364 429
#     4  12  24  43  75 106 142 193 245 297 363 430
#
# _framework density 25.671105000000001
#
# number of rings (size 3 to 8) (size 9 to 14) (size 15 to 20)
#    0.000    0.400    4.000    5.400    0.000    0.800 
#    0.000    4.000    0.000    0.000    0.000    0.000 
#    0.000    0.000    0.000    0.000    0.000    0.000 
#
# Total GULP energy -55772.596348 kJ/mol
# GULP energy per Si atom -5577.259635 kJ/mol
# Density = 2.561268 g / cm^3
# Si number density = 25.671105 Si / 1000 Ang^3
#
#
#
# Elastic Constant Matrix: (Units=GPa)
#
#
# Indices 1 2 3 4 5 6 
#
# 1 206.9026 41.4120 63.1834 -2.7625 -9.9336 -28.8737
# 2 41.4120 71.2242 34.4700 6.4271 6.9316 4.9086
# 3 63.1834 34.4700 199.9176 20.4623 34.3043 20.0415
# 4 -2.7625 6.4271 20.4623 29.9282 -2.3730 2.2348
# 5 -9.9336 6.9316 34.3043 -2.3730 46.7530 -6.2515
# 6 -28.8737 4.9086 20.0415 2.2348 -6.2515 46.1687
#
#
#
# Elastic Compliance Matrix: (Units=1/GPa)
#
#
# Indices 1 2 3 4 5 6 
#
# 1 0.008833 -0.004659 -0.004644 0.004921 0.007401 0.008799
# 2 -0.004659 0.017882 0.000176 -0.004366 -0.004703 -0.005317
# 3 -0.004644 0.000176 0.009612 -0.007192 -0.009505 -0.008035
# 4 0.004921 -0.004366 -0.007192 0.040048 0.009812 0.006054
# 5 0.007401 -0.004703 -0.009505 0.009812 0.032901 0.013235
# 6 0.008799 -0.005317 -0.008035 0.006054 0.013235 0.032715
#
#
# Mechanical properties :
#
#
# Convention : Reuss Voigt Hill
#
# Bulk Modulus (GPa) = 55.33138 84.01946 69.67542
# Shear Modulus (GPa) = 30.07177 47.16860 38.62018
#
# Velocity S-wave (km/s) = 3.42632 4.29116 3.88290
# Velocity P-wave (km/s) = 6.10358 7.57313 6.87772
#
# Compressibility (1/GPa) = 0.01807293
#
# Stress axis : x y z
#
# Youngs Moduli (GPa) = 113.21283 55.92249 104.03651
#
# Poissons Ratio (x) = 0.26054 0.48316
# Poissons Ratio (y) = 0.52745 -0.01832
# Poissons Ratio (z) = 0.52578 -0.00985
#
# Static dielectric constant tensor:
#      x y z
#    x 2.144620 0.009820 -0.137390 
#    y 0.009820 2.023640 -0.037100 
#    z -0.137390 -0.037100 2.248840 
# 
# From -- ./inp_files/60177.got.cif
#   From: 2010.05.17/outbox.cif.g08.bks.cpg/sg2_31_cif.got.tgz:60177.got - 2010.06.03 11:33:40.
