data_PCOD9063722
_publ_section_title
;
Structure prediction by ZEFSAII (Michael W. Deem and Ramdas Pophale) SiO2 
 PCOD9063722
Probable space group: P -1
;
_chemical_formula_sum "Si O2"
_cell_formula_units_Z 13
_cell_length_a 11.446659
_cell_length_b 16.715911
_cell_length_c 11.077148
_cell_angle_alpha 32.336804
_cell_angle_beta 121.196899
_cell_angle_gamma 143.984939
_cell_volume 566.945914
_symmetry_space_group_name_H-M "P -1"
_symmetry_group_IT_number 2
_symmetry_cell_setting 'triclinic'
loop_
_space_group_symop_operation_xyz
x,y,z
-x,-y,-z
loop_
_atom_site_type_symbol
_atom_site_label
_atom_site_fract_x
_atom_site_fract_y
_atom_site_fract_z
Si Si1 0.775415 0.754213 0.071787
Si Si2 0.000000 0.500000 0.500000
Si Si3 0.787501 0.389410 0.957911
Si Si4 0.524867 0.931755 0.227169
Si Si5 0.932533 0.059334 0.226969
Si Si6 0.042643 0.284682 0.600155
Si Si7 0.296379 0.422368 0.159824
O O1 0.988717 0.878834 0.947702
O O2 0.749103 0.623824 0.339346
O O3 0.547529 0.567085 0.106121
O O4 0.849714 0.985029 0.860295
O O5 0.739588 0.344072 0.532847
O O6 0.035550 0.649170 0.441338
O O7 0.880026 0.577505 0.660326
O O8 0.670741 0.392712 0.989868
O O9 0.000000 0.500000 0.000000
O O10 0.629204 0.127265 0.139658
O O11 0.715402 0.974053 0.246986
O O12 0.500000 0.000000 0.000000
O O13 0.152456 0.311134 0.102076
O O14 0.865098 0.833129 0.521804
#
# Coordination Sequence:
#
# PCOD9063722 Si02
#       7
#     2   1   2   2   2   2   2
#     4  11  24  46  73 105 143 187 246 299 352 433
#     4  12  24  46  70 108 138 186 248 286 360 420
#     4  12  25  49  71 106 150 193 237 299 370 429
#     4  12  25  44  74 103 147 187 239 298 356 429
#     4  11  24  45  71 106 143 191 237 301 357 431
#     4  11  25  45  70 105 143 188 242 300 358 426
#     4  11  24  44  73 103 145 190 240 292 368 427
#
# _framework density 22.929877000000001
#
# number of rings (size 3 to 8) (size 9 to 14) (size 15 to 20)
#    0.000    0.615    4.615    3.231    0.000    1.846 
#    0.000    6.154    0.000    0.000    0.000    0.000 
#    0.000    0.000    0.000    0.000    0.000    0.000 
#
# Total GULP energy -72463.455938 kJ/mol
# GULP energy per Si atom -5574.111995 kJ/mol
# Density = 2.287769 g / cm^3
# Si number density = 22.929877 Si / 1000 Ang^3
#
#
#
# Elastic Constant Matrix: (Units=GPa)
#
#
# Indices 1 2 3 4 5 6 
#
# 1 140.8309 57.8184 15.7485 -12.5824 11.2441 -2.8386
# 2 57.8184 166.4772 25.0900 -16.2280 4.1157 11.7185
# 3 15.7485 25.0900 37.0788 2.6244 7.4408 -6.9094
# 4 -12.5824 -16.2280 2.6244 37.6553 -5.3821 6.3955
# 5 11.2441 4.1157 7.4408 -5.3821 17.9543 -8.4640
# 6 -2.8386 11.7185 -6.9094 6.3955 -8.4640 50.1162
#
#
#
# Elastic Compliance Matrix: (Units=1/GPa)
#
#
# Indices 1 2 3 4 5 6 
#
# 1 0.008752 -0.002643 -0.001209 0.001287 -0.003933 0.000119
# 2 -0.002643 0.008341 -0.005740 0.003897 0.001839 -0.003078
# 3 -0.001209 -0.005740 0.035407 -0.008006 -0.012623 0.005045
# 4 0.001287 0.003897 -0.008006 0.031248 0.008899 -0.004427
# 5 -0.003933 0.001839 -0.012623 0.008899 0.069508 0.008210
# 6 0.000119 -0.003078 0.005045 -0.004427 0.008210 0.023327
#
#
# Mechanical properties :
#
#
# Convention : Reuss Voigt Hill
#
# Bulk Modulus (GPa) = 30.01509 60.18897 45.10203
# Shear Modulus (GPa) = 24.16946 37.52716 30.84831
#
# Velocity S-wave (km/s) = 3.25015 4.04989 3.67186
# Velocity P-wave (km/s) = 5.21565 6.94081 6.13913
#
# Compressibility (1/GPa) = 0.03331657
#
# Stress axis : x y z
#
# Youngs Moduli (GPa) = 114.25343 119.88964 28.24317
#
# Poissons Ratio (x) = 0.31690 0.03414
# Poissons Ratio (y) = 0.30200 0.16211
# Poissons Ratio (z) = 0.13809 0.68816
#
# Static dielectric constant tensor:
#      x y z
#    x 1.852660 0.007170 0.001950 
#    y 0.007170 1.851850 -0.009450 
#    z 0.001950 -0.009450 1.905880 
# 
# From -- ./inp_files/107010.got.cif
#   From: 2010.05.17/outbox.cif.g08.bks.cpg/sg2_54_cif.got.tgz:107010.got - 2010.06.03 11:33:40.
