data_PCOD9063584
_publ_section_title
;
Structure prediction by ZEFSAII (Michael W. Deem and Ramdas Pophale) SiO2 
 PCOD9063584
Probable space group: P -1
;
_chemical_formula_sum "Si O2"
_cell_formula_units_Z 14
_cell_length_a 15.119498
_cell_length_b 8.945005
_cell_length_c 11.904488
_cell_angle_alpha 124.307195
_cell_angle_beta 30.883478
_cell_angle_gamma 134.008401
_cell_volume 592.058686
_symmetry_space_group_name_H-M "P -1"
_symmetry_group_IT_number 2
_symmetry_cell_setting 'triclinic'
loop_
_space_group_symop_operation_xyz
x,y,z
-x,-y,-z
loop_
_atom_site_type_symbol
_atom_site_label
_atom_site_fract_x
_atom_site_fract_y
_atom_site_fract_z
Si Si1 0.258301 0.189303 0.707182
Si Si2 0.229005 0.051937 0.277126
Si Si3 0.563363 0.727408 0.076493
Si Si4 0.867697 0.341064 0.878557
Si Si5 0.259137 0.775325 0.590182
Si Si6 0.856682 0.114811 0.025950
Si Si7 0.511850 0.607591 0.681572
O O1 0.412124 0.358612 0.700074
O O2 0.353390 0.305522 0.537050
O O3 0.244621 0.967569 0.633670
O O4 0.041786 0.165843 0.925666
O O5 0.347654 0.240456 0.311726
O O6 0.193934 0.819909 0.226846
O O7 0.371963 0.131394 0.045901
O O8 0.000000 0.000000 0.500000
O O9 0.398588 0.732680 0.336935
O O10 0.765672 0.872929 0.987488
O O11 0.500000 0.500000 0.000000
O O12 0.059129 0.553300 0.724775
O O13 0.909378 0.252163 0.912509
O O14 0.678510 0.365676 0.117443
O O15 0.294114 0.846626 0.715325
#
# Coordination Sequence:
#
# PCOD9063584 Si02
#       7
#     2   2   2   2   2   2   2
#     4  11  25  43  72 107 140 187 239 301 352 423
#     4  11  24  47  70  98 142 189 235 292 365 430
#     4  11  26  44  69 106 141 188 242 296 356 425
#     4  11  24  44  73 104 139 192 238 291 358 430
#     4  12  25  45  71 108 145 185 240 298 357 414
#     4  11  24  47  71 103 148 187 241 290 361 424
#     4  11  24  44  71 101 143 185 240 292 362 426
#
# _framework density 23.646303
#
# number of rings (size 3 to 8) (size 9 to 14) (size 15 to 20)
#    0.000    0.857    1.429    6.000    2.000    0.000 
#    2.571    2.143    0.000    0.000    0.000    0.000 
#    0.000    0.000    0.000    0.000    0.000    0.000 
#
# Total GULP energy -78117.460344 kJ/mol
# GULP energy per Si atom -5579.818596 kJ/mol
# Density = 2.359248 g / cm^3
# Si number density = 23.646303 Si / 1000 Ang^3
#
#
#
# Elastic Constant Matrix: (Units=GPa)
#
#
# Indices 1 2 3 4 5 6 
#
# 1 84.9937 61.2794 39.3368 -11.6111 6.2342 21.6463
# 2 61.2794 209.5030 54.3095 0.4544 1.8721 36.8080
# 3 39.3368 54.3095 143.3086 5.2637 3.9431 5.3586
# 4 -11.6111 0.4544 5.2637 38.2574 0.6485 4.6073
# 5 6.2342 1.8721 3.9431 0.6485 27.7107 5.4145
# 6 21.6463 36.8080 5.3586 4.6073 5.4145 52.5163
#
#
#
# Elastic Compliance Matrix: (Units=1/GPa)
#
#
# Indices 1 2 3 4 5 6 
#
# 1 0.018440 -0.003530 -0.003714 0.006805 -0.002548 -0.005082
# 2 -0.003530 0.006740 -0.001477 -0.000584 0.001186 -0.003189
# 3 -0.003714 -0.001477 0.008593 -0.002519 -0.000614 0.001973
# 4 0.006805 -0.000584 -0.002519 0.029127 -0.000916 -0.004599
# 5 -0.002548 0.001186 -0.000614 -0.000916 0.037371 -0.003491
# 6 -0.005082 -0.003189 0.001973 -0.004599 -0.003491 0.023933
#
#
# Mechanical properties :
#
#
# Convention : Reuss Voigt Hill
#
# Bulk Modulus (GPa) = 61.23390 83.07296 72.15343
# Shear Modulus (GPa) = 33.99290 42.55551 38.27421
#
# Velocity S-wave (km/s) = 3.79563 4.24685 4.02756
# Velocity P-wave (km/s) = 6.72019 7.69775 7.22553
#
# Compressibility (1/GPa) = 0.01633082
#
# Stress axis : x y z
#
# Youngs Moduli (GPa) = 54.22895 148.37644 116.37811
#
# Poissons Ratio (x) = 0.52380 0.43219
# Poissons Ratio (y) = 0.19144 0.17189
# Poissons Ratio (z) = 0.20139 0.21915
#
# Static dielectric constant tensor:
#      x y z
#    x 1.992500 0.066630 -0.009200 
#    y 0.066630 2.003860 0.004630 
#    z -0.009200 0.004630 1.920910 
# 
# From -- ./inp_files/447986.got.cif
#   From: 2010.05.17/outbox.cif.g08.bks.cpg/sg2_224_cif.got.tgz:447986.got - 2010.06.03 11:33:40.
