data_PCOD9063744
_publ_section_title
;
Structure prediction by ZEFSAII (Michael W. Deem and Ramdas Pophale) SiO2 
 PCOD9063744
Probable space group: P -1
;
_chemical_formula_sum "Si O2"
_cell_formula_units_Z 16
_cell_length_a 12.047709
_cell_length_b 20.497228
_cell_length_c 12.724442
_cell_angle_alpha 27.603576
_cell_angle_beta 40.932205
_cell_angle_gamma 27.579001
_cell_volume 667.444110
_symmetry_space_group_name_H-M "P -1"
_symmetry_group_IT_number 2
_symmetry_cell_setting 'triclinic'
loop_
_space_group_symop_operation_xyz
x,y,z
-x,-y,-z
loop_
_atom_site_type_symbol
_atom_site_label
_atom_site_fract_x
_atom_site_fract_y
_atom_site_fract_z
Si Si1 0.734952 0.892767 0.726524
Si Si2 0.805516 0.364488 0.872250
Si Si3 0.422838 0.236734 0.134404
Si Si4 0.187118 0.952166 0.731471
Si Si5 0.614707 0.013203 0.997266
Si Si6 0.877908 0.447360 0.913414
Si Si7 0.749981 0.544782 0.445965
Si Si8 0.296677 0.701646 0.293977
O O1 0.743115 0.764496 0.815976
O O2 0.784121 0.003314 0.468818
O O3 0.481448 0.008466 0.798846
O O4 0.927997 0.766446 0.861694
O O5 0.739754 0.449538 0.916002
O O6 0.728288 0.528794 0.608586
O O7 0.723950 0.261299 0.034710
O O8 0.098002 0.169776 0.947393
O O9 0.267573 0.402502 0.099558
O O10 0.648820 0.046212 0.313140
O O11 0.563342 0.260685 0.922849
O O12 0.920944 0.114785 0.739927
O O13 0.485718 0.242466 0.744369
O O14 0.500000 0.000000 0.000000
O O15 0.030748 0.481111 0.700724
O O16 0.803962 0.359591 0.623671
O O17 0.500000 0.500000 0.500000
#
# Coordination Sequence:
#
# PCOD9063744 Si02
#       8
#     2   2   2   2   2   2   2   2
#     4  11  24  45  70 100 140 183 236 292 344 417
#     4  12  25  47  71 104 150 184 238 286 352 431
#     4  12  25  44  69 103 140 179 241 292 349 419
#     4  12  27  44  69 108 139 186 231 292 362 412
#     4  11  24  46  74 108 136 188 236 281 357 422
#     4  11  25  45  68 104 136 189 234 287 354 416
#     4  11  24  44  73 106 139 184 236 294 350 416
#     4  12  24  46  72 100 139 184 236 294 354 418
#
# _framework density 23.972044
#
# number of rings (size 3 to 8) (size 9 to 14) (size 15 to 20)
#    0.000    0.500    3.750    6.000    3.500    1.000 
#    2.250    0.000    0.000    0.000    0.000    0.000 
#    0.000    0.000    0.000    0.000    0.000    0.000 
#
# Total GULP energy -89493.446675 kJ/mol
# GULP energy per Si atom -5593.340417 kJ/mol
# Density = 2.391748 g / cm^3
# Si number density = 23.972044 Si / 1000 Ang^3
#
#
#
# Elastic Constant Matrix: (Units=GPa)
#
#
# Indices 1 2 3 4 5 6 
#
# 1 89.2802 -3.9222 16.2421 14.5242 11.0323 8.7562
# 2 -3.9222 105.5169 13.7113 9.0621 9.7355 17.7566
# 3 16.2421 13.7113 143.9157 23.9400 17.8107 10.8009
# 4 14.5242 9.0621 23.9400 16.5377 7.4075 7.9188
# 5 11.0323 9.7355 17.8107 7.4075 38.5698 1.0550
# 6 8.7562 17.7566 10.8009 7.9188 1.0550 33.0658
#
#
#
# Elastic Compliance Matrix: (Units=1/GPa)
#
#
# Indices 1 2 3 4 5 6 
#
# 1 0.013607 0.001995 0.000726 -0.012114 -0.002351 -0.001935
# 2 0.001995 0.011037 0.000153 -0.004347 -0.002445 -0.005386
# 3 0.000726 0.000153 0.009312 -0.013273 -0.001995 -0.000074
# 4 -0.012114 -0.004347 -0.013273 0.103677 -0.008819 -0.014670
# 5 -0.002351 -0.002445 -0.001995 -0.008819 0.029729 0.003751
# 6 -0.001935 -0.005386 -0.000074 -0.014670 0.003751 0.037065
#
#
# Mechanical properties :
#
#
# Convention : Reuss Voigt Hill
#
# Bulk Modulus (GPa) = 25.18668 43.41944 34.30306
# Shear Modulus (GPa) = 23.59428 38.48011 31.03719
#
# Velocity S-wave (km/s) = 3.14067 4.01085 3.60213
# Velocity P-wave (km/s) = 4.86633 6.29294 5.62505
#
# Compressibility (1/GPa) = 0.03970353
#
# Stress axis : x y z
#
# Youngs Moduli (GPa) = 73.48944 90.60720 107.38385
#
# Poissons Ratio (x) = -0.18072 -0.07792
# Poissons Ratio (y) = -0.14658 -0.01647
# Poissons Ratio (z) = -0.05333 -0.01390
#
# Static dielectric constant tensor:
#      x y z
#    x 1.980970 0.011970 0.007400 
#    y 0.011970 1.989050 0.065120 
#    z 0.007400 0.065120 2.099340 
# 
# From -- ./inp_files/189300.got.cif
#   From: 2010.05.17/outbox.cif.g08.bks.cpg/sg2_95_cif.got.tgz:189300.got - 2010.06.03 11:33:40.
