data_PCOD9063191
_publ_section_title
;
Structure prediction by ZEFSAII (Michael W. Deem and Ramdas Pophale) SiO2 
 PCOD9063191
Probable space group: P -1
;
_chemical_formula_sum "Si O2"
_cell_formula_units_Z 16
_cell_length_a 9.596146
_cell_length_b 11.326237
_cell_length_c 9.549215
_cell_angle_alpha 89.529831
_cell_angle_beta 43.764973
_cell_angle_gamma 84.927856
_cell_volume 712.761506
_symmetry_space_group_name_H-M "P -1"
_symmetry_group_IT_number 2
_symmetry_cell_setting 'triclinic'
loop_
_space_group_symop_operation_xyz
x,y,z
-x,-y,-z
loop_
_atom_site_type_symbol
_atom_site_label
_atom_site_fract_x
_atom_site_fract_y
_atom_site_fract_z
Si Si1 0.242664 0.171717 0.002662
Si Si2 0.195740 0.532150 0.944051
Si Si3 0.271593 0.013350 0.220533
Si Si4 0.089610 0.598018 0.338170
Si Si5 0.272206 0.009688 0.722847
Si Si6 0.570531 0.333903 0.701927
Si Si7 0.069142 0.138592 0.614890
Si Si8 0.181484 0.741558 0.758244
O O1 0.452075 0.226783 0.843979
O O2 0.263564 0.060211 0.884564
O O3 0.174572 0.127873 0.201925
O O4 0.057788 0.264530 0.086188
O O5 0.393019 0.436754 0.788079
O O6 0.251779 0.655741 0.836018
O O7 0.142784 0.547188 0.145886
O O8 0.000000 0.500000 0.000000
O O9 0.234534 0.053213 0.405727
O O10 0.144419 0.906940 0.272846
O O11 0.500000 0.000000 0.000000
O O12 0.286922 0.627876 0.279363
O O13 0.000000 0.500000 0.500000
O O14 0.945832 0.722743 0.414169
O O15 0.206028 0.878945 0.764678
O O16 0.500000 0.000000 0.500000
O O17 0.129985 0.104133 0.729687
O O18 0.701081 0.297519 0.469256
#
# Coordination Sequence:
#
# PCOD9063191 Si02
#       8
#     2   2   2   2   2   2   2   2
#     4  12  24  44  75 103 152 190 241 301 369 435
#     4  12  27  50  79 107 144 198 252 304 371 435
#     4  11  24  43  72 104 144 190 237 297 365 439
#     4  12  29  51  78 107 150 195 249 310 365 436
#     4  12  25  45  72 113 150 193 238 299 371 440
#     4  12  27  50  77 108 148 194 252 304 369 438
#     4  11  26  46  71 105 147 187 243 296 367 434
#     4  12  25  47  77 105 152 196 243 308 364 437
#
# _framework density 22.447901999999999
#
# number of rings (size 3 to 8) (size 9 to 14) (size 15 to 20)
#    0.000    0.250    3.750    4.875    5.250    1.000 
#    4.500    0.000    0.000    0.000    0.000    0.000 
#    0.000    0.000    0.000    0.000    0.000    0.000 
#
# Total GULP energy -89592.738959 kJ/mol
# GULP energy per Si atom -5599.546185 kJ/mol
# Density = 2.239681 g / cm^3
# Si number density = 22.447902 Si / 1000 Ang^3
#
#
#
# Elastic Constant Matrix: (Units=GPa)
#
#
# Indices 1 2 3 4 5 6 
#
# 1 123.0241 54.3830 46.1590 -0.4833 5.4372 11.2531
# 2 54.3830 134.3547 32.7158 -13.6916 -0.3467 -5.1978
# 3 46.1590 32.7158 122.6244 -8.1811 0.6506 21.8762
# 4 -0.4833 -13.6916 -8.1811 35.9756 -9.9467 -0.7573
# 5 5.4372 -0.3467 0.6506 -9.9467 42.7660 -1.6347
# 6 11.2531 -5.1978 21.8762 -0.7573 -1.6347 34.8017
#
#
#
# Elastic Compliance Matrix: (Units=1/GPa)
#
#
# Indices 1 2 3 4 5 6 
#
# 1 0.011449 -0.004340 -0.002841 -0.002811 -0.002206 -0.002729
# 2 -0.004340 0.010145 -0.001537 0.004022 0.001748 0.004055
# 3 -0.002841 -0.001537 0.010836 0.001817 0.000375 -0.006065
# 4 -0.002811 0.004022 0.001817 0.031899 0.007836 0.001430
# 5 -0.002206 0.001748 0.000375 0.007836 0.025575 0.002111
# 6 -0.002729 0.004055 -0.006065 0.001430 0.002111 0.034165
#
#
# Mechanical properties :
#
#
# Convention : Reuss Voigt Hill
#
# Bulk Modulus (GPa) = 66.69492 71.83545 69.26518
# Shear Modulus (GPa) = 34.12869 39.15834 36.64351
#
# Velocity S-wave (km/s) = 3.90340 4.18114 4.04466
# Velocity P-wave (km/s) = 7.07749 7.44176 7.26191
#
# Compressibility (1/GPa) = 0.01499365
#
# Stress axis : x y z
#
# Youngs Moduli (GPa) = 87.34331 98.56713 92.28775
#
# Poissons Ratio (x) = 0.42781 0.26216
# Poissons Ratio (y) = 0.37910 0.14187
# Poissons Ratio (z) = 0.24811 0.15152
#
# Static dielectric constant tensor:
#      x y z
#    x 1.843620 -0.033330 -0.022050 
#    y -0.033330 1.870880 -0.021630 
#    z -0.022050 -0.021630 1.790000 
# 
# From -- ./inp_files/187255.got.cif
#   From: 2010.05.17/outbox.cif.g08.bks.cpg/sg2_94_cif.got.tgz:187255.got - 2010.06.03 11:33:40.
