data_PCOD9063279
_publ_section_title
;
Structure prediction by ZEFSAII (Michael W. Deem and Ramdas Pophale) SiO2 
 PCOD9063279
Probable space group: P -1
;
_chemical_formula_sum "Si O2"
_cell_formula_units_Z 15
_cell_length_a 14.495180
_cell_length_b 8.310991
_cell_length_c 11.605774
_cell_angle_alpha 77.070608
_cell_angle_beta 149.963803
_cell_angle_gamma 96.672382
_cell_volume 673.427393
_symmetry_space_group_name_H-M "P -1"
_symmetry_group_IT_number 2
_symmetry_cell_setting 'triclinic'
loop_
_space_group_symop_operation_xyz
x,y,z
-x,-y,-z
loop_
_atom_site_type_symbol
_atom_site_label
_atom_site_fract_x
_atom_site_fract_y
_atom_site_fract_z
Si Si1 0.977452 0.618257 0.567797
Si Si2 0.888426 0.040202 0.106577
Si Si3 0.388554 0.481921 0.764832
Si Si4 0.320077 0.463934 0.112902
Si Si5 0.149419 0.621673 0.116725
Si Si6 0.000000 0.000000 0.500000
Si Si7 0.811782 0.208222 0.627097
Si Si8 0.529280 0.930898 0.671312
O O1 0.758710 0.645135 0.362574
O O2 0.000000 0.500000 0.500000
O O3 0.032713 0.794591 0.567889
O O4 0.115030 0.524833 0.828118
O O5 0.970535 0.005980 0.326338
O O6 0.926711 0.212900 0.065904
O O7 0.982016 0.889575 0.149697
O O8 0.667560 0.034710 0.868960
O O9 0.536219 0.453640 0.824727
O O10 0.255764 0.656336 0.564689
O O11 0.500000 0.500000 0.000000
O O12 0.307316 0.520934 0.221888
O O13 0.380174 0.265185 0.198283
O O14 0.212106 0.693434 0.293460
O O15 0.000000 0.500000 0.000000
O O16 0.673890 0.071212 0.495060
O O17 0.500000 0.000000 0.500000
#
# Coordination Sequence:
#
# PCOD9063279 Si02
#       8
#     2   2   2   2   2   1   2   2
#     4  12  23  48  77 104 154 198 246 310 376 451
#     4  12  26  50  72 105 150 187 254 311 372 453
#     4  11  24  43  74 108 140 200 246 296 384 448
#     4  11  25  46  72 107 150 191 248 310 374 458
#     4  12  25  45  74 107 145 198 248 304 382 449
#     4  12  28  46  78 116 142 204 256 308 386 452
#     4  11  26  46  73 103 141 197 245 302 380 445
#     4  11  24  45  73 105 140 193 243 306 376 440
#
# _framework density 22.274115999999999
#
# number of rings (size 3 to 8) (size 9 to 14) (size 15 to 20)
#    0.000    0.533    4.000    4.400    3.733    2.133 
#    2.400    2.667    0.000    0.000    0.000    0.000 
#    0.000    0.000    0.000    0.000    0.000    0.000 
#
# Total GULP energy -83662.379006 kJ/mol
# GULP energy per Si atom -5577.491934 kJ/mol
# Density = 2.222342 g / cm^3
# Si number density = 22.274116 Si / 1000 Ang^3
#
#
#
# Elastic Constant Matrix: (Units=GPa)
#
#
# Indices 1 2 3 4 5 6 
#
# 1 103.1430 16.7936 23.0218 20.1439 -4.1819 -0.5860
# 2 16.7936 71.4749 14.5363 -2.1183 -3.8625 3.2186
# 3 23.0218 14.5363 87.2028 4.5126 -10.0639 18.3779
# 4 20.1439 -2.1183 4.5126 23.3520 14.2046 -11.9449
# 5 -4.1819 -3.8625 -10.0639 14.2046 43.5958 -4.3615
# 6 -0.5860 3.2186 18.3779 -11.9449 -4.3615 33.1711
#
#
#
# Elastic Compliance Matrix: (Units=1/GPa)
#
#
# Indices 1 2 3 4 5 6 
#
# 1 0.014364 -0.003279 -0.000304 -0.019559 0.006849 -0.005402
# 2 -0.003279 0.015326 -0.002686 0.006820 -0.001580 0.002191
# 3 -0.000304 -0.002686 0.016153 -0.013655 0.006636 -0.012739
# 4 -0.019559 0.006820 -0.013655 0.104079 -0.034382 0.039516
# 5 0.006849 -0.001580 0.006636 -0.034382 0.035072 -0.011172
# 6 -0.005402 0.002191 -0.012739 0.039516 -0.011172 0.049657
#
#
# Mechanical properties :
#
#
# Convention : Reuss Voigt Hill
#
# Bulk Modulus (GPa) = 30.02720 41.16935 35.59827
# Shear Modulus (GPa) = 19.35798 33.85506 26.60652
#
# Velocity S-wave (km/s) = 2.95121 3.90286 3.45991
# Velocity P-wave (km/s) = 5.01228 6.23160 5.65490
#
# Compressibility (1/GPa) = 0.03330314
#
# Stress axis : x y z
#
# Youngs Moduli (GPa) = 69.61852 65.24960 61.90864
#
# Poissons Ratio (x) = 0.21397 0.01885
# Poissons Ratio (y) = 0.22830 0.16629
# Poissons Ratio (z) = 0.02120 0.17526
#
# Static dielectric constant tensor:
#      x y z
#    x 1.844570 0.018800 0.040400 
#    y 0.018800 1.837690 0.027050 
#    z 0.040400 0.027050 1.828190 
# 
# From -- ./inp_files/447258.got.cif
#   From: 2010.05.17/outbox.cif.g08.bks.cpg/sg2_224_cif.got.tgz:447258.got - 2010.06.03 11:33:40.
