data_PCOD9063172
_publ_section_title
;
Structure prediction by ZEFSAII (Michael W. Deem and Ramdas Pophale) SiO2 
 PCOD9063172
Probable space group: P -1
;
_chemical_formula_sum "Si O2"
_cell_formula_units_Z 16
_cell_length_a 6.543219
_cell_length_b 15.079447
_cell_length_c 13.835765
_cell_angle_alpha 37.741887
_cell_angle_beta 114.281305
_cell_angle_gamma 124.557605
_cell_volume 686.285599
_symmetry_space_group_name_H-M "P -1"
_symmetry_group_IT_number 2
_symmetry_cell_setting 'triclinic'
loop_
_space_group_symop_operation_xyz
x,y,z
-x,-y,-z
loop_
_atom_site_type_symbol
_atom_site_label
_atom_site_fract_x
_atom_site_fract_y
_atom_site_fract_z
Si Si1 0.707788 0.644775 0.162117
Si Si2 0.227168 0.683753 0.030271
Si Si3 0.342028 0.158285 0.497281
Si Si4 0.899004 0.216958 0.274672
Si Si5 0.785980 0.079986 0.019145
Si Si6 0.239382 0.492662 0.513319
Si Si7 0.274878 0.227095 0.645123
Si Si8 0.196776 0.607889 0.717410
O O1 0.641015 0.549750 0.332502
O O2 0.706909 0.528563 0.174432
O O3 0.508301 0.711868 0.044112
O O4 0.986878 0.784322 0.111019
O O5 0.091214 0.679555 0.907032
O O6 0.218747 0.829927 0.961110
O O7 0.089113 0.521125 0.206293
O O8 0.276690 0.175730 0.580225
O O9 0.633324 0.261351 0.441458
O O10 0.168967 0.225405 0.347600
O O11 0.261584 0.972789 0.614755
O O12 0.774075 0.278887 0.281332
O O13 0.848373 0.930406 0.179314
O O14 0.500000 0.000000 0.000000
O O15 0.166379 0.353050 0.540599
O O16 0.435998 0.663384 0.365196
O O17 0.000000 0.500000 0.500000
#
# Coordination Sequence:
#
# PCOD9063172 Si02
#       8
#     2   2   2   2   2   2   2   2
#     4  11  25  44  68 103 138 178 226 280 341 409
#     4  11  25  45  69 101 139 179 227 282 343 403
#     4  11  24  46  70 101 137 179 231 284 338 405
#     4  11  25  45  70  99 138 180 231 285 339 401
#     4  11  24  45  72 100 137 179 225 281 341 409
#     4  11  25  43  70 100 134 177 222 280 346 405
#     4  11  24  44  69 101 136 174 224 283 338 412
#     4  11  24  43  71  99 137 182 227 280 338 402
#
# _framework density 23.313907
#
# number of rings (size 3 to 8) (size 9 to 14) (size 15 to 20)
#    0.000    1.000    2.500    3.000    1.750    8.000 
#    2.250    0.000    0.000    0.000    0.000    0.000 
#    0.000    0.000    0.000    0.000    0.000    0.000 
#
# Total GULP energy -89287.031870 kJ/mol
# GULP energy per Si atom -5580.439492 kJ/mol
# Density = 2.326084 g / cm^3
# Si number density = 23.313907 Si / 1000 Ang^3
#
#
#
# Elastic Constant Matrix: (Units=GPa)
#
#
# Indices 1 2 3 4 5 6 
#
# 1 107.2363 32.5355 21.3803 -10.6735 -5.8167 -9.5218
# 2 32.5355 97.5525 33.8191 -22.2143 3.8005 -21.2935
# 3 21.3803 33.8191 86.1612 -14.2602 3.6909 0.9571
# 4 -10.6735 -22.2143 -14.2602 42.8671 4.7296 -1.7462
# 5 -5.8167 3.8005 3.6909 4.7296 24.9511 -4.6142
# 6 -9.5218 -21.2935 0.9571 -1.7462 -4.6142 52.1884
#
#
#
# Elastic Compliance Matrix: (Units=1/GPa)
#
#
# Indices 1 2 3 4 5 6 
#
# 1 0.010838 -0.002831 -0.001677 0.000351 0.003354 0.001162
# 2 -0.002831 0.015530 -0.004286 0.006436 -0.002522 0.005891
# 3 -0.001677 -0.004286 0.014229 0.002296 -0.002737 -0.002481
# 4 0.000351 0.006436 0.002296 0.028305 -0.006037 0.003061
# 5 0.003354 -0.002522 -0.002737 -0.006037 0.043398 0.003268
# 6 0.001162 0.005891 -0.002481 0.003061 0.003268 0.022214
#
#
# Mechanical properties :
#
#
# Convention : Reuss Voigt Hill
#
# Bulk Modulus (GPa) = 43.45622 51.82443 47.64032
# Shear Modulus (GPa) = 31.29463 37.54900 34.42182
#
# Velocity S-wave (km/s) = 3.66774 4.01756 3.84663
# Velocity P-wave (km/s) = 6.05116 6.61803 6.34093
#
# Compressibility (1/GPa) = 0.02301166
#
# Stress axis : x y z
#
# Youngs Moduli (GPa) = 92.26485 64.39004 70.27784
#
# Poissons Ratio (x) = 0.18226 0.11785
# Poissons Ratio (y) = 0.26116 0.30119
# Poissons Ratio (z) = 0.15472 0.27595
#
# Static dielectric constant tensor:
#      x y z
#    x 1.842970 0.018060 0.027660 
#    y 0.018060 1.912280 0.020360 
#    z 0.027660 0.020360 1.899960 
# 
# From -- ./inp_files/484288.got.cif
#   From: 2010.05.17/outbox.cif.g08.bks.cpg/sg2_243_cif.got.tgz:484288.got - 2010.06.03 11:33:40.
