data_PCOD9063487
_publ_section_title
;
Structure prediction by ZEFSAII (Michael W. Deem and Ramdas Pophale) SiO2 
 PCOD9063487
Probable space group: P -1
;
_chemical_formula_sum "Si O2"
_cell_formula_units_Z 13
_cell_length_a 9.184730
_cell_length_b 8.533045
_cell_length_c 15.203892
_cell_angle_alpha 55.697164
_cell_angle_beta 121.397583
_cell_angle_gamma 148.641136
_cell_volume 510.051542
_symmetry_space_group_name_H-M "P -1"
_symmetry_group_IT_number 2
_symmetry_cell_setting 'triclinic'
loop_
_space_group_symop_operation_xyz
x,y,z
-x,-y,-z
loop_
_atom_site_type_symbol
_atom_site_label
_atom_site_fract_x
_atom_site_fract_y
_atom_site_fract_z
Si Si1 0.464486 0.610781 0.178409
Si Si2 0.571661 0.084639 0.596707
Si Si3 0.018279 0.753022 0.557854
Si Si4 0.131594 0.906784 0.069099
Si Si5 0.000000 0.500000 0.000000
Si Si6 0.015191 0.937845 0.678040
Si Si7 0.640884 0.420912 0.180729
O O1 0.595437 0.592482 0.149917
O O2 0.279762 0.623076 0.083481
O O3 0.246494 0.288426 0.267128
O O4 0.719278 0.896024 0.233310
O O5 0.886208 0.435081 0.593693
O O6 0.500000 0.000000 0.500000
O O7 0.479987 0.823132 0.705770
O O8 0.355487 0.055786 0.570578
O O9 0.930535 0.729458 0.636003
O O10 0.921777 0.810659 0.432409
O O11 0.078661 0.741613 0.017569
O O12 0.954147 0.655956 0.172565
O O13 0.451207 0.210698 0.102431
O O14 0.000000 0.000000 0.000000
#
# Coordination Sequence:
#
# PCOD9063487 Si02
#       7
#     2   2   2   2   1   2   2
#     4  12  27  48  76 110 148 202 250 319 383 458
#     4  12  25  43  73 109 152 199 251 301 376 465
#     4  11  24  44  69 109 147 201 247 314 371 457
#     4  12  28  54  77 112 150 199 260 324 388 447
#     4  12  32  50  82 112 152 198 268 324 386 460
#     4  11  25  45  73 105 155 192 254 313 384 451
#     4  12  27  49  78 110 156 198 249 315 385 454
#
# _framework density 25.487621000000001
#
# number of rings (size 3 to 8) (size 9 to 14) (size 15 to 20)
#    0.000    0.308    1.538    6.462    6.462    3.692 
#    0.000    0.000    0.000    0.000    0.000    0.000 
#    0.000    0.000    0.000    0.000    0.000    0.000 
#
# Total GULP energy -72612.686364 kJ/mol
# GULP energy per Si atom -5585.591259 kJ/mol
# Density = 2.542961 g / cm^3
# Si number density = 25.487621 Si / 1000 Ang^3
#
#
#
# Elastic Constant Matrix: (Units=GPa)
#
#
# Indices 1 2 3 4 5 6 
#
# 1 104.3191 22.2566 30.7431 6.6577 -2.8461 -23.9735
# 2 22.2566 111.1846 26.3039 9.7354 -13.6521 -5.8469
# 3 30.7431 26.3039 99.2851 7.6916 -8.7705 -13.3489
# 4 6.6577 9.7354 7.6916 33.5267 3.0433 3.5752
# 5 -2.8461 -13.6521 -8.7705 3.0433 34.2515 4.8933
# 6 -23.9735 -5.8469 -13.3489 3.5752 4.8933 46.3869
#
#
#
# Elastic Compliance Matrix: (Units=1/GPa)
#
#
# Indices 1 2 3 4 5 6 
#
# 1 0.012008 -0.001455 -0.002516 -0.001898 -0.000849 0.005534
# 2 -0.001455 0.010401 -0.001782 -0.002653 0.003826 -0.000153
# 3 -0.002516 -0.001782 0.011916 -0.002100 0.002054 0.001849
# 4 -0.001898 -0.002653 -0.002100 0.032248 -0.004050 -0.003978
# 5 -0.000849 0.003826 0.002054 -0.004050 0.031881 -0.002416
# 6 0.005534 -0.000153 0.001849 -0.003978 -0.002416 0.025492
#
#
# Mechanical properties :
#
#
# Convention : Reuss Voigt Hill
#
# Bulk Modulus (GPa) = 43.82638 52.59956 48.21297
# Shear Modulus (GPa) = 34.95040 38.53204 36.74122
#
# Velocity S-wave (km/s) = 3.70708 3.89240 3.80087
# Velocity P-wave (km/s) = 5.96287 6.39399 6.18219
#
# Compressibility (1/GPa) = 0.02281731
#
# Stress axis : x y z
#
# Youngs Moduli (GPa) = 83.27907 96.14426 83.91994
#
# Poissons Ratio (x) = 0.13993 0.21118
# Poissons Ratio (y) = 0.12120 0.14954
# Poissons Ratio (z) = 0.20957 0.17133
#
# Static dielectric constant tensor:
#      x y z
#    x 2.027110 0.045870 0.005840 
#    y 0.045870 1.962060 -0.090140 
#    z 0.005840 -0.090140 2.046690 
# 
# From -- ./inp_files/297227.got.cif
#   From: 2010.05.17/outbox.cif.g08.bks.cpg/sg2_149_cif.got.tgz:297227.got - 2010.06.03 11:33:40.
