data_PCOD9063479
_publ_section_title
;
Structure prediction by ZEFSAII (Michael W. Deem and Ramdas Pophale) SiO2 
 PCOD9063479
Probable space group: P -1
;
_chemical_formula_sum "Si O2"
_cell_formula_units_Z 16
_cell_length_a 11.558960
_cell_length_b 11.316672
_cell_length_c 9.282258
_cell_angle_alpha 41.378657
_cell_angle_beta 121.371395
_cell_angle_gamma 112.675496
_cell_volume 685.263660
_symmetry_space_group_name_H-M "P -1"
_symmetry_group_IT_number 2
_symmetry_cell_setting 'triclinic'
loop_
_space_group_symop_operation_xyz
x,y,z
-x,-y,-z
loop_
_atom_site_type_symbol
_atom_site_label
_atom_site_fract_x
_atom_site_fract_y
_atom_site_fract_z
Si Si1 0.267438 0.333959 0.463007
Si Si2 0.647566 0.793477 0.674931
Si Si3 0.361029 0.874548 0.433248
Si Si4 0.813372 0.282218 0.965287
Si Si5 0.367965 0.033369 0.981332
Si Si6 0.070459 0.747666 0.387268
Si Si7 0.024867 0.823463 0.587168
Si Si8 0.077817 0.348374 0.885296
O O1 0.334324 0.240635 0.452204
O O2 0.281547 0.546208 0.282128
O O3 0.107888 0.295838 0.378938
O O4 0.317918 0.233138 0.730200
O O5 0.492195 0.747995 0.653979
O O6 0.656068 0.995505 0.558832
O O7 0.773346 0.690590 0.923421
O O8 0.388794 0.992828 0.199894
O O9 0.221701 0.774129 0.405190
O O10 0.743791 0.104033 0.026296
O O11 0.958292 0.310939 0.955677
O O12 0.847366 0.270745 0.167678
O O13 0.500000 0.000000 0.000000
O O14 0.046232 0.875992 0.388485
O O15 0.063585 0.551731 0.634417
O O16 0.959806 0.767512 0.173832
O O17 0.000000 0.000000 0.500000
#
# Coordination Sequence:
#
# PCOD9063479 Si02
#       8
#     2   2   2   2   2   2   2   2
#     4  12  24  45  72 106 140 184 237 300 353 417
#     4  11  25  45  70 101 144 188 232 292 354 425
#     4  11  26  47  69  99 146 188 236 288 357 430
#     4  12  25  44  74 107 142 182 241 302 351 421
#     4  12  27  48  72 101 140 191 245 290 354 427
#     4  11  25  42  70 105 143 182 235 294 352 424
#     4  12  23  40  71 108 142 183 232 295 358 414
#     4  11  24  44  69 105 141 180 239 295 352 418
#
# _framework density 23.348676000000001
#
# number of rings (size 3 to 8) (size 9 to 14) (size 15 to 20)
#    0.000    0.500    6.250    1.875    1.750    1.500 
#    0.000    0.000    0.000    0.000    0.000    0.000 
#    0.000    0.000    0.000    0.000    0.000    0.000 
#
# Total GULP energy -89566.050131 kJ/mol
# GULP energy per Si atom -5597.878133 kJ/mol
# Density = 2.329553 g / cm^3
# Si number density = 23.348676 Si / 1000 Ang^3
#
#
#
# Elastic Constant Matrix: (Units=GPa)
#
#
# Indices 1 2 3 4 5 6 
#
# 1 79.0892 15.4299 16.9340 -1.6392 0.4719 -14.9731
# 2 15.4299 41.4821 28.7548 7.9481 -1.1000 -22.2014
# 3 16.9340 28.7548 108.5194 2.9507 4.2341 -10.2312
# 4 -1.6392 7.9481 2.9507 36.4763 -3.4986 -5.1627
# 5 0.4719 -1.1000 4.2341 -3.4986 31.6666 4.3096
# 6 -14.9731 -22.2014 -10.2312 -5.1627 4.3096 32.4539
#
#
#
# Elastic Compliance Matrix: (Units=1/GPa)
#
#
# Indices 1 2 3 4 5 6 
#
# 1 0.014336 -0.002088 -0.001222 0.001872 -0.000621 0.005181
# 2 -0.002088 0.047290 -0.009376 -0.005862 -0.001490 0.027697
# 3 -0.001222 -0.009376 0.011644 0.000481 -0.001397 -0.003045
# 4 0.001872 -0.005862 0.000481 0.029183 0.002754 0.001281
# 5 -0.000621 -0.001490 -0.001397 0.002754 0.032798 -0.005663
# 6 0.005181 0.027697 -0.003045 0.001281 -0.005663 0.052147
#
#
# Mechanical properties :
#
#
# Convention : Reuss Voigt Hill
#
# Bulk Modulus (GPa) = 20.87723 39.03648 29.95685
# Shear Modulus (GPa) = 21.85920 31.31749 26.58834
#
# Velocity S-wave (km/s) = 3.06307 3.66634 3.37820
# Velocity P-wave (km/s) = 4.63366 5.88880 5.29853
#
# Compressibility (1/GPa) = 0.04789907
#
# Stress axis : x y z
#
# Youngs Moduli (GPa) = 69.75306 21.14612 85.87815
#
# Poissons Ratio (x) = 0.04414 0.10496
# Poissons Ratio (y) = 0.14562 0.80520
# Poissons Ratio (z) = 0.08525 0.19827
#
# Static dielectric constant tensor:
#      x y z
#    x 1.889610 -0.026790 -0.005730 
#    y -0.026790 1.915260 0.000470 
#    z -0.005730 0.000470 1.908200 
# 
# From -- ./inp_files/261725.got.cif
#   From: 2010.05.17/outbox.cif.g08.bks.cpg/sg2_131_cif.got.tgz:261725.got - 2010.06.03 11:33:40.
