data_PCOD9063440
_publ_section_title
;
Structure prediction by ZEFSAII (Michael W. Deem and Ramdas Pophale) SiO2 
 PCOD9063440
Probable space group: P -1
;
_chemical_formula_sum "Si O2"
_cell_formula_units_Z 14
_cell_length_a 23.015545
_cell_length_b 13.908257
_cell_length_c 11.752501
_cell_angle_alpha 160.526323
_cell_angle_beta 30.651163
_cell_angle_gamma 148.504637
_cell_volume 619.930255
_symmetry_space_group_name_H-M "P -1"
_symmetry_group_IT_number 2
_symmetry_cell_setting 'triclinic'
loop_
_space_group_symop_operation_xyz
x,y,z
-x,-y,-z
loop_
_atom_site_type_symbol
_atom_site_label
_atom_site_fract_x
_atom_site_fract_y
_atom_site_fract_z
Si Si1 0.066751 0.756525 0.062312
Si Si2 0.861383 0.174056 0.752157
Si Si3 0.356915 0.788136 0.219513
Si Si4 0.742754 0.522197 0.174300
Si Si5 0.263449 0.989331 0.829233
Si Si6 0.478253 0.620435 0.461982
Si Si7 0.612558 0.380814 0.636408
O O1 0.167552 0.785356 0.021544
O O2 0.133419 0.843192 0.929600
O O3 0.000000 0.000000 0.500000
O O4 0.984284 0.425963 0.821252
O O5 0.839913 0.825062 0.375427
O O6 0.780418 0.271202 0.903960
O O7 0.290585 0.918912 0.576035
O O8 0.433230 0.055142 0.311028
O O9 0.272355 0.560991 0.024420
O O10 0.441917 0.613699 0.944114
O O11 0.614715 0.513661 0.432659
O O12 0.357918 0.880902 0.630298
O O13 0.280616 0.337518 0.205711
O O14 0.411065 0.662098 0.505655
O O15 0.500000 0.500000 0.000000
#
# Coordination Sequence:
#
# PCOD9063440 Si02
#       7
#     2   2   2   2   2   2   2
#     4  11  25  46  72  97 125 159 218 280 332 376
#     4  11  24  44  68  97 121 160 222 271 320 374
#     4  12  24  42  61  94 136 175 212 250 313 394
#     4  12  24  42  66  94 130 174 214 259 309 379
#     4  12  25  41  65  97 133 171 205 269 330 373
#     4  12  23  40  63  94 132 176 214 257 309 381
#     4  12  22  40  64  97 136 164 213 261 318 386
#
# _framework density 22.583185
#
# number of rings (size 3 to 8) (size 9 to 14) (size 15 to 20)
#    0.000    0.286    4.286    5.571    4.000    0.000 
#    0.000    1.429    0.000    0.000    0.000    0.000 
#    0.000    0.000    0.000    0.000    0.000    0.000 
#
# Total GULP energy -78251.762423 kJ/mol
# GULP energy per Si atom -5589.411602 kJ/mol
# Density = 2.253178 g / cm^3
# Si number density = 22.583185 Si / 1000 Ang^3
#
#
#
# Elastic Constant Matrix: (Units=GPa)
#
#
# Indices 1 2 3 4 5 6 
#
# 1 92.7999 7.1912 33.7872 -2.6283 22.5804 1.6898
# 2 7.1912 96.5303 24.0087 19.8865 13.6679 3.9952
# 3 33.7872 24.0087 71.5981 14.5650 6.4077 1.1597
# 4 -2.6283 19.8865 14.5650 35.8208 4.5828 -0.7156
# 5 22.5804 13.6679 6.4077 4.5828 46.8708 12.4072
# 6 1.6898 3.9952 1.1597 -0.7156 12.4072 24.4434
#
#
#
# Elastic Compliance Matrix: (Units=1/GPa)
#
#
# Indices 1 2 3 4 5 6 
#
# 1 0.015691 0.000786 -0.008034 0.005086 -0.008094 0.003425
# 2 0.000786 0.012640 -0.003264 -0.005269 -0.002936 -0.000629
# 3 -0.008034 -0.003264 0.020094 -0.007399 0.003258 -0.001735
# 4 0.005086 -0.005269 -0.007399 0.034869 -0.004401 0.004115
# 5 -0.008094 -0.002936 0.003258 -0.004401 0.029892 -0.014417
# 6 0.003425 -0.000629 -0.001735 0.004115 -0.014417 0.048298
#
#
# Mechanical properties :
#
#
# Convention : Reuss Voigt Hill
#
# Bulk Modulus (GPa) = 36.49539 43.43360 39.96450
# Shear Modulus (GPa) = 26.09017 34.48972 30.28995
#
# Velocity S-wave (km/s) = 3.40265 3.91222 3.66630
# Velocity P-wave (km/s) = 5.62431 6.29934 5.97137
#
# Compressibility (1/GPa) = 0.02740072
#
# Stress axis : x y z
#
# Youngs Moduli (GPa) = 63.73015 79.11271 49.76508
#
# Poissons Ratio (x) = -0.06217 0.39980
# Poissons Ratio (y) = -0.05008 0.16246
# Poissons Ratio (z) = 0.51200 0.25826
#
# Static dielectric constant tensor:
#      x y z
#    x 1.861690 0.011140 -0.043710 
#    y 0.011140 1.908540 -0.033480 
#    z -0.043710 -0.033480 1.853210 
# 
# From -- ./inp_files/475229.got.cif
#   From: 2010.05.17/outbox.cif.g08.bks.cpg/sg2_238_cif.got.tgz:475229.got - 2010.06.03 11:33:40.
