data_PCOD9063456
_publ_section_title
;
Structure prediction by ZEFSAII (Michael W. Deem and Ramdas Pophale) SiO2 
 PCOD9063456
Probable space group: P -1
;
_chemical_formula_sum "Si O2"
_cell_formula_units_Z 16
_cell_length_a 8.675970
_cell_length_b 16.270742
_cell_length_c 12.541780
_cell_angle_alpha 151.029535
_cell_angle_beta 90.416369
_cell_angle_gamma 102.519661
_cell_volume 761.095313
_symmetry_space_group_name_H-M "P -1"
_symmetry_group_IT_number 2
_symmetry_cell_setting 'triclinic'
loop_
_space_group_symop_operation_xyz
x,y,z
-x,-y,-z
loop_
_atom_site_type_symbol
_atom_site_label
_atom_site_fract_x
_atom_site_fract_y
_atom_site_fract_z
Si Si1 0.372786 0.355311 0.246800
Si Si2 0.552626 0.442638 0.113672
Si Si3 0.077204 0.550590 0.882197
Si Si4 0.900899 0.478325 0.583137
Si Si5 0.352948 0.959626 0.864716
Si Si6 0.270087 0.819168 0.480708
Si Si7 0.858720 0.074376 0.588470
Si Si8 0.431435 0.244795 0.669226
O O1 0.500000 0.500000 0.500000
O O2 0.464992 0.385280 0.164424
O O3 0.224220 0.421867 0.308344
O O4 0.317107 0.142479 0.052863
O O5 0.729461 0.425243 0.088187
O O6 0.605035 0.659708 0.325484
O O7 0.432161 0.337894 0.890743
O O8 0.032863 0.578350 0.793163
O O9 0.921784 0.342301 0.673845
O O10 0.059365 0.702192 0.131600
O O11 0.798851 0.249174 0.341925
O O12 0.000000 0.500000 0.500000
O O13 0.387346 0.917342 0.695402
O O14 0.500000 0.000000 0.000000
O O15 0.240543 0.961771 0.565264
O O16 0.378369 0.735900 0.322011
O O17 0.716650 0.969388 0.559644
O O18 0.000000 0.000000 0.500000
#
# Coordination Sequence:
#
# PCOD9063456 Si02
#       8
#     2   2   2   2   2   2   2   2
#     4  12  25  46  76 101 137 187 237 294 353 415
#     4  11  24  44  69 100 136 181 233 282 356 415
#     4  11  25  43  67  96 142 181 222 292 352 414
#     4  11  26  49  69 105 141 181 234 297 352 416
#     4  11  25  44  75 103 136 186 238 291 349 418
#     4  11  24  45  68  99 143 180 231 287 354 416
#     4  12  26  40  65 103 139 183 232 279 353 421
#     4  11  25  41  70 100 137 182 232 285 344 428
#
# _framework density 21.022334000000001
#
# number of rings (size 3 to 8) (size 9 to 14) (size 15 to 20)
#    0.000    0.750    2.500    4.500    8.750    0.500 
#    0.000    0.000    0.000    0.000    0.000    0.000 
#    0.000    0.000    0.000    0.000    0.000    0.000 
#
# Total GULP energy -89297.622302 kJ/mol
# GULP energy per Si atom -5581.101394 kJ/mol
# Density = 2.097449 g / cm^3
# Si number density = 21.022334 Si / 1000 Ang^3
#
#
#
# Elastic Constant Matrix: (Units=GPa)
#
#
# Indices 1 2 3 4 5 6 
#
# 1 121.0641 60.4866 28.9114 -1.4663 -28.6687 -14.8406
# 2 60.4866 157.2053 48.9531 -3.9332 -13.1623 -19.1813
# 3 28.9114 48.9531 86.0031 0.5545 -6.0792 -7.9215
# 4 -1.4663 -3.9332 0.5545 48.2903 -5.8615 -0.1565
# 5 -28.6687 -13.1623 -6.0792 -5.8615 29.1611 -4.6928
# 6 -14.8406 -19.1813 -7.9215 -0.1565 -4.6928 36.8846
#
#
#
# Elastic Compliance Matrix: (Units=1/GPa)
#
#
# Indices 1 2 3 4 5 6 
#
# 1 0.013999 -0.003098 -0.001519 0.001820 0.013281 0.005393
# 2 -0.003098 0.009203 -0.003877 0.000821 0.000920 0.002827
# 3 -0.001519 -0.003877 0.014366 -0.000561 -0.000294 0.000418
# 4 0.001820 0.000821 -0.000561 0.021658 0.006715 0.001985
# 5 0.013281 0.000920 -0.000294 0.006715 0.051029 0.012280
# 6 0.005393 0.002827 0.000418 0.001985 0.012280 0.032412
#
#
# Mechanical properties :
#
#
# Convention : Reuss Voigt Hill
#
# Bulk Modulus (GPa) = 48.58874 71.21942 59.90408
# Shear Modulus (GPa) = 30.02749 37.92862 33.97806
#
# Velocity S-wave (km/s) = 3.78347 4.25220 4.02466
# Velocity P-wave (km/s) = 6.49994 7.61970 7.08199
#
# Compressibility (1/GPa) = 0.02058090
#
# Stress axis : x y z
#
# Youngs Moduli (GPa) = 71.43562 108.66349 69.60822
#
# Poissons Ratio (x) = 0.33660 0.10573
# Poissons Ratio (y) = 0.22128 0.26985
# Poissons Ratio (z) = 0.10851 0.42126
#
# Static dielectric constant tensor:
#      x y z
#    x 1.774960 0.015920 0.003090 
#    y 0.015920 1.884320 -0.000340 
#    z 0.003090 -0.000340 1.816480 
# 
# From -- ./inp_files/352369.got.cif
#   From: 2010.05.17/outbox.cif.g08.bks.cpg/sg2_177_cif.got.tgz:352369.got - 2010.06.03 11:33:40.
