data_PCOD9063100
_publ_section_title
;
Structure prediction by ZEFSAII (Michael W. Deem and Ramdas Pophale) SiO2 
 PCOD9063100
Probable space group: P -1
;
_chemical_formula_sum "Si O2"
_cell_formula_units_Z 16
_cell_length_a 8.959874
_cell_length_b 10.522886
_cell_length_c 15.800150
_cell_angle_alpha 35.100823
_cell_angle_beta 86.429903
_cell_angle_gamma 107.685979
_cell_volume 672.047025
_symmetry_space_group_name_H-M "P -1"
_symmetry_group_IT_number 2
_symmetry_cell_setting 'triclinic'
loop_
_space_group_symop_operation_xyz
x,y,z
-x,-y,-z
loop_
_atom_site_type_symbol
_atom_site_label
_atom_site_fract_x
_atom_site_fract_y
_atom_site_fract_z
Si Si1 0.401677 0.971707 0.693261
Si Si2 0.669433 0.829259 0.815420
Si Si3 0.032490 0.845535 0.514839
Si Si4 0.810560 0.170501 0.057196
Si Si5 0.715282 0.275726 0.841786
Si Si6 0.212152 0.587370 0.747615
Si Si7 0.673179 0.591856 0.314478
Si Si8 0.052066 0.746500 0.296844
O O1 0.568075 0.972393 0.726031
O O2 0.233181 0.821920 0.848757
O O3 0.347694 0.817177 0.688995
O O4 0.482378 0.292109 0.510211
O O5 0.825141 0.936657 0.679135
O O6 0.796160 0.958496 0.823805
O O7 0.500000 0.500000 0.000000
O O8 0.138018 0.723666 0.616746
O O9 0.818304 0.588118 0.631067
O O10 0.000000 0.000000 0.500000
O O11 0.681790 0.857179 0.192058
O O12 0.762553 0.330932 0.909960
O O13 0.029520 0.325762 0.945535
O O14 0.840052 0.219321 0.812583
O O15 0.500000 0.000000 0.000000
O O16 0.293128 0.468449 0.749383
O O17 0.852072 0.665145 0.321835
O O18 0.000000 0.500000 0.500000
#
# Coordination Sequence:
#
# PCOD9063100 Si02
#       8
#     2   2   2   2   2   2   2   2
#     4  12  25  46  69 100 141 175 231 285 337 409
#     4  12  28  43  71 103 136 182 228 280 345 406
#     4  11  25  46  66 100 140 177 226 279 343 403
#     4  11  26  43  68 104 132 177 234 277 342 407
#     4  11  24  43  70  98 136 178 224 285 336 405
#     4  11  24  47  68  98 142 181 219 286 343 404
#     4  12  24  45  72  98 136 186 225 280 345 403
#     4  12  22  47  70  93 138 179 226 283 339 399
#
# _framework density 23.807858
#
# number of rings (size 3 to 8) (size 9 to 14) (size 15 to 20)
#    0.000    0.500    6.250    2.250    7.000    2.000 
#    0.000    0.000    0.000    0.000    0.000    0.000 
#    0.000    0.000    0.000    0.000    0.000    0.000 
#
# Total GULP energy -89401.419674 kJ/mol
# GULP energy per Si atom -5587.588730 kJ/mol
# Density = 2.375367 g / cm^3
# Si number density = 23.807858 Si / 1000 Ang^3
#
#
#
# Elastic Constant Matrix: (Units=GPa)
#
#
# Indices 1 2 3 4 5 6 
#
# 1 34.9484 6.6082 12.2408 6.6456 4.0907 9.1991
# 2 6.6082 124.7641 35.3476 -4.7375 -2.7046 5.2586
# 3 12.2408 35.3476 139.7106 -12.9637 -27.7214 6.2537
# 4 6.6456 -4.7375 -12.9637 48.5419 -5.6333 -6.9486
# 5 4.0907 -2.7046 -27.7214 -5.6333 28.0499 -5.3821
# 6 9.1991 5.2586 6.2537 -6.9486 -5.3821 38.0361
#
#
#
# Elastic Compliance Matrix: (Units=1/GPa)
#
#
# Indices 1 2 3 4 5 6 
#
# 1 0.038688 -0.000261 -0.007259 -0.011099 -0.017494 -0.012630
# 2 -0.000261 0.008741 -0.002520 -0.000143 -0.001833 -0.001016
# 3 -0.007259 -0.002520 0.011647 0.005971 0.014156 0.003283
# 4 -0.011099 -0.000143 0.005971 0.026621 0.014510 0.008639
# 5 -0.017494 -0.001833 0.014156 0.014510 0.057410 0.012931
# 6 -0.012630 -0.001016 0.003283 0.008639 0.012931 0.032354
#
#
# Mechanical properties :
#
#
# Convention : Reuss Voigt Hill
#
# Bulk Modulus (GPa) = 25.64399 45.31290 35.47845
# Shear Modulus (GPa) = 23.97609 39.27400 31.62505
#
# Velocity S-wave (km/s) = 3.17687 4.06596 3.64860
# Velocity P-wave (km/s) = 4.92456 6.41224 5.71700
#
# Compressibility (1/GPa) = 0.03899549
#
# Stress axis : x y z
#
# Youngs Moduli (GPa) = 25.84761 114.40856 85.85802
#
# Poissons Ratio (x) = 0.02983 0.62328
# Poissons Ratio (y) = 0.00674 0.21637
# Poissons Ratio (z) = 0.18764 0.28832
#
# Static dielectric constant tensor:
#      x y z
#    x 1.930600 0.018400 0.067760 
#    y 0.018400 1.898010 -0.001380 
#    z 0.067760 -0.001380 1.995150 
# 
# From -- ./inp_files/299303.got.cif
#   From: 2010.05.17/outbox.cif.g08.bks.cpg/sg2_150_cif.got.tgz:299303.got - 2010.06.03 11:33:40.
