data_PCOD9063628
_publ_section_title
;
Structure prediction by ZEFSAII (Michael W. Deem and Ramdas Pophale) SiO2 
 PCOD9063628
Probable space group: P -1
;
_chemical_formula_sum "Si O2"
_cell_formula_units_Z 14
_cell_length_a 13.261941
_cell_length_b 16.270511
_cell_length_c 11.283507
_cell_angle_alpha 138.903800
_cell_angle_beta 22.368583
_cell_angle_gamma 137.448806
_cell_volume 601.312448
_symmetry_space_group_name_H-M "P -1"
_symmetry_group_IT_number 2
_symmetry_cell_setting 'triclinic'
loop_
_space_group_symop_operation_xyz
x,y,z
-x,-y,-z
loop_
_atom_site_type_symbol
_atom_site_label
_atom_site_fract_x
_atom_site_fract_y
_atom_site_fract_z
Si Si1 0.647339 0.048516 0.769515
Si Si2 0.218645 0.910202 0.694847
Si Si3 0.785787 0.509402 0.640208
Si Si4 0.154187 0.911809 0.032887
Si Si5 0.313618 0.474704 0.787876
Si Si6 0.835896 0.285512 0.672329
Si Si7 0.255274 0.655771 0.716405
O O1 0.883131 0.965457 0.409210
O O2 0.792031 0.191414 0.732077
O O3 0.411116 0.017779 0.895232
O O4 0.500000 0.000000 0.000000
O O5 0.234347 0.803662 0.463183
O O6 0.500000 0.000000 0.500000
O O7 0.146321 0.862550 0.853880
O O8 0.000000 0.000000 0.000000
O O9 0.774013 0.391879 0.437848
O O10 0.000000 0.500000 0.500000
O O11 0.878085 0.634103 0.593600
O O12 0.500000 0.500000 0.000000
O O13 0.206337 0.797842 0.936132
O O14 0.500000 0.500000 0.500000
O O15 0.452771 0.368607 0.587846
O O16 0.321392 0.598793 0.996747
O O17 0.006842 0.428709 0.034316
#
# Coordination Sequence:
#
# PCOD9063628 Si02
#       7
#     2   2   2   2   2   2   2
#     4  12  28  48  72 111 150 204 251 303 372 446
#     4  12  24  45  70 110 151 190 248 302 376 450
#     4  11  24  44  71 108 144 188 241 307 374 436
#     4  12  25  47  73 105 153 193 249 308 373 446
#     4  11  26  47  72 106 142 196 249 306 376 432
#     4  11  26  47  79 109 156 191 255 307 382 444
#     4  11  25  44  69 104 140 187 247 299 371 439
#
# _framework density 23.282404
#
# number of rings (size 3 to 8) (size 9 to 14) (size 15 to 20)
#    0.000    0.571    2.857    4.286    4.000    9.143 
#    0.000    0.000    0.000    0.000    0.000    0.000 
#    0.000    0.000    0.000    0.000    0.000    0.000 
#
# Total GULP energy -78209.182977 kJ/mol
# GULP energy per Si atom -5586.370213 kJ/mol
# Density = 2.322941 g / cm^3
# Si number density = 23.282404 Si / 1000 Ang^3
#
#
#
# Elastic Constant Matrix: (Units=GPa)
#
#
# Indices 1 2 3 4 5 6 
#
# 1 66.5270 17.5955 29.9520 -16.6734 -0.8853 -15.1008
# 2 17.5955 109.2766 63.5171 -15.9198 12.9820 -16.6409
# 3 29.9520 63.5171 179.5730 -20.8824 -1.0248 -7.4816
# 4 -16.6734 -15.9198 -20.8824 23.8689 -0.6094 1.6866
# 5 -0.8853 12.9820 -1.0248 -0.6094 28.3994 -8.1204
# 6 -15.1008 -16.6409 -7.4816 1.6866 -8.1204 38.2531
#
#
#
# Elastic Compliance Matrix: (Units=1/GPa)
#
#
# Indices 1 2 3 4 5 6 
#
# 1 0.020801 0.000427 -0.001781 0.012759 0.002985 0.008120
# 2 0.000427 0.013407 -0.004066 0.005279 -0.005032 0.003905
# 3 -0.001781 -0.004066 0.007612 0.002802 0.001939 -0.000695
# 4 0.012759 0.005279 0.002802 0.056409 0.000893 0.005584
# 5 0.002985 -0.005032 0.001939 0.000893 0.039926 0.007804
# 6 0.008120 0.003905 -0.000695 0.005584 0.007804 0.032320
#
#
# Mechanical properties :
#
#
# Convention : Reuss Voigt Hill
#
# Bulk Modulus (GPa) = 32.27929 64.16733 48.22331
# Shear Modulus (GPa) = 26.09028 34.39173 30.24100
#
# Velocity S-wave (km/s) = 3.35117 3.84755 3.60790
# Velocity P-wave (km/s) = 5.37291 6.88175 6.17360
#
# Compressibility (1/GPa) = 0.03097962
#
# Stress axis : x y z
#
# Youngs Moduli (GPa) = 48.07420 74.58818 131.37327
#
# Poissons Ratio (x) = -0.03183 0.23404
# Poissons Ratio (y) = -0.02052 0.53410
# Poissons Ratio (z) = 0.08564 0.30324
#
# Static dielectric constant tensor:
#      x y z
#    x 1.732250 0.058170 0.090330 
#    y 0.058170 1.879940 -0.061640 
#    z 0.090330 -0.061640 1.814740 
# 
# From -- ./inp_files/456786.got.cif
#   From: 2010.05.17/outbox.cif.g08.bks.cpg/sg2_229_cif.got.tgz:456786.got - 2010.06.03 11:33:40.
