data_PCOD9063173
_publ_section_title
;
Structure prediction by ZEFSAII (Michael W. Deem and Ramdas Pophale) SiO2 
 PCOD9063173
Probable space group: P -1
;
_chemical_formula_sum "Si O2"
_cell_formula_units_Z 15
_cell_length_a 8.771144
_cell_length_b 12.584537
_cell_length_c 18.830668
_cell_angle_alpha 148.911329
_cell_angle_beta 53.380769
_cell_angle_gamma 140.238619
_cell_volume 674.335145
_symmetry_space_group_name_H-M "P -1"
_symmetry_group_IT_number 2
_symmetry_cell_setting 'triclinic'
loop_
_space_group_symop_operation_xyz
x,y,z
-x,-y,-z
loop_
_atom_site_type_symbol
_atom_site_label
_atom_site_fract_x
_atom_site_fract_y
_atom_site_fract_z
Si Si1 0.309185 0.737210 0.947326
Si Si2 0.981581 0.873256 0.121973
Si Si3 0.939658 0.735496 0.891964
Si Si4 0.365082 0.066019 0.521801
Si Si5 0.500000 0.500000 0.500000
Si Si6 0.212109 0.470580 0.430409
Si Si7 0.862057 0.545661 0.313145
Si Si8 0.593456 0.589311 0.183205
O O1 0.185264 0.517386 0.793824
O O2 0.415567 0.650748 0.924895
O O3 0.145799 0.800164 0.066938
O O4 0.500000 0.000000 0.000000
O O5 0.735459 0.715124 0.143318
O O6 0.933648 0.758524 0.991207
O O7 0.113410 0.183223 0.263881
O O8 0.676135 0.507809 0.805065
O O9 0.123922 0.679088 0.789627
O O10 0.000000 0.000000 0.000000
O O11 0.564353 0.291962 0.542164
O O12 0.270837 0.184550 0.666488
O O13 0.500000 0.000000 0.500000
O O14 0.130445 0.817271 0.405699
O O15 0.300200 0.483230 0.493302
O O16 0.656219 0.532286 0.403599
O O17 0.000000 0.500000 0.500000
#
# Coordination Sequence:
#
# PCOD9063173 Si02
#       8
#     2   2   2   2   1   2   2   2
#     4  11  24  46  71 101 148 191 245 302 373 450
#     4  11  25  45  68 105 142 185 249 304 370 442
#     4  11  24  43  71  99 141 190 241 295 366 441
#     4  12  24  45  73 104 151 194 247 311 377 449
#     4  12  26  46  72 108 150 186 252 304 370 448
#     4  12  28  48  75 109 149 198 251 314 378 452
#     4  11  25  45  70 107 143 192 245 299 374 441
#     4  12  23  42  72 102 142 191 240 306 367 441
#
# _framework density 22.244130999999999
#
# number of rings (size 3 to 8) (size 9 to 14) (size 15 to 20)
#    0.000    0.533    1.333    8.000    1.867    3.200 
#    0.000    1.333    0.000    0.000    0.000    0.000 
#    0.000    0.000    0.000    0.000    0.000    0.000 
#
# Total GULP energy -83640.363942 kJ/mol
# GULP energy per Si atom -5576.024263 kJ/mol
# Density = 2.219350 g / cm^3
# Si number density = 22.244131 Si / 1000 Ang^3
#
#
#
# Elastic Constant Matrix: (Units=GPa)
#
#
# Indices 1 2 3 4 5 6 
#
# 1 119.5437 10.4253 40.4748 7.7285 -12.5805 -0.5024
# 2 10.4253 79.2146 29.7128 2.5291 -4.7765 2.2610
# 3 40.4748 29.7128 109.1759 6.6072 -3.2539 5.4968
# 4 7.7285 2.5291 6.6072 31.6529 6.3109 -6.2650
# 5 -12.5805 -4.7765 -3.2539 6.3109 44.4789 -2.6001
# 6 -0.5024 2.2610 5.4968 -6.2650 -2.6001 32.7217
#
#
#
# Elastic Compliance Matrix: (Units=1/GPa)
#
#
# Indices 1 2 3 4 5 6 
#
# 1 0.010011 0.000261 -0.003590 -0.002193 0.002940 0.000553
# 2 0.000261 0.014149 -0.003843 -0.000741 0.001396 -0.000359
# 3 -0.003590 -0.003843 0.011724 -0.001586 -0.000468 -0.002100
# 4 -0.002193 -0.000741 -0.001586 0.034885 -0.005384 0.006535
# 5 0.002940 0.001396 -0.000468 -0.005384 0.024248 0.000923
# 6 0.000553 -0.000359 -0.002100 0.006535 0.000923 0.032271
#
#
# Mechanical properties :
#
#
# Convention : Reuss Voigt Hill
#
# Bulk Modulus (GPa) = 46.42480 52.12889 49.27684
# Shear Modulus (GPa) = 33.59910 36.92545 35.26228
#
# Velocity S-wave (km/s) = 3.89069 4.07874 3.98583
# Velocity P-wave (km/s) = 6.41087 6.75776 6.58660
#
# Compressibility (1/GPa) = 0.02154021
#
# Stress axis : x y z
#
# Youngs Moduli (GPa) = 99.88601 70.67557 85.29508
#
# Poissons Ratio (x) = -0.01841 0.30620
# Poissons Ratio (y) = -0.02602 0.32777
# Poissons Ratio (z) = 0.35858 0.27159
#
# Static dielectric constant tensor:
#      x y z
#    x 1.897220 0.011950 0.005560 
#    y 0.011950 1.824450 0.006480 
#    z 0.005560 0.006480 1.872730 
# 
# From -- ./inp_files/316080.got.cif
#   From: 2010.05.17/outbox.cif.g08.bks.cpg/sg2_159_cif.got.tgz:316080.got - 2010.06.03 11:33:40.
