data_PCOD9063127
_publ_section_title
;
Structure prediction by ZEFSAII (Michael W. Deem and Ramdas Pophale) SiO2 
 PCOD9063127
Probable space group: P -1
;
_chemical_formula_sum "Si O2"
_cell_formula_units_Z 16
_cell_length_a 14.204805
_cell_length_b 11.990006
_cell_length_c 6.123038
_cell_angle_alpha 117.671315
_cell_angle_beta 118.037785
_cell_angle_gamma 55.833671
_cell_volume 732.357062
_symmetry_space_group_name_H-M "P -1"
_symmetry_group_IT_number 2
_symmetry_cell_setting 'triclinic'
loop_
_space_group_symop_operation_xyz
x,y,z
-x,-y,-z
loop_
_atom_site_type_symbol
_atom_site_label
_atom_site_fract_x
_atom_site_fract_y
_atom_site_fract_z
Si Si1 0.770340 0.669955 0.464324
Si Si2 0.454773 0.185105 0.356485
Si Si3 0.207728 0.613575 0.936231
Si Si4 0.982673 0.623649 0.927880
Si Si5 0.539048 0.426864 0.723286
Si Si6 0.941125 0.107455 0.228670
Si Si7 0.354272 0.092201 0.773654
Si Si8 0.149765 0.067862 0.746848
O O1 0.672008 0.760535 0.615946
O O2 0.745511 0.538894 0.258298
O O3 0.905084 0.610117 0.632569
O O4 0.746190 0.776355 0.337234
O O5 0.499796 0.302104 0.553367
O O6 0.556978 0.033002 0.394716
O O7 0.428238 0.155515 0.051894
O O8 0.138140 0.737548 0.803458
O O9 0.109406 0.617475 0.004217
O O10 0.319029 0.628750 0.169671
O O11 0.900296 0.781396 0.056920
O O12 0.000000 0.500000 0.000000
O O13 0.500000 0.500000 0.500000
O O14 0.500000 0.500000 0.000000
O O15 0.053870 0.095492 0.477263
O O16 0.862125 0.049738 0.225411
O O17 0.000000 0.000000 0.000000
O O18 0.282699 0.027623 0.779818
#
# Coordination Sequence:
#
# PCOD9063127 Si02
#       8
#     2   2   2   2   2   2   2   2
#     4  12  24  47  72 105 145 185 244 308 376 450
#     4  11  26  47  73 109 143 200 249 312 380 444
#     4  12  26  46  76 105 147 200 243 313 380 462
#     4  12  25  42  74 108 142 187 239 311 379 447
#     4  12  29  51  78 112 158 205 261 320 384 467
#     4  11  25  46  68 104 147 189 240 292 375 452
#     4  11  25  46  74 108 144 190 252 313 379 448
#     4  11  24  43  71 102 147 184 241 309 368 453
#
# _framework density 21.847266999999999
#
# number of rings (size 3 to 8) (size 9 to 14) (size 15 to 20)
#    0.000    0.500    3.750    3.750    3.500    2.000 
#    2.250    0.000    0.000    0.000    0.000    0.000 
#    0.000    0.000    0.000    0.000    0.000    0.000 
#
# Total GULP energy -89346.514826 kJ/mol
# GULP energy per Si atom -5584.157177 kJ/mol
# Density = 2.179754 g / cm^3
# Si number density = 21.847267 Si / 1000 Ang^3
#
#
#
# Elastic Constant Matrix: (Units=GPa)
#
#
# Indices 1 2 3 4 5 6 
#
# 1 157.3975 49.0560 57.2513 0.8578 26.7619 -6.3518
# 2 49.0560 91.9165 19.0411 -5.4026 -13.8350 14.4080
# 3 57.2513 19.0411 74.3479 7.0011 7.9855 22.2373
# 4 0.8578 -5.4026 7.0011 41.4715 -2.5909 -3.3983
# 5 26.7619 -13.8350 7.9855 -2.5909 27.1387 13.4656
# 6 -6.3518 14.4080 22.2373 -3.3983 13.4656 30.5370
#
#
#
# Elastic Compliance Matrix: (Units=1/GPa)
#
#
# Indices 1 2 3 4 5 6 
#
# 1 -0.026420 0.029350 0.026126 -0.001434 0.066958 -0.068054
# 2 0.029350 -0.017028 -0.031232 0.003935 -0.059619 0.063610
# 3 0.026126 -0.031232 -0.007618 -0.003007 -0.066980 0.054918
# 4 -0.001434 0.003935 -0.003007 0.025578 0.006806 -0.000120
# 5 0.066958 -0.059619 -0.066980 0.006806 -0.108370 0.139376
# 6 -0.068054 0.063610 0.054918 -0.000120 0.139376 -0.112885
#
#
# Mechanical properties :
#
#
# Convention : Reuss Voigt Hill
#
# Bulk Modulus (GPa) = -387.78463 63.81765 -161.98349
# Shear Modulus (GPa) = -16.88685 33.05034 8.08175
#
# Velocity S-wave (km/s) = -2.78321 3.89368 1.92542
# Velocity P-wave (km/s) = 13.71903 7.03481 8.32836
#
# Compressibility (1/GPa) = -0.00257875
#
# Stress axis : x y z
#
# Youngs Moduli (GPa) = -37.84982 -58.72746 -131.27342
#
# Poissons Ratio (x) = 1.72364 3.42965
# Poissons Ratio (y) = 1.11088 -4.09997
# Poissons Ratio (z) = 0.98886 -1.83419
#
# Static dielectric constant tensor:
#      x y z
#    x 1.813830 -0.031160 -0.053730 
#    y -0.031160 1.765850 -0.074120 
#    z -0.053730 -0.074120 1.771160 
# 
# From -- ./inp_files/95556.got.cif
#   From: 2010.05.17/outbox.cif.g08.bks.cpg/sg2_48_cif.got.tgz:95556.got - 2010.06.03 11:33:40.
