data_PCOD9063821
_publ_section_title
;
Structure prediction by ZEFSAII (Michael W. Deem and Ramdas Pophale) SiO2 
 PCOD9063821
Probable space group: P -1
;
_chemical_formula_sum "Si O2"
_cell_formula_units_Z 13
_cell_length_a 13.068200
_cell_length_b 9.426131
_cell_length_c 8.820797
_cell_angle_alpha 74.630947
_cell_angle_beta 56.062007
_cell_angle_gamma 37.186096
_cell_volume 508.641946
_symmetry_space_group_name_H-M "P -1"
_symmetry_group_IT_number 2
_symmetry_cell_setting 'triclinic'
loop_
_space_group_symop_operation_xyz
x,y,z
-x,-y,-z
loop_
_atom_site_type_symbol
_atom_site_label
_atom_site_fract_x
_atom_site_fract_y
_atom_site_fract_z
Si Si1 0.786961 0.648104 0.210295
Si Si2 0.750977 0.998294 0.251594
Si Si3 0.126910 0.723093 0.556634
Si Si4 0.500000 0.500000 0.500000
Si Si5 0.529802 0.118811 0.848671
Si Si6 0.027522 0.300266 0.567369
Si Si7 0.319806 0.795318 0.073834
O O1 0.676977 0.902136 0.298221
O O2 0.847240 0.460353 0.327483
O O3 0.649724 0.703169 0.178778
O O4 0.000000 0.500000 0.000000
O O5 0.954472 0.762651 0.253907
O O6 0.619867 0.240499 0.392918
O O7 0.761243 0.069878 0.061248
O O8 0.300142 0.662737 0.502269
O O9 0.129572 0.656289 0.402749
O O10 0.897844 0.010597 0.707013
O O11 0.546545 0.215313 0.942017
O O12 0.743177 0.935223 0.631442
O O13 0.500000 0.000000 0.000000
O O14 0.000000 0.500000 0.500000
O O15 0.500000 0.500000 0.000000
#
# Coordination Sequence:
#
# PCOD9063821 Si02
#       7
#     2   2   2   1   2   2   2
#     4  12  23  47  81 114 148 203 273 334 385 461
#     4  12  27  49  75 116 157 206 263 329 402 464
#     4  11  26  51  76 111 161 205 271 321 400 480
#     4  12  32  48  72 118 170 214 250 320 412 492
#     4  11  24  44  74 112 150 199 266 320 385 471
#     4  11  25  45  78 113 151 200 257 336 387 457
#     4  11  27  51  78 111 156 213 263 327 400 485
#
# _framework density 25.558254000000002
#
# number of rings (size 3 to 8) (size 9 to 14) (size 15 to 20)
#    0.000    0.615    4.615    1.846    8.615    3.692 
#    0.000    0.000    0.000    0.000    0.000    0.000 
#    0.000    0.000    0.000    0.000    0.000    0.000 
#
# Total GULP energy -72449.285335 kJ/mol
# GULP energy per Si atom -5573.021949 kJ/mol
# Density = 2.550008 g / cm^3
# Si number density = 25.558254 Si / 1000 Ang^3
#
#
#
# Elastic Constant Matrix: (Units=GPa)
#
#
# Indices 1 2 3 4 5 6 
#
# 1 218.8302 73.3465 62.3586 10.2184 29.2110 -18.2276
# 2 73.3465 142.9231 34.9783 0.6549 26.6804 4.1905
# 3 62.3586 34.9783 71.3313 3.8412 19.9058 -2.4556
# 4 10.2184 0.6549 3.8412 41.4758 -8.4958 14.4903
# 5 29.2110 26.6804 19.9058 -8.4958 39.1346 0.1675
# 6 -18.2276 4.1905 -2.4556 14.4903 0.1675 61.1638
#
#
#
# Elastic Compliance Matrix: (Units=1/GPa)
#
#
# Indices 1 2 3 4 5 6 
#
# 1 0.007239 -0.002307 -0.004323 -0.002789 -0.002250 0.002809
# 2 -0.002307 0.009306 -0.001565 0.000304 -0.003754 -0.001450
# 3 -0.004323 -0.001565 0.020547 -0.002242 -0.006645 0.000193
# 4 -0.002789 0.000304 -0.002242 0.029748 0.009507 -0.008016
# 5 -0.002250 -0.003754 -0.006645 0.009507 0.035248 -0.003029
# 6 0.002809 -0.001450 0.000193 -0.008016 -0.003029 0.019201
#
#
# Mechanical properties :
#
#
# Convention : Reuss Voigt Hill
#
# Bulk Modulus (GPa) = 48.30274 86.05014 67.17644
# Shear Modulus (GPa) = 34.58289 45.84825 40.21557
#
# Velocity S-wave (km/s) = 3.68244 4.24001 3.97102
# Velocity P-wave (km/s) = 6.08446 7.59681 6.88230
#
# Compressibility (1/GPa) = 0.02070276
#
# Stress axis : x y z
#
# Youngs Moduli (GPa) = 138.13596 107.46304 48.66774
#
# Poissons Ratio (x) = 0.24789 0.21038
# Poissons Ratio (y) = 0.31865 0.07617
# Poissons Ratio (z) = 0.59714 0.16819
#
# Static dielectric constant tensor:
#      x y z
#    x 1.750370 0.005440 -0.054340 
#    y 0.005440 2.042410 0.007900 
#    z -0.054340 0.007900 1.998350 
# 
# From -- ./inp_files/214167.got.cif
#   From: 2010.05.17/outbox.cif.g08.bks.cpg/sg2_108_cif.got.tgz:214167.got - 2010.06.03 11:33:40.
