data_PCOD9063118
_publ_section_title
;
Structure prediction by ZEFSAII (Michael W. Deem and Ramdas Pophale) SiO2 
 PCOD9063118
Probable space group: P -1
;
_chemical_formula_sum "Si O2"
_cell_formula_units_Z 16
_cell_length_a 9.693555
_cell_length_b 27.736489
_cell_length_c 12.234651
_cell_angle_alpha 24.607227
_cell_angle_beta 34.885120
_cell_angle_gamma 29.245341
_cell_volume 663.255171
_symmetry_space_group_name_H-M "P -1"
_symmetry_group_IT_number 2
_symmetry_cell_setting 'triclinic'
loop_
_space_group_symop_operation_xyz
x,y,z
-x,-y,-z
loop_
_atom_site_type_symbol
_atom_site_label
_atom_site_fract_x
_atom_site_fract_y
_atom_site_fract_z
Si Si1 0.205087 0.683109 0.078452
Si Si2 0.808987 0.716061 0.892900
Si Si3 0.667409 0.840186 0.342953
Si Si4 0.168743 0.558267 0.576770
Si Si5 0.243622 0.925735 0.256132
Si Si6 0.350211 0.898480 0.638760
Si Si7 0.337250 0.257939 0.812659
Si Si8 0.550920 0.438600 0.214737
O O1 0.119730 0.615808 0.367738
O O2 0.479844 0.561721 0.088901
O O3 0.935018 0.744321 0.048245
O O4 0.274286 0.789617 0.865284
O O5 0.863872 0.568743 0.126758
O O6 0.681285 0.742471 0.043825
O O7 0.582877 0.828449 0.726327
O O8 0.124304 0.688033 0.735930
O O9 0.464933 0.831717 0.401290
O O10 0.478817 0.924332 0.395089
O O11 0.930886 0.694671 0.512402
O O12 0.773205 0.929883 0.031947
O O13 0.500000 0.500000 0.500000
O O14 0.377732 0.860759 0.186707
O O15 0.928871 0.969350 0.404340
O O16 0.343446 0.388675 0.493027
O O17 0.500000 0.500000 0.000000
#
# Coordination Sequence:
#
# PCOD9063118 Si02
#       8
#     2   2   2   2   2   2   2   2
#     4  12  22  43  72 102 138 181 227 283 347 412
#     4  12  27  45  68 108 143 180 225 283 358 419
#     4  11  24  43  71 101 138 179 230 291 342 406
#     4  12  22  42  72 104 144 176 217 290 364 406
#     4  11  24  47  68  97 135 188 238 281 335 403
#     4  12  27  45  72 105 139 178 235 292 343 403
#     4  12  26  45  71  98 140 189 232 280 339 415
#     4  12  26  42  70 104 142 181 227 281 348 417
#
# _framework density 24.123443999999999
#
# number of rings (size 3 to 8) (size 9 to 14) (size 15 to 20)
#    0.000    0.250    6.250    3.000    3.500    3.500 
#    0.000    1.250    0.000    0.000    0.000    0.000 
#    0.000    0.000    0.000    0.000    0.000    0.000 
#
# Total GULP energy -89581.652985 kJ/mol
# GULP energy per Si atom -5598.853312 kJ/mol
# Density = 2.406854 g / cm^3
# Si number density = 24.123444 Si / 1000 Ang^3
#
#
#
# Elastic Constant Matrix: (Units=GPa)
#
#
# Indices 1 2 3 4 5 6 
#
# 1 78.6748 48.1644 22.2204 10.4228 2.2173 -11.4991
# 2 48.1644 206.0095 19.7384 11.9676 1.3913 2.2795
# 3 22.2204 19.7384 64.1463 12.8878 9.0034 -15.4796
# 4 10.4228 11.9676 12.8878 41.5726 8.7151 4.1730
# 5 2.2173 1.3913 9.0034 8.7151 18.3939 6.0980
# 6 -11.4991 2.2795 -15.4796 4.1730 6.0980 38.3788
#
#
#
# Elastic Compliance Matrix: (Units=1/GPa)
#
#
# Indices 1 2 3 4 5 6 
#
# 1 0.016714 -0.003508 -0.003089 -0.002561 -0.000457 0.004321
# 2 -0.003508 0.005831 -0.001174 -0.000542 0.001493 -0.002049
# 3 -0.003089 -0.001174 0.022029 -0.004300 -0.011718 0.010359
# 4 -0.002561 -0.000542 -0.004300 0.028640 -0.009779 -0.004030
# 5 -0.000457 0.001493 -0.011718 -0.009779 0.069634 -0.014953
# 6 0.004321 -0.002049 0.010359 -0.004030 -0.014953 0.034465
#
#
# Mechanical properties :
#
#
# Convention : Reuss Voigt Hill
#
# Bulk Modulus (GPa) = 34.44427 58.78635 46.61531
# Shear Modulus (GPa) = 24.68739 36.91621 30.80180
#
# Velocity S-wave (km/s) = 3.20250 3.91615 3.57717
# Velocity P-wave (km/s) = 5.28999 6.69852 6.03549
#
# Compressibility (1/GPa) = 0.02903241
#
# Stress axis : x y z
#
# Youngs Moduli (GPa) = 59.82945 171.50189 45.39443
#
# Poissons Ratio (x) = 0.60158 0.14022
# Poissons Ratio (y) = 0.20986 0.05330
# Poissons Ratio (z) = 0.18481 0.20137
#
# Static dielectric constant tensor:
#      x y z
#    x 1.946850 -0.011410 -0.079580 
#    y -0.011410 1.996560 -0.011220 
#    z -0.079580 -0.011220 1.949250 
# 
# From -- ./inp_files/407318.got.cif
#   From: 2010.05.17/outbox.cif.g08.bks.cpg/sg2_204_cif.got.tgz:407318.got - 2010.06.03 11:33:40.
