data_PCOD9063942
_publ_section_title
;
Structure prediction by ZEFSAII (Michael W. Deem and Ramdas Pophale) SiO2 
 PCOD9063942
Probable space group: P -1
;
_chemical_formula_sum "Si O2"
_cell_formula_units_Z 16
_cell_length_a 9.122199
_cell_length_b 16.790518
_cell_length_c 8.476886
_cell_angle_alpha 148.235969
_cell_angle_beta 91.743399
_cell_angle_gamma 89.986891
_cell_volume 682.365266
_symmetry_space_group_name_H-M "P -1"
_symmetry_group_IT_number 2
_symmetry_cell_setting 'triclinic'
loop_
_space_group_symop_operation_xyz
x,y,z
-x,-y,-z
loop_
_atom_site_type_symbol
_atom_site_label
_atom_site_fract_x
_atom_site_fract_y
_atom_site_fract_z
Si Si1 0.941830 0.252752 0.363177
Si Si2 0.433423 0.150248 0.190798
Si Si3 0.422734 0.869842 0.177567
Si Si4 0.868182 0.975885 0.124000
Si Si5 0.664456 0.383979 0.680354
Si Si6 0.458613 0.551510 0.758077
Si Si7 0.869238 0.117046 0.678862
Si Si8 0.839413 0.454776 0.127332
O O1 0.037150 0.409659 0.656814
O O2 0.936791 0.124843 0.286724
O O3 0.775262 0.302453 0.428747
O O4 0.016161 0.154484 0.064220
O O5 0.515670 0.279022 0.515768
O O6 0.493275 0.168336 0.044272
O O7 0.500000 0.000000 0.000000
O O8 0.260055 0.115056 0.130006
O O9 0.250906 0.902671 0.220139
O O10 0.500000 0.000000 0.500000
O O11 0.426874 0.724967 0.045002
O O12 0.798331 0.046446 0.395414
O O13 0.594047 0.525227 0.833267
O O14 0.760773 0.413467 0.888166
O O15 0.500000 0.500000 0.500000
O O16 0.297952 0.477627 0.669374
O O17 0.896989 0.298856 0.946335
O O18 0.000000 0.000000 0.500000
#
# Coordination Sequence:
#
# PCOD9063942 Si02
#       8
#     2   2   2   2   2   2   2   2
#     4  11  25  43  72 100 143 183 237 293 354 418
#     4  12  23  43  74 101 138 181 239 290 347 412
#     4  11  25  45  69 103 142 183 232 291 353 415
#     4  11  24  45  67 105 141 184 233 297 351 418
#     4  12  24  45  72 105 138 188 236 290 352 420
#     4  11  25  45  72 101 140 182 236 291 349 423
#     4  11  25  44  73 102 145 185 236 285 359 427
#     4  11  25  49  71 104 145 186 236 295 352 426
#
# _framework density 23.447852000000001
#
# number of rings (size 3 to 8) (size 9 to 14) (size 15 to 20)
#    0.000    0.750    5.000    1.500    3.500    1.000 
#    0.000    1.250    0.000    0.000    0.000    0.000 
#    0.000    0.000    0.000    0.000    0.000    0.000 
#
# Total GULP energy -89267.353533 kJ/mol
# GULP energy per Si atom -5579.209596 kJ/mol
# Density = 2.339448 g / cm^3
# Si number density = 23.447852 Si / 1000 Ang^3
#
#
#
# Elastic Constant Matrix: (Units=GPa)
#
#
# Indices 1 2 3 4 5 6 
#
# 1 152.3192 40.7598 49.5934 23.9805 -2.5437 -2.5115
# 2 40.7598 61.6373 18.4843 17.7925 4.3368 2.1038
# 3 49.5934 18.4843 100.7873 11.0305 7.4279 9.5413
# 4 23.9805 17.7925 11.0305 40.3687 6.4646 -11.5098
# 5 -2.5437 4.3368 7.4279 6.4646 53.7305 6.6809
# 6 -2.5115 2.1038 9.5413 -11.5098 6.6809 38.7345
#
#
#
# Elastic Compliance Matrix: (Units=1/GPa)
#
#
# Indices 1 2 3 4 5 6 
#
# 1 0.009430 -0.004491 -0.003708 -0.002655 0.001552 0.000712
# 2 -0.004491 0.021737 -0.000564 -0.007679 -0.000527 -0.003524
# 3 -0.003708 -0.000564 0.012476 -0.001797 -0.001189 -0.003612
# 4 -0.002655 -0.007679 -0.001797 0.034345 -0.004848 0.011729
# 5 0.001552 -0.000527 -0.001189 -0.004848 0.020031 -0.004473
# 6 0.000712 -0.003524 -0.003612 0.011729 -0.004473 0.031201
#
#
# Mechanical properties :
#
#
# Convention : Reuss Voigt Hill
#
# Bulk Modulus (GPa) = 38.28841 59.15764 48.72302
# Shear Modulus (GPa) = 32.16461 40.29382 36.22922
#
# Velocity S-wave (km/s) = 3.70773 4.14991 3.93504
# Velocity P-wave (km/s) = 5.89019 6.94597 6.43975
#
# Compressibility (1/GPa) = 0.02611756
#
# Stress axis : x y z
#
# Youngs Moduli (GPa) = 106.04793 46.00473 80.15426
#
# Poissons Ratio (x) = 0.20661 0.29718
# Poissons Ratio (y) = 0.47627 0.04519
# Poissons Ratio (z) = 0.39318 0.02594
#
# Static dielectric constant tensor:
#      x y z
#    x -1.488110 -4.631880 0.332500 
#    y -4.631880 -4.392890 0.391010 
#    z 0.332500 0.391010 1.865330 
# 
# From -- ./inp_files/219048.got.cif
#   From: 2010.05.17/outbox.cif.g08.bks.cpg/sg2_110_cif.got.tgz:219048.got - 2010.06.03 11:33:40.
