data_PCOD9063616
_publ_section_title
;
Structure prediction by ZEFSAII (Michael W. Deem and Ramdas Pophale) SiO2 
 PCOD9063616
Probable space group: P -1
;
_chemical_formula_sum "Si O2"
_cell_formula_units_Z 14
_cell_length_a 17.196953
_cell_length_b 14.689807
_cell_length_c 12.088461
_cell_angle_alpha 130.859537
_cell_angle_beta 140.862456
_cell_angle_gamma 19.019360
_cell_volume 579.868326
_symmetry_space_group_name_H-M "P -1"
_symmetry_group_IT_number 2
_symmetry_cell_setting 'triclinic'
loop_
_space_group_symop_operation_xyz
x,y,z
-x,-y,-z
loop_
_atom_site_type_symbol
_atom_site_label
_atom_site_fract_x
_atom_site_fract_y
_atom_site_fract_z
Si Si1 0.845481 0.372360 0.014267
Si Si2 0.778495 0.538988 0.840278
Si Si3 0.145737 0.792604 0.389279
Si Si4 0.444500 0.302401 0.664052
Si Si5 0.277156 0.263898 0.262752
Si Si6 0.741180 0.641855 0.293077
Si Si7 0.399174 0.604014 0.843916
O O1 0.788292 0.549457 0.152504
O O2 0.718161 0.516258 0.866592
O O3 0.641186 0.457312 0.918654
O O4 0.200988 0.024157 0.162128
O O5 0.911346 0.301003 0.730354
O O6 0.585431 0.779181 0.721459
O O7 0.945493 0.509820 0.053301
O O8 0.500000 0.500000 0.500000
O O9 0.000000 0.000000 0.500000
O O10 0.921580 0.037804 0.237471
O O11 0.334183 0.291979 0.456772
O O12 0.255710 0.465983 0.699966
O O13 0.380369 0.486028 0.682698
O O14 0.435357 0.993854 0.240880
O O15 0.000000 0.500000 0.500000
O O16 0.500000 0.500000 0.000000
#
# Coordination Sequence:
#
# PCOD9063616 Si02
#       7
#     2   2   2   2   2   2   2
#     4  12  24  46  76 108 157 200 254 330 388 462
#     4  11  25  46  74 107 149 197 255 313 388 464
#     4  12  28  53  80 111 159 208 261 328 401 476
#     4  12  24  46  73 110 154 198 260 315 392 466
#     4  11  24  44  71 105 150 199 250 313 384 466
#     4  12  23  41  71 106 148 195 255 310 384 451
#     4  12  26  47  78 115 147 201 263 327 394 463
#
# _framework density 24.143412000000001
#
# number of rings (size 3 to 8) (size 9 to 14) (size 15 to 20)
#    0.000    0.286    4.286    5.143    0.000    4.000 
#    0.000    2.857    0.000    0.000    0.000    0.000 
#    0.000    0.000    0.000    0.000    0.000    0.000 
#
# Total GULP energy -77997.923337 kJ/mol
# GULP energy per Si atom -5571.280238 kJ/mol
# Density = 2.408846 g / cm^3
# Si number density = 24.143412 Si / 1000 Ang^3
#
#
#
# Elastic Constant Matrix: (Units=GPa)
#
#
# Indices 1 2 3 4 5 6 
#
# 1 142.2418 14.3050 29.7993 -12.6791 -7.9431 12.4783
# 2 14.3050 48.1698 21.4391 6.3025 12.8859 12.0473
# 3 29.7993 21.4391 95.4082 12.9878 -9.4911 -5.0365
# 4 -12.6791 6.3025 12.9878 46.8254 2.4388 0.9756
# 5 -7.9431 12.8859 -9.4911 2.4388 45.0021 5.2048
# 6 12.4783 12.0473 -5.0365 0.9756 5.2048 40.6185
#
#
#
# Elastic Compliance Matrix: (Units=1/GPa)
#
#
# Indices 1 2 3 4 5 6 
#
# 1 0.008347 -0.001373 -0.002735 0.003186 0.001436 -0.002757
# 2 -0.001373 0.028960 -0.007170 -0.001646 -0.009049 -0.007858
# 3 -0.002735 -0.007170 0.014143 -0.004010 0.004277 0.004269
# 4 0.003186 -0.001646 -0.004010 0.023631 -0.000926 -0.001437
# 5 0.001436 -0.009049 0.004277 -0.000926 0.026081 -0.000547
# 6 -0.002757 -0.007858 0.004269 -0.001437 -0.000547 0.028431
#
#
# Mechanical properties :
#
#
# Convention : Reuss Voigt Hill
#
# Bulk Modulus (GPa) = 34.60803 46.32296 40.46550
# Shear Modulus (GPa) = 30.90612 41.17430 36.04021
#
# Velocity S-wave (km/s) = 3.58174 4.13414 3.86781
# Velocity P-wave (km/s) = 5.60987 6.48200 6.06164
#
# Compressibility (1/GPa) = 0.02889503
#
# Stress axis : x y z
#
# Youngs Moduli (GPa) = 119.79750 34.53050 70.70498
#
# Poissons Ratio (x) = 0.04742 0.19338
# Poissons Ratio (y) = 0.16450 0.50692
# Poissons Ratio (z) = 0.32765 0.24757
#
# Static dielectric constant tensor:
#      x y z
#    x 1.962410 0.024200 -0.138610 
#    y 0.024200 2.271160 -0.646430 
#    z -0.138610 -0.646430 3.353700 
# 
# From -- ./inp_files/465601.got.cif
#   From: 2010.05.17/outbox.cif.g08.bks.cpg/sg2_233_cif.got.tgz:465601.got - 2010.06.03 11:33:40.
