data_PCOD9063740
_publ_section_title
;
Structure prediction by ZEFSAII (Michael W. Deem and Ramdas Pophale) SiO2 
 PCOD9063740
Probable space group: P -1
;
_chemical_formula_sum "Si O2"
_cell_formula_units_Z 14
_cell_length_a 10.599995
_cell_length_b 10.659729
_cell_length_c 9.171515
_cell_angle_alpha 89.272637
_cell_angle_beta 73.678845
_cell_angle_gamma 141.430008
_cell_volume 571.388690
_symmetry_space_group_name_H-M "P -1"
_symmetry_group_IT_number 2
_symmetry_cell_setting 'triclinic'
loop_
_space_group_symop_operation_xyz
x,y,z
-x,-y,-z
loop_
_atom_site_type_symbol
_atom_site_label
_atom_site_fract_x
_atom_site_fract_y
_atom_site_fract_z
Si Si1 0.125092 0.649321 0.284763
Si Si2 0.206843 0.964261 0.119242
Si Si3 0.691981 0.435816 0.927483
Si Si4 0.918182 0.091813 0.174648
Si Si5 0.696981 0.074159 0.508255
Si Si6 0.733761 0.678111 0.326797
Si Si7 0.299712 0.617468 0.771363
O O1 0.243907 0.607086 0.225388
O O2 0.876853 0.466639 0.289918
O O3 0.261199 0.864315 0.147140
O O4 0.146085 0.718712 0.441274
O O5 0.422609 0.224110 0.044365
O O6 0.992063 0.839162 0.293535
O O7 0.130929 0.905924 0.974864
O O8 0.815166 0.666574 0.883924
O O9 0.784798 0.428727 0.036885
O O10 0.810947 0.091959 0.337241
O O11 0.801922 0.864638 0.232672
O O12 0.551884 0.865765 0.657752
O O13 0.500000 0.000000 0.500000
O O14 0.500000 0.500000 0.500000
O O15 0.683602 0.519409 0.245619
#
# Coordination Sequence:
#
# PCOD9063740 Si02
#       7
#     2   2   2   2   2   2   2
#     4  11  24  44  73 105 145 188 236 282 355 432
#     4  11  25  44  76 105 140 189 241 286 352 427
#     4  12  24  43  73 109 142 186 237 291 358 416
#     4  12  26  45  72 105 145 184 236 300 349 413
#     4  12  26  43  71 108 146 186 233 290 359 420
#     4  11  24  51  73 100 143 188 239 295 351 424
#     4  11  24  45  73  99 145 190 235 293 352 415
#
# _framework density 24.501711
#
# number of rings (size 3 to 8) (size 9 to 14) (size 15 to 20)
#    0.000    0.571    5.714    3.000    2.000    4.000 
#    0.000    3.571    0.000    0.000    0.000    0.000 
#    0.000    0.000    0.000    0.000    0.000    0.000 
#
# Total GULP energy -78108.855850 kJ/mol
# GULP energy per Si atom -5579.203989 kJ/mol
# Density = 2.444594 g / cm^3
# Si number density = 24.501711 Si / 1000 Ang^3
#
#
#
# Elastic Constant Matrix: (Units=GPa)
#
#
# Indices 1 2 3 4 5 6 
#
# 1 44.4131 29.7877 27.2543 2.7665 -9.0562 -9.1914
# 2 29.7877 184.3997 41.0278 -33.4342 -5.8737 3.6683
# 3 27.2543 41.0278 107.1608 -11.4811 -12.5995 3.8823
# 4 2.7665 -33.4342 -11.4811 56.8554 6.8774 2.6597
# 5 -9.0562 -5.8737 -12.5995 6.8774 28.3512 -7.8000
# 6 -9.1914 3.6683 3.8823 2.6597 -7.8000 39.4939
#
#
#
# Elastic Compliance Matrix: (Units=1/GPa)
#
#
# Indices 1 2 3 4 5 6 
#
# 1 0.036538 -0.005786 -0.006948 -0.008766 0.013058 0.012893
# 2 -0.005786 0.007457 -0.001078 0.004912 -0.002746 -0.002806
# 3 -0.006948 -0.001078 0.012023 0.002041 0.001718 -0.002497
# 4 -0.008766 0.004912 0.002041 0.022546 -0.007936 -0.005783
# 5 0.013058 -0.002746 0.001718 -0.007936 0.045015 0.012550
# 6 0.012893 -0.002806 -0.002497 -0.005783 0.012550 0.031695
#
#
# Mechanical properties :
#
#
# Convention : Reuss Voigt Hill
#
# Bulk Modulus (GPa) = 35.22169 59.12368 47.17269
# Shear Modulus (GPa) = 25.99251 40.80038 33.39644
#
# Velocity S-wave (km/s) = 3.26059 4.08512 3.69592
# Velocity P-wave (km/s) = 5.34619 6.81423 6.12436
#
# Compressibility (1/GPa) = 0.02839159
#
# Stress axis : x y z
#
# Youngs Moduli (GPa) = 27.36908 134.10953 83.17492
#
# Poissons Ratio (x) = 0.77599 0.57792
# Poissons Ratio (y) = 0.15836 0.08968
# Poissons Ratio (z) = 0.19017 0.14459
#
# Static dielectric constant tensor:
#      x y z
#    x 2.010450 0.020030 -0.049460 
#    y 0.020030 2.014460 -0.106600 
#    z -0.049460 -0.106600 2.456890 
# 
# From -- ./inp_files/258485.got.cif
#   From: 2010.05.17/outbox.cif.g08.bks.cpg/sg2_130_cif.got.tgz:258485.got - 2010.06.03 11:33:40.
