data_PCOD9063767
_publ_section_title
;
Structure prediction by ZEFSAII (Michael W. Deem and Ramdas Pophale) SiO2 
 PCOD9063767
Probable space group: P -1
;
_chemical_formula_sum "Si O2"
_cell_formula_units_Z 14
_cell_length_a 8.628860
_cell_length_b 10.134425
_cell_length_c 9.159132
_cell_angle_alpha 66.600500
_cell_angle_beta 59.125957
_cell_angle_gamma 101.125206
_cell_volume 545.046985
_symmetry_space_group_name_H-M "P -1"
_symmetry_group_IT_number 2
_symmetry_cell_setting 'triclinic'
loop_
_space_group_symop_operation_xyz
x,y,z
-x,-y,-z
loop_
_atom_site_type_symbol
_atom_site_label
_atom_site_fract_x
_atom_site_fract_y
_atom_site_fract_z
Si Si1 0.658149 0.226606 0.586962
Si Si2 0.919854 0.299585 0.712748
Si Si3 0.103333 0.465517 0.831399
Si Si4 0.233786 0.296074 0.061265
Si Si5 0.215513 0.003701 0.889822
Si Si6 0.690852 0.622188 0.695024
Si Si7 0.207267 0.003746 0.557016
O O1 0.793714 0.299357 0.634833
O O2 0.702146 0.362418 0.383855
O O3 0.713856 0.091188 0.549395
O O4 0.421915 0.165185 0.771070
O O5 0.956209 0.410012 0.787648
O O6 0.148450 0.346906 0.525128
O O7 0.800014 0.123450 0.925173
O O8 0.155080 0.331928 0.931182
O O9 0.000000 0.500000 0.000000
O O10 0.485302 0.437408 0.865786
O O11 0.206121 0.363464 0.202330
O O12 0.052459 0.098091 0.265985
O O13 0.262492 0.983002 0.707043
O O14 0.000000 0.000000 0.000000
O O15 0.684334 0.797550 0.617185
#
# Coordination Sequence:
#
# PCOD9063767 Si02
#       7
#     2   2   2   2   2   2   2
#     4  12  27  47  74 111 148 208 251 313 387 449
#     4  12  25  47  72 108 154 193 262 311 377 460
#     4  12  24  47  74 104 151 195 256 317 378 453
#     4  11  24  44  73 112 149 202 250 313 381 452
#     4  12  26  46  72 110 151 196 256 311 381 453
#     4  11  25  44  75 116 152 199 252 318 384 446
#     4  12  23  49  77 108 157 200 255 314 375 467
#
# _framework density 25.685859000000001
#
# number of rings (size 3 to 8) (size 9 to 14) (size 15 to 20)
#    0.000    0.286    5.714    2.571    0.000    2.857 
#    0.000    2.857    0.000    0.000    0.000    0.000 
#    0.000    0.000    0.000    0.000    0.000    0.000 
#
# Total GULP energy -78066.463042 kJ/mol
# GULP energy per Si atom -5576.175932 kJ/mol
# Density = 2.562740 g / cm^3
# Si number density = 25.685859 Si / 1000 Ang^3
#
#
#
# Elastic Constant Matrix: (Units=GPa)
#
#
# Indices 1 2 3 4 5 6 
#
# 1 74.2060 35.4176 29.5060 4.4342 7.2704 18.0650
# 2 35.4176 118.4522 35.7211 7.8763 1.2777 11.0384
# 3 29.5060 35.7211 147.6038 -18.4040 8.9161 -0.1181
# 4 4.4342 7.8763 -18.4040 49.5468 20.2217 10.0000
# 5 7.2704 1.2777 8.9161 20.2217 47.5295 -4.3504
# 6 18.0650 11.0384 -0.1181 10.0000 -4.3504 45.0767
#
#
#
# Elastic Compliance Matrix: (Units=1/GPa)
#
#
# Indices 1 2 3 4 5 6 
#
# 1 0.018327 -0.004151 -0.002365 0.000839 -0.003230 -0.006832
# 2 -0.004151 0.010528 -0.002203 -0.002921 0.002001 -0.000079
# 3 -0.002365 -0.002203 0.008625 0.005135 -0.003378 0.000045
# 4 0.000839 -0.002921 0.005135 0.029914 -0.014439 -0.007637
# 5 -0.003230 0.002001 -0.003378 -0.014439 0.028878 0.006786
# 6 -0.006832 -0.000079 0.000045 -0.007637 0.006786 0.027291
#
#
# Mechanical properties :
#
#
# Convention : Reuss Voigt Hill
#
# Bulk Modulus (GPa) = 49.89448 60.17237 55.03343
# Shear Modulus (GPa) = 33.85652 44.40510 39.13081
#
# Velocity S-wave (km/s) = 3.63450 4.16237 3.90736
# Velocity P-wave (km/s) = 6.08932 6.82477 6.46751
#
# Compressibility (1/GPa) = 0.02004230
#
# Stress axis : x y z
#
# Youngs Moduli (GPa) = 54.56375 94.98675 115.94009
#
# Poissons Ratio (x) = 0.39429 0.27418
# Poissons Ratio (y) = 0.22649 0.25543
# Poissons Ratio (z) = 0.12903 0.20927
#
# Static dielectric constant tensor:
#      x y z
#    x 2.060960 -0.079960 -0.038790 
#    y -0.079960 2.220680 -0.093900 
#    z -0.038790 -0.093900 1.967060 
# 
# From -- ./inp_files/185723.got.cif
#   From: 2010.05.17/outbox.cif.g08.bks.cpg/sg2_93_cif.got.tgz:185723.got - 2010.06.03 11:33:40.
