data_PCOD9063212
_publ_section_title
;
Structure prediction by ZEFSAII (Michael W. Deem and Ramdas Pophale) SiO2 
 PCOD9063212
Probable space group: P -1
;
_chemical_formula_sum "Si O2"
_cell_formula_units_Z 16
_cell_length_a 12.620574
_cell_length_b 10.213970
_cell_length_c 5.726847
_cell_angle_alpha 61.991330
_cell_angle_beta 81.627289
_cell_angle_gamma 85.691576
_cell_volume 644.796470
_symmetry_space_group_name_H-M "P -1"
_symmetry_group_IT_number 2
_symmetry_cell_setting 'triclinic'
loop_
_space_group_symop_operation_xyz
x,y,z
-x,-y,-z
loop_
_atom_site_type_symbol
_atom_site_label
_atom_site_fract_x
_atom_site_fract_y
_atom_site_fract_z
Si Si1 0.675470 0.965496 0.479395
Si Si2 0.628397 0.499207 0.952275
Si Si3 0.005091 0.676465 0.826279
Si Si4 0.938946 0.121857 0.751314
Si Si5 0.358838 0.347952 0.678077
Si Si6 0.811265 0.844141 0.902718
Si Si7 0.517296 0.126180 0.698235
Si Si8 0.212745 0.764685 0.941989
O O1 0.630855 0.085765 0.584921
O O2 0.743621 0.840662 0.689083
O O3 0.570567 0.896415 0.457504
O O4 0.747160 0.067090 0.209576
O O5 0.658417 0.576334 0.630107
O O6 0.686350 0.341258 0.032574
O O7 0.500000 0.500000 0.000000
O O8 0.659355 0.561255 0.150428
O O9 0.912340 0.735557 0.977045
O O10 0.984703 0.777007 0.516812
O O11 0.000000 0.500000 0.000000
O O12 0.124862 0.725692 0.809243
O O13 0.861918 0.241281 0.801663
O O14 0.861138 0.007450 0.741614
O O15 0.000000 0.000000 0.000000
O O16 0.481294 0.282048 0.691058
O O17 0.276938 0.209554 0.839857
O O18 0.500000 0.000000 0.000000
#
# Coordination Sequence:
#
# PCOD9063212 Si02
#       8
#     2   2   2   2   2   2   2   2
#     4  11  24  44  74 112 151 197 256 324 396 472
#     4  12  30  51  76 113 161 213 259 320 401 492
#     4  12  28  49  74 110 157 203 264 328 396 485
#     4  12  26  48  77 112 151 202 265 332 401 466
#     4  12  27  49  76 112 156 207 266 323 398 474
#     4  12  24  47  78 111 153 202 259 330 394 474
#     4  11  24  43  72 111 148 193 252 328 389 458
#     4  12  27  46  78 105 149 204 260 322 396 468
#
# _framework density 24.814032999999998
#
# number of rings (size 3 to 8) (size 9 to 14) (size 15 to 20)
#    0.000    0.250    3.750    4.500    7.000    2.500 
#    0.000    0.000    0.000    0.000    0.000    0.000 
#    0.000    0.000    0.000    0.000    0.000    0.000 
#
# Total GULP energy -89361.447868 kJ/mol
# GULP energy per Si atom -5585.090492 kJ/mol
# Density = 2.475756 g / cm^3
# Si number density = 24.814033 Si / 1000 Ang^3
#
#
#
# Elastic Constant Matrix: (Units=GPa)
#
#
# Indices 1 2 3 4 5 6 
#
# 1 112.4754 22.2005 13.8947 -7.9948 4.3127 -12.5331
# 2 22.2005 122.4955 37.8205 -5.9051 3.6269 -11.4881
# 3 13.8947 37.8205 125.1988 -10.4178 -3.7730 13.9519
# 4 -7.9948 -5.9051 -10.4178 36.2626 -3.7097 -5.2896
# 5 4.3127 3.6269 -3.7730 -3.7097 41.1249 3.1421
# 6 -12.5331 -11.4881 13.9519 -5.2896 3.1421 45.6258
#
#
#
# Elastic Compliance Matrix: (Units=1/GPa)
#
#
# Indices 1 2 3 4 5 6 
#
# 1 0.009739 -0.001057 -0.000960 0.002030 -0.001063 0.003011
# 2 -0.001057 0.009713 -0.003154 0.000799 -0.001215 0.003296
# 3 -0.000960 -0.003154 0.009676 0.001655 0.001717 -0.003943
# 4 0.002030 0.000799 0.001655 0.029371 0.002250 0.003503
# 5 -0.001063 -0.001215 0.001717 0.002250 0.025093 -0.002590
# 6 0.003011 0.003296 -0.003943 0.003503 -0.002590 0.025365
#
#
# Mechanical properties :
#
#
# Convention : Reuss Voigt Hill
#
# Bulk Modulus (GPa) = 53.23603 56.44457 54.84030
# Shear Modulus (GPa) = 39.82183 43.68625 41.75404
#
# Velocity S-wave (km/s) = 4.01036 4.20044 4.10650
# Velocity P-wave (km/s) = 6.55321 6.80598 6.68079
#
# Compressibility (1/GPa) = 0.01878427
#
# Stress axis : x y z
#
# Youngs Moduli (GPa) = 102.68400 102.95976 103.35340
#
# Poissons Ratio (x) = 0.10880 0.09925
# Poissons Ratio (y) = 0.10851 0.32599
# Poissons Ratio (z) = 0.09861 0.32475
#
# Static dielectric constant tensor:
#      x y z
#    x 1.967250 0.069730 0.059140 
#    y 0.069730 2.041370 0.037760 
#    z 0.059140 0.037760 2.081120 
# 
# From -- ./inp_files/68435.got.cif
#   From: 2010.05.17/outbox.cif.g08.bks.cpg/sg2_35_cif.got.tgz:68435.got - 2010.06.03 11:33:40.
