data_PCOD9063559
_publ_section_title
;
Structure prediction by ZEFSAII (Michael W. Deem and Ramdas Pophale) SiO2 
 PCOD9063559
Probable space group: P -1
;
_chemical_formula_sum "Si O2"
_cell_formula_units_Z 16
_cell_length_a 14.783171
_cell_length_b 5.292501
_cell_length_c 13.142269
_cell_angle_alpha 109.397091
_cell_angle_beta 133.295116
_cell_angle_gamma 87.284244
_cell_volume 681.114896
_symmetry_space_group_name_H-M "P -1"
_symmetry_group_IT_number 2
_symmetry_cell_setting 'triclinic'
loop_
_space_group_symop_operation_xyz
x,y,z
-x,-y,-z
loop_
_atom_site_type_symbol
_atom_site_label
_atom_site_fract_x
_atom_site_fract_y
_atom_site_fract_z
Si Si1 0.470199 0.745286 0.759661
Si Si2 0.190196 0.291611 0.919329
Si Si3 0.185261 0.161956 0.111559
Si Si4 0.967622 0.162331 0.402492
Si Si5 0.563965 0.370330 0.940849
Si Si6 0.552103 0.826959 0.602822
Si Si7 0.832160 0.490080 0.497689
Si Si8 0.972168 0.586100 0.832733
O O1 0.510407 0.491455 0.813591
O O2 0.500598 0.839175 0.678511
O O3 0.316331 0.645090 0.635645
O O4 0.529895 0.044720 0.896332
O O5 0.068646 0.391852 0.879379
O O6 0.139835 0.010082 0.780447
O O7 0.256880 0.258114 0.073182
O O8 0.282998 0.508834 0.944753
O O9 0.291801 0.091295 0.258493
O O10 0.127182 0.393766 0.151468
O O11 0.070592 0.894716 0.956740
O O12 0.898358 0.365338 0.438834
O O13 0.100758 0.198238 0.444416
O O14 0.000000 0.000000 0.500000
O O15 0.500000 0.500000 0.000000
O O16 0.500000 0.500000 0.500000
O O17 0.500000 0.000000 0.500000
O O18 0.891522 0.496498 0.655933
#
# Coordination Sequence:
#
# PCOD9063559 Si02
#       8
#     2   2   2   2   2   2   2   2
#     4  12  27  49  73 109 152 196 254 311 373 460
#     4  12  24  45  78 103 154 192 252 310 379 448
#     4  11  25  47  71 109 148 190 251 308 378 456
#     4  11  24  44  70 106 145 197 245 310 377 444
#     4  12  28  47  77 111 150 202 252 314 380 449
#     4  12  27  51  77 108 148 203 253 316 379 450
#     4  11  25  44  71 106 148 190 253 304 379 451
#     4  11  24  44  72 108 144 194 242 312 377 443
#
# _framework density 23.490897
#
# number of rings (size 3 to 8) (size 9 to 14) (size 15 to 20)
#    0.000    0.500    3.750    3.750    5.250    0.000 
#    4.500    0.000    0.000    0.000    0.000    0.000 
#    0.000    0.000    0.000    0.000    0.000    0.000 
#
# Total GULP energy -89170.854189 kJ/mol
# GULP energy per Si atom -5573.178387 kJ/mol
# Density = 2.343743 g / cm^3
# Si number density = 23.490897 Si / 1000 Ang^3
#
#
#
# Elastic Constant Matrix: (Units=GPa)
#
#
# Indices 1 2 3 4 5 6 
#
# 1 116.4882 8.9489 54.5341 -2.4489 0.0579 6.3289
# 2 8.9489 92.9779 53.8954 -5.0346 12.9215 -2.7797
# 3 54.5341 53.8954 123.2210 1.3382 6.4816 -3.8805
# 4 -2.4489 -5.0346 1.3382 41.2514 1.7133 -4.1404
# 5 0.0579 12.9215 6.4816 1.7133 54.5613 6.5991
# 6 6.3289 -2.7797 -3.8805 -4.1404 6.5991 37.6117
#
#
#
# Elastic Compliance Matrix: (Units=1/GPa)
#
#
# Indices 1 2 3 4 5 6 
#
# 1 0.011471 0.002442 -0.006251 0.000928 0.000409 -0.002364
# 2 0.002442 0.015573 -0.007742 0.002492 -0.002938 0.000731
# 3 -0.006251 -0.007742 0.014343 -0.001600 -0.000030 0.001789
# 4 0.000928 0.002492 -0.001600 0.025006 -0.001535 0.002885
# 5 0.000409 -0.002938 -0.000030 -0.001535 0.019545 -0.003887
# 6 -0.002364 0.000731 0.001789 0.002885 -0.003887 0.028224
#
#
# Mechanical properties :
#
#
# Convention : Reuss Voigt Hill
#
# Bulk Modulus (GPa) = 54.68612 63.04930 58.86771
# Shear Modulus (GPa) = 34.87760 41.03878 37.95819
#
# Velocity S-wave (km/s) = 3.85740 4.18426 4.02415
# Velocity P-wave (km/s) = 6.57036 7.08817 6.83417
#
# Compressibility (1/GPa) = 0.01828618
#
# Stress axis : x y z
#
# Youngs Moduli (GPa) = 87.17565 64.21468 69.71862
#
# Poissons Ratio (x) = -0.15682 0.43581
# Poissons Ratio (y) = -0.21289 0.53974
# Poissons Ratio (z) = 0.54493 0.49713
#
# Static dielectric constant tensor:
#      x y z
#    x 1.816850 0.064040 0.124590 
#    y 0.064040 2.454020 0.147580 
#    z 0.124590 0.147580 1.807310 
# 
# From -- ./inp_files/442191.got.cif
#   From: 2010.05.17/outbox.cif.g08.bks.cpg/sg2_222_cif.got.tgz:442191.got - 2010.06.03 11:33:40.
