data_PCOD9063202
_publ_section_title
;
Structure prediction by ZEFSAII (Michael W. Deem and Ramdas Pophale) SiO2 
 PCOD9063202
Probable space group: P -1
;
_chemical_formula_sum "Si O2"
_cell_formula_units_Z 14
_cell_length_a 9.525290
_cell_length_b 10.000179
_cell_length_c 12.779842
_cell_angle_alpha 131.875328
_cell_angle_beta 126.142199
_cell_angle_gamma 43.172047
_cell_volume 607.370403
_symmetry_space_group_name_H-M "P -1"
_symmetry_group_IT_number 2
_symmetry_cell_setting 'triclinic'
loop_
_space_group_symop_operation_xyz
x,y,z
-x,-y,-z
loop_
_atom_site_type_symbol
_atom_site_label
_atom_site_fract_x
_atom_site_fract_y
_atom_site_fract_z
Si Si1 0.486958 0.514124 0.374018
Si Si2 0.063925 0.668512 0.624926
Si Si3 0.676021 0.003501 0.511632
Si Si4 0.572200 0.816409 0.188965
Si Si5 0.199528 0.070139 0.050591
Si Si6 0.247831 0.334051 0.042807
Si Si7 0.233519 0.650322 0.904682
O O1 0.500000 0.500000 0.500000
O O2 0.722217 0.392916 0.368537
O O3 0.358506 0.428878 0.211144
O O4 0.387219 0.761893 0.427151
O O5 0.092179 0.658732 0.754882
O O6 0.000000 0.500000 0.500000
O O7 0.880315 0.893602 0.615118
O O8 0.709254 0.860803 0.349145
O O9 0.500000 0.000000 0.500000
O O10 0.589367 0.602422 0.131339
O O11 0.346962 0.047310 0.201236
O O12 0.663075 0.746670 0.076275
O O13 0.269639 0.140854 0.019227
O O14 0.946110 0.221462 0.019284
O O15 0.276379 0.820727 0.964458
O O16 0.000000 0.500000 0.000000
#
# Coordination Sequence:
#
# PCOD9063202 Si02
#       7
#     2   2   2   2   2   2   2
#     4  12  30  51  77 114 158 204 259 318 386 463
#     4  12  25  46  77 107 154 197 255 313 385 455
#     4  12  26  47  80 113 151 204 259 315 389 458
#     4  12  24  44  76 106 146 194 252 316 382 447
#     4  11  25  44  72 102 145 192 246 313 379 445
#     4  12  28  51  74 107 162 200 257 317 384 456
#     4  11  24  43  72 107 138 193 254 309 372 449
#
# _framework density 23.050184999999999
#
# number of rings (size 3 to 8) (size 9 to 14) (size 15 to 20)
#    0.000    0.286    4.286    3.429    6.000    2.857 
#    0.000    0.000    0.000    0.000    0.000    0.000 
#    0.000    0.000    0.000    0.000    0.000    0.000 
#
# Total GULP energy -78107.205944 kJ/mol
# GULP energy per Si atom -5579.086139 kJ/mol
# Density = 2.299772 g / cm^3
# Si number density = 23.050185 Si / 1000 Ang^3
#
#
#
# Elastic Constant Matrix: (Units=GPa)
#
#
# Indices 1 2 3 4 5 6 
#
# 1 117.9752 36.0469 32.2249 23.3967 6.3215 12.7111
# 2 36.0469 144.0457 -0.4636 -9.3149 -3.6974 23.9108
# 3 32.2249 -0.4636 104.9662 4.1184 -3.0277 25.5661
# 4 23.3967 -9.3149 4.1184 17.1926 -4.1730 1.4901
# 5 6.3215 -3.6974 -3.0277 -4.1730 26.5862 -3.6244
# 6 12.7111 23.9108 25.5661 1.4901 -3.6244 48.3223
#
#
#
# Elastic Compliance Matrix: (Units=1/GPa)
#
#
# Indices 1 2 3 4 5 6 
#
# 1 0.018561 -0.007175 -0.005219 -0.030604 -0.010594 0.001578
# 2 -0.007175 0.010824 0.003012 0.016682 0.005468 -0.005167
# 3 -0.005219 0.003012 0.012605 0.007099 0.003288 -0.006759
# 4 -0.030604 0.016682 0.007099 0.114321 0.027611 -0.005414
# 5 -0.010594 0.005468 0.003288 0.027611 0.045727 0.000919
# 6 0.001578 -0.005167 -0.006759 -0.005414 0.000919 0.026648
#
#
# Mechanical properties :
#
#
# Convention : Reuss Voigt Hill
#
# Bulk Modulus (GPa) = 43.05392 55.84485 49.44938
# Shear Modulus (GPa) = 19.59313 38.36547 28.97930
#
# Velocity S-wave (km/s) = 2.91867 4.08417 3.54959
# Velocity P-wave (km/s) = 5.48426 6.82061 6.18861
#
# Compressibility (1/GPa) = 0.02322669
#
# Stress axis : x y z
#
# Youngs Moduli (GPa) = 53.87592 92.38657 79.33346
#
# Poissons Ratio (x) = 0.66284 0.41406
# Poissons Ratio (y) = 0.38654 -0.23896
# Poissons Ratio (z) = 0.28119 -0.27827
#
# Static dielectric constant tensor:
#      x y z
#    x 2.144810 -0.210760 0.209060 
#    y -0.210760 1.957250 -0.069170 
#    z 0.209060 -0.069170 2.066030 
# 
# From -- ./inp_files/383341.got.cif
#   From: 2010.05.17/outbox.cif.g08.bks.cpg/sg2_192_cif.got.tgz:383341.got - 2010.06.03 11:33:40.
