data_PCOD9063890
_publ_section_title
;
Structure prediction by ZEFSAII (Michael W. Deem and Ramdas Pophale) SiO2 
 PCOD9063890
Probable space group: P -1
;
_chemical_formula_sum "Si O2"
_cell_formula_units_Z 12
_cell_length_a 9.544514
_cell_length_b 11.657387
_cell_length_c 8.666112
_cell_angle_alpha 54.491920
_cell_angle_beta 56.647831
_cell_angle_gamma 52.251115
_cell_volume 591.708053
_symmetry_space_group_name_H-M "P -1"
_symmetry_group_IT_number 2
_symmetry_cell_setting 'triclinic'
loop_
_space_group_symop_operation_xyz
x,y,z
-x,-y,-z
loop_
_atom_site_type_symbol
_atom_site_label
_atom_site_fract_x
_atom_site_fract_y
_atom_site_fract_z
Si Si1 0.824683 0.143882 0.833056
Si Si2 0.871441 0.431965 0.051784
Si Si3 0.909270 0.805486 0.152913
Si Si4 0.533026 0.852013 0.488552
Si Si5 0.809552 0.159813 0.479794
Si Si6 0.527920 0.647935 0.922519
O O1 0.754903 0.200318 0.660120
O O2 0.989298 0.187823 0.754277
O O3 0.661128 0.220916 0.996590
O O4 0.895567 0.957892 0.949041
O O5 0.839757 0.300938 0.271867
O O6 0.681647 0.581261 0.012492
O O7 0.000000 0.500000 0.000000
O O8 0.965986 0.345661 0.902777
O O9 0.704003 0.822320 0.295270
O O10 0.348780 0.867627 0.497354
O O11 0.588301 0.712724 0.686300
O O12 0.500000 0.000000 0.500000
O O13 0.000000 0.000000 0.500000
O O14 0.500000 0.500000 0.000000
#
# Coordination Sequence:
#
# PCOD9063890 Si02
#       6
#     2   2   2   2   2   2
#     4  11  24  44  76  99 142 184 235 286 345 419
#     4  12  29  47  71 105 148 181 231 294 354 405
#     4  11  24  46  71 105 136 189 235 281 350 420
#     4  12  26  44  75 104 138 188 237 282 348 422
#     4  12  26  46  72 105 141 184 238 287 344 418
#     4  12  25  49  69 103 147 184 224 292 354 412
#
# _framework density 20.280273000000001
#
# number of rings (size 3 to 8) (size 9 to 14) (size 15 to 20)
#    0.000    0.333    6.667    1.000    7.000    3.333 
#    0.000    0.000    0.000    0.000    0.000    0.000 
#    0.000    0.000    0.000    0.000    0.000    0.000 
#
# Total GULP energy -67109.828406 kJ/mol
# GULP energy per Si atom -5592.485701 kJ/mol
# Density = 2.023411 g / cm^3
# Si number density = 20.280273 Si / 1000 Ang^3
#
#
#
# Elastic Constant Matrix: (Units=GPa)
#
#
# Indices 1 2 3 4 5 6 
#
# 1 166.7116 14.7469 49.0297 -21.0766 -13.6879 -2.8370
# 2 14.7469 56.7095 3.6229 -5.2116 -8.2769 0.0906
# 3 49.0297 3.6229 86.7538 -8.9558 -1.1552 8.5360
# 4 -21.0766 -5.2116 -8.9558 34.7059 -1.3205 0.3792
# 5 -13.6879 -8.2769 -1.1552 -1.3205 35.4264 -0.1375
# 6 -2.8370 0.0906 8.5360 0.3792 -0.1375 38.3340
#
#
#
# Elastic Compliance Matrix: (Units=1/GPa)
#
#
# Indices 1 2 3 4 5 6 
#
# 1 0.008076 -0.001068 -0.004245 0.003742 0.002878 0.001519
# 2 -0.001068 0.018710 0.000135 0.002352 0.004050 -0.000162
# 3 -0.004245 0.000135 0.014371 0.001147 -0.001111 -0.003530
# 4 0.003742 0.002352 0.001147 0.031861 0.003219 -0.000288
# 5 0.002878 0.004050 -0.001111 0.003219 0.030372 0.000528
# 6 0.001519 -0.000162 -0.003530 -0.000288 0.000528 0.026990
#
#
# Mechanical properties :
#
#
# Convention : Reuss Voigt Hill
#
# Bulk Modulus (GPa) = 32.46473 49.44156 40.95314
# Shear Modulus (GPa) = 33.11190 37.87829 35.49510
#
# Velocity S-wave (km/s) = 4.04507 4.32642 4.18811
# Velocity P-wave (km/s) = 6.15301 7.02775 6.60488
#
# Compressibility (1/GPa) = 0.03080266
#
# Stress axis : x y z
#
# Youngs Moduli (GPa) = 123.81742 53.44652 69.58399
#
# Poissons Ratio (x) = 0.05705 0.29536
# Poissons Ratio (y) = 0.13218 -0.00937
# Poissons Ratio (z) = 0.52557 -0.00719
#
# Static dielectric constant tensor:
#      x y z
#    x 1.869000 -0.017000 -0.104310 
#    y -0.017000 1.682750 0.041670 
#    z -0.104310 0.041670 1.741150 
# 
# From -- ./inp_files/144747.got.cif
#   From: 2010.05.17/outbox.cif.g08.bks.cpg/sg2_73_cif.got.tgz:144747.got - 2010.06.03 11:33:40.
