data_PCOD9063972
_publ_section_title
;
Structure prediction by ZEFSAII (Michael W. Deem and Ramdas Pophale) SiO2 
 PCOD9063972
Probable space group: P -1
;
_chemical_formula_sum "Si O2"
_cell_formula_units_Z 15
_cell_length_a 11.470583
_cell_length_b 5.398349
_cell_length_c 20.101114
_cell_angle_alpha 68.663426
_cell_angle_beta 144.815116
_cell_angle_gamma 126.622712
_cell_volume 554.650597
_symmetry_space_group_name_H-M "P -1"
_symmetry_group_IT_number 2
_symmetry_cell_setting 'triclinic'
loop_
_space_group_symop_operation_xyz
x,y,z
-x,-y,-z
loop_
_atom_site_type_symbol
_atom_site_label
_atom_site_fract_x
_atom_site_fract_y
_atom_site_fract_z
Si Si1 0.004306 0.335253 0.322694
Si Si2 0.177135 0.987889 0.515363
Si Si3 0.085181 0.185418 0.162410
Si Si4 0.000000 0.500000 0.000000
Si Si5 0.598898 0.053228 0.616326
Si Si6 0.708904 0.680707 0.936146
Si Si7 0.337324 0.135443 0.895355
Si Si8 0.738743 0.354357 0.313089
O O1 0.866207 0.451512 0.290659
O O2 0.166555 0.581273 0.316004
O O3 0.800630 0.009408 0.224657
O O4 0.165363 0.277514 0.453931
O O5 0.241331 0.935844 0.623953
O O6 0.914819 0.662760 0.410117
O O7 0.383550 0.999682 0.566327
O O8 0.878275 0.000685 0.139164
O O9 0.298825 0.149595 0.288488
O O10 0.938361 0.017494 0.039311
O O11 0.156959 0.530547 0.139295
O O12 0.783704 0.469469 0.953129
O O13 0.500000 0.000000 0.500000
O O14 0.543073 0.502698 0.940987
O O15 0.532638 0.734622 0.805242
O O16 0.500000 0.000000 0.000000
#
# Coordination Sequence:
#
# PCOD9063972 Si02
#       8
#     2   2   2   1   2   2   2   2
#     4  12  24  46  73 106 141 193 243 298 361 426
#     4  11  24  45  68 106 142 195 241 293 362 426
#     4  12  27  49  74 107 148 191 241 299 365 425
#     4  12  28  48  72 108 150 190 240 286 372 440
#     4  12  25  48  70 105 149 188 242 303 358 425
#     4  12  25  50  73 107 147 187 240 303 359 431
#     4  12  23  45  74 107 137 188 246 293 358 430
#     4  11  24  45  73 104 148 186 244 299 355 428
#
# _framework density 27.044051
#
# number of rings (size 3 to 8) (size 9 to 14) (size 15 to 20)
#    0.000    0.267    4.000    5.600    0.000    0.000 
#    2.400    0.000    0.000    0.000    0.000    0.000 
#    0.000    0.000    0.000    0.000    0.000    0.000 
#
# Total GULP energy -83814.287438 kJ/mol
# GULP energy per Si atom -5587.619163 kJ/mol
# Density = 2.698250 g / cm^3
# Si number density = 27.044051 Si / 1000 Ang^3
#
#
#
# Elastic Constant Matrix: (Units=GPa)
#
#
# Indices 1 2 3 4 5 6 
#
# 1 143.5100 -5.9064 43.3266 -9.8299 22.2576 7.9759
# 2 -5.9064 61.5000 35.0499 -8.5546 9.6292 19.4393
# 3 43.3266 35.0499 185.2382 -33.5404 30.0587 -5.7366
# 4 -9.8299 -8.5546 -33.5404 62.1596 -6.3700 -6.7145
# 5 22.2576 9.6292 30.0587 -6.3700 42.7371 -12.2133
# 6 7.9759 19.4393 -5.7366 -6.7145 -12.2133 41.2910
#
#
#
# Elastic Compliance Matrix: (Units=1/GPa)
#
#
# Indices 1 2 3 4 5 6 
#
# 1 0.009200 0.005211 -0.002419 -0.000466 -0.006182 -0.006471
# 2 0.005211 0.026835 -0.005438 -0.001364 -0.010176 -0.017627
# 3 -0.002419 -0.005438 0.007984 0.003500 -0.001381 0.004297
# 4 -0.000466 -0.001364 0.003500 0.018472 0.002237 0.004884
# 5 -0.006182 -0.010176 -0.001381 0.002237 0.034928 0.016488
# 6 -0.006471 -0.017627 0.004297 0.004884 0.016488 0.040035
#
#
# Mechanical properties :
#
#
# Convention : Reuss Voigt Hill
#
# Bulk Modulus (GPa) = 25.82259 59.46539 42.64399
# Shear Modulus (GPa) = 32.12228 50.42273 41.27251
#
# Velocity S-wave (km/s) = 3.45015 4.32263 3.91080
# Velocity P-wave (km/s) = 5.04385 6.85198 6.01623
#
# Compressibility (1/GPa) = 0.03872578
#
# Stress axis : x y z
#
# Youngs Moduli (GPa) = 108.70108 37.26456 125.24949
#
# Poissons Ratio (x) = -0.19418 0.30301
# Poissons Ratio (y) = -0.56641 0.68110
# Poissons Ratio (z) = 0.26297 0.20264
#
# Static dielectric constant tensor:
#      x y z
#    x 2.078220 0.023880 -0.049170 
#    y 0.023880 1.912670 0.040930 
#    z -0.049170 0.040930 2.066010 
# 
# From -- ./inp_files/362756.got.cif
#   From: 2010.05.17/outbox.cif.g08.bks.cpg/sg2_182_cif.got.tgz:362756.got - 2010.06.03 11:33:40.
