data_PCOD9063095
_publ_section_title
;
Structure prediction by ZEFSAII (Michael W. Deem and Ramdas Pophale) SiO2 
 PCOD9063095
Probable space group: P -1
;
_chemical_formula_sum "Si O2"
_cell_formula_units_Z 16
_cell_length_a 8.811599
_cell_length_b 14.073517
_cell_length_c 13.863218
_cell_angle_alpha 144.273807
_cell_angle_beta 92.597015
_cell_angle_gamma 112.220953
_cell_volume 704.777845
_symmetry_space_group_name_H-M "P -1"
_symmetry_group_IT_number 2
_symmetry_cell_setting 'triclinic'
loop_
_space_group_symop_operation_xyz
x,y,z
-x,-y,-z
loop_
_atom_site_type_symbol
_atom_site_label
_atom_site_fract_x
_atom_site_fract_y
_atom_site_fract_z
Si Si1 0.677014 0.211564 0.948160
Si Si2 0.798901 0.484862 0.354063
Si Si3 0.252672 0.219797 0.331654
Si Si4 0.918338 0.704760 0.942877
Si Si5 0.773289 0.111363 0.418328
Si Si6 0.288723 0.531419 0.453319
Si Si7 0.971994 0.631041 0.178470
Si Si8 0.278222 0.311097 0.896981
O O1 0.450945 0.993017 0.715452
O O2 0.666931 0.260356 0.099117
O O3 0.761403 0.433334 0.074551
O O4 0.877029 0.241108 0.967799
O O5 0.706574 0.599522 0.444868
O O6 0.792944 0.437139 0.428018
O O7 0.034986 0.688443 0.482729
O O8 0.255832 0.317583 0.310931
O O9 0.454071 0.252070 0.368336
O O10 0.029211 0.960443 0.129265
O O11 0.829710 0.548429 0.716825
O O12 0.735799 0.596828 0.928093
O O13 0.832345 0.213610 0.612160
O O14 0.760836 0.906325 0.257438
O O15 0.918447 0.757342 0.226174
O O16 0.000000 0.500000 0.000000
O O17 0.500000 0.500000 0.000000
#
# Coordination Sequence:
#
# PCOD9063095 Si02
#       8
#     2   2   2   2   2   2   2   2
#     4  11  25  42  62  98 136 174 210 273 331 387
#     4   9  21  41  66  94 136 168 218 267 322 391
#     4   9  20  39  66  97 126 173 217 265 322 384
#     4  12  24  41  66  98 134 167 224 267 327 388
#     4  11  24  43  70  95 130 177 220 264 329 390
#     4   9  21  40  68  97 130 173 215 273 321 382
#     4  11  24  47  64  95 134 167 218 277 328 383
#     4  12  24  44  69  99 127 175 221 275 320 390
#
# _framework density 22.702190999999999
#
# number of rings (size 3 to 8) (size 9 to 14) (size 15 to 20)
#    0.750    0.750    3.750    0.750    1.750    4.000 
#    2.250    1.250    0.000    0.000    0.000    0.000 
#    0.000    0.000    0.000    0.000    0.000    0.000 
#
# Total GULP energy -89319.377436 kJ/mol
# GULP energy per Si atom -5582.461090 kJ/mol
# Density = 2.265052 g / cm^3
# Si number density = 22.702191 Si / 1000 Ang^3
#
#
#
# Elastic Constant Matrix: (Units=GPa)
#
#
# Indices 1 2 3 4 5 6 
#
# 1 114.5618 49.2989 52.7473 -23.4787 3.1139 6.7563
# 2 49.2989 106.1968 51.5231 -21.1352 6.9852 23.9671
# 3 52.7473 51.5231 114.7839 -31.2784 10.6056 17.9061
# 4 -23.4787 -21.1352 -31.2784 39.8465 -2.0904 -7.2712
# 5 3.1139 6.9852 10.6056 -2.0904 36.3074 -4.4540
# 6 6.7563 23.9671 17.9061 -7.2712 -4.4540 30.1342
#
#
#
# Elastic Compliance Matrix: (Units=1/GPa)
#
#
# Indices 1 2 3 4 5 6 
#
# 1 0.012726 -0.004458 -0.003789 0.002947 0.001519 0.003880
# 2 -0.004458 0.015501 -0.002691 0.001542 -0.002926 -0.009790
# 3 -0.003789 -0.002691 0.014536 0.006732 -0.003574 -0.004551
# 4 0.002947 0.001542 0.006732 0.033300 -0.000341 0.002097
# 5 0.001519 -0.002926 -0.003574 -0.000341 0.030038 0.008468
# 6 0.003880 -0.009790 -0.004551 0.002097 0.008468 0.044563
#
#
# Mechanical properties :
#
#
# Convention : Reuss Voigt Hill
#
# Bulk Modulus (GPa) = 47.88132 71.40902 59.64517
# Shear Modulus (GPa) = 27.85451 33.38918 30.62185
#
# Velocity S-wave (km/s) = 3.50659 3.83919 3.67665
# Velocity P-wave (km/s) = 6.12631 7.15371 6.65985
#
# Compressibility (1/GPa) = 0.02088497
#
# Stress axis : x y z
#
# Youngs Moduli (GPa) = 78.57912 64.51345 68.79400
#
# Poissons Ratio (x) = 0.28762 0.26069
# Poissons Ratio (y) = 0.35032 0.18514
# Poissons Ratio (z) = 0.29777 0.17362
#
# Static dielectric constant tensor:
#      x y z
#    x 1.865020 -0.035730 -0.011830 
#    y -0.035730 1.888610 0.000450 
#    z -0.011830 0.000450 1.828590 
# 
# From -- ./inp_files/504471.got.cif
#   From: 2010.05.17/outbox.cif.g08.bks.cpg/sg2_253_cif.got.tgz:504471.got - 2010.06.03 11:33:40.
