data_PCOD9063347
_publ_section_title
;
Structure prediction by ZEFSAII (Michael W. Deem and Ramdas Pophale) SiO2 
 PCOD9063347
Probable space group: P -1
;
_chemical_formula_sum "Si O2"
_cell_formula_units_Z 16
_cell_length_a 5.417545
_cell_length_b 9.015594
_cell_length_c 16.588691
_cell_angle_alpha 83.301986
_cell_angle_beta 58.475190
_cell_angle_gamma 76.422260
_cell_volume 671.331893
_symmetry_space_group_name_H-M "P -1"
_symmetry_group_IT_number 2
_symmetry_cell_setting 'triclinic'
loop_
_space_group_symop_operation_xyz
x,y,z
-x,-y,-z
loop_
_atom_site_type_symbol
_atom_site_label
_atom_site_fract_x
_atom_site_fract_y
_atom_site_fract_z
Si Si1 0.905331 0.357579 0.750433
Si Si2 0.919759 0.914285 0.598547
Si Si3 0.181522 0.416373 0.399132
Si Si4 0.213453 0.135826 0.134757
Si Si5 0.745759 0.569727 0.101541
Si Si6 0.223400 0.010913 0.701060
Si Si7 0.232204 0.110798 0.947229
Si Si8 0.813596 0.390591 0.251832
O O1 0.830606 0.451982 0.674109
O O2 0.608558 0.374901 0.854078
O O3 0.059562 0.185534 0.720308
O O4 0.142640 0.445047 0.740265
O O5 0.950311 0.731240 0.593322
O O6 0.569512 0.983091 0.660298
O O7 0.000000 0.000000 0.500000
O O8 0.115260 0.950540 0.638182
O O9 0.537157 0.353376 0.349445
O O10 0.000000 0.500000 0.500000
O O11 0.136165 0.278419 0.199751
O O12 0.471353 0.999168 0.127183
O O13 0.279474 0.163109 0.028611
O O14 0.911522 0.075879 0.199275
O O15 0.836786 0.731390 0.099999
O O16 0.745787 0.423190 0.167635
O O17 0.000000 0.500000 0.000000
O O18 0.000000 0.000000 0.000000
#
# Coordination Sequence:
#
# PCOD9063347 Si02
#       8
#     2   2   2   2   2   2   2   2
#     4  11  27  44  72 103 143 191 239 304 370 433
#     4  12  28  50  78 111 146 193 242 306 369 438
#     4  11  26  48  72 105 144 188 244 298 368 436
#     4  11  24  44  64 104 136 190 242 294 364 427
#     4  11  24  44  64 101 138 184 242 298 361 433
#     4  12  27  48  78 106 151 190 248 300 365 440
#     4  11  26  41  67  96 142 188 242 300 360 433
#     4  11  25  44  70  99 140 188 236 299 365 433
#
# _framework density 23.833219
#
# number of rings (size 3 to 8) (size 9 to 14) (size 15 to 20)
#    0.000    0.750    3.750    1.875   10.500    1.000 
#    0.000    0.000    0.000    0.000    0.000    0.000 
#    0.000    0.000    0.000    0.000    0.000    0.000 
#
# Total GULP energy -89301.060712 kJ/mol
# GULP energy per Si atom -5581.316295 kJ/mol
# Density = 2.377897 g / cm^3
# Si number density = 23.833219 Si / 1000 Ang^3
#
#
#
# Elastic Constant Matrix: (Units=GPa)
#
#
# Indices 1 2 3 4 5 6 
#
# 1 59.9299 19.8767 32.3273 7.8849 -7.0765 -6.2081
# 2 19.8767 141.2626 30.2181 19.4024 0.2193 -1.3766
# 3 32.3273 30.2181 147.9070 7.4159 -15.3642 -7.4925
# 4 7.8849 19.4024 7.4159 45.3525 1.5560 -5.7128
# 5 -7.0765 0.2193 -15.3642 1.5560 35.7994 -0.6353
# 6 -6.2081 -1.3766 -7.4925 -5.7128 -0.6353 41.9370
#
#
#
# Elastic Compliance Matrix: (Units=1/GPa)
#
#
# Indices 1 2 3 4 5 6 
#
# 1 0.019949 -0.001765 -0.003532 -0.001967 0.002560 0.002035
# 2 -0.001765 0.007989 -0.001213 -0.002965 -0.000801 -0.000632
# 3 -0.003532 -0.001213 0.008129 -0.000179 0.002822 0.000908
# 4 -0.001967 -0.002965 -0.000179 0.024096 -0.001444 0.002840
# 5 0.002560 -0.000801 0.002822 -0.001444 0.029738 0.001111
# 6 0.002035 -0.000632 0.000908 0.002840 0.001111 0.024692
#
#
# Mechanical properties :
#
#
# Convention : Reuss Voigt Hill
#
# Bulk Modulus (GPa) = 43.39059 57.10486 50.24773
# Shear Modulus (GPa) = 36.95627 42.39627 39.67627
#
# Velocity S-wave (km/s) = 3.94206 4.22224 4.08456
# Velocity P-wave (km/s) = 6.24222 6.91245 6.58587
#
# Compressibility (1/GPa) = 0.02304647
#
# Stress axis : x y z
#
# Youngs Moduli (GPa) = 50.12863 125.16953 123.01918
#
# Poissons Ratio (x) = 0.22098 0.43448
# Poissons Ratio (y) = 0.08850 0.14921
# Poissons Ratio (z) = 0.17704 0.15182
#
# Static dielectric constant tensor:
#      x y z
#    x 2.081350 -0.063080 0.149360 
#    y -0.063080 1.985530 -0.050100 
#    z 0.149360 -0.050100 2.010350 
# 
# From -- ./inp_files/37293.got.cif
#   From: 2010.05.17/outbox.cif.g08.bks.cpg/sg2_19_cif.got.tgz:37293.got - 2010.06.03 11:33:40.
