data_PCOD9063570
_publ_section_title
;
Structure prediction by ZEFSAII (Michael W. Deem and Ramdas Pophale) SiO2 
 PCOD9063570
Probable space group: P -1
;
_chemical_formula_sum "Si O2"
_cell_formula_units_Z 16
_cell_length_a 14.752318
_cell_length_b 14.328618
_cell_length_c 6.723942
_cell_angle_alpha 67.554255
_cell_angle_beta 56.276110
_cell_angle_gamma 39.052146
_cell_volume 741.468838
_symmetry_space_group_name_H-M "P -1"
_symmetry_group_IT_number 2
_symmetry_cell_setting 'triclinic'
loop_
_space_group_symop_operation_xyz
x,y,z
-x,-y,-z
loop_
_atom_site_type_symbol
_atom_site_label
_atom_site_fract_x
_atom_site_fract_y
_atom_site_fract_z
Si Si1 0.121526 0.231272 0.606107
Si Si2 0.398233 0.362875 0.339969
Si Si3 0.211778 0.657897 0.132601
Si Si4 0.150241 0.383808 0.768084
Si Si5 0.824266 0.141203 0.681978
Si Si6 0.314252 0.954506 0.880066
Si Si7 0.683363 0.878726 0.939179
Si Si8 0.387265 0.664974 0.586511
O O1 0.109279 0.338884 0.670468
O O2 0.196055 0.208091 0.321906
O O3 0.949938 0.293693 0.751353
O O4 0.243678 0.069277 0.694513
O O5 0.357704 0.481182 0.142643
O O6 0.229047 0.433970 0.560844
O O7 0.501040 0.202651 0.248594
O O8 0.504714 0.333816 0.413775
O O9 0.188115 0.743012 0.287244
O O10 0.258788 0.698272 0.860450
O O11 0.282203 0.235454 0.858814
O O12 0.000000 0.500000 0.000000
O O13 0.701208 0.222417 0.581542
O O14 0.778171 0.087263 0.941619
O O15 0.000000 0.000000 0.500000
O O16 0.288970 0.037704 0.039860
O O17 0.500000 0.000000 0.000000
O O18 0.500000 0.500000 0.500000
#
# Coordination Sequence:
#
# PCOD9063570 Si02
#       8
#     2   2   2   2   2   2   2   2
#     4  11  26  47  69 101 139 178 225 285 337 400
#     4  12  25  46  71  99 139 178 229 282 338 406
#     4  12  26  46  68 101 141 177 227 282 335 407
#     4  11  27  46  68 103 136 178 232 278 337 404
#     4  12  26  43  68 104 137 180 229 271 340 410
#     4  11  25  43  68 101 135 174 228 278 336 404
#     4  11  24  44  70  98 135 178 226 280 339 397
#     4  12  26  45  70 100 139 181 223 283 342 396
#
# _framework density 21.578787999999999
#
# number of rings (size 3 to 8) (size 9 to 14) (size 15 to 20)
#    0.000    0.500    2.500    4.875    7.000    8.000 
#    0.000    0.000    0.000    0.000    0.000    0.000 
#    0.000    0.000    0.000    0.000    0.000    0.000 
#
# Total GULP energy -89623.692819 kJ/mol
# GULP energy per Si atom -5601.480801 kJ/mol
# Density = 2.152967 g / cm^3
# Si number density = 21.578788 Si / 1000 Ang^3
#
#
#
# Elastic Constant Matrix: (Units=GPa)
#
#
# Indices 1 2 3 4 5 6 
#
# 1 76.8036 -9.7135 18.1413 -6.2932 -2.7032 4.3530
# 2 -9.7135 70.6317 -5.6771 3.0538 12.8427 6.5737
# 3 18.1413 -5.6771 88.6370 11.7664 -1.4256 14.2105
# 4 -6.2932 3.0538 11.7664 38.1251 -1.2770 -4.5221
# 5 -2.7032 12.8427 -1.4256 -1.2770 38.1966 4.8376
# 6 4.3530 6.5737 14.2105 -4.5221 4.8376 23.6476
#
#
#
# Elastic Compliance Matrix: (Units=1/GPa)
#
#
# Indices 1 2 3 4 5 6 
#
# 1 0.014267 0.001538 -0.003116 0.003129 0.000570 -0.000700
# 2 0.001538 0.015945 0.001797 -0.002361 -0.004592 -0.005308
# 3 -0.003116 0.001797 0.014483 -0.006287 0.000771 -0.009989
# 4 0.003129 -0.002361 -0.006287 0.030019 0.000584 0.009480
# 5 0.000570 -0.004592 0.000771 0.000584 0.028446 -0.004999
# 6 -0.000700 -0.005308 -0.009989 0.009480 -0.004999 0.052730
#
#
# Mechanical properties :
#
#
# Convention : Reuss Voigt Hill
#
# Bulk Modulus (GPa) = 22.15650 26.84151 24.49901
# Shear Modulus (GPa) = 29.32614 35.54863 32.43739
#
# Velocity S-wave (km/s) = 3.69050 4.06321 3.88133
# Velocity P-wave (km/s) = 5.33383 5.87186 5.60930
#
# Compressibility (1/GPa) = 0.04513348
#
# Stress axis : x y z
#
# Youngs Moduli (GPa) = 70.09309 62.71603 69.04518
#
# Poissons Ratio (x) = -0.09645 0.21512
# Poissons Ratio (y) = -0.10779 -0.12408
# Poissons Ratio (z) = 0.21838 -0.11270
#
# Static dielectric constant tensor:
#      x y z
#    x 1.765870 0.009100 -0.008070 
#    y 0.009100 1.792670 -0.000480 
#    z -0.008070 -0.000480 1.759440 
# 
# From -- ./inp_files/97657.got.cif
#   From: 2010.05.17/outbox.cif.g08.bks.cpg/sg2_49_cif.got.tgz:97657.got - 2010.06.03 11:33:40.
