data_PCOD9063316
_publ_section_title
;
Structure prediction by ZEFSAII (Michael W. Deem and Ramdas Pophale) SiO2 
 PCOD9063316
Probable space group: P -1
;
_chemical_formula_sum "Si O2"
_cell_formula_units_Z 16
_cell_length_a 9.096536
_cell_length_b 8.801095
_cell_length_c 15.251811
_cell_angle_alpha 140.905848
_cell_angle_beta 92.115153
_cell_angle_gamma 76.522545
_cell_volume 727.857270
_symmetry_space_group_name_H-M "P -1"
_symmetry_group_IT_number 2
_symmetry_cell_setting 'triclinic'
loop_
_space_group_symop_operation_xyz
x,y,z
-x,-y,-z
loop_
_atom_site_type_symbol
_atom_site_label
_atom_site_fract_x
_atom_site_fract_y
_atom_site_fract_z
Si Si1 0.371315 0.472133 0.549857
Si Si2 0.675568 0.929221 0.998171
Si Si3 0.854490 0.391161 0.688155
Si Si4 0.850878 0.676462 0.630161
Si Si5 0.845643 0.157906 0.960919
Si Si6 0.846296 0.724124 0.233138
Si Si7 0.391377 0.858408 0.477026
Si Si8 0.841864 0.988883 0.177894
O O1 0.500000 0.500000 0.500000
O O2 0.296914 0.277299 0.416410
O O3 0.473549 0.397715 0.605711
O O4 0.221104 0.719238 0.666421
O O5 0.761116 0.635906 0.850128
O O6 0.753153 0.088826 0.008024
O O7 0.690938 0.959540 0.115691
O O8 0.500000 0.000000 0.000000
O O9 0.852532 0.499661 0.637199
O O10 0.750153 0.204096 0.602331
O O11 0.024088 0.302940 0.699315
O O12 0.000000 0.500000 0.500000
O O13 0.837637 0.958149 0.793181
O O14 0.033360 0.073765 0.925673
O O15 0.805799 0.464989 0.098210
O O16 0.904184 0.809115 0.181221
O O17 0.696240 0.959593 0.363482
O O18 0.500000 0.000000 0.500000
#
# Coordination Sequence:
#
# PCOD9063316 Si02
#       8
#     2   2   2   2   2   2   2   2
#     4  12  24  48  72 100 140 185 248 290 354 424
#     4  11  26  44  73 104 142 190 237 298 355 425
#     4  11  25  47  70 103 144 185 245 287 360 430
#     4  11  24  43  76 106 137 190 242 296 349 431
#     4  11  26  44  72 110 139 184 240 291 359 423
#     4  12  27  47  71 106 150 187 235 302 362 425
#     4  12  29  46  72 105 145 191 233 299 364 423
#     4  12  24  47  76  98 144 190 240 296 355 429
#
# _framework density 21.982333000000001
#
# number of rings (size 3 to 8) (size 9 to 14) (size 15 to 20)
#    0.000    0.500    5.000    1.875    8.750    1.000 
#    0.000    1.250    0.000    0.000    0.000    0.000 
#    0.000    0.000    0.000    0.000    0.000    0.000 
#
# Total GULP energy -89125.068250 kJ/mol
# GULP energy per Si atom -5570.316766 kJ/mol
# Density = 2.193230 g / cm^3
# Si number density = 21.982333 Si / 1000 Ang^3
#
#
#
# Elastic Constant Matrix: (Units=GPa)
#
#
# Indices 1 2 3 4 5 6 
#
# 1 78.7882 29.0369 27.4726 1.3584 12.9464 5.1750
# 2 29.0369 56.7824 22.6981 6.5376 -0.9433 6.2980
# 3 27.4726 22.6981 95.8895 13.9746 25.0359 2.5955
# 4 1.3584 6.5376 13.9746 34.3644 -3.7555 1.9360
# 5 12.9464 -0.9433 25.0359 -3.7555 33.6188 -1.1979
# 6 5.1750 6.2980 2.5955 1.9360 -1.1979 36.3134
#
#
#
# Elastic Compliance Matrix: (Units=1/GPa)
#
#
# Indices 1 2 3 4 5 6 
#
# 1 0.017290 -0.008261 -0.001657 0.001017 -0.005583 -0.001151
# 2 -0.008261 0.024411 -0.005099 -0.001298 0.007434 -0.002377
# 3 -0.001657 -0.005099 0.016395 -0.006993 -0.012499 -0.000091
# 4 0.001017 -0.001298 -0.006993 0.033124 0.008447 -0.000907
# 5 -0.005583 0.007434 -0.012499 0.008447 0.042404 0.001348
# 6 -0.001151 -0.002377 -0.000091 -0.000907 0.001348 0.028214
#
#
# Mechanical properties :
#
#
# Convention : Reuss Voigt Hill
#
# Bulk Modulus (GPa) = 35.63665 43.31948 39.47806
# Shear Modulus (GPa) = 24.84757 31.00947 27.92852
#
# Velocity S-wave (km/s) = 3.36570 3.75994 3.56827
# Velocity P-wave (km/s) = 5.59916 6.21280 5.91394
#
# Compressibility (1/GPa) = 0.02806100
#
# Stress axis : x y z
#
# Youngs Moduli (GPa) = 57.83548 40.96597 60.99295
#
# Poissons Ratio (x) = 0.33844 0.10109
# Poissons Ratio (y) = 0.47780 0.31099
# Poissons Ratio (z) = 0.09586 0.20887
#
# Static dielectric constant tensor:
#      x y z
#    x 1.747190 -0.041260 0.064110 
#    y -0.041260 1.866210 -0.042140 
#    z 0.064110 -0.042140 1.867080 
# 
# From -- ./inp_files/223430.got.cif
#   From: 2010.05.17/outbox.cif.g08.bks.cpg/sg2_112_cif.got.tgz:223430.got - 2010.06.03 11:33:40.
