data_PCOD9063893
_publ_section_title
;
Structure prediction by ZEFSAII (Michael W. Deem and Ramdas Pophale) SiO2 
 PCOD9063893
Probable space group: P -1
;
_chemical_formula_sum "Si O2"
_cell_formula_units_Z 12
_cell_length_a 18.139074
_cell_length_b 7.660142
_cell_length_c 9.605908
_cell_angle_alpha 115.653288
_cell_angle_beta 29.367724
_cell_angle_gamma 128.533580
_cell_volume 490.531130
_symmetry_space_group_name_H-M "P -1"
_symmetry_group_IT_number 2
_symmetry_cell_setting 'triclinic'
loop_
_space_group_symop_operation_xyz
x,y,z
-x,-y,-z
loop_
_atom_site_type_symbol
_atom_site_label
_atom_site_fract_x
_atom_site_fract_y
_atom_site_fract_z
Si Si1 0.954656 0.985408 0.731647
Si Si2 0.453826 0.648015 0.222066
Si Si3 0.779503 0.767475 0.364333
Si Si4 0.086553 0.385621 0.156653
Si Si5 0.684299 0.093934 0.144606
Si Si6 0.310265 0.868124 0.349627
O O1 0.120032 0.131193 0.617596
O O2 0.862352 0.717136 0.835932
O O3 0.000000 0.000000 0.500000
O O4 0.828066 0.080590 0.995426
O O5 0.377432 0.499188 0.436510
O O6 0.627763 0.901611 0.052696
O O7 0.317755 0.701943 0.392788
O O8 0.500000 0.500000 0.000000
O O9 0.703688 0.921878 0.497842
O O10 0.901660 0.750409 0.043044
O O11 0.876761 0.298101 0.484603
O O12 0.219641 0.655131 0.996847
O O13 0.500000 0.000000 0.500000
O O14 0.500000 0.000000 0.000000
#
# Coordination Sequence:
#
# PCOD9063893 Si02
#       6
#     2   2   2   2   2   2
#     4  11  26  48  72 108 156 194 251 314 379 442
#     4  12  25  46  74 108 152 193 253 312 375 445
#     4  11  24  48  77 106 147 202 247 313 372 446
#     4  11  27  49  75 110 150 200 254 310 375 449
#     4  12  28  46  74 113 149 197 254 313 377 445
#     4  11  24  44  77 106 143 199 254 299 373 454
#
# _framework density 24.463277999999999
#
# number of rings (size 3 to 8) (size 9 to 14) (size 15 to 20)
#    0.000    0.667    3.333    4.000    7.000    4.000 
#    3.000    0.000    0.000    0.000    0.000    0.000 
#    0.000    0.000    0.000    0.000    0.000    0.000 
#
# Total GULP energy -67185.453358 kJ/mol
# GULP energy per Si atom -5598.787780 kJ/mol
# Density = 2.440760 g / cm^3
# Si number density = 24.463278 Si / 1000 Ang^3
#
#
#
# Elastic Constant Matrix: (Units=GPa)
#
#
# Indices 1 2 3 4 5 6 
#
# 1 69.8758 47.0732 35.3481 10.1735 7.8938 -23.7268
# 2 47.0732 226.6216 63.2833 -2.4164 -0.9567 -30.1506
# 3 35.3481 63.2833 154.9535 -7.3558 0.3657 -8.9509
# 4 10.1735 -2.4164 -7.3558 45.7448 -3.8063 2.7234
# 5 7.8938 -0.9567 0.3657 -3.8063 32.5833 9.7546
# 6 -23.7268 -30.1506 -8.9509 2.7234 9.7546 52.9985
#
#
#
# Elastic Compliance Matrix: (Units=1/GPa)
#
#
# Indices 1 2 3 4 5 6 
#
# 1 0.024037 -0.002507 -0.004171 -0.007627 -0.009993 0.010862
# 2 -0.002507 0.005614 -0.001598 0.000523 0.000338 0.001713
# 3 -0.004171 -0.001598 0.008060 0.002391 0.001707 -0.001852
# 4 -0.007627 0.000523 0.002391 0.024797 0.006272 -0.005142
# 5 -0.009993 0.000338 0.001707 0.006272 0.037175 -0.011157
# 6 0.010862 0.001713 -0.001852 -0.005142 -0.011157 0.026711
#
#
# Mechanical properties :
#
#
# Convention : Reuss Voigt Hill
#
# Bulk Modulus (GPa) = 47.25730 82.54003 64.89867
# Shear Modulus (GPa) = 33.33356 46.64840 39.99098
#
# Velocity S-wave (km/s) = 3.69534 4.37151 4.04757
# Velocity P-wave (km/s) = 6.12919 7.70025 6.95919
#
# Compressibility (1/GPa) = 0.02116075
#
# Stress axis : x y z
#
# Youngs Moduli (GPa) = 41.60229 178.11076 124.06692
#
# Poissons Ratio (x) = 0.44647 0.51744
# Poissons Ratio (y) = 0.10428 0.19828
# Poissons Ratio (z) = 0.17351 0.28465
#
# Static dielectric constant tensor:
#      x y z
#    x 2.001010 0.022770 0.000350 
#    y 0.022770 1.983370 -0.020590 
#    z 0.000350 -0.020590 2.008590 
# 
# From -- ./inp_files/326357.got.cif
#   From: 2010.05.17/outbox.cif.g08.bks.cpg/sg2_164_cif.got.tgz:326357.got - 2010.06.03 11:33:40.
