data_PCOD9063717
_publ_section_title
;
Structure prediction by ZEFSAII (Michael W. Deem and Ramdas Pophale) SiO2 
 PCOD9063717
Probable space group: P -1
;
_chemical_formula_sum "Si O2"
_cell_formula_units_Z 16
_cell_length_a 23.583735
_cell_length_b 6.014023
_cell_length_c 9.812930
_cell_angle_alpha 48.297421
_cell_angle_beta 135.149886
_cell_angle_gamma 122.868262
_cell_volume 726.144263
_symmetry_space_group_name_H-M "P -1"
_symmetry_group_IT_number 2
_symmetry_cell_setting 'triclinic'
loop_
_space_group_symop_operation_xyz
x,y,z
-x,-y,-z
loop_
_atom_site_type_symbol
_atom_site_label
_atom_site_fract_x
_atom_site_fract_y
_atom_site_fract_z
Si Si1 0.923295 0.263855 0.010567
Si Si2 0.438805 0.318719 0.073451
Si Si3 0.561195 0.379913 0.757037
Si Si4 0.206183 0.353071 0.309285
Si Si5 0.076703 0.840546 0.240685
Si Si6 0.743983 0.764462 0.267824
Si Si7 0.256017 0.520471 0.035887
Si Si8 0.112899 0.306452 0.669351
O O1 0.855818 0.407107 0.918636
O O2 0.883494 0.191755 0.825236
O O3 0.000000 0.500000 0.000000
O O4 0.942405 0.987265 0.246405
O O5 0.464520 0.482257 0.196781
O O6 0.439792 0.969897 0.159686
O O7 0.500000 0.500000 0.000000
O O8 0.344112 0.364049 0.885989
O O9 0.500000 0.500000 0.500000
O O10 0.655888 0.519932 0.853653
O O11 0.254647 0.376808 0.521400
O O12 0.254646 0.377793 0.242560
O O13 0.144180 0.051260 0.351195
O O14 0.057590 0.544851 0.419189
O O15 0.000000 0.000000 0.000000
O O16 0.823576 0.711469 0.339251
O O17 0.746774 0.123390 0.120147
O O18 0.176424 0.387904 0.868525
#
# Coordination Sequence:
#
# PCOD9063717 Si02
#       8
#     2   2   2   2   2   2   2   2
#     4  12  26  44  67 100 138 178 236 300 371 447
#     4  11  25  47  73 111 156 198 251 303 374 444
#     4  11  25  47  73 111 156 198 251 303 374 444
#     4  12  24  44  69 102 136 180 244 298 365 432
#     4  12  26  44  67 100 138 178 236 300 371 447
#     4  11  24  44  73 102 141 188 245 299 364 437
#     4  11  24  44  73 102 141 188 245 299 364 437
#     4  12  24  46  71  98 138 188 234 308 363 440
#
# _framework density 22.034189999999999
#
# number of rings (size 3 to 8) (size 9 to 14) (size 15 to 20)
#    0.000    0.500    7.500    0.750    1.750    1.000 
#    6.750    0.000    0.000    0.000    0.000    0.000 
#    0.000    0.000    0.000    0.000    0.000    0.000 
#
# Total GULP energy -89073.394347 kJ/mol
# GULP energy per Si atom -5567.087147 kJ/mol
# Density = 2.198404 g / cm^3
# Si number density = 22.034190 Si / 1000 Ang^3
#
#
#
# Elastic Constant Matrix: (Units=GPa)
#
#
# Indices 1 2 3 4 5 6 
#
# 1 108.1031 42.1847 51.0947 1.9536 -25.0393 0.4993
# 2 42.1847 67.1879 53.7712 0.3366 -8.2265 -6.1010
# 3 51.0947 53.7712 157.6937 -6.6318 -29.3029 7.8814
# 4 1.9536 0.3366 -6.6318 38.3885 2.4783 -14.2402
# 5 -25.0393 -8.2265 -29.3029 2.4783 38.9946 7.1013
# 6 0.4993 -6.1010 7.8814 -14.2402 7.1013 28.9312
#
#
#
# Elastic Compliance Matrix: (Units=1/GPa)
#
#
# Indices 1 2 3 4 5 6 
#
# 1 0.014840 -0.008747 0.000002 -0.003498 0.009006 -0.006034
# 2 -0.008747 0.027220 -0.008526 0.003845 -0.008757 0.012256
# 3 0.000002 -0.008526 0.011034 -0.001264 0.007917 -0.007369
# 4 -0.003498 0.003845 -0.001264 0.033883 -0.008161 0.019896
# 5 0.009006 -0.008757 0.007917 -0.008161 0.039294 -0.017821
# 6 -0.006034 0.012256 -0.007369 0.019896 -0.017821 0.053428
#
#
# Mechanical properties :
#
#
# Convention : Reuss Voigt Hill
#
# Bulk Modulus (GPa) = 53.89782 69.67621 61.78702
# Shear Modulus (GPa) = 22.68367 33.65846 28.17107
#
# Velocity S-wave (km/s) = 3.21203 3.91264 3.57951
# Velocity P-wave (km/s) = 6.18629 7.21818 6.72207
#
# Compressibility (1/GPa) = 0.01855363
#
# Stress axis : x y z
#
# Youngs Moduli (GPa) = 67.38658 36.73777 90.62869
#
# Poissons Ratio (x) = 0.32134 -0.00021
# Poissons Ratio (y) = 0.58941 0.77266
# Poissons Ratio (z) = -0.00016 0.31321
#
# Static dielectric constant tensor:
#      x y z
#    x 1.860310 -0.110310 -0.035960 
#    y -0.110310 2.127460 -0.136510 
#    z -0.035960 -0.136510 1.949200 
# 
# From -- ./inp_files/350913.got.cif
#   From: 2010.05.17/outbox.cif.g08.bks.cpg/sg2_176_cif.got.tgz:350913.got - 2010.06.03 11:33:40.
