data_PCOD9063429
_publ_section_title
;
Structure prediction by ZEFSAII (Michael W. Deem and Ramdas Pophale) SiO2 
 PCOD9063429
Probable space group: P -1
;
_chemical_formula_sum "Si O2"
_cell_formula_units_Z 14
_cell_length_a 5.317842
_cell_length_b 9.060493
_cell_length_c 12.914513
_cell_angle_alpha 103.654942
_cell_angle_beta 72.031052
_cell_angle_gamma 78.034677
_cell_volume 548.116415
_symmetry_space_group_name_H-M "P -1"
_symmetry_group_IT_number 2
_symmetry_cell_setting 'triclinic'
loop_
_space_group_symop_operation_xyz
x,y,z
-x,-y,-z
loop_
_atom_site_type_symbol
_atom_site_label
_atom_site_fract_x
_atom_site_fract_y
_atom_site_fract_z
Si Si1 0.385918 0.276280 0.392181
Si Si2 0.290715 0.890013 0.495250
Si Si3 0.241323 0.703269 0.177022
Si Si4 0.845314 0.385613 0.627981
Si Si5 0.775653 0.428885 0.064059
Si Si6 0.858707 0.866957 0.968831
Si Si7 0.389568 0.997884 0.189651
O O1 0.662637 0.207070 0.416318
O O2 0.328331 0.435717 0.355760
O O3 0.394702 0.124321 0.295554
O O4 0.119712 0.325672 0.511059
O O5 0.334472 0.736599 0.389463
O O6 0.500000 0.000000 0.500000
O O7 0.000000 0.000000 0.500000
O O8 0.044394 0.647736 0.272330
O O9 0.520735 0.569825 0.155155
O O10 0.197846 0.889752 0.225244
O O11 0.276368 0.671831 0.044319
O O12 0.000000 0.500000 0.000000
O O13 0.913248 0.298971 0.108747
O O14 0.676332 0.866790 0.094952
O O15 0.691904 0.908860 0.891648
O O16 0.000000 0.000000 0.000000
#
# Coordination Sequence:
#
# PCOD9063429 Si02
#       7
#     2   2   2   2   2   2   2
#     4  11  27  50  74 111 156 204 264 322 390 466
#     4  12  25  50  80 109 150 201 260 323 384 461
#     4  11  25  43  71 108 143 195 251 308 382 461
#     4  11  27  49  74 110 157 207 259 320 392 461
#     4  11  24  44  68 105 148 189 245 309 384 457
#     4  11  24  44  70 105 147 192 242 312 380 455
#     4  11  25  44  73 108 144 193 253 308 382 459
#
# _framework density 25.542019
#
# number of rings (size 3 to 8) (size 9 to 14) (size 15 to 20)
#    0.000    0.857    4.286    1.286    4.000    3.429 
#    2.571    0.000    0.000    0.000    0.000    0.000 
#    0.000    0.000    0.000    0.000    0.000    0.000 
#
# Total GULP energy -78127.075979 kJ/mol
# GULP energy per Si atom -5580.505427 kJ/mol
# Density = 2.548388 g / cm^3
# Si number density = 25.542019 Si / 1000 Ang^3
#
#
#
# Elastic Constant Matrix: (Units=GPa)
#
#
# Indices 1 2 3 4 5 6 
#
# 1 75.7733 25.9799 10.9300 12.1188 3.8074 -17.2700
# 2 25.9799 159.0578 30.8272 13.3413 8.3631 -25.9728
# 3 10.9300 30.8272 125.4700 6.0340 8.5998 -18.0983
# 4 12.1188 13.3413 6.0340 45.2959 6.5241 1.4550
# 5 3.8074 8.3631 8.5998 6.5241 29.8713 -4.1062
# 6 -17.2700 -25.9728 -18.0983 1.4550 -4.1062 46.0880
#
#
#
# Elastic Compliance Matrix: (Units=1/GPa)
#
#
# Indices 1 2 3 4 5 6 
#
# 1 0.015462 -0.001344 -0.000090 -0.003891 -0.000015 0.005122
# 2 -0.001344 0.007430 -0.001108 -0.001673 -0.000780 0.003232
# 3 -0.000090 -0.001108 0.008782 -0.000660 -0.001697 0.002660
# 4 -0.003891 -0.001673 -0.000660 0.024503 -0.004727 -0.003855
# 5 -0.000015 -0.000780 -0.001697 -0.004727 0.035521 0.002203
# 6 0.005122 0.003232 0.002660 -0.003855 0.002203 0.026801
#
#
# Mechanical properties :
#
#
# Convention : Reuss Voigt Hill
#
# Bulk Modulus (GPa) = 37.60934 55.08613 46.34773
# Shear Modulus (GPa) = 37.75084 43.75531 40.75307
#
# Velocity S-wave (km/s) = 3.84863 4.14342 3.99874
# Velocity P-wave (km/s) = 5.87416 6.67115 6.28530
#
# Compressibility (1/GPa) = 0.02658914
#
# Stress axis : x y z
#
# Youngs Moduli (GPa) = 64.67580 134.58094 113.87038
#
# Poissons Ratio (x) = 0.18094 0.01020
# Poissons Ratio (y) = 0.08696 0.12622
# Poissons Ratio (z) = 0.00579 0.14917
#
# Static dielectric constant tensor:
#      x y z
#    x 2.240970 0.064510 0.030000 
#    y 0.064510 2.027760 0.022410 
#    z 0.030000 0.022410 2.269990 
# 
# From -- ./inp_files/360806.got.cif
#   From: 2010.05.17/outbox.cif.g08.bks.cpg/sg2_181_cif.got.tgz:360806.got - 2010.06.03 11:33:40.
