data_PCOD9063998
_publ_section_title
;
Structure prediction by ZEFSAII (Michael W. Deem and Ramdas Pophale) SiO2 
 PCOD9063998
Probable space group: P -1
;
_chemical_formula_sum "Si O2"
_cell_formula_units_Z 16
_cell_length_a 8.833115
_cell_length_b 17.872414
_cell_length_c 6.030413
_cell_angle_alpha 90.186465
_cell_angle_beta 127.845087
_cell_angle_gamma 106.773883
_cell_volume 699.023550
_symmetry_space_group_name_H-M "P -1"
_symmetry_group_IT_number 2
_symmetry_cell_setting 'triclinic'
loop_
_space_group_symop_operation_xyz
x,y,z
-x,-y,-z
loop_
_atom_site_type_symbol
_atom_site_label
_atom_site_fract_x
_atom_site_fract_y
_atom_site_fract_z
Si Si1 0.187213 0.402179 0.695655
Si Si2 0.454495 0.551892 0.649174
Si Si3 0.102864 0.587694 0.205086
Si Si4 0.091305 0.748364 0.094209
Si Si5 0.109820 0.002758 0.345552
Si Si6 0.814650 0.760975 0.518608
Si Si7 0.503804 0.841750 0.195829
Si Si8 0.198594 0.855113 0.585688
O O1 0.294077 0.485243 0.661675
O O2 0.178169 0.323848 0.554172
O O3 0.987057 0.406944 0.633369
O O4 0.340068 0.403539 0.034320
O O5 0.500000 0.500000 0.500000
O O6 0.344106 0.606975 0.446020
O O7 0.063631 0.656368 0.031549
O O8 0.000000 0.500000 0.000000
O O9 0.295691 0.802984 0.148909
O O10 0.887497 0.764379 0.838864
O O11 0.143096 0.774378 0.392198
O O12 0.184230 0.927220 0.426159
O O13 0.686735 0.916436 0.466937
O O14 0.000000 0.000000 0.500000
O O15 0.000000 0.000000 0.000000
O O16 0.007498 0.832141 0.583489
O O17 0.609030 0.775134 0.269687
O O18 0.416998 0.870878 0.899042
#
# Coordination Sequence:
#
# PCOD9063998 Si02
#       8
#     2   2   2   2   2   2   2   2
#     4  11  25  42  66  94 136 183 232 302 360 433
#     4  11  25  42  63  99 128 179 241 292 362 436
#     4  12  24  44  69  94 140 187 238 298 366 428
#     4  11  27  43  70 108 140 190 243 301 365 444
#     4  12  27  50  82 112 154 204 249 304 380 452
#     4  11  24  45  69 101 143 186 237 296 368 433
#     4  11  27  45  75 108 146 193 238 309 362 442
#     4  11  25  48  73 108 147 186 253 291 371 439
#
# _framework density 22.889071000000001
#
# number of rings (size 3 to 8) (size 9 to 14) (size 15 to 20)
#    0.000    0.750    3.750    2.250    7.000    1.500 
#    0.000    0.000    0.000    0.000    0.000    0.000 
#    0.000    0.000    0.000    0.000    0.000    0.000 
#
# Total GULP energy -89306.445282 kJ/mol
# GULP energy per Si atom -5581.652830 kJ/mol
# Density = 2.283697 g / cm^3
# Si number density = 22.889071 Si / 1000 Ang^3
#
#
#
# Elastic Constant Matrix: (Units=GPa)
#
#
# Indices 1 2 3 4 5 6 
#
# 1 67.9144 -7.6443 24.9879 -10.2030 12.1146 -8.2469
# 2 -7.6443 89.9444 28.1623 -5.4131 3.5985 -7.5972
# 3 24.9879 28.1623 168.5636 -15.1772 15.0218 -17.5030
# 4 -10.2030 -5.4131 -15.1772 39.9980 -11.0338 2.4682
# 5 12.1146 3.5985 15.0218 -11.0338 29.5190 -8.1097
# 6 -8.2469 -7.5972 -17.5030 2.4682 -8.1097 31.2149
#
#
#
# Elastic Compliance Matrix: (Units=1/GPa)
#
#
# Indices 1 2 3 4 5 6 
#
# 1 0.017340 0.002694 -0.002100 0.002530 -0.004706 0.002637
# 2 0.002694 0.012283 -0.002053 0.001308 -0.000428 0.002336
# 3 -0.002100 -0.002053 0.007082 0.001362 -0.001304 0.002470
# 4 0.002530 0.001308 0.001362 0.028817 0.009407 0.001916
# 5 -0.004706 -0.000428 -0.001304 0.009407 0.042282 0.008162
# 6 0.002637 0.002336 0.002470 0.001916 0.008162 0.036655
#
#
# Mechanical properties :
#
#
# Convention : Reuss Voigt Hill
#
# Bulk Modulus (GPa) = 29.59599 46.38160 37.98879
# Shear Modulus (GPa) = 31.51802 38.87415 35.19609
#
# Velocity S-wave (km/s) = 3.71481 4.12560 3.92558
# Velocity P-wave (km/s) = 5.59982 6.55757 6.09753
#
# Compressibility (1/GPa) = 0.03378836
#
# Stress axis : x y z
#
# Youngs Moduli (GPa) = 57.67004 81.41365 141.20144
#
# Poissons Ratio (x) = -0.21936 0.29647
# Poissons Ratio (y) = -0.15539 0.28990
# Poissons Ratio (z) = 0.12109 0.16715
#
# Static dielectric constant tensor:
#      x y z
#    x 1.986790 -0.157020 -0.073360 
#    y -0.157020 2.141220 -0.008330 
#    z -0.073360 -0.008330 1.913520 
# 
# From -- ./inp_files/47672.got.cif
#   From: 2010.05.17/outbox.cif.g08.bks.cpg/sg2_24_cif.got.tgz:47672.got - 2010.06.03 11:33:40.
