data_PCOD9063262
_publ_section_title
;
Structure prediction by ZEFSAII (Michael W. Deem and Ramdas Pophale) SiO2 
 PCOD9063262
Probable space group: P -1
;
_chemical_formula_sum "Si O2"
_cell_formula_units_Z 16
_cell_length_a 16.684771
_cell_length_b 5.455043
_cell_length_c 15.787974
_cell_angle_alpha 133.113358
_cell_angle_beta 144.966494
_cell_angle_gamma 59.504848
_cell_volume 597.494783
_symmetry_space_group_name_H-M "P -1"
_symmetry_group_IT_number 2
_symmetry_cell_setting 'triclinic'
loop_
_space_group_symop_operation_xyz
x,y,z
-x,-y,-z
loop_
_atom_site_type_symbol
_atom_site_label
_atom_site_fract_x
_atom_site_fract_y
_atom_site_fract_z
Si Si1 0.268130 0.262060 0.803998
Si Si2 0.969128 0.595719 0.862961
Si Si3 0.289797 0.675316 0.317049
Si Si4 0.547946 0.897101 0.709169
Si Si5 0.260071 0.490018 0.024172
Si Si6 0.764852 0.622243 0.544211
Si Si7 0.504092 0.051990 0.146892
Si Si8 0.849921 0.482637 0.409750
O O1 0.220545 0.503484 0.892840
O O2 0.240661 0.402595 0.719978
O O3 0.429698 0.183536 0.917366
O O4 0.185369 0.893753 0.669578
O O5 0.864311 0.458079 0.814357
O O6 0.881327 0.503633 0.678736
O O7 0.119319 0.460087 0.949955
O O8 0.000000 0.000000 0.000000
O O9 0.402957 0.730074 0.504564
O O10 0.357372 0.398226 0.255600
O O11 0.282719 0.055761 0.372484
O O12 0.513617 0.099299 0.810144
O O13 0.640287 0.159358 0.790739
O O14 0.356733 0.187357 0.033305
O O15 0.625397 0.368788 0.342637
O O16 0.833487 0.713228 0.532863
O O17 0.000000 0.500000 0.500000
#
# Coordination Sequence:
#
# PCOD9063262 Si02
#       8
#     2   2   2   2   2   2   2   2
#     4  11  27  46  76 115 153 196 257 324 376 442
#     4  12  27  47  69 109 154 187 246 320 390 439
#     4  11  24  44  73 102 144 195 254 307 374 462
#     4  11  24  43  74 104 140 200 256 303 377 461
#     4  12  27  46  71 111 150 194 248 319 385 441
#     4  11  25  44  76 101 144 201 247 309 374 462
#     4  11  25  46  74 104 145 201 254 307 371 462
#     4  11  25  47  76 112 152 206 254 306 383 466
#
# _framework density 26.778479000000001
#
# number of rings (size 3 to 8) (size 9 to 14) (size 15 to 20)
#    0.000    0.750    3.750    2.250    8.750    2.500 
#    0.000    0.000    0.000    0.000    0.000    0.000 
#    0.000    0.000    0.000    0.000    0.000    0.000 
#
# Total GULP energy -89600.288133 kJ/mol
# GULP energy per Si atom -5600.018008 kJ/mol
# Density = 2.671753 g / cm^3
# Si number density = 26.778479 Si / 1000 Ang^3
#
#
#
# Elastic Constant Matrix: (Units=GPa)
#
#
# Indices 1 2 3 4 5 6 
#
# 1 178.4081 31.0103 40.6213 -2.8195 6.2009 -23.6153
# 2 31.0103 101.3413 46.5691 0.8177 20.3629 -9.4907
# 3 40.6213 46.5691 92.1071 -10.6605 21.5895 -13.7558
# 4 -2.8195 0.8177 -10.6605 61.3351 -3.7099 4.8986
# 5 6.2009 20.3629 21.5895 -3.7099 55.2083 -6.4212
# 6 -23.6153 -9.4907 -13.7558 4.8986 -6.4212 49.1362
#
#
#
# Elastic Compliance Matrix: (Units=1/GPa)
#
#
# Indices 1 2 3 4 5 6 
#
# 1 0.006577 -0.000877 -0.002292 -0.000236 0.000753 0.002472
# 2 -0.000877 0.013412 -0.005903 -0.001428 -0.002599 0.000319
# 3 -0.002292 -0.005903 0.016205 0.002448 -0.003554 0.001587
# 4 -0.000236 -0.001428 0.002448 0.016877 0.000577 -0.001311
# 5 0.000753 -0.002599 -0.003554 0.000577 0.020590 0.001498
# 6 0.002472 0.000319 0.001587 -0.001311 0.001498 0.022372
#
#
# Mechanical properties :
#
#
# Convention : Reuss Voigt Hill
#
# Bulk Modulus (GPa) = 55.39825 67.58423 61.49124
# Shear Modulus (GPa) = 41.59980 50.04630 45.82305
#
# Velocity S-wave (km/s) = 3.94570 4.32777 4.14114
# Velocity P-wave (km/s) = 6.44131 7.08984 6.77334
#
# Compressibility (1/GPa) = 0.01805111
#
# Stress axis : x y z
#
# Youngs Moduli (GPa) = 152.05323 74.55925 61.70869
#
# Poissons Ratio (x) = 0.06541 0.14141
# Poissons Ratio (y) = 0.13339 0.36424
# Poissons Ratio (z) = 0.34843 0.44010
#
# Static dielectric constant tensor:
#      x y z
#    x 2.061180 0.060470 -0.072650 
#    y 0.060470 2.139940 -0.024080 
#    z -0.072650 -0.024080 2.167050 
# 
# From -- ./inp_files/111619.got.cif
#   From: 2010.05.17/outbox.cif.g08.bks.cpg/sg2_56_cif.got.tgz:111619.got - 2010.06.03 11:33:40.
