data_PCOD9063575
_publ_section_title
;
Structure prediction by ZEFSAII (Michael W. Deem and Ramdas Pophale) SiO2 
 PCOD9063575
Probable space group: P -1
;
_chemical_formula_sum "Si O2"
_cell_formula_units_Z 16
_cell_length_a 19.346245
_cell_length_b 8.218165
_cell_length_c 12.180288
_cell_angle_alpha 50.300090
_cell_angle_beta 38.993476
_cell_angle_gamma 79.072741
_cell_volume 725.100316
_symmetry_space_group_name_H-M "P -1"
_symmetry_group_IT_number 2
_symmetry_cell_setting 'triclinic'
loop_
_space_group_symop_operation_xyz
x,y,z
-x,-y,-z
loop_
_atom_site_type_symbol
_atom_site_label
_atom_site_fract_x
_atom_site_fract_y
_atom_site_fract_z
Si Si1 0.856411 0.276730 0.339571
Si Si2 0.865922 0.686772 0.314189
Si Si3 0.432292 0.513340 0.244370
Si Si4 0.860483 0.374836 0.657177
Si Si5 0.854698 0.961598 0.681161
Si Si6 0.417993 0.988737 0.708957
Si Si7 0.457635 0.463789 0.694318
Si Si8 0.571872 0.909187 0.711048
O O1 0.844186 0.466230 0.351666
O O2 0.857634 0.074146 0.507707
O O3 0.729907 0.098746 0.483609
O O4 0.000000 0.500000 0.000000
O O5 0.734241 0.677315 0.460536
O O6 0.871064 0.584616 0.471567
O O7 0.000000 0.000000 0.000000
O O8 0.515258 0.671712 0.185557
O O9 0.466468 0.328681 0.224183
O O10 0.474138 0.743983 0.006597
O O11 0.841465 0.141091 0.706519
O O12 0.000000 0.500000 0.500000
O O13 0.732271 0.258701 0.950620
O O14 0.000000 0.000000 0.500000
O O15 0.704120 0.659071 0.025483
O O16 0.412496 0.220490 0.574423
O O17 0.500000 0.000000 0.500000
O O18 0.526877 0.070733 0.638669
O O19 0.500000 0.500000 0.500000
#
# Coordination Sequence:
#
# PCOD9063575 Si02
#       8
#     2   2   2   2   2   2   2   2
#     4  11  26  45  69 101 138 183 233 288 350 416
#     4  11  26  45  70  99 138 185 234 287 350 414
#     4  11  24  44  71 101 136 182 232 286 344 414
#     4  11  27  47  69 100 142 185 232 289 351 420
#     4  11  27  47  69 102 141 183 234 290 351 417
#     4  12  26  45  70 105 140 184 231 287 351 417
#     4  12  26  45  71 104 141 180 237 287 349 422
#     4  11  24  44  71 100 138 179 233 286 345 414
#
# _framework density 22.065912999999998
#
# number of rings (size 3 to 8) (size 9 to 14) (size 15 to 20)
#    0.000    0.750    5.000    0.750    7.000    3.500 
#    0.000    0.000    0.000    0.000    0.000    0.000 
#    0.000    0.000    0.000    0.000    0.000    0.000 
#
# Total GULP energy -89129.681691 kJ/mol
# GULP energy per Si atom -5570.605106 kJ/mol
# Density = 2.201569 g / cm^3
# Si number density = 22.065913 Si / 1000 Ang^3
#
#
#
# Elastic Constant Matrix: (Units=GPa)
#
#
# Indices 1 2 3 4 5 6 
#
# 1 153.7173 22.3842 67.0974 18.1313 -2.0548 6.7088
# 2 22.3842 42.5439 17.2600 7.2145 15.7056 0.8159
# 3 67.0974 17.2600 179.5540 19.1362 0.5546 3.0600
# 4 18.1313 7.2145 19.1362 36.3476 1.2068 3.5406
# 5 -2.0548 15.7056 0.5546 1.2068 42.7937 4.3429
# 6 6.7088 0.8159 3.0600 3.5406 4.3429 35.1248
#
#
#
# Elastic Compliance Matrix: (Units=1/GPa)
#
#
# Indices 1 2 3 4 5 6 
#
# 1 0.008516 -0.003809 -0.002579 -0.002070 0.002036 -0.001357
# 2 -0.003809 0.030793 -0.001171 -0.003395 -0.011565 0.001886
# 3 -0.002579 -0.001171 0.006869 -0.002116 0.000266 0.000102
# 4 -0.002070 -0.003395 -0.002116 0.030557 0.000565 -0.002491
# 5 0.002036 -0.011565 0.000266 0.000565 0.028063 -0.003670
# 6 -0.001357 0.001886 0.000102 -0.002491 -0.003670 0.029381
#
#
# Mechanical properties :
#
#
# Convention : Reuss Voigt Hill
#
# Bulk Modulus (GPa) = 32.19618 65.47760 48.83689
# Shear Modulus (GPa) = 31.31824 40.79146 36.05485
#
# Velocity S-wave (km/s) = 3.77145 4.30422 4.04661
# Velocity P-wave (km/s) = 5.79549 7.37833 6.63429
#
# Compressibility (1/GPa) = 0.03105958
#
# Stress axis : x y z
#
# Youngs Moduli (GPa) = 117.42016 32.47453 145.59019
#
# Poissons Ratio (x) = 0.12371 0.37546
# Poissons Ratio (y) = 0.44730 0.17051
# Poissons Ratio (z) = 0.30281 0.03803
#
# Static dielectric constant tensor:
#      x y z
#    x 1.616010 0.278150 -0.138800 
#    y 0.278150 2.021570 -0.001740 
#    z -0.138800 -0.001740 1.766610 
# 
# From -- ./inp_files/218926.got.cif
#   From: 2010.05.17/outbox.cif.g08.bks.cpg/sg2_110_cif.got.tgz:218926.got - 2010.06.03 11:33:40.
