data_PCOD9063540
_publ_section_title
;
Structure prediction by ZEFSAII (Michael W. Deem and Ramdas Pophale) SiO2 
 PCOD9063540
Probable space group: P -1
;
_chemical_formula_sum "Si O2"
_cell_formula_units_Z 11
_cell_length_a 17.938477
_cell_length_b 6.929349
_cell_length_c 15.525429
_cell_angle_alpha 60.198460
_cell_angle_beta 14.108082
_cell_angle_gamma 60.335849
_cell_volume 407.431769
_symmetry_space_group_name_H-M "P -1"
_symmetry_group_IT_number 2
_symmetry_cell_setting 'triclinic'
loop_
_space_group_symop_operation_xyz
x,y,z
-x,-y,-z
loop_
_atom_site_type_symbol
_atom_site_label
_atom_site_fract_x
_atom_site_fract_y
_atom_site_fract_z
Si Si1 0.342811 0.043522 0.779984
Si Si2 0.784341 0.439830 0.574854
Si Si3 0.250257 0.208966 0.314117
Si Si4 0.721924 0.930363 0.947668
Si Si5 0.000000 0.500000 0.000000
Si Si6 0.088490 0.247772 0.779661
O O1 0.221293 0.278058 0.825897
O O2 0.692144 0.961847 0.388470
O O3 0.321676 0.064933 0.902177
O O4 0.147237 0.851284 0.001417
O O5 0.828523 0.597390 0.572373
O O6 0.091702 0.293141 0.239805
O O7 0.709928 0.596105 0.541303
O O8 0.503036 0.292246 0.947836
O O9 0.596501 0.999739 0.756854
O O10 0.946588 0.126701 0.630003
O O11 0.967673 0.401675 0.958626
#
# Coordination Sequence:
#
# PCOD9063540 Si02
#       6
#     2   2   2   2   1   2
#     4  12  26  47  72 103 139 177 229 288 340 411
#     4  11  24  44  70 103 140 187 226 277 343 400
#     4  11  26  42  69 102 144 183 229 278 329 411
#     4  12  23  45  67 103 141 185 227 278 337 408
#     4  12  28  52  76 100 134 186 226 288 358 394
#     4  12  27  48  71 106 138 176 232 285 339 414
#
# _framework density 26.998384000000001
#
# number of rings (size 3 to 8) (size 9 to 14) (size 15 to 20)
#    0.000    0.364    5.455    2.182    0.000   10.182 
#    0.000    0.000    0.000    0.000    0.000    0.000 
#    0.000    0.000    0.000    0.000    0.000    0.000 
#
# Total GULP energy -61581.133178 kJ/mol
# GULP energy per Si atom -5598.284834 kJ/mol
# Density = 2.693693 g / cm^3
# Si number density = 26.998384 Si / 1000 Ang^3
#
#
#
# Elastic Constant Matrix: (Units=GPa)
#
#
# Indices 1 2 3 4 5 6 
#
# 1 141.3207 59.4999 35.0004 17.4603 17.8478 15.2701
# 2 59.4999 148.5241 43.4573 64.8873 17.4986 14.2502
# 3 35.0004 43.4573 85.1129 26.5047 1.4632 15.5883
# 4 17.4603 64.8873 26.5047 50.0069 5.0757 18.5442
# 5 17.8478 17.4986 1.4632 5.0757 45.3251 12.4168
# 6 15.2701 14.2502 15.5883 18.5442 12.4168 59.2757
#
#
#
# Elastic Compliance Matrix: (Units=1/GPa)
#
#
# Indices 1 2 3 4 5 6 
#
# 1 0.009652 -0.005124 -0.002720 0.005616 -0.001840 -0.001911
# 2 -0.005124 0.020288 -0.001271 -0.025521 -0.004477 0.005699
# 3 -0.002720 -0.001271 0.015411 -0.005081 0.002156 -0.001909
# 4 0.005616 -0.025521 -0.005081 0.058252 0.004906 -0.013227
# 5 -0.001840 -0.004477 0.002156 0.004906 0.025512 -0.005896
# 6 -0.001911 0.005699 -0.001909 -0.013227 -0.005896 0.021867
#
#
# Mechanical properties :
#
#
# Convention : Reuss Voigt Hill
#
# Bulk Modulus (GPa) = 36.87187 72.31923 54.59555
# Shear Modulus (GPa) = 28.05003 46.72154 37.38579
#
# Velocity S-wave (km/s) = 3.22677 4.16448 3.72525
# Velocity P-wave (km/s) = 5.25067 7.06884 6.22647
#
# Compressibility (1/GPa) = 0.02712095
#
# Stress axis : x y z
#
# Youngs Moduli (GPa) = 103.60288 49.29036 64.88800
#
# Poissons Ratio (x) = 0.25258 0.17650
# Poissons Ratio (y) = 0.53089 0.08246
# Poissons Ratio (z) = 0.28181 0.06264
#
# Static dielectric constant tensor:
#      x y z
#    x 2.055760 -0.016740 0.014830 
#    y -0.016740 2.066350 -0.058340 
#    z 0.014830 -0.058340 2.090030 
# 
# From -- ./inp_files/536030.got.cif
#   From: 2010.05.17/outbox.cif.g08.bks.cpg/sg2_269_cif.got.tgz:536030.got - 2010.06.03 11:33:40.
