data_PCOD9063282
_publ_section_title
;
Structure prediction by ZEFSAII (Michael W. Deem and Ramdas Pophale) SiO2 
 PCOD9063282
Probable space group: P -1
;
_chemical_formula_sum "Si O2"
_cell_formula_units_Z 15
_cell_length_a 11.801344
_cell_length_b 6.360615
_cell_length_c 13.700405
_cell_angle_alpha 95.288783
_cell_angle_beta 139.036427
_cell_angle_gamma 74.278709
_cell_volume 638.596111
_symmetry_space_group_name_H-M "P -1"
_symmetry_group_IT_number 2
_symmetry_cell_setting 'triclinic'
loop_
_space_group_symop_operation_xyz
x,y,z
-x,-y,-z
loop_
_atom_site_type_symbol
_atom_site_label
_atom_site_fract_x
_atom_site_fract_y
_atom_site_fract_z
Si Si1 0.225999 0.564433 0.196511
Si Si2 0.623775 0.903891 0.826028
Si Si3 0.065181 0.449146 0.266455
Si Si4 0.295337 0.829456 0.718415
Si Si5 0.478272 0.206094 0.567186
Si Si6 0.500000 0.500000 0.000000
Si Si7 0.793610 0.232594 0.021197
Si Si8 0.995336 0.687084 0.424181
O O1 0.297844 0.306229 0.201751
O O2 0.069374 0.573226 0.172645
O O3 0.376614 0.660947 0.347154
O O4 0.183777 0.691792 0.072108
O O5 0.484084 0.848017 0.804580
O O6 0.513500 0.106217 0.694215
O O7 0.762689 0.996058 0.980183
O O8 0.273642 0.357396 0.429132
O O9 0.963443 0.604370 0.293601
O O10 0.975372 0.253170 0.189620
O O11 0.342765 0.680347 0.839658
O O12 0.190376 0.725967 0.566695
O O13 0.160425 0.079332 0.653924
O O14 0.500000 0.000000 0.500000
O O15 0.619130 0.394647 0.971523
O O16 0.000000 0.500000 0.500000
#
# Coordination Sequence:
#
# PCOD9063282 Si02
#       8
#     2   2   2   2   2   1   2   2
#     4  11  24  49  72 106 149 197 246 313 380 457
#     4  11  24  46  74 101 147 200 243 312 380 447
#     4  12  25  46  77 107 153 195 252 314 380 461
#     4  11  26  47  78 109 150 203 259 323 381 464
#     4  11  24  43  74 111 144 192 252 308 375 465
#     4  12  26  50  74 110 154 202 266 306 392 456
#     4  11  28  46  69 109 152 195 254 314 375 465
#     4  11  26  49  75 113 154 197 259 327 387 447
#
# _framework density 23.489025000000002
#
# number of rings (size 3 to 8) (size 9 to 14) (size 15 to 20)
#    0.000    0.800    2.667    3.200    7.467    3.200 
#    2.400    0.000    0.000    0.000    0.000    0.000 
#    0.000    0.000    0.000    0.000    0.000    0.000 
#
# Total GULP energy -83675.958038 kJ/mol
# GULP energy per Si atom -5578.397203 kJ/mol
# Density = 2.343556 g / cm^3
# Si number density = 23.489025 Si / 1000 Ang^3
#
#
#
# Elastic Constant Matrix: (Units=GPa)
#
#
# Indices 1 2 3 4 5 6 
#
# 1 105.5180 47.0697 32.7924 22.9211 -6.0717 3.6215
# 2 47.0697 122.5550 66.9778 26.5975 13.6266 0.5519
# 3 32.7924 66.9778 100.8958 19.3531 1.7362 8.4595
# 4 22.9211 26.5975 19.3531 58.4315 9.6962 3.1165
# 5 -6.0717 13.6266 1.7362 9.6962 29.8602 7.0203
# 6 3.6215 0.5519 8.4595 3.1165 7.0203 27.2332
#
#
#
# Elastic Compliance Matrix: (Units=1/GPa)
#
#
# Indices 1 2 3 4 5 6 
#
# 1 0.012992 -0.004804 -0.000176 -0.003820 0.006762 -0.002882
# 2 -0.004804 0.016362 -0.009372 -0.001299 -0.008802 0.005636
# 3 -0.000176 -0.009372 0.016972 -0.001836 0.005313 -0.006218
# 4 -0.003820 -0.001299 -0.001836 0.020946 -0.006999 0.000512
# 5 0.006762 -0.008802 0.005313 -0.006999 0.043873 -0.012880
# 6 -0.002882 0.005636 -0.006218 0.000512 -0.012880 0.042182
#
#
# Mechanical properties :
#
#
# Convention : Reuss Voigt Hill
#
# Bulk Modulus (GPa) = 56.74431 69.18318 62.96375
# Shear Modulus (GPa) = 26.60918 35.24689 30.92803
#
# Velocity S-wave (km/s) = 3.36941 3.87792 3.63257
# Velocity P-wave (km/s) = 6.27276 7.04048 6.66768
#
# Compressibility (1/GPa) = 0.01762291
#
# Stress axis : x y z
#
# Youngs Moduli (GPa) = 76.96799 61.11821 58.92075
#
# Poissons Ratio (x) = 0.29360 0.01036
# Poissons Ratio (y) = 0.36973 0.55221
# Poissons Ratio (z) = 0.01353 0.57280
#
# Static dielectric constant tensor:
#      x y z
#    x 1.904890 -0.000500 -0.028480 
#    y -0.000500 1.890680 0.005750 
#    z -0.028480 0.005750 1.903360 
# 
# From -- ./inp_files/511118.got.cif
#   From: 2010.05.17/outbox.cif.g08.bks.cpg/sg2_256_cif.got.tgz:511118.got - 2010.06.03 11:33:40.
