data_PCOD9063642
_publ_section_title
;
Structure prediction by ZEFSAII (Michael W. Deem and Ramdas Pophale) SiO2 
 PCOD9063642
Probable space group: P -1
;
_chemical_formula_sum "Si O2"
_cell_formula_units_Z 14
_cell_length_a 9.550406
_cell_length_b 15.504313
_cell_length_c 15.293080
_cell_angle_alpha 39.497549
_cell_angle_beta 143.870620
_cell_angle_gamma 149.066652
_cell_volume 662.698388
_symmetry_space_group_name_H-M "P -1"
_symmetry_group_IT_number 2
_symmetry_cell_setting 'triclinic'
loop_
_space_group_symop_operation_xyz
x,y,z
-x,-y,-z
loop_
_atom_site_type_symbol
_atom_site_label
_atom_site_fract_x
_atom_site_fract_y
_atom_site_fract_z
Si Si1 0.298496 0.137395 0.269275
Si Si2 0.647513 0.619341 0.567563
Si Si3 0.670214 0.208768 0.688421
Si Si4 0.645474 0.404446 0.890057
Si Si5 0.295285 0.922548 0.582236
Si Si6 0.605567 0.518092 0.140144
Si Si7 0.646169 0.985418 0.999735
O O1 0.535480 0.147486 0.317095
O O2 0.467608 0.324553 0.251800
O O3 0.190082 0.983811 0.402674
O O4 0.006485 0.094077 0.107843
O O5 0.500000 0.500000 0.500000
O O6 0.488376 0.705338 0.439717
O O7 0.598715 0.501771 0.716357
O O8 0.004632 0.775093 0.607499
O O9 0.032401 0.354487 0.764720
O O10 0.544996 0.099634 0.621512
O O11 0.577348 0.064677 0.825995
O O12 0.526624 0.414658 0.915379
O O13 0.484716 0.208761 0.933968
O O14 0.000000 0.500000 0.000000
O O15 0.500000 0.500000 0.000000
O O16 0.500000 0.000000 0.000000
#
# Coordination Sequence:
#
# PCOD9063642 Si02
#       7
#     2   2   2   2   2   2   2
#     4  11  24  44  71  99 142 184 233 286 359 420
#     4  12  26  46  73 105 145 186 233 295 362 424
#     4  12  26  44  72  99 141 185 235 291 356 411
#     4  12  28  45  74 106 144 188 240 292 355 425
#     4  11  25  44  70 104 140 182 235 293 350 430
#     4  12  27  46  72 102 145 186 242 294 352 421
#     4  12  25  44  70 103 142 183 237 290 354 423
#
# _framework density 21.125748999999999
#
# number of rings (size 3 to 8) (size 9 to 14) (size 15 to 20)
#    0.000    0.286    1.429    7.286    6.000    5.714 
#    0.000    0.000    0.000    0.000    0.000    0.000 
#    0.000    0.000    0.000    0.000    0.000    0.000 
#
# Total GULP energy -78414.848671 kJ/mol
# GULP energy per Si atom -5601.060619 kJ/mol
# Density = 2.107767 g / cm^3
# Si number density = 21.125749 Si / 1000 Ang^3
#
#
#
# Elastic Constant Matrix: (Units=GPa)
#
#
# Indices 1 2 3 4 5 6 
#
# 1 120.0010 43.1446 41.0681 -11.9265 18.0084 -19.9682
# 2 43.1446 144.8372 25.1449 -6.0701 17.3640 -9.9134
# 3 41.0681 25.1449 130.8416 -15.3142 6.0840 -5.4532
# 4 -11.9265 -6.0701 -15.3142 40.0025 -5.8498 -1.3968
# 5 18.0084 17.3640 6.0840 -5.8498 36.2417 -4.4778
# 6 -19.9682 -9.9134 -5.4532 -1.3968 -4.4778 36.9800
#
#
#
# Elastic Compliance Matrix: (Units=1/GPa)
#
#
# Indices 1 2 3 4 5 6 
#
# 1 0.011505 -0.002159 -0.002628 0.001778 -0.003348 0.004908
# 2 -0.002159 0.008020 -0.000727 -0.000064 -0.002589 0.000561
# 3 -0.002628 -0.000727 0.008878 0.002582 0.000564 -0.000139
# 4 0.001778 -0.000064 0.002582 0.027106 0.003430 0.002763
# 5 -0.003348 -0.002589 0.000564 0.003430 0.031138 0.001482
# 6 0.004908 0.000561 -0.000139 0.002763 0.001482 0.030105
#
#
# Mechanical properties :
#
#
# Convention : Reuss Voigt Hill
#
# Bulk Modulus (GPa) = 57.55818 68.26613 62.91215
# Shear Modulus (GPa) = 37.43338 41.73299 39.58318
#
# Velocity S-wave (km/s) = 4.21400 4.44943 4.33331
# Velocity P-wave (km/s) = 7.14015 7.66687 7.40819
#
# Compressibility (1/GPa) = 0.01737373
#
# Stress axis : x y z
#
# Youngs Moduli (GPa) = 86.92194 124.69214 112.64242
#
# Poissons Ratio (x) = 0.26922 0.29600
# Poissons Ratio (y) = 0.18767 0.08193
# Poissons Ratio (z) = 0.22841 0.09069
#
# Static dielectric constant tensor:
#      x y z
#    x 1.738070 0.051540 -0.043950 
#    y 0.051540 1.745580 -0.062230 
#    z -0.043950 -0.062230 1.766950 
# 
# From -- ./inp_files/152840.got.cif
#   From: 2010.05.17/outbox.cif.g08.bks.cpg/sg2_77_cif.got.tgz:152840.got - 2010.06.03 11:33:40.
