data_PCOD9063520
_publ_section_title
;
Structure prediction by ZEFSAII (Michael W. Deem and Ramdas Pophale) SiO2 
 PCOD9063520
Probable space group: P -1
;
_chemical_formula_sum "Si O2"
_cell_formula_units_Z 14
_cell_length_a 16.205437
_cell_length_b 5.082581
_cell_length_c 9.218683
_cell_angle_alpha 87.976667
_cell_angle_beta 85.845258
_cell_angle_gamma 130.483591
_cell_volume 572.597017
_symmetry_space_group_name_H-M "P -1"
_symmetry_group_IT_number 2
_symmetry_cell_setting 'triclinic'
loop_
_space_group_symop_operation_xyz
x,y,z
-x,-y,-z
loop_
_atom_site_type_symbol
_atom_site_label
_atom_site_fract_x
_atom_site_fract_y
_atom_site_fract_z
Si Si1 0.526740 0.968772 0.771906
Si Si2 0.694834 0.626994 0.321110
Si Si3 0.414683 0.127112 0.942760
Si Si4 0.066314 0.326502 0.372923
Si Si5 0.171810 0.807671 0.923796
Si Si6 0.963747 0.220011 0.806271
Si Si7 0.298905 0.870524 0.484022
O O1 0.411717 0.580328 0.764730
O O2 0.477001 0.157240 0.789951
O O3 0.606302 0.036865 0.635933
O O4 0.589027 0.082983 0.915557
O O5 0.708551 0.366272 0.387217
O O6 0.799512 0.919585 0.208330
O O7 0.681641 0.807329 0.450359
O O8 0.288764 0.921304 0.934361
O O9 0.500000 0.500000 0.000000
O O10 0.020995 0.517082 0.322984
O O11 0.184964 0.633674 0.417687
O O12 0.073069 0.138119 0.241269
O O13 0.000000 0.000000 0.500000
O O14 0.076561 0.431136 0.876391
O O15 0.125974 0.848231 0.072227
#
# Coordination Sequence:
#
# PCOD9063520 Si02
#       7
#     2   2   2   2   2   2   2
#     4  11  26  43  69 104 141 187 237 285 357 422
#     4  12  25  44  69 102 143 191 229 291 348 418
#     4  11  24  44  70 101 139 184 228 293 349 414
#     4  12  25  48  72 106 141 182 237 287 356 409
#     4  11  25  47  72 103 143 180 241 285 355 414
#     4  11  27  45  76 104 138 189 231 294 345 418
#     4  12  27  43  73 101 144 187 236 290 348 422
#
# _framework density 24.450004
#
# number of rings (size 3 to 8) (size 9 to 14) (size 15 to 20)
#    0.000    0.571    1.429    5.571    4.000    5.714 
#    0.000    0.000    0.000    0.000    0.000    0.000 
#    0.000    0.000    0.000    0.000    0.000    0.000 
#
# Total GULP energy -78303.284023 kJ/mol
# GULP energy per Si atom -5593.091716 kJ/mol
# Density = 2.439435 g / cm^3
# Si number density = 24.450004 Si / 1000 Ang^3
#
#
#
# Elastic Constant Matrix: (Units=GPa)
#
#
# Indices 1 2 3 4 5 6 
#
# 1 97.3929 40.6920 3.2593 28.8449 8.0790 9.1147
# 2 40.6920 75.2837 14.2332 35.6721 -7.6805 13.4944
# 3 3.2593 14.2332 70.6622 16.7300 -15.0702 8.4198
# 4 28.8449 35.6721 16.7300 54.4086 5.3387 -6.1392
# 5 8.0790 -7.6805 -15.0702 5.3387 43.7217 5.5508
# 6 9.1147 13.4944 8.4198 -6.1392 5.5508 46.4990
#
#
#
# Elastic Compliance Matrix: (Units=1/GPa)
#
#
# Indices 1 2 3 4 5 6 
#
# 1 0.014272 -0.006189 0.001045 -0.003715 -0.002739 -0.001354
# 2 -0.006189 0.027608 0.002449 -0.017815 0.010388 -0.010835
# 3 0.001045 0.002449 0.018442 -0.009407 0.008570 -0.006520
# 4 -0.003715 -0.017815 -0.009407 0.037687 -0.012067 0.014018
# 5 -0.002739 0.010388 0.008570 -0.012067 0.030811 -0.009301
# 6 -0.001354 -0.010835 -0.006520 0.014018 -0.009301 0.029057
#
#
# Mechanical properties :
#
#
# Convention : Reuss Voigt Hill
#
# Bulk Modulus (GPa) = 18.20380 39.96754 29.08567
# Shear Modulus (GPa) = 27.53612 41.26948 34.40280
#
# Velocity S-wave (km/s) = 3.35956 4.11288 3.75516
# Velocity P-wave (km/s) = 4.74451 6.23991 5.54287
#
# Compressibility (1/GPa) = 0.05493359
#
# Stress axis : x y z
#
# Youngs Moduli (GPa) = 70.06490 36.22078 54.22339
#
# Poissons Ratio (x) = 0.22416 -0.05666
# Poissons Ratio (y) = 0.43360 -0.13278
# Poissons Ratio (z) = -0.07322 -0.08870
#
# Static dielectric constant tensor:
#      x y z
#    x 2.098850 -0.104290 0.089110 
#    y -0.104290 1.936990 -0.060230 
#    z 0.089110 -0.060230 2.047930 
# 
# From -- ./inp_files/123702.got.cif
#   From: 2010.05.17/outbox.cif.g08.bks.cpg/sg2_62_cif.got.tgz:123702.got - 2010.06.03 11:33:40.
