data_PCOD9063968
_publ_section_title
;
Structure prediction by ZEFSAII (Michael W. Deem and Ramdas Pophale) SiO2 
 PCOD9063968
Probable space group: P -1
;
_chemical_formula_sum "Si O2"
_cell_formula_units_Z 16
_cell_length_a 13.610185
_cell_length_b 7.558608
_cell_length_c 9.773984
_cell_angle_alpha 93.083673
_cell_angle_beta 103.710434
_cell_angle_gamma 43.678460
_cell_volume 664.167653
_symmetry_space_group_name_H-M "P -1"
_symmetry_group_IT_number 2
_symmetry_cell_setting 'triclinic'
loop_
_space_group_symop_operation_xyz
x,y,z
-x,-y,-z
loop_
_atom_site_type_symbol
_atom_site_label
_atom_site_fract_x
_atom_site_fract_y
_atom_site_fract_z
Si Si1 0.533056 0.419229 0.851107
Si Si2 0.740861 0.657510 0.546963
Si Si3 0.090110 0.589221 0.908433
Si Si4 0.838264 0.898145 0.027150
Si Si5 0.074352 0.100422 0.652201
Si Si6 0.603641 0.500686 0.620058
Si Si7 0.746784 0.462053 0.271414
Si Si8 0.166124 0.085720 0.382235
O O1 0.543279 0.570149 0.757164
O O2 0.404517 0.453145 0.759764
O O3 0.500000 0.500000 0.000000
O O4 0.696650 0.126834 0.900278
O O5 0.626408 0.666806 0.576631
O O6 0.736241 0.637986 0.380270
O O7 0.730083 0.874586 0.596298
O O8 0.905349 0.375867 0.631713
O O9 0.148651 0.330031 0.975318
O O10 0.218297 0.535840 0.874531
O O11 0.977410 0.696872 0.749640
O O12 0.984231 0.798013 0.001682
O O13 0.832658 0.962695 0.185510
O O14 0.126308 0.124132 0.530497
O O15 0.117144 0.837885 0.645927
O O16 0.500000 0.500000 0.500000
O O17 0.759173 0.194528 0.647630
#
# Coordination Sequence:
#
# PCOD9063968 Si02
#       8
#     2   2   2   2   2   2   2   2
#     4  12  26  48  68 100 146 191 226 289 357 422
#     4  12  24  41  74 108 132 184 241 290 353 404
#     4  11  24  45  68 104 140 182 238 296 344 415
#     4  11  25  44  69  97 145 183 227 297 349 408
#     4  12  22  41  71 106 138 176 234 297 348 413
#     4  12  26  48  69 100 143 184 237 291 340 425
#     4  12  24  43  71 103 142 187 234 287 359 417
#     4  12  23  44  74 102 140 181 236 300 345 408
#
# _framework density 24.090301
#
# number of rings (size 3 to 8) (size 9 to 14) (size 15 to 20)
#    0.000    0.250    7.500    2.250    0.000    2.500 
#    0.000    0.000    0.000    0.000    0.000    0.000 
#    0.000    0.000    0.000    0.000    0.000    0.000 
#
# Total GULP energy -89570.528128 kJ/mol
# GULP energy per Si atom -5598.158008 kJ/mol
# Density = 2.403547 g / cm^3
# Si number density = 24.090301 Si / 1000 Ang^3
#
#
#
# Elastic Constant Matrix: (Units=GPa)
#
#
# Indices 1 2 3 4 5 6 
#
# 1 114.6560 6.7925 16.8846 5.3062 -31.2683 1.6491
# 2 6.7925 29.4886 0.1712 4.3897 -6.7096 2.6468
# 3 16.8846 0.1712 97.2380 7.8407 -26.7921 -11.5324
# 4 5.3062 4.3897 7.8407 30.3603 -4.9369 0.0414
# 5 -31.2683 -6.7096 -26.7921 -4.9369 47.9438 2.7461
# 6 1.6491 2.6468 -11.5324 0.0414 2.7461 33.8465
#
#
#
# Elastic Compliance Matrix: (Units=1/GPa)
#
#
# Indices 1 2 3 4 5 6 
#
# 1 0.010679 -0.000717 -0.000041 -0.000639 0.006835 -0.001032
# 2 -0.000717 0.036168 0.001530 -0.004663 0.005123 -0.002682
# 3 -0.000041 0.001530 0.012820 -0.002409 0.006892 0.003694
# 4 -0.000639 -0.004663 -0.002409 0.034537 0.001173 -0.000562
# 5 0.006835 0.005123 0.006892 0.001173 0.030052 -0.000825
# 6 -0.001032 -0.002682 0.003694 -0.000562 -0.000825 0.031131
#
#
# Mechanical properties :
#
#
# Convention : Reuss Voigt Hill
#
# Bulk Modulus (GPa) = 16.33661 32.11990 24.22826
# Shear Modulus (GPa) = 28.69525 36.93242 32.81384
#
# Velocity S-wave (km/s) = 3.45505 3.91971 3.69469
# Velocity P-wave (km/s) = 4.76578 5.81786 5.31790
#
# Compressibility (1/GPa) = 0.06121221
#
# Stress axis : x y z
#
# Youngs Moduli (GPa) = 93.64603 27.64869 78.00471
#
# Poissons Ratio (x) = 0.01981 0.00317
# Poissons Ratio (y) = 0.06711 -0.11936
# Poissons Ratio (z) = 0.00380 -0.04231
#
# Static dielectric constant tensor:
#      x y z
#    x 1.944300 -0.052720 0.004390 
#    y -0.052720 1.966040 0.027460 
#    z 0.004390 0.027460 1.897890 
# 
# From -- ./inp_files/186766.got.cif
#   From: 2010.05.17/outbox.cif.g08.bks.cpg/sg2_94_cif.got.tgz:186766.got - 2010.06.03 11:33:40.
