data_PCOD9063869
_publ_section_title
;
Structure prediction by ZEFSAII (Michael W. Deem and Ramdas Pophale) SiO2 
 PCOD9063869
Probable space group: P -1
;
_chemical_formula_sum "Si O2"
_cell_formula_units_Z 14
_cell_length_a 8.178367
_cell_length_b 12.507030
_cell_length_c 9.354570
_cell_angle_alpha 60.587783
_cell_angle_beta 132.860555
_cell_angle_gamma 111.576102
_cell_volume 610.130259
_symmetry_space_group_name_H-M "P -1"
_symmetry_group_IT_number 2
_symmetry_cell_setting 'triclinic'
loop_
_space_group_symop_operation_xyz
x,y,z
-x,-y,-z
loop_
_atom_site_type_symbol
_atom_site_label
_atom_site_fract_x
_atom_site_fract_y
_atom_site_fract_z
Si Si1 0.423836 0.089864 0.022935
Si Si2 0.295781 0.461831 0.006723
Si Si3 0.572915 0.271476 0.441088
Si Si4 0.843014 0.274764 0.162911
Si Si5 0.925964 0.261138 0.888306
Si Si6 0.746926 0.938821 0.758070
Si Si7 0.966692 0.172091 0.580237
O O1 0.207829 0.158620 0.798593
O O2 0.611517 0.195920 0.094978
O O3 0.373421 0.025982 0.188638
O O4 0.500000 0.000000 0.000000
O O5 0.419150 0.385999 0.253046
O O6 0.106278 0.370665 0.882466
O O7 0.500000 0.500000 0.000000
O O8 0.183291 0.583435 0.910977
O O9 0.415579 0.157525 0.362853
O O10 0.798911 0.271466 0.477240
O O11 0.687714 0.266007 0.667407
O O12 0.908356 0.266263 0.044094
O O13 0.997976 0.206000 0.411007
O O14 0.042636 0.134453 0.013310
O O15 0.837208 0.044742 0.635442
#
# Coordination Sequence:
#
# PCOD9063869 Si02
#       7
#     2   2   2   2   2   2   2
#     4  12  27  43  70 108 143 184 238 290 344 422
#     4  11  24  48  74 103 140 180 241 293 338 418
#     4  11  24  44  76 101 134 195 229 282 354 411
#     4  12  27  47  67 110 145 179 237 295 342 414
#     4  11  26  45  75 101 141 187 231 288 354 416
#     4  11  24  46  70 105 145 183 239 286 345 425
#     4  12  25  44  72  98 145 193 224 283 358 408
#
# _framework density 22.945921999999999
#
# number of rings (size 3 to 8) (size 9 to 14) (size 15 to 20)
#    0.000    0.571    4.286    3.000    2.000    6.857 
#    0.000    0.000    0.000    0.000    0.000    0.000 
#    0.000    0.000    0.000    0.000    0.000    0.000 
#
# Total GULP energy -78304.014753 kJ/mol
# GULP energy per Si atom -5593.143911 kJ/mol
# Density = 2.289370 g / cm^3
# Si number density = 22.945922 Si / 1000 Ang^3
#
#
#
# Elastic Constant Matrix: (Units=GPa)
#
#
# Indices 1 2 3 4 5 6 
#
# 1 53.5789 18.6477 19.1340 3.9694 -18.2793 -3.1491
# 2 18.6477 105.1741 38.2662 -10.3039 -7.5203 -0.3172
# 3 19.1340 38.2662 168.2247 -3.6414 -2.2275 -2.8102
# 4 3.9694 -10.3039 -3.6414 25.2072 -1.3296 3.5991
# 5 -18.2793 -7.5203 -2.2275 -1.3296 51.6473 7.8192
# 6 -3.1491 -0.3172 -2.8102 3.5991 7.8192 31.3274
#
#
#
# Elastic Compliance Matrix: (Units=1/GPa)
#
#
# Indices 1 2 3 4 5 6 
#
# 1 0.023519 -0.003447 -0.001888 -0.005117 0.007475 0.000882
# 2 -0.003447 0.011431 -0.002108 0.005113 0.000663 -0.001173
# 3 -0.001888 -0.002108 0.006644 0.000277 -0.000764 0.000544
# 4 -0.005117 0.005113 0.000277 0.043464 0.000921 -0.005661
# 5 0.007475 0.000663 -0.000764 0.000921 0.022871 -0.005125
# 6 0.000882 -0.001173 0.000544 -0.005661 -0.005125 0.033976
#
#
# Mechanical properties :
#
#
# Convention : Reuss Voigt Hill
#
# Bulk Modulus (GPa) = 37.44322 53.23040 45.33681
# Shear Modulus (GPa) = 30.17594 38.36503 34.27048
#
# Velocity S-wave (km/s) = 3.63035 4.09342 3.86882
# Velocity P-wave (km/s) = 5.82461 6.75203 6.30539
#
# Compressibility (1/GPa) = 0.02670710
#
# Stress axis : x y z
#
# Youngs Moduli (GPa) = 42.51808 87.48037 150.51813
#
# Poissons Ratio (x) = 0.30157 0.28418
# Poissons Ratio (y) = 0.14657 0.31734
# Poissons Ratio (z) = 0.08027 0.18443
#
# Static dielectric constant tensor:
#      x y z
#    x 1.902190 0.000940 -0.036600 
#    y 0.000940 1.891900 -0.015510 
#    z -0.036600 -0.015510 1.900530 
# 
# From -- ./inp_files/177007.got.cif
#   From: 2010.05.17/outbox.cif.g08.bks.cpg/sg2_89_cif.got.tgz:177007.got - 2010.06.03 11:33:40.
