data_PCOD9063818
_publ_section_title
;
Structure prediction by ZEFSAII (Michael W. Deem and Ramdas Pophale) SiO2 
 PCOD9063818
Probable space group: P -1
;
_chemical_formula_sum "Si O2"
_cell_formula_units_Z 14
_cell_length_a 30.380366
_cell_length_b 30.931547
_cell_length_c 12.995958
_cell_angle_alpha 18.096534
_cell_angle_beta 16.887559
_cell_angle_gamma 9.170865
_cell_volume 560.828791
_symmetry_space_group_name_H-M "P -1"
_symmetry_group_IT_number 2
_symmetry_cell_setting 'triclinic'
loop_
_space_group_symop_operation_xyz
x,y,z
-x,-y,-z
loop_
_atom_site_type_symbol
_atom_site_label
_atom_site_fract_x
_atom_site_fract_y
_atom_site_fract_z
Si Si1 0.781561 0.615779 0.815808
Si Si2 0.238020 0.773929 0.897335
Si Si3 0.174437 0.622040 0.215426
Si Si4 0.145122 0.045430 0.300238
Si Si5 0.718292 0.737664 0.169501
Si Si6 0.392946 0.673070 0.251645
Si Si7 0.613040 0.990400 0.509959
O O1 0.702267 0.804087 0.647508
O O2 0.000000 0.500000 0.500000
O O3 0.955838 0.336032 0.092258
O O4 0.444684 0.841144 0.027920
O O5 0.266708 0.874919 0.519324
O O6 0.500000 0.500000 0.000000
O O7 0.095186 0.767410 0.162580
O O8 0.000000 0.000000 0.000000
O O9 0.401218 0.324271 0.416379
O O10 0.900793 0.765337 0.449144
O O11 0.361768 0.557861 0.860151
O O12 0.916885 0.132511 0.545756
O O13 0.672785 0.818701 0.208720
O O14 0.000000 0.500000 0.000000
O O15 0.500000 0.000000 0.000000
O O16 0.500000 0.500000 0.500000
O O17 0.409383 0.828082 0.884371
#
# Coordination Sequence:
#
# PCOD9063818 Si02
#       7
#     2   2   2   2   2   2   2
#     4  12  31  54  82 120 175 226 273 345 431 495
#     4  12  27  49  80 115 162 218 265 347 422 484
#     4  11  25  49  77 119 161 204 288 342 395 502
#     4  12  28  56  82 123 171 214 289 345 413 522
#     4  11  24  44  74 109 155 207 266 328 406 476
#     4  11  27  51  88 121 159 220 281 345 421 492
#     4  11  27  51  83 118 169 211 281 344 405 500
#
# _framework density 24.963055000000001
#
# number of rings (size 3 to 8) (size 9 to 14) (size 15 to 20)
#    0.000    0.571    2.857    3.000    8.000    6.286 
#    0.000    0.714    0.000    0.000    0.000    0.000 
#    0.000    0.000    0.000    0.000    0.000    0.000 
#
# Total GULP energy -78135.781646 kJ/mol
# GULP energy per Si atom -5581.127260 kJ/mol
# Density = 2.490624 g / cm^3
# Si number density = 24.963055 Si / 1000 Ang^3
#
#
#
# Elastic Constant Matrix: (Units=GPa)
#
#
# Indices 1 2 3 4 5 6 
#
# 1 151.5597 81.0931 75.5583 2.4848 11.5195 20.5120
# 2 81.0931 213.0257 60.0981 -2.6921 19.5868 13.0121
# 3 75.5583 60.0981 115.1115 -23.9129 33.0848 -2.9928
# 4 2.4848 -2.6921 -23.9129 68.8929 1.6991 -0.6477
# 5 11.5195 19.5868 33.0848 1.6991 40.4445 -2.8094
# 6 20.5120 13.0121 -2.9928 -0.6477 -2.8094 54.9714
#
#
#
# Elastic Compliance Matrix: (Units=1/GPa)
#
#
# Indices 1 2 3 4 5 6 
#
# 1 0.013118 -0.002481 -0.009844 -0.004163 0.005372 -0.004618
# 2 -0.002481 0.006148 -0.001241 -0.000075 -0.001299 -0.000664
# 3 -0.009844 -0.001241 0.021784 0.008267 -0.014449 0.004512
# 4 -0.004163 -0.000075 0.008267 0.017702 -0.006151 0.001915
# 5 0.005372 -0.001299 -0.014449 -0.006151 0.035852 -0.000724
# 6 -0.004618 -0.000664 0.004512 0.001915 -0.000724 0.020303
#
#
# Mechanical properties :
#
#
# Convention : Reuss Voigt Hill
#
# Bulk Modulus (GPa) = 71.84890 101.46622 86.65756
# Shear Modulus (GPa) = 34.08799 50.39156 42.23977
#
# Velocity S-wave (km/s) = 3.69933 4.49781 4.11797
# Velocity P-wave (km/s) = 6.86231 8.22852 7.57627
#
# Compressibility (1/GPa) = 0.01391810
#
# Stress axis : x y z
#
# Youngs Moduli (GPa) = 76.22940 162.65980 45.90424
#
# Poissons Ratio (x) = 0.40356 0.45190
# Poissons Ratio (y) = 0.18912 0.05696
# Poissons Ratio (z) = 0.75043 0.20183
#
# Static dielectric constant tensor:
#      x y z
#    x 1.951120 0.019640 -0.050820 
#    y 0.019640 2.104280 -0.194950 
#    z -0.050820 -0.194950 2.315790 
# 
# From -- ./inp_files/477828.got.cif
#   From: 2010.05.17/outbox.cif.g08.bks.cpg/sg2_239_cif.got.tgz:477828.got - 2010.06.03 11:33:40.
