data_PCOD9063319
_publ_section_title
;
Structure prediction by ZEFSAII (Michael W. Deem and Ramdas Pophale) SiO2 
 PCOD9063319
Probable space group: P -1
;
_chemical_formula_sum "Si O2"
_cell_formula_units_Z 16
_cell_length_a 10.458877
_cell_length_b 22.531464
_cell_length_c 5.431668
_cell_angle_alpha 101.530916
_cell_angle_beta 104.520179
_cell_angle_gamma 138.960803
_cell_volume 643.401074
_symmetry_space_group_name_H-M "P -1"
_symmetry_group_IT_number 2
_symmetry_cell_setting 'triclinic'
loop_
_space_group_symop_operation_xyz
x,y,z
-x,-y,-z
loop_
_atom_site_type_symbol
_atom_site_label
_atom_site_fract_x
_atom_site_fract_y
_atom_site_fract_z
Si Si1 0.903621 0.256333 0.054423
Si Si2 0.989222 0.068223 0.079892
Si Si3 0.268880 0.177535 0.815447
Si Si4 0.402240 0.408112 0.644324
Si Si5 0.483330 0.135996 0.060315
Si Si6 0.779562 0.427040 0.139637
Si Si7 0.717332 0.652445 0.964816
Si Si8 0.116207 0.640286 0.220072
O O1 0.637904 0.152271 0.969457
O O2 0.131997 0.336663 0.421080
O O3 0.993024 0.242772 0.878996
O O4 0.921219 0.328294 0.995314
O O5 0.148126 0.143042 0.463467
O O6 0.098004 0.132484 0.925209
O O7 0.000000 0.000000 0.000000
O O8 0.704987 0.971320 0.936639
O O9 0.329378 0.128600 0.833248
O O10 0.531419 0.313067 0.067711
O O11 0.606738 0.540546 0.852385
O O12 0.421808 0.379976 0.374515
O O13 0.353984 0.349327 0.810349
O O14 0.687423 0.252284 0.413812
O O15 0.000000 0.500000 0.500000
O O16 0.863052 0.523450 0.141127
O O17 0.780329 0.380352 0.871915
#
# Coordination Sequence:
#
# PCOD9063319 Si02
#       8
#     2   2   2   2   2   2   2   2
#     4  10  18  27  45  67  95 118 154 189 236 266
#     4  10  22  33  50  63  85 117 157 201 243 279
#     4  11  21  36  48  62  85 122 161 201 241 271
#     4   8  15  28  41  63  89 123 148 172 218 280
#     4  11  20  31  46  70  90 117 159 202 238 281
#     4  11  21  33  47  62  87 124 165 206 237 279
#     4   8  15  27  44  61  89 123 148 172 219 280
#     4  11  21  30  46  67  94 120 159 202 242 269
#
# _framework density 24.867846
#
# number of rings (size 3 to 8) (size 9 to 14) (size 15 to 20)
#    0.750    1.250    2.500    3.750    3.500    0.000 
#    0.000    0.000    0.000    0.000    0.000    0.000 
#    0.000    0.000    0.000    9.000    0.000   11.250 
#
# Total GULP energy -89353.966460 kJ/mol
# GULP energy per Si atom -5584.622904 kJ/mol
# Density = 2.481125 g / cm^3
# Si number density = 24.867846 Si / 1000 Ang^3
#
#
#
# Elastic Constant Matrix: (Units=GPa)
#
#
# Indices 1 2 3 4 5 6 
#
# 1 49.0263 36.2790 16.2221 3.2161 -0.2766 23.5401
# 2 36.2790 147.6126 49.0542 -0.8281 -10.7676 62.6502
# 3 16.2221 49.0542 95.8076 -12.4128 -21.3251 16.3252
# 4 3.2161 -0.8281 -12.4128 44.5723 10.5544 -0.9117
# 5 -0.2766 -10.7676 -21.3251 10.5544 21.8489 2.3388
# 6 23.5401 62.6502 16.3252 -0.9117 2.3388 52.9877
#
#
#
# Elastic Compliance Matrix: (Units=1/GPa)
#
#
# Indices 1 2 3 4 5 6 
#
# 1 0.027234 -0.002283 -0.002558 -0.002640 -0.001080 -0.008609
# 2 -0.002283 0.016843 -0.003749 -0.002811 0.007913 -0.018143
# 3 -0.002558 -0.003749 0.015808 0.001486 0.012814 0.000158
# 4 -0.002640 -0.002811 0.001486 0.026210 -0.013173 0.005071
# 5 -0.001080 0.007913 0.012814 -0.013173 0.070254 -0.016152
# 6 -0.008609 -0.018143 0.000158 0.005071 -0.016152 0.044900
#
#
# Mechanical properties :
#
#
# Convention : Reuss Voigt Hill
#
# Bulk Modulus (GPa) = 23.41592 55.06190 39.23891
# Shear Modulus (GPa) = 21.49034 36.60785 29.04909
#
# Velocity S-wave (km/s) = 2.94289 3.84095 3.42151
# Velocity P-wave (km/s) = 4.58083 6.46996 5.60555
#
# Compressibility (1/GPa) = 0.04270599
#
# Stress axis : x y z
#
# Youngs Moduli (GPa) = 36.71917 59.37193 63.25986
#
# Poissons Ratio (x) = 0.13554 0.16180
# Poissons Ratio (y) = 0.08382 0.23714
# Poissons Ratio (z) = 0.09392 0.22256
#
# Static dielectric constant tensor:
#      x y z
#    x 1.997820 0.050380 0.006660 
#    y 0.050380 2.052850 -0.068100 
#    z 0.006660 -0.068100 2.027450 
# 
# From -- ./inp_files/101710.got.cif
#   From: 2010.05.17/outbox.cif.g08.bks.cpg/sg2_51_cif.got.tgz:101710.got - 2010.06.03 11:33:40.
