data_PCOD9063132
_publ_section_title
;
Structure prediction by ZEFSAII (Michael W. Deem and Ramdas Pophale) SiO2 
 PCOD9063132
Probable space group: P -1
;
_chemical_formula_sum "Si O2"
_cell_formula_units_Z 16
_cell_length_a 5.058006
_cell_length_b 9.355112
_cell_length_c 16.078401
_cell_angle_alpha 108.390350
_cell_angle_beta 72.534106
_cell_angle_gamma 86.507099
_cell_volume 678.408558
_symmetry_space_group_name_H-M "P -1"
_symmetry_group_IT_number 2
_symmetry_cell_setting 'triclinic'
loop_
_space_group_symop_operation_xyz
x,y,z
-x,-y,-z
loop_
_atom_site_type_symbol
_atom_site_label
_atom_site_fract_x
_atom_site_fract_y
_atom_site_fract_z
Si Si1 0.411245 0.682821 0.528822
Si Si2 0.268475 0.650581 0.070341
Si Si3 0.737304 0.126973 0.728693
Si Si4 0.151218 0.504669 0.827026
Si Si5 0.212262 0.223498 0.351272
Si Si6 0.328459 0.344329 0.196017
Si Si7 0.710291 0.105983 0.030987
Si Si8 0.715999 0.762943 0.350013
O O1 0.500000 0.500000 0.500000
O O2 0.523832 0.760732 0.613251
O O3 0.557121 0.745790 0.446991
O O4 0.076136 0.728581 0.562002
O O5 0.308458 0.759836 0.166033
O O6 0.980023 0.587552 0.106298
O O7 0.500000 0.500000 0.000000
O O8 0.251245 0.760993 0.013111
O O9 0.491006 0.169751 0.692638
O O10 0.024541 0.147615 0.658499
O O11 0.765990 0.948958 0.715391
O O12 0.467276 0.531922 0.814054
O O13 0.154161 0.406338 0.724851
O O14 0.906292 0.646800 0.852150
O O15 0.199890 0.341468 0.298067
O O16 0.558111 0.190951 0.140258
O O17 0.500000 0.000000 0.000000
O O18 0.000000 0.000000 0.000000
#
# Coordination Sequence:
#
# PCOD9063132 Si02
#       8
#     2   2   2   2   2   2   2   2
#     4  12  26  45  73 107 138 187 246 298 360 445
#     4  11  25  49  78 109 147 191 260 302 359 442
#     4  11  26  46  70 106 145 194 235 299 378 430
#     4  11  24  43  71 104 138 187 232 308 356 422
#     4  12  26  44  72 101 151 191 234 302 369 437
#     4  12  24  44  67  99 141 187 239 287 373 419
#     4  12  28  46  70 105 147 190 240 304 365 439
#     4  11  24  44  70 102 144 177 240 297 360 436
#
# _framework density 23.584609
#
# number of rings (size 3 to 8) (size 9 to 14) (size 15 to 20)
#    0.000    0.500    1.250    7.125    0.000    9.500 
#    0.000    0.000    0.000    0.000    0.000    0.000 
#    0.000    0.000    0.000    0.000    0.000    0.000 
#
# Total GULP energy -89573.399478 kJ/mol
# GULP energy per Si atom -5598.337467 kJ/mol
# Density = 2.353093 g / cm^3
# Si number density = 23.584609 Si / 1000 Ang^3
#
#
#
# Elastic Constant Matrix: (Units=GPa)
#
#
# Indices 1 2 3 4 5 6 
#
# 1 104.4461 28.7944 -2.0439 -5.1972 -15.0776 -4.5615
# 2 28.7944 119.6973 34.9145 -6.3207 -10.7210 -3.7074
# 3 -2.0439 34.9145 85.1558 -24.0764 -15.1957 5.6004
# 4 -5.1972 -6.3207 -24.0764 37.8684 9.5218 5.2466
# 5 -15.0776 -10.7210 -15.1957 9.5218 31.4534 -4.0333
# 6 -4.5615 -3.7074 5.6004 5.2466 -4.0333 41.1016
#
#
#
# Elastic Compliance Matrix: (Units=1/GPa)
#
#
# Indices 1 2 3 4 5 6 
#
# 1 0.011342 -0.002942 0.002763 0.001302 0.005502 0.000991
# 2 -0.002942 0.010513 -0.005003 -0.002219 0.000639 0.001649
# 3 0.002763 -0.005003 0.017793 0.010144 0.004708 -0.003402
# 4 0.001302 -0.002219 0.010144 0.035279 -0.006759 -0.006605
# 5 0.005502 0.000639 0.004708 -0.006759 0.039581 0.004774
# 6 0.000991 0.001649 -0.003402 -0.006605 0.004774 0.026364
#
#
# Mechanical properties :
#
#
# Convention : Reuss Voigt Hill
#
# Bulk Modulus (GPa) = 34.14864 48.06990 41.10927
# Shear Modulus (GPa) = 31.05674 38.59363 34.82519
#
# Velocity S-wave (km/s) = 3.63274 4.04962 3.84683
# Velocity P-wave (km/s) = 5.66625 6.50323 6.09912
#
# Compressibility (1/GPa) = 0.02928374
#
# Stress axis : x y z
#
# Youngs Moduli (GPa) = 88.16959 95.12436 56.20326
#
# Poissons Ratio (x) = 0.27987 -0.15530
# Poissons Ratio (y) = 0.25941 0.28116
# Poissons Ratio (z) = -0.24363 0.47587
#
# Static dielectric constant tensor:
#      x y z
#    x 1.890080 -0.026600 0.000490 
#    y -0.026600 1.980100 0.044790 
#    z 0.000490 0.044790 1.884630 
# 
# From -- ./inp_files/480625.got.cif
#   From: 2010.05.17/outbox.cif.g08.bks.cpg/sg2_241_cif.got.tgz:480625.got - 2010.06.03 11:33:40.
