data_PCOD9063940
_publ_section_title
;
Structure prediction by ZEFSAII (Michael W. Deem and Ramdas Pophale) SiO2 
 PCOD9063940
Probable space group: P -1
;
_chemical_formula_sum "Si O2"
_cell_formula_units_Z 12
_cell_length_a 5.697637
_cell_length_b 12.822218
_cell_length_c 11.920160
_cell_angle_alpha 47.551364
_cell_angle_beta 52.603821
_cell_angle_gamma 69.121714
_cell_volume 508.369431
_symmetry_space_group_name_H-M "P -1"
_symmetry_group_IT_number 2
_symmetry_cell_setting 'triclinic'
loop_
_space_group_symop_operation_xyz
x,y,z
-x,-y,-z
loop_
_atom_site_type_symbol
_atom_site_label
_atom_site_fract_x
_atom_site_fract_y
_atom_site_fract_z
Si Si1 0.003878 0.189890 0.536797
Si Si2 0.513670 0.123696 0.313567
Si Si3 0.022099 0.214938 0.754914
Si Si4 0.158179 0.490848 0.637908
Si Si5 0.194788 0.570949 0.993684
Si Si6 0.424682 0.992354 0.865264
O O1 0.170948 0.200320 0.600746
O O2 0.895600 0.345038 0.456004
O O3 0.178812 0.167805 0.388593
O O4 0.759383 0.059467 0.719596
O O5 0.611824 0.077737 0.196645
O O6 0.500000 0.000000 0.500000
O O7 0.705168 0.267652 0.187010
O O8 0.006544 0.377100 0.675595
O O9 0.698721 0.128560 0.924187
O O10 0.226263 0.125521 0.839349
O O11 0.500000 0.500000 0.500000
O O12 0.030645 0.428382 0.837246
O O13 0.500000 0.500000 0.000000
O O14 0.000000 0.500000 0.000000
#
# Coordination Sequence:
#
# PCOD9063940 Si02
#       6
#     2   2   2   2   2   2
#     4  12  25  43  76 100 144 200 254 314 394 462
#     4  12  26  48  75 108 150 202 259 324 388 471
#     4  11  24  45  67 103 144 186 248 306 387 453
#     4  12  26  48  75 108 150 202 259 324 388 471
#     4  12  30  54  81 116 161 210 268 325 394 473
#     4  11  24  45  67 103 144 186 248 306 387 453
#
# _framework density 23.604879
#
# number of rings (size 3 to 8) (size 9 to 14) (size 15 to 20)
#    0.000    0.333    6.667    1.500    4.667    2.667 
#    3.000    0.000    0.000    0.000    0.000    0.000 
#    0.000    0.000    0.000    0.000    0.000    0.000 
#
# Total GULP energy -66971.315449 kJ/mol
# GULP energy per Si atom -5580.942954 kJ/mol
# Density = 2.355115 g / cm^3
# Si number density = 23.604879 Si / 1000 Ang^3
#
#
#
# Elastic Constant Matrix: (Units=GPa)
#
#
# Indices 1 2 3 4 5 6 
#
# 1 51.5212 26.2693 22.8945 -8.4128 -6.1429 9.6729
# 2 26.2693 129.8929 43.5306 -5.8565 -2.0530 1.7496
# 3 22.8945 43.5306 155.1416 -3.9331 -17.4687 4.6995
# 4 -8.4128 -5.8565 -3.9331 56.8483 1.0955 -7.0225
# 5 -6.1429 -2.0530 -17.4687 1.0955 31.2659 -1.9421
# 6 9.6729 1.7496 4.6995 -7.0225 -1.9421 38.9000
#
#
#
# Elastic Compliance Matrix: (Units=1/GPa)
#
#
# Indices 1 2 3 4 5 6 
#
# 1 0.023951 -0.004000 -0.001863 0.002330 0.003011 -0.004980
# 2 -0.004000 0.009215 -0.002164 0.000337 -0.001350 0.000835
# 3 -0.001863 -0.002164 0.007762 -0.000060 0.003819 -0.000197
# 4 0.002330 0.000337 -0.000060 0.018302 -0.000026 0.002715
# 5 0.003011 -0.001350 0.003819 -0.000026 0.034657 0.000576
# 6 -0.004980 0.000835 -0.000197 0.002715 0.000576 0.027450
#
#
# Mechanical properties :
#
#
# Convention : Reuss Voigt Hill
#
# Bulk Modulus (GPa) = 40.20153 57.99381 49.09767
# Shear Modulus (GPa) = 34.32075 41.66027 37.99051
#
# Velocity S-wave (km/s) = 3.81723 4.20563 4.01613
# Velocity P-wave (km/s) = 6.04122 6.94298 6.50774
#
# Compressibility (1/GPa) = 0.02487468
#
# Stress axis : x y z
#
# Youngs Moduli (GPa) = 41.75140 108.51358 128.82651
#
# Poissons Ratio (x) = 0.43402 0.24004
# Poissons Ratio (y) = 0.16699 0.27881
# Poissons Ratio (z) = 0.07780 0.23485
#
# Static dielectric constant tensor:
#      x y z
#    x 2.024080 -0.041900 -0.005190 
#    y -0.041900 1.984660 -0.041870 
#    z -0.005190 -0.041870 1.918300 
# 
# From -- ./inp_files/22667.got.cif
#   From: 2010.05.17/outbox.cif.g08.bks.cpg/sg2_12_cif.got.tgz:22667.got - 2010.06.03 11:33:40.
