data_PCOD9063769
_publ_section_title
;
Structure prediction by ZEFSAII (Michael W. Deem and Ramdas Pophale) SiO2 
 PCOD9063769
Probable space group: P -1
;
_chemical_formula_sum "Si O2"
_cell_formula_units_Z 12
_cell_length_a 9.629617
_cell_length_b 7.198635
_cell_length_c 7.707472
_cell_angle_alpha 73.678431
_cell_angle_beta 114.315414
_cell_angle_gamma 114.356426
_cell_volume 439.555643
_symmetry_space_group_name_H-M "P -1"
_symmetry_group_IT_number 2
_symmetry_cell_setting 'triclinic'
loop_
_space_group_symop_operation_xyz
x,y,z
-x,-y,-z
loop_
_atom_site_type_symbol
_atom_site_label
_atom_site_fract_x
_atom_site_fract_y
_atom_site_fract_z
Si Si1 0.609540 0.799749 0.516259
Si Si2 0.119642 0.751240 0.436522
Si Si3 0.531866 0.733960 0.896157
Si Si4 0.194970 0.680908 0.850321
Si Si5 0.271832 0.563584 0.270623
Si Si6 0.896309 0.965783 0.131619
O O1 0.534237 0.755285 0.683389
O O2 0.455478 0.729825 0.327556
O O3 0.706932 0.640960 0.588748
O O4 0.733433 0.029422 0.513835
O O5 0.127430 0.612844 0.642196
O O6 0.166477 0.659496 0.309604
O O7 0.965984 0.824518 0.321359
O O8 0.385886 0.793562 0.884828
O O9 0.500000 0.500000 0.000000
O O10 0.709126 0.862201 0.017260
O O11 0.097973 0.825230 0.827689
O O12 0.198144 0.529695 0.048533
O O13 0.000000 0.000000 0.000000
#
# Coordination Sequence:
#
# PCOD9063769 Si02
#       6
#     2   2   2   2   2   2
#     4  11  24  44  75 112 153 190 253 311 372 440
#     4  12  26  48  72 112 150 197 245 313 377 441
#     4  12  25  47  77 111 144 196 258 305 365 458
#     4  12  26  46  78 105 147 204 250 299 373 453
#     4  11  24  44  73 113 148 195 251 310 368 445
#     4  12  26  47  74 111 152 194 247 315 378 441
#
# _framework density 27.300298000000002
#
# number of rings (size 3 to 8) (size 9 to 14) (size 15 to 20)
#    0.000    0.333    6.667    1.500    4.667    0.000 
#    3.000    3.333    0.000    0.000    0.000    0.000 
#    0.000    0.000    0.000    0.000    0.000    0.000 
#
# Total GULP energy -67427.608405 kJ/mol
# GULP energy per Si atom -5618.967367 kJ/mol
# Density = 2.723816 g / cm^3
# Si number density = 27.300298 Si / 1000 Ang^3
#
#
#
# Elastic Constant Matrix: (Units=GPa)
#
#
# Indices 1 2 3 4 5 6 
#
# 1 176.4714 29.2217 43.8509 -2.4946 22.8043 -6.7797
# 2 29.2217 63.3965 12.3544 -10.5302 -6.1749 -2.2279
# 3 43.8509 12.3544 185.4395 16.7757 14.7369 4.1588
# 4 -2.4946 -10.5302 16.7757 39.1677 -4.3482 8.6621
# 5 22.8043 -6.1749 14.7369 -4.3482 39.1208 0.4898
# 6 -6.7797 -2.2279 4.1588 8.6621 0.4898 46.5727
#
#
#
# Elastic Compliance Matrix: (Units=1/GPa)
#
#
# Indices 1 2 3 4 5 6 
#
# 1 0.007131 -0.003611 -0.001045 -0.000818 -0.004438 0.001157
# 2 -0.003611 0.019426 -0.001530 0.006532 0.006483 -0.000743
# 3 -0.001045 -0.001530 0.006238 -0.003383 -0.002357 -0.000128
# 4 -0.000818 0.006532 -0.003383 0.030538 0.006242 -0.005250
# 5 -0.004438 0.006483 -0.002357 0.006242 0.030774 -0.001610
# 6 0.001157 -0.000743 -0.000128 -0.005250 -0.001610 0.022610
#
#
# Mechanical properties :
#
#
# Convention : Reuss Voigt Hill
#
# Bulk Modulus (GPa) = 48.96177 66.24018 57.60097
# Shear Modulus (GPa) = 36.79311 47.63093 42.21202
#
# Velocity S-wave (km/s) = 3.67511 4.18150 3.93645
# Velocity P-wave (km/s) = 5.99850 6.90141 6.46574
#
# Compressibility (1/GPa) = 0.02042410
#
# Stress axis : x y z
#
# Youngs Moduli (GPa) = 140.24108 51.47634 160.31334
#
# Poissons Ratio (x) = 0.18586 0.16751
# Poissons Ratio (y) = 0.50635 0.24526
# Poissons Ratio (z) = 0.14654 0.07875
#
# Static dielectric constant tensor:
#      x y z
#    x 2.084160 0.055970 -0.009610 
#    y 0.055970 2.201170 -0.006910 
#    z -0.009610 -0.006910 2.100950 
# 
# From -- ./inp_files/153175.got.cif
#   From: 2010.05.17/outbox.cif.g08.bks.cpg/sg2_77_cif.got.tgz:153175.got - 2010.06.03 11:33:40.
