data_PCOD9063964
_publ_section_title
;
Structure prediction by ZEFSAII (Michael W. Deem and Ramdas Pophale) SiO2 
 PCOD9063964
Probable space group: P -1
;
_chemical_formula_sum "Si O2"
_cell_formula_units_Z 16
_cell_length_a 18.916836
_cell_length_b 8.597100
_cell_length_c 9.829501
_cell_angle_alpha 104.726951
_cell_angle_beta 50.787784
_cell_angle_gamma 137.960700
_cell_volume 754.621856
_symmetry_space_group_name_H-M "P -1"
_symmetry_group_IT_number 2
_symmetry_cell_setting 'triclinic'
loop_
_space_group_symop_operation_xyz
x,y,z
-x,-y,-z
loop_
_atom_site_type_symbol
_atom_site_label
_atom_site_fract_x
_atom_site_fract_y
_atom_site_fract_z
Si Si1 0.397136 0.434796 0.999423
Si Si2 0.873029 0.191103 0.229970
Si Si3 0.625890 0.264714 0.327986
Si Si4 0.884467 0.977145 0.902798
Si Si5 0.450485 0.302297 0.408236
Si Si6 0.658142 0.274134 0.814071
Si Si7 0.151817 0.459425 0.104324
Si Si8 0.183117 0.519075 0.614591
O O1 0.495769 0.584239 0.780065
O O2 0.500000 0.500000 0.000000
O O3 0.248233 0.153416 0.062628
O O4 0.351921 0.547639 0.131589
O O5 0.864221 0.369474 0.246705
O O6 0.001733 0.328268 0.208090
O O7 0.719851 0.946652 0.431482
O O8 0.884069 0.087556 0.063305
O O9 0.539510 0.271328 0.343552
O O10 0.731199 0.459369 0.366694
O O11 0.500000 0.000000 0.500000
O O12 0.731859 0.328494 0.104555
O O13 0.863177 0.758478 0.920291
O O14 0.037245 0.219766 0.697296
O O15 0.500000 0.500000 0.500000
O O16 0.780882 0.394954 0.801593
O O17 0.714703 0.309663 0.602369
O O18 0.500000 0.000000 0.000000
#
# Coordination Sequence:
#
# PCOD9063964 Si02
#       8
#     2   2   2   2   2   2   2   2
#     4  11  26  46  70 102 139 185 232 288 352 417
#     4  12  24  43  70 106 141 174 237 294 343 415
#     4  12  23  43  68 100 135 184 233 280 344 408
#     4  11  24  45  68 103 141 178 232 296 348 413
#     4  12  24  43  71 104 135 180 237 286 343 411
#     4  11  25  49  67  99 145 186 231 286 353 422
#     4  11  25  45  72  97 142 189 223 293 358 404
#     4  12  27  39  72 104 137 187 232 283 356 418
#
# _framework density 21.202673000000001
#
# number of rings (size 3 to 8) (size 9 to 14) (size 15 to 20)
#    0.000    0.500    6.250    2.250    3.500    4.500 
#    0.000    0.000    0.000    0.000    0.000    0.000 
#    0.000    0.000    0.000    0.000    0.000    0.000 
#
# Total GULP energy -89380.781919 kJ/mol
# GULP energy per Si atom -5586.298870 kJ/mol
# Density = 2.115441 g / cm^3
# Si number density = 21.202673 Si / 1000 Ang^3
#
#
#
# Elastic Constant Matrix: (Units=GPa)
#
#
# Indices 1 2 3 4 5 6 
#
# 1 138.1778 35.6920 50.2508 -8.5952 9.2978 57.4664
# 2 35.6920 66.0784 20.2968 -12.0551 -1.6245 22.5435
# 3 50.2508 20.2968 105.7467 -12.5450 7.0229 16.1206
# 4 -8.5952 -12.0551 -12.5450 46.8900 9.4885 -7.1707
# 5 9.2978 -1.6245 7.0229 9.4885 38.9874 -3.6128
# 6 57.4664 22.5435 16.1206 -7.1707 -3.6128 42.6694
#
#
#
# Elastic Compliance Matrix: (Units=1/GPa)
#
#
# Indices 1 2 3 4 5 6 
#
# 1 0.020473 -0.000920 -0.005288 -0.000573 -0.006211 -0.025711
# 2 -0.000920 0.019411 -0.001701 0.003201 -0.000172 -0.007851
# 3 -0.005288 -0.001701 0.012123 0.002677 -0.001295 0.003781
# 4 -0.000573 0.003201 0.002677 0.024215 -0.005954 0.001635
# 5 -0.006211 -0.000172 -0.001295 -0.005954 0.029775 0.010466
# 6 -0.025711 -0.007851 0.003781 0.001635 0.010466 0.061944
#
#
# Mechanical properties :
#
#
# Convention : Reuss Voigt Hill
#
# Bulk Modulus (GPa) = 27.63203 58.05357 42.84280
# Shear Modulus (GPa) = 25.53338 39.29358 32.41348
#
# Velocity S-wave (km/s) = 3.47400 4.30959 3.91416
# Velocity P-wave (km/s) = 5.39928 7.22518 6.37791
#
# Compressibility (1/GPa) = 0.03618989
#
# Stress axis : x y z
#
# Youngs Moduli (GPa) = 48.84483 51.51761 82.48683
#
# Poissons Ratio (x) = 0.04738 0.43621
# Poissons Ratio (y) = 0.04492 0.14028
# Poissons Ratio (z) = 0.25830 0.08761
#
# Static dielectric constant tensor:
#      x y z
#    x 1.758520 -0.010850 -0.007560 
#    y -0.010850 1.799070 -0.016720 
#    z -0.007560 -0.016720 1.756880 
# 
# From -- ./inp_files/329149.got.cif
#   From: 2010.05.17/outbox.cif.g08.bks.cpg/sg2_165_cif.got.tgz:329149.got - 2010.06.03 11:33:40.
