data_PCOD9063250
_publ_section_title
;
Structure prediction by ZEFSAII (Michael W. Deem and Ramdas Pophale) SiO2 
 PCOD9063250
Probable space group: P -1
;
_chemical_formula_sum "Si O2"
_cell_formula_units_Z 16
_cell_length_a 14.208749
_cell_length_b 15.377028
_cell_length_c 14.865387
_cell_angle_alpha 29.639209
_cell_angle_beta 47.042687
_cell_angle_gamma 28.102543
_cell_volume 704.143259
_symmetry_space_group_name_H-M "P -1"
_symmetry_group_IT_number 2
_symmetry_cell_setting 'triclinic'
loop_
_space_group_symop_operation_xyz
x,y,z
-x,-y,-z
loop_
_atom_site_type_symbol
_atom_site_label
_atom_site_fract_x
_atom_site_fract_y
_atom_site_fract_z
Si Si1 0.118446 0.876837 0.651231
Si Si2 0.119616 0.239647 0.089095
Si Si3 0.151398 0.885654 0.922870
Si Si4 0.248381 0.502848 0.447988
Si Si5 0.594127 0.572278 0.976736
Si Si6 0.429632 0.667168 0.487170
Si Si7 0.562185 0.984387 0.575805
Si Si8 0.042488 0.573769 0.673650
O O1 0.242930 0.772345 0.570183
O O2 0.992402 0.829853 0.782991
O O3 0.979842 0.204571 0.467929
O O4 0.303240 0.650334 0.809782
O O5 0.340762 0.951585 0.254373
O O6 0.000000 0.500000 0.000000
O O7 0.116277 0.346801 0.901243
O O8 0.361896 0.754608 0.937332
O O9 0.243553 0.629508 0.031625
O O10 0.992392 0.175765 0.706142
O O11 0.000000 0.000000 0.000000
O O12 0.377614 0.512663 0.407431
O O13 0.383498 0.303343 0.451516
O O14 0.208490 0.394801 0.644201
O O15 0.570452 0.804269 0.796343
O O16 0.500000 0.500000 0.500000
O O17 0.500000 0.000000 0.500000
O O18 0.800692 0.800341 0.593252
#
# Coordination Sequence:
#
# PCOD9063250 Si02
#       8
#     2   2   2   2   2   2   2   2
#     4  12  24  50  77 105 155 194 250 318 375 448
#     4  12  26  48  78 109 141 208 254 304 392 443
#     4  11  24  43  73 108 147 196 252 302 374 455
#     4  12  26  47  73 110 152 198 250 312 374 448
#     4  11  25  44  74 107 143 200 246 301 381 445
#     4  12  28  46  76 114 149 197 256 315 377 448
#     4  12  26  46  73 111 153 197 251 307 377 450
#     4  12  26  49  77 106 158 199 252 317 373 455
#
# _framework density 22.722646999999998
#
# number of rings (size 3 to 8) (size 9 to 14) (size 15 to 20)
#    0.000    0.250    5.000    3.375    3.500    4.500 
#    0.000    0.000    0.000    0.000    0.000    0.000 
#    0.000    0.000    0.000    0.000    0.000    0.000 
#
# Total GULP energy -89505.035594 kJ/mol
# GULP energy per Si atom -5594.064725 kJ/mol
# Density = 2.267093 g / cm^3
# Si number density = 22.722647 Si / 1000 Ang^3
#
#
#
# Elastic Constant Matrix: (Units=GPa)
#
#
# Indices 1 2 3 4 5 6 
#
# 1 88.2807 29.5247 28.1053 2.4635 5.5907 6.6646
# 2 29.5247 131.4626 22.3443 10.4766 4.6610 17.6370
# 3 28.1053 22.3443 121.0484 13.8467 6.8819 -2.0359
# 4 2.4635 10.4766 13.8467 42.7779 4.3730 1.8820
# 5 5.5907 4.6610 6.8819 4.3730 37.3257 -3.2384
# 6 6.6646 17.6370 -2.0359 1.8820 -3.2384 34.9459
#
#
#
# Elastic Compliance Matrix: (Units=1/GPa)
#
#
# Indices 1 2 3 4 5 6 
#
# 1 0.013139 -0.002290 -0.002677 0.000892 -0.001439 -0.001688
# 2 -0.002290 0.008991 -0.000983 -0.001489 -0.000784 -0.004151
# 3 -0.002677 -0.000983 0.009438 -0.002654 -0.000764 0.001629
# 4 0.000892 -0.001489 -0.002654 0.024851 -0.002469 -0.001140
# 5 -0.001439 -0.000784 -0.000764 -0.002469 0.027824 0.003337
# 6 -0.001688 -0.004151 0.001629 -0.001140 0.003337 0.031498
#
#
# Mechanical properties :
#
#
# Convention : Reuss Voigt Hill
#
# Bulk Modulus (GPa) = 50.83721 55.63779 53.23750
# Shear Modulus (GPa) = 37.25839 40.39773 38.82806
#
# Velocity S-wave (km/s) = 4.05372 4.22104 4.13823
# Velocity P-wave (km/s) = 6.65820 6.94946 6.80539
#
# Compressibility (1/GPa) = 0.01967063
#
# Stress axis : x y z
#
# Youngs Moduli (GPa) = 76.10921 111.21749 105.94927
#
# Poissons Ratio (x) = 0.25464 0.28358
# Poissons Ratio (y) = 0.17425 0.10415
# Poissons Ratio (z) = 0.20371 0.10933
#
# Static dielectric constant tensor:
#      x y z
#    x 1.927180 -0.011530 0.069360 
#    y -0.011530 1.822310 0.035560 
#    z 0.069360 0.035560 1.896980 
# 
# From -- ./inp_files/534117.got.cif
#   From: 2010.05.17/outbox.cif.g08.bks.cpg/sg2_268_cif.got.tgz:534117.got - 2010.06.03 11:33:40.
