data_PCOD9063086
_publ_section_title
;
Structure prediction by ZEFSAII (Michael W. Deem and Ramdas Pophale) SiO2 
 PCOD9063086
Probable space group: P -1
;
_chemical_formula_sum "Si O2"
_cell_formula_units_Z 16
_cell_length_a 8.955724
_cell_length_b 5.379463
_cell_length_c 16.705267
_cell_angle_alpha 57.534135
_cell_angle_beta 118.397953
_cell_angle_gamma 107.400332
_cell_volume 596.277896
_symmetry_space_group_name_H-M "P -1"
_symmetry_group_IT_number 2
_symmetry_cell_setting 'triclinic'
loop_
_space_group_symop_operation_xyz
x,y,z
-x,-y,-z
loop_
_atom_site_type_symbol
_atom_site_label
_atom_site_fract_x
_atom_site_fract_y
_atom_site_fract_z
Si Si1 0.934249 0.788243 0.834920
Si Si2 0.854484 0.740525 0.001375
Si Si3 0.739042 0.679355 0.530269
Si Si4 0.340636 0.837494 0.684914
Si Si5 0.530178 0.011786 0.856208
Si Si6 0.938507 0.207139 0.582602
Si Si7 0.182871 0.235591 0.771983
Si Si8 0.620785 0.599776 0.685785
O O1 0.840371 0.691646 0.909865
O O2 0.792843 0.768692 0.733636
O O3 0.043098 0.098126 0.821079
O O4 0.077212 0.556327 0.894948
O O5 0.673663 0.841496 0.967313
O O6 0.000000 0.000000 0.000000
O O7 0.810304 0.364397 0.582886
O O8 0.615944 0.618387 0.585613
O O9 0.686288 0.830722 0.407639
O O10 0.863088 0.948559 0.551285
O O11 0.191535 0.584800 0.700605
O O12 0.457150 0.732676 0.659732
O O13 0.442949 0.820739 0.796131
O O14 0.373910 0.132447 0.845491
O O15 0.624330 0.278736 0.783263
O O16 0.000000 0.500000 0.500000
O O17 0.098403 0.104182 0.691380
#
# Coordination Sequence:
#
# PCOD9063086 Si02
#       8
#     2   2   2   2   2   2   2   2
#     4  11  24  45  72 107 135 182 243 299 363 439
#     4  11  24  45  76 100 137 182 237 301 368 438
#     4  12  27  42  75 104 148 199 253 295 355 431
#     4  11  25  45  66 102 151 191 232 299 362 423
#     4  11  25  45  70 103 142 189 234 301 366 432
#     4  12  25  45  68 106 146 200 247 300 354 431
#     4  11  26  42  71 102 145 186 237 295 365 427
#     4  11  24  43  70 105 141 188 243 299 359 431
#
# _framework density 26.833124000000002
#
# number of rings (size 3 to 8) (size 9 to 14) (size 15 to 20)
#    0.000    0.750    5.000    1.500    7.000    2.000 
#    0.000    1.250    0.000    0.000    0.000    0.000 
#    0.000    0.000    0.000    0.000    0.000    0.000 
#
# Total GULP energy -89618.444402 kJ/mol
# GULP energy per Si atom -5601.152775 kJ/mol
# Density = 2.677205 g / cm^3
# Si number density = 26.833124 Si / 1000 Ang^3
#
#
#
# Elastic Constant Matrix: (Units=GPa)
#
#
# Indices 1 2 3 4 5 6 
#
# 1 90.9997 28.7432 25.1128 -18.5855 -1.6952 1.1676
# 2 28.7432 109.9497 13.5213 -9.3670 7.9370 19.8832
# 3 25.1128 13.5213 81.2381 -10.1553 8.7614 0.7886
# 4 -18.5855 -9.3670 -10.1553 43.6419 -4.5701 -2.6135
# 5 -1.6952 7.9370 8.7614 -4.5701 51.8105 -3.4648
# 6 1.1676 19.8832 0.7886 -2.6135 -3.4648 51.8229
#
#
#
# Elastic Compliance Matrix: (Units=1/GPa)
#
#
# Indices 1 2 3 4 5 6 
#
# 1 0.013934 -0.003209 -0.003412 0.004745 0.002033 0.001344
# 2 -0.003209 0.010937 -0.000528 0.000402 -0.001938 -0.004225
# 3 -0.003412 -0.000528 0.013873 0.001425 -0.002252 -0.000010
# 4 0.004745 0.000402 0.001425 0.025651 0.002193 0.001157
# 5 0.002033 -0.001938 -0.002252 0.002193 0.020386 0.002206
# 6 0.001344 -0.004225 -0.000010 0.001157 0.002206 0.021093
#
#
# Mechanical properties :
#
#
# Convention : Reuss Voigt Hill
#
# Bulk Modulus (GPa) = 40.90672 46.32688 43.61680
# Shear Modulus (GPa) = 38.96440 43.77574 41.37007
#
# Velocity S-wave (km/s) = 3.81478 4.04345 3.93078
# Velocity P-wave (km/s) = 5.88909 6.25313 6.07383
#
# Compressibility (1/GPa) = 0.02444586
#
# Stress axis : x y z
#
# Youngs Moduli (GPa) = 71.76750 91.43203 72.08036
#
# Poissons Ratio (x) = 0.29337 0.24597
# Poissons Ratio (y) = 0.23027 0.03807
# Poissons Ratio (z) = 0.24491 0.04829
#
# Static dielectric constant tensor:
#      x y z
#    x 2.194170 -0.006500 -0.017710 
#    y -0.006500 2.103940 0.004680 
#    z -0.017710 0.004680 2.101770 
# 
# From -- ./inp_files/46235.got.cif
#   From: 2010.05.17/outbox.cif.g08.bks.cpg/sg2_24_cif.got.tgz:46235.got - 2010.06.03 11:33:40.
