data_PCOD9063680
_publ_section_title
;
Structure prediction by ZEFSAII (Michael W. Deem and Ramdas Pophale) SiO2 
 PCOD9063680
Probable space group: P -1
;
_chemical_formula_sum "Si O2"
_cell_formula_units_Z 16
_cell_length_a 8.602050
_cell_length_b 12.523392
_cell_length_c 8.736944
_cell_angle_alpha 94.414886
_cell_angle_beta 89.024190
_cell_angle_gamma 51.365824
_cell_volume 730.473216
_symmetry_space_group_name_H-M "P -1"
_symmetry_group_IT_number 2
_symmetry_cell_setting 'triclinic'
loop_
_space_group_symop_operation_xyz
x,y,z
-x,-y,-z
loop_
_atom_site_type_symbol
_atom_site_label
_atom_site_fract_x
_atom_site_fract_y
_atom_site_fract_z
Si Si1 0.750429 0.901617 0.361986
Si Si2 0.849186 0.802497 0.023362
Si Si3 0.409976 0.219535 0.476044
Si Si4 0.209607 0.944163 0.070400
Si Si5 0.870824 0.131308 0.616925
Si Si6 0.534087 0.382242 0.586487
Si Si7 0.624724 0.704962 0.868416
Si Si8 0.300587 0.574278 0.110607
O O1 0.710538 0.885898 0.185117
O O2 0.744011 0.799078 0.454320
O O3 0.973073 0.846987 0.335490
O O4 0.608723 0.056038 0.450598
O O5 0.088687 0.694068 0.046135
O O6 0.774888 0.722515 0.948975
O O7 0.800754 0.922461 0.924566
O O8 0.391104 0.340276 0.585712
O O9 0.382877 0.262421 0.306070
O O10 0.213747 0.895024 0.236839
O O11 0.404116 0.816526 0.961198
O O12 0.000000 0.000000 0.000000
O O13 0.721832 0.238818 0.500901
O O14 0.000000 0.000000 0.500000
O O15 0.500000 0.500000 0.500000
O O16 0.632694 0.379449 0.742552
O O17 0.701322 0.550158 0.860400
O O18 0.500000 0.500000 0.000000
#
# Coordination Sequence:
#
# PCOD9063680 Si02
#       8
#     2   2   2   2   2   2   2   2
#     4  11  24  44  72 106 146 180 242 298 363 428
#     4  12  26  45  72 108 142 190 239 299 365 430
#     4  11  25  44  71 108 142 191 231 301 366 428
#     4  12  24  45  74 106 142 186 244 301 349 429
#     4  12  25  43  71 105 140 184 240 297 352 421
#     4  12  25  47  71 100 140 186 241 291 358 425
#     4  12  26  46  70 106 147 188 242 292 366 436
#     4  12  27  49  71 101 144 195 242 298 358 432
#
# _framework density 21.90361
#
# number of rings (size 3 to 8) (size 9 to 14) (size 15 to 20)
#    0.000    0.250    6.250    2.250    5.250    1.000 
#    0.000    1.250    0.000    0.000    0.000    0.000 
#    0.000    0.000    0.000    0.000    0.000    0.000 
#
# Total GULP energy -89153.400812 kJ/mol
# GULP energy per Si atom -5572.087551 kJ/mol
# Density = 2.185376 g / cm^3
# Si number density = 21.903610 Si / 1000 Ang^3
#
#
#
# Elastic Constant Matrix: (Units=GPa)
#
#
# Indices 1 2 3 4 5 6 
#
# 1 93.0754 38.8935 63.5013 1.2701 -0.9237 28.0151
# 2 38.8935 131.6041 35.5628 -27.2250 -18.3532 25.5016
# 3 63.5013 35.5628 82.9617 -15.0434 -12.2616 12.2210
# 4 1.2701 -27.2250 -15.0434 32.5912 9.8824 -4.6663
# 5 -0.9237 -18.3532 -12.2616 9.8824 37.7244 -1.7131
# 6 28.0151 25.5016 12.2210 -4.6663 -1.7131 52.1688
#
#
#
# Elastic Compliance Matrix: (Units=1/GPa)
#
#
# Indices 1 2 3 4 5 6 
#
# 1 0.035326 -0.005475 -0.027216 -0.018257 -0.006396 -0.011761
# 2 -0.005475 0.011586 0.001759 0.009319 0.003534 -0.002185
# 3 -0.027216 0.001759 0.035349 0.017651 0.007386 0.007296
# 4 -0.018257 0.009319 0.017651 0.048933 -0.002750 0.005401
# 5 -0.006396 0.003534 0.007386 -0.002750 0.031226 0.000757
# 6 -0.011761 -0.002185 0.007296 0.005401 0.000757 0.025352
#
#
# Mechanical properties :
#
#
# Convention : Reuss Voigt Hill
#
# Bulk Modulus (GPa) = 49.03008 64.83961 56.93484
# Shear Modulus (GPa) = 19.49815 35.80911 27.65363
#
# Velocity S-wave (km/s) = 2.98682 4.04771 3.55704
# Velocity P-wave (km/s) = 5.85900 7.17717 6.55133
#
# Compressibility (1/GPa) = 0.02039564
#
# Stress axis : x y z
#
# Youngs Moduli (GPa) = 28.30794 86.31466 28.28928
#
# Poissons Ratio (x) = 0.47261 0.76991
# Poissons Ratio (y) = 0.15500 -0.04975
# Poissons Ratio (z) = 0.77042 -0.15180
#
# Static dielectric constant tensor:
#      x y z
#    x 2.068360 -0.105370 0.036000 
#    y -0.105370 2.137260 0.135630 
#    z 0.036000 0.135630 1.881940 
# 
# From -- ./inp_files/187626.got.cif
#   From: 2010.05.17/outbox.cif.g08.bks.cpg/sg2_94_cif.got.tgz:187626.got - 2010.06.03 11:33:40.
