data_PCOD9063322
_publ_section_title
;
Structure prediction by ZEFSAII (Michael W. Deem and Ramdas Pophale) SiO2 
 PCOD9063322
Probable space group: P -1
;
_chemical_formula_sum "Si O2"
_cell_formula_units_Z 13
_cell_length_a 8.478265
_cell_length_b 11.619855
_cell_length_c 6.337533
_cell_angle_alpha 119.941462
_cell_angle_beta 103.820554
_cell_angle_gamma 89.016818
_cell_volume 521.478568
_symmetry_space_group_name_H-M "P -1"
_symmetry_group_IT_number 2
_symmetry_cell_setting 'triclinic'
loop_
_space_group_symop_operation_xyz
x,y,z
-x,-y,-z
loop_
_atom_site_type_symbol
_atom_site_label
_atom_site_fract_x
_atom_site_fract_y
_atom_site_fract_z
Si Si1 0.156194 0.056395 0.239383
Si Si2 0.833070 0.516400 0.343276
Si Si3 0.034681 0.269030 0.722597
Si Si4 0.690126 0.134410 0.563545
Si Si5 0.571558 0.261130 0.003674
Si Si6 0.265802 0.270825 0.173350
Si Si7 0.500000 0.000000 0.000000
O O1 0.100190 0.163305 0.484899
O O2 0.285567 0.131100 0.177455
O O3 0.226120 0.946925 0.302778
O O4 0.000000 0.000000 0.000000
O O5 0.887745 0.587466 0.206068
O O6 0.720624 0.377727 0.160585
O O7 0.744152 0.617707 0.552339
O O8 0.000000 0.500000 0.500000
O O9 0.838989 0.239172 0.622830
O O10 0.101798 0.248973 0.960679
O O11 0.606792 0.027098 0.278297
O O12 0.557445 0.210417 0.712328
O O13 0.408433 0.309982 0.089053
O O14 0.596124 0.142000 0.062109
#
# Coordination Sequence:
#
# PCOD9063322 Si02
#       7
#     2   2   2   2   2   2   1
#     4  11  24  43  76 107 146 188 248 299 360 430
#     4  11  26  47  73 104 143 194 250 300 360 438
#     4  11  25  45  75 103 141 195 249 296 363 434
#     4  12  26  45  74 110 146 196 239 306 363 436
#     4  12  27  46  72 106 152 188 241 304 371 437
#     4  11  25  47  72 110 146 190 243 304 369 433
#     4  12  28  46  70 108 152 188 242 294 372 428
#
# _framework density 24.929116
#
# number of rings (size 3 to 8) (size 9 to 14) (size 15 to 20)
#    0.000    0.615    1.538    5.077    6.462    6.769 
#    0.000    0.000    0.000    0.000    0.000    0.000 
#    0.000    0.000    0.000    0.000    0.000    0.000 
#
# Total GULP energy -72718.739309 kJ/mol
# GULP energy per Si atom -5593.749178 kJ/mol
# Density = 2.487238 g / cm^3
# Si number density = 24.929116 Si / 1000 Ang^3
#
#
#
# Elastic Constant Matrix: (Units=GPa)
#
#
# Indices 1 2 3 4 5 6 
#
# 1 102.4913 35.1603 29.8902 0.7788 -2.6015 37.0008
# 2 35.1603 142.5688 43.2342 8.7296 22.0753 31.3043
# 3 29.8902 43.2342 136.9139 -0.0110 13.4355 13.0194
# 4 0.7788 8.7296 -0.0110 35.8201 -2.3336 9.6950
# 5 -2.6015 22.0753 13.4355 -2.3336 60.9283 -4.3258
# 6 37.0008 31.3043 13.0194 9.6950 -4.3258 45.3624
#
#
#
# Elastic Compliance Matrix: (Units=1/GPa)
#
#
# Indices 1 2 3 4 5 6 
#
# 1 0.014743 -0.000812 -0.001933 0.003031 0.000650 -0.011496
# 2 -0.000812 0.009644 -0.001997 -0.001067 -0.003522 -0.005528
# 3 -0.001933 -0.001997 0.008440 0.000362 -0.001182 0.000342
# 4 0.003031 -0.001067 0.000362 0.030408 0.001016 -0.008242
# 5 0.000650 -0.003522 -0.001182 0.001016 0.018283 0.003766
# 6 -0.011496 -0.005528 0.000342 -0.008242 0.003766 0.037259
#
#
# Mechanical properties :
#
#
# Convention : Reuss Voigt Hill
#
# Bulk Modulus (GPa) = 42.83677 66.50481 54.67079
# Shear Modulus (GPa) = 36.75334 46.66812 41.71073
#
# Velocity S-wave (km/s) = 3.84385 4.33139 4.09488
# Velocity P-wave (km/s) = 6.07626 7.19375 6.65849
#
# Compressibility (1/GPa) = 0.02334443
#
# Stress axis : x y z
#
# Youngs Moduli (GPa) = 67.83010 103.68656 118.48538
#
# Poissons Ratio (x) = 0.08416 0.22898
# Poissons Ratio (y) = 0.05506 0.23662
# Poissons Ratio (z) = 0.13108 0.20707
#
# Static dielectric constant tensor:
#      x y z
#    x 1.926430 0.010200 0.029400 
#    y 0.010200 1.958310 -0.027100 
#    z 0.029400 -0.027100 1.850480 
# 
# From -- ./inp_files/28058.got.cif
#   From: 2010.05.17/outbox.cif.g08.bks.cpg/sg2_15_cif.got.tgz:28058.got - 2010.06.03 11:33:40.
