data_PCOD9063176
_publ_section_title
;
Structure prediction by ZEFSAII (Michael W. Deem and Ramdas Pophale) SiO2 
 PCOD9063176
Probable space group: P -1
;
_chemical_formula_sum "Si O2"
_cell_formula_units_Z 16
_cell_length_a 20.135448
_cell_length_b 8.583687
_cell_length_c 9.658673
_cell_angle_alpha 74.168319
_cell_angle_beta 35.460613
_cell_angle_gamma 56.134885
_cell_volume 745.204049
_symmetry_space_group_name_H-M "P -1"
_symmetry_group_IT_number 2
_symmetry_cell_setting 'triclinic'
loop_
_space_group_symop_operation_xyz
x,y,z
-x,-y,-z
loop_
_atom_site_type_symbol
_atom_site_label
_atom_site_fract_x
_atom_site_fract_y
_atom_site_fract_z
Si Si1 0.871129 0.220132 0.106717
Si Si2 0.641776 0.274222 0.280728
Si Si3 0.667555 0.346522 0.918746
Si Si4 0.842164 0.505674 0.647190
Si Si5 0.647043 0.891710 0.694416
Si Si6 0.373128 0.081586 0.587553
Si Si7 0.871230 0.564428 0.894763
Si Si8 0.346406 0.748223 0.337376
O O1 0.784429 0.224033 0.120688
O O2 0.746849 0.310207 0.412873
O O3 0.918092 0.359940 0.945707
O O4 0.000000 0.000000 0.000000
O O5 0.500000 0.500000 0.500000
O O6 0.621183 0.112517 0.408400
O O7 0.658462 0.247840 0.094660
O O8 0.793820 0.367365 0.722828
O O9 0.685565 0.233628 0.775059
O O10 0.515195 0.570377 0.114055
O O11 0.757753 0.693965 0.641633
O O12 0.805077 0.567545 0.857288
O O13 0.005422 0.415314 0.363810
O O14 0.625825 0.843976 0.585931
O O15 0.690920 0.043298 0.592257
O O16 0.500000 0.000000 0.000000
O O17 0.500000 0.000000 0.500000
O O18 0.235337 0.257248 0.862794
#
# Coordination Sequence:
#
# PCOD9063176 Si02
#       8
#     2   2   2   2   2   2   2   2
#     4  12  25  47  73 103 143 192 236 295 361 424
#     4  12  24  47  74 103 145 188 243 297 358 426
#     4  11  24  43  72 100 137 184 237 294 352 422
#     4  11  25  47  70  99 146 195 227 298 361 422
#     4  12  24  43  69 101 145 182 234 294 359 421
#     4  12  28  43  73 111 140 190 243 298 358 434
#     4  11  27  47  71 103 148 188 241 290 363 432
#     4  11  25  43  70 104 135 184 238 294 354 422
#
# _framework density 21.470631999999998
#
# number of rings (size 3 to 8) (size 9 to 14) (size 15 to 20)
#    0.000    0.500    5.000    2.250    5.250    1.500 
#    0.000    1.250    0.000    0.000    0.000    0.000 
#    0.000    0.000    0.000    0.000    0.000    0.000 
#
# Total GULP energy -89424.900618 kJ/mol
# GULP energy per Si atom -5589.056289 kJ/mol
# Density = 2.142176 g / cm^3
# Si number density = 21.470632 Si / 1000 Ang^3
#
#
#
# Elastic Constant Matrix: (Units=GPa)
#
#
# Indices 1 2 3 4 5 6 
#
# 1 126.3968 20.1298 43.6232 2.4059 26.9352 -26.2231
# 2 20.1298 72.0807 5.8221 -3.4841 6.4480 -10.9569
# 3 43.6232 5.8221 87.0716 -7.2963 20.6816 -3.5372
# 4 2.4059 -3.4841 -7.2963 31.2137 -3.9610 2.8084
# 5 26.9352 6.4480 20.6816 -3.9610 51.0286 -13.6538
# 6 -26.2231 -10.9569 -3.5372 2.8084 -13.6538 30.7421
#
#
#
# Elastic Compliance Matrix: (Units=1/GPa)
#
#
# Indices 1 2 3 4 5 6 
#
# 1 0.012415 -0.001672 -0.005567 -0.003490 -0.002007 0.008781
# 2 -0.001672 0.014978 0.000095 0.001490 0.000091 0.003828
# 3 -0.005567 0.000095 0.015438 0.003960 -0.004433 -0.005269
# 4 -0.003490 0.001490 0.003960 0.033987 0.001502 -0.004428
# 5 -0.002007 0.000091 -0.004433 0.001502 0.024894 0.008730
# 6 0.008781 0.003828 -0.005269 -0.004428 0.008730 0.045059
#
#
# Mechanical properties :
#
#
# Convention : Reuss Voigt Hill
#
# Bulk Modulus (GPa) = 35.03462 47.18881 41.11171
# Shear Modulus (GPa) = 29.31268 36.99514 33.15391
#
# Velocity S-wave (km/s) = 3.69893 4.15548 3.93383
# Velocity P-wave (km/s) = 5.88181 6.71193 6.31053
#
# Compressibility (1/GPa) = 0.02854319
#
# Stress axis : x y z
#
# Youngs Moduli (GPa) = 80.54658 66.76335 64.77348
#
# Poissons Ratio (x) = 0.11161 0.36061
# Poissons Ratio (y) = 0.13466 -0.00614
# Poissons Ratio (z) = 0.44842 -0.00632
#
# Static dielectric constant tensor:
#      x y z
#    x 1.815070 0.003100 -0.056950 
#    y 0.003100 1.754560 0.023290 
#    z -0.056950 0.023290 1.748500 
# 
# From -- ./inp_files/328810.got.cif
#   From: 2010.05.17/outbox.cif.g08.bks.cpg/sg2_165_cif.got.tgz:328810.got - 2010.06.03 11:33:40.
