data_PCOD9063599
_publ_section_title
;
Structure prediction by ZEFSAII (Michael W. Deem and Ramdas Pophale) SiO2 
 PCOD9063599
Probable space group: P -1
;
_chemical_formula_sum "Si O2"
_cell_formula_units_Z 14
_cell_length_a 15.168487
_cell_length_b 6.316782
_cell_length_c 19.077150
_cell_angle_alpha 138.187943
_cell_angle_beta 28.161772
_cell_angle_gamma 128.605382
_cell_volume 571.951563
_symmetry_space_group_name_H-M "P -1"
_symmetry_group_IT_number 2
_symmetry_cell_setting 'triclinic'
loop_
_space_group_symop_operation_xyz
x,y,z
-x,-y,-z
loop_
_atom_site_type_symbol
_atom_site_label
_atom_site_fract_x
_atom_site_fract_y
_atom_site_fract_z
Si Si1 0.199237 0.543769 0.257414
Si Si2 0.955025 0.826260 0.064131
Si Si3 0.554215 0.046508 0.394927
Si Si4 0.485309 0.354704 0.128682
Si Si5 0.611418 0.745622 0.567972
Si Si6 0.730432 0.832902 0.018758
Si Si7 0.211078 0.263186 0.413496
O O1 0.326829 0.542458 0.236188
O O2 0.289936 0.276297 0.074254
O O3 0.979604 0.522687 0.420926
O O4 0.196224 0.894953 0.311914
O O5 0.059819 0.073119 0.098629
O O6 0.737042 0.808961 0.197858
O O7 0.000000 0.500000 0.000000
O O8 0.000000 0.000000 0.000000
O O9 0.623932 0.397808 0.438627
O O10 0.398373 0.041747 0.443202
O O11 0.500000 0.000000 0.500000
O O12 0.396327 0.353853 0.267558
O O13 0.671193 0.528899 0.028960
O O14 0.500000 0.000000 0.000000
O O15 0.762118 0.737081 0.521531
O O16 0.412866 0.874751 0.777351
#
# Coordination Sequence:
#
# PCOD9063599 Si02
#       7
#     2   2   2   2   2   2   2
#     4  11  24  45  67 108 150 190 252 311 381 460
#     4  12  28  52  78 116 158 202 262 330 393 471
#     4  11  26  48  75 107 146 198 262 323 391 471
#     4  12  24  43  73 109 151 200 254 308 388 466
#     4  11  24  44  74 100 144 195 257 310 393 451
#     4  12  24  47  72 109 148 202 253 317 390 463
#     4  11  24  44  71 103 150 194 245 317 378 468
#
# _framework density 24.477598
#
# number of rings (size 3 to 8) (size 9 to 14) (size 15 to 20)
#    0.000    0.571    4.286    3.429    4.000    2.286 
#    0.000    0.000    0.000    0.000    0.000    0.000 
#    0.000    0.000    0.000    0.000    0.000    0.000 
#
# Total GULP energy -77986.214799 kJ/mol
# GULP energy per Si atom -5570.443914 kJ/mol
# Density = 2.442189 g / cm^3
# Si number density = 24.477598 Si / 1000 Ang^3
#
#
#
# Elastic Constant Matrix: (Units=GPa)
#
#
# Indices 1 2 3 4 5 6 
#
# 1 140.3578 27.2264 15.5775 -8.1138 14.3955 -15.0978
# 2 27.2264 119.4791 16.2618 -5.3686 -5.9190 -5.5428
# 3 15.5775 16.2618 53.5055 4.8341 0.3659 -16.3473
# 4 -8.1138 -5.3686 4.8341 45.4805 -3.0035 6.1345
# 5 14.3955 -5.9190 0.3659 -3.0035 31.0103 -2.2744
# 6 -15.0978 -5.5428 -16.3473 6.1345 -2.2744 45.7107
#
#
#
# Elastic Compliance Matrix: (Units=1/GPa)
#
#
# Indices 1 2 3 4 5 6 
#
# 1 0.008264 -0.001766 -0.001409 0.000927 -0.003943 0.001691
# 2 -0.001766 0.009296 -0.002573 0.001291 0.002719 -0.000414
# 3 -0.001409 -0.002573 0.022647 -0.004018 0.000084 0.007865
# 4 0.000927 0.001291 -0.004018 0.023396 0.001834 -0.004023
# 5 -0.003943 0.002719 0.000084 0.001834 0.034813 0.000543
# 6 0.001691 -0.000414 0.007865 -0.004023 0.000543 0.025764
#
#
# Mechanical properties :
#
#
# Convention : Reuss Voigt Hill
#
# Bulk Modulus (GPa) = 34.83150 47.94156 41.38653
# Shear Modulus (GPa) = 34.42401 41.39209 37.90805
#
# Velocity S-wave (km/s) = 3.75420 4.11666 3.93960
# Velocity P-wave (km/s) = 5.74916 6.49802 6.13503
#
# Compressibility (1/GPa) = 0.02870965
#
# Stress axis : x y z
#
# Youngs Moduli (GPa) = 121.01344 107.57439 44.15537
#
# Poissons Ratio (x) = 0.19003 0.06223
# Poissons Ratio (y) = 0.21377 0.11360
# Poissons Ratio (z) = 0.17054 0.27677
#
# Static dielectric constant tensor:
#      x y z
#    x 1.813400 0.437760 -0.037440 
#    y 0.437760 0.683480 0.085680 
#    z -0.037440 0.085680 2.002220 
# 
# From -- ./inp_files/48553.got.cif
#   From: 2010.05.17/outbox.cif.g08.bks.cpg/sg2_25_cif.got.tgz:48553.got - 2010.06.03 11:33:40.
