data_PCOD9063709
_publ_section_title
;
Structure prediction by ZEFSAII (Michael W. Deem and Ramdas Pophale) SiO2 
 PCOD9063709
Probable space group: P -1
;
_chemical_formula_sum "Si O2"
_cell_formula_units_Z 14
_cell_length_a 10.008627
_cell_length_b 16.191124
_cell_length_c 7.498232
_cell_angle_alpha 36.576397
_cell_angle_beta 115.364288
_cell_angle_gamma 124.613652
_cell_volume 594.950699
_symmetry_space_group_name_H-M "P -1"
_symmetry_group_IT_number 2
_symmetry_cell_setting 'triclinic'
loop_
_space_group_symop_operation_xyz
x,y,z
-x,-y,-z
loop_
_atom_site_type_symbol
_atom_site_label
_atom_site_fract_x
_atom_site_fract_y
_atom_site_fract_z
Si Si1 0.176543 0.602373 0.346940
Si Si2 0.941090 0.967771 0.818629
Si Si3 0.441942 0.133839 0.192635
Si Si4 0.993407 0.783679 0.873547
Si Si5 0.500095 0.163493 0.754223
Si Si6 0.334829 0.360254 0.202239
Si Si7 0.357611 0.528528 0.271628
O O1 0.322569 0.695245 0.404401
O O2 0.230891 0.520501 0.365205
O O3 0.000000 0.500000 0.500000
O O4 0.138890 0.736506 0.002604
O O5 0.745273 0.905282 0.802377
O O6 0.007822 0.857451 0.948090
O O7 0.006421 0.111032 0.474247
O O8 0.000000 0.000000 0.000000
O O9 0.500000 0.000000 0.500000
O O10 0.457896 0.161234 0.942160
O O11 0.561608 0.297704 0.057660
O O12 0.809576 0.655625 0.984198
O O13 0.373933 0.211346 0.493143
O O14 0.500000 0.000000 0.000000
O O15 0.290558 0.405402 0.291786
O O16 0.500000 0.500000 0.000000
O O17 0.500000 0.500000 0.500000
#
# Coordination Sequence:
#
# PCOD9063709 Si02
#       7
#     2   2   2   2   2   2   2
#     4  11  25  46  73 105 149 190 241 314 368 434
#     4  11  25  44  70 101 145 192 231 300 373 425
#     4  11  24  44  73 101 135 187 243 298 357 434
#     4  11  27  44  68 110 146 178 252 299 361 445
#     4  11  26  44  70 106 144 188 249 298 362 443
#     4  12  25  46  74 104 143 200 241 299 368 444
#     4  11  24  47  73 103 142 188 251 289 361 452
#
# _framework density 23.531361
#
# number of rings (size 3 to 8) (size 9 to 14) (size 15 to 20)
#    0.000    0.857    2.857    4.286   12.000    0.571 
#    0.000    0.000    0.000    0.000    0.000    0.000 
#    0.000    0.000    0.000    0.000    0.000    0.000 
#
# Total GULP energy -78346.823451 kJ/mol
# GULP energy per Si atom -5596.201675 kJ/mol
# Density = 2.347780 g / cm^3
# Si number density = 23.531361 Si / 1000 Ang^3
#
#
#
# Elastic Constant Matrix: (Units=GPa)
#
#
# Indices 1 2 3 4 5 6 
#
# 1 155.9594 40.1899 27.6366 -5.1187 11.7357 -6.4477
# 2 40.1899 98.4838 15.0068 1.4995 1.6923 -24.0146
# 3 27.6366 15.0068 87.7677 -5.1972 22.2323 -6.9556
# 4 -5.1187 1.4995 -5.1972 41.3718 3.6122 0.5075
# 5 11.7357 1.6923 22.2323 3.6122 49.6728 -8.1918
# 6 -6.4477 -24.0146 -6.9556 0.5075 -8.1918 50.0522
#
#
#
# Elastic Compliance Matrix: (Units=1/GPa)
#
#
# Indices 1 2 3 4 5 6 
#
# 1 0.007564 -0.003067 -0.001569 0.000966 -0.001203 -0.000922
# 2 -0.003067 0.013067 -0.001368 -0.001271 0.001977 0.006021
# 3 -0.001569 -0.001368 0.013738 0.002093 -0.005873 0.000069
# 4 0.000966 -0.001271 0.002093 0.024881 -0.003088 -0.000952
# 5 -0.001203 0.001977 -0.005873 -0.003088 0.023847 0.003912
# 6 -0.000922 0.006021 0.000069 -0.000952 0.003912 0.023409
#
#
# Mechanical properties :
#
#
# Convention : Reuss Voigt Hill
#
# Bulk Modulus (GPa) = 44.71372 56.43083 50.57227
# Shear Modulus (GPa) = 39.69297 45.51118 42.60208
#
# Velocity S-wave (km/s) = 4.11154 4.40257 4.25954
# Velocity P-wave (km/s) = 6.44846 7.06234 6.76237
#
# Compressibility (1/GPa) = 0.02236450
#
# Stress axis : x y z
#
# Youngs Moduli (GPa) = 132.20045 76.52666 72.78822
#
# Poissons Ratio (x) = 0.23468 0.11418
# Poissons Ratio (y) = 0.40541 0.09954
# Poissons Ratio (z) = 0.20738 0.10465
#
# Static dielectric constant tensor:
#      x y z
#    x 1.868010 0.034560 -0.034210 
#    y 0.034560 1.921620 -0.078730 
#    z -0.034210 -0.078730 2.015870 
# 
# From -- ./inp_files/216388.got.cif
#   From: 2010.05.17/outbox.cif.g08.bks.cpg/sg2_109_cif.got.tgz:216388.got - 2010.06.03 11:33:40.
