data_PCOD9063214
_publ_section_title
;
Structure prediction by ZEFSAII (Michael W. Deem and Ramdas Pophale) SiO2 
 PCOD9063214
Probable space group: P -1
;
_chemical_formula_sum "Si O2"
_cell_formula_units_Z 16
_cell_length_a 5.847810
_cell_length_b 8.010323
_cell_length_c 19.893318
_cell_angle_alpha 100.193814
_cell_angle_beta 128.329632
_cell_angle_gamma 68.154323
_cell_volume 676.654449
_symmetry_space_group_name_H-M "P -1"
_symmetry_group_IT_number 2
_symmetry_cell_setting 'triclinic'
loop_
_space_group_symop_operation_xyz
x,y,z
-x,-y,-z
loop_
_atom_site_type_symbol
_atom_site_label
_atom_site_fract_x
_atom_site_fract_y
_atom_site_fract_z
Si Si1 0.341281 0.011516 0.046339
Si Si2 0.526643 0.195030 0.681637
Si Si3 0.104656 0.513796 0.713558
Si Si4 0.381623 0.853665 0.679181
Si Si5 0.730815 0.095579 0.574768
Si Si6 0.073590 0.309894 0.829224
Si Si7 0.556042 0.338534 0.446612
Si Si8 0.329248 0.346092 0.155123
O O1 0.587032 0.835954 0.114020
O O2 0.324628 0.204521 0.087613
O O3 0.500000 0.000000 0.000000
O O4 0.000000 0.000000 0.000000
O O5 0.253099 0.354730 0.676429
O O6 0.558955 0.231782 0.611573
O O7 0.831245 0.202751 0.776008
O O8 0.486964 0.002067 0.669805
O O9 0.032737 0.416751 0.759221
O O10 0.361141 0.600473 0.786882
O O11 0.795553 0.651028 0.634238
O O12 0.317153 0.703730 0.608918
O O13 0.627093 0.762604 0.774335
O O14 0.048594 0.970565 0.656018
O O15 0.788615 0.181233 0.522238
O O16 0.500000 0.000000 0.500000
O O17 0.959518 0.467304 0.876179
O O18 0.500000 0.500000 0.500000
#
# Coordination Sequence:
#
# PCOD9063214 Si02
#       8
#     2   2   2   2   2   2   2   2
#     4  12  32  53  85 127 160 199 245 317 401 474
#     4  11  24  43  72  97 140 198 256 312 377 451
#     4  11  25  47  72 106 142 202 253 312 374 451
#     4  12  25  45  68 102 140 205 255 310 379 454
#     4  12  25  40  60  96 139 196 250 323 381 434
#     4  11  26  50  80 109 151 197 254 305 379 472
#     4  12  25  39  64  99 147 190 255 322 376 429
#     4  11  27  48  82 108 154 201 255 309 375 482
#
# _framework density 23.645745999999999
#
# number of rings (size 3 to 8) (size 9 to 14) (size 15 to 20)
#    0.000    0.500    2.500    4.875   12.250    1.500 
#    0.000    0.000    0.000    0.000    0.000    0.000 
#    0.000    0.000    0.000    0.000    0.000    0.000 
#
# Total GULP energy -89366.293860 kJ/mol
# GULP energy per Si atom -5585.393366 kJ/mol
# Density = 2.359193 g / cm^3
# Si number density = 23.645746 Si / 1000 Ang^3
#
#
#
# Elastic Constant Matrix: (Units=GPa)
#
#
# Indices 1 2 3 4 5 6 
#
# 1 87.7104 38.8529 36.2281 10.7934 5.1098 -11.7687
# 2 38.8529 133.7585 55.3287 23.4806 12.5819 -26.4590
# 3 36.2281 55.3287 75.3523 19.1326 8.9251 -9.0769
# 4 10.7934 23.4806 19.1326 57.6479 -14.9724 -4.2150
# 5 5.1098 12.5819 8.9251 -14.9724 48.1271 2.9449
# 6 -11.7687 -26.4590 -9.0769 -4.2150 2.9449 44.3528
#
#
#
# Elastic Compliance Matrix: (Units=1/GPa)
#
#
# Indices 1 2 3 4 5 6 
#
# 1 0.014690 -0.001500 -0.005652 -0.000206 -0.000296 0.001847
# 2 -0.001500 0.012663 -0.006735 -0.003057 -0.003202 0.005700
# 3 -0.005652 -0.006735 0.022299 -0.004490 -0.003100 -0.001175
# 4 -0.000206 -0.003057 -0.004490 0.022278 0.008661 -0.001255
# 5 -0.000296 -0.003202 -0.003100 0.008661 0.025128 -0.003469
# 6 0.001847 0.005700 -0.001175 -0.001255 -0.003469 0.026308
#
#
# Mechanical properties :
#
#
# Convention : Reuss Voigt Hill
#
# Bulk Modulus (GPa) = 45.70494 61.96006 53.83250
# Shear Modulus (GPa) = 31.55907 41.11966 36.33937
#
# Velocity S-wave (km/s) = 3.65727 4.17464 3.92449
# Velocity P-wave (km/s) = 6.09960 7.03542 6.58416
#
# Compressibility (1/GPa) = 0.02187947
#
# Stress axis : x y z
#
# Youngs Moduli (GPa) = 68.07190 78.97010 44.84472
#
# Poissons Ratio (x) = 0.11846 0.25345
# Poissons Ratio (y) = 0.10211 0.30202
# Poissons Ratio (z) = 0.38472 0.53185
#
# Static dielectric constant tensor:
#      x y z
#    x 1.980150 0.027260 -0.001980 
#    y 0.027260 1.944350 -0.004400 
#    z -0.001980 -0.004400 1.876980 
# 
# From -- ./inp_files/124728.got.cif
#   From: 2010.05.17/outbox.cif.g08.bks.cpg/sg2_63_cif.got.tgz:124728.got - 2010.06.03 11:33:40.
