data_PCOD9063103
_publ_section_title
;
Structure prediction by ZEFSAII (Michael W. Deem and Ramdas Pophale) SiO2 
 PCOD9063103
Probable space group: P -1
;
_chemical_formula_sum "Si O2"
_cell_formula_units_Z 16
_cell_length_a 8.862670
_cell_length_b 18.862143
_cell_length_c 17.665425
_cell_angle_alpha 152.049811
_cell_angle_beta 32.530017
_cell_angle_gamma 139.508206
_cell_volume 742.854582
_symmetry_space_group_name_H-M "P -1"
_symmetry_group_IT_number 2
_symmetry_cell_setting 'triclinic'
loop_
_space_group_symop_operation_xyz
x,y,z
-x,-y,-z
loop_
_atom_site_type_symbol
_atom_site_label
_atom_site_fract_x
_atom_site_fract_y
_atom_site_fract_z
Si Si1 0.402391 0.335374 0.594828
Si Si2 0.760133 0.574174 0.414109
Si Si3 0.906779 0.163522 0.723338
Si Si4 0.139540 0.849853 0.580629
Si Si5 0.780843 0.876808 0.299839
Si Si6 0.740039 0.607389 0.958779
Si Si7 0.935495 0.146785 0.213831
Si Si8 0.374901 0.349326 0.126493
O O1 0.362490 0.351751 0.538009
O O2 0.103822 0.283252 0.706889
O O3 0.625993 0.209518 0.396772
O O4 0.496776 0.496226 0.744255
O O5 0.500000 0.500000 0.500000
O O6 0.972591 0.692784 0.480783
O O7 0.964290 0.443501 0.184060
O O8 0.992377 0.174128 0.785037
O O9 0.000000 0.000000 0.500000
O O10 0.593440 0.217227 0.898346
O O11 0.479658 0.858299 0.452124
O O12 0.020584 0.889429 0.750366
O O13 0.113149 0.961222 0.625421
O O14 0.719348 0.775881 0.156658
O O15 0.725699 0.606686 0.873542
O O16 0.500000 0.500000 0.000000
O O17 0.136432 0.281539 0.220124
O O18 0.000000 0.000000 0.000000
#
# Coordination Sequence:
#
# PCOD9063103 Si02
#       8
#     2   2   2   2   2   2   2   2
#     4  12  24  45  67  99 139 178 229 279 337 406
#     4  12  25  44  69 102 139 180 226 285 345 403
#     4  12  25  43  68 103 137 176 229 284 336 399
#     4  11  24  44  69  98 135 183 223 283 340 409
#     4  11  24  43  70  99 136 177 233 278 338 402
#     4  12  23  43  70 102 136 182 234 276 339 410
#     4  12  25  46  69 101 136 181 225 278 353 413
#     4  12  26  43  70 102 139 181 226 283 343 407
#
# _framework density 21.538536000000001
#
# number of rings (size 3 to 8) (size 9 to 14) (size 15 to 20)
#    0.000    0.250    2.500    7.500    3.500    0.000 
#    0.000    1.875    0.000    0.000    0.000    0.000 
#    0.000    0.000    0.000    0.000    0.000    0.000 
#
# Total GULP energy -89447.335563 kJ/mol
# GULP energy per Si atom -5590.458473 kJ/mol
# Density = 2.148951 g / cm^3
# Si number density = 21.538536 Si / 1000 Ang^3
#
#
#
# Elastic Constant Matrix: (Units=GPa)
#
#
# Indices 1 2 3 4 5 6 
#
# 1 83.1823 24.7726 6.7939 1.2422 13.3135 -24.8937
# 2 24.7726 119.4240 9.8341 -17.6913 4.9138 -8.7146
# 3 6.7939 9.8341 71.4123 -3.7807 10.1823 -3.0264
# 4 1.2422 -17.6913 -3.7807 37.0297 5.1757 4.7208
# 5 13.3135 4.9138 10.1823 5.1757 39.4085 6.5845
# 6 -24.8937 -8.7146 -3.0264 4.7208 6.5845 24.9955
#
#
#
# Elastic Compliance Matrix: (Units=1/GPa)
#
#
# Indices 1 2 3 4 5 6 
#
# 1 0.021948 -0.002922 0.000703 -0.003665 -0.010840 0.024473
# 2 -0.002922 0.009753 -0.000738 0.004812 -0.000613 -0.000346
# 3 0.000703 -0.000738 0.014922 0.001396 -0.004724 0.003230
# 4 -0.003665 0.004812 0.001396 0.030819 -0.002611 -0.006937
# 5 -0.010840 -0.000613 -0.004724 -0.002611 0.034027 -0.020052
# 6 0.024473 -0.000346 0.003230 -0.006937 -0.020052 0.071243
#
#
# Mechanical properties :
#
#
# Convention : Reuss Voigt Hill
#
# Bulk Modulus (GPa) = 24.56373 39.64664 32.10519
# Shear Modulus (GPa) = 24.72843 35.79460 30.26152
#
# Velocity S-wave (km/s) = 3.39204 4.08105 3.75239
# Velocity P-wave (km/s) = 5.17403 6.37604 5.80622
#
# Compressibility (1/GPa) = 0.04071042
#
# Stress axis : x y z
#
# Youngs Moduli (GPa) = 45.56206 102.53090 67.01377
#
# Poissons Ratio (x) = 0.29958 -0.04711
# Poissons Ratio (y) = 0.13312 0.04944
# Poissons Ratio (z) = -0.03203 0.07564
#
# Static dielectric constant tensor:
#      x y z
#    x 1.735940 -0.000450 -0.001100 
#    y -0.000450 1.766440 0.029090 
#    z -0.001100 0.029090 1.797550 
# 
# From -- ./inp_files/244262.got.cif
#   From: 2010.05.17/outbox.cif.g08.bks.cpg/sg2_123_cif.got.tgz:244262.got - 2010.06.03 11:33:40.
