data_PCOD9063195
_publ_section_title
;
Structure prediction by ZEFSAII (Michael W. Deem and Ramdas Pophale) SiO2 
 PCOD9063195
Probable space group: P -1
;
_chemical_formula_sum "Si O2"
_cell_formula_units_Z 14
_cell_length_a 8.917275
_cell_length_b 10.087157
_cell_length_c 11.173625
_cell_angle_alpha 116.182760
_cell_angle_beta 75.929029
_cell_angle_gamma 57.477859
_cell_volume 587.610450
_symmetry_space_group_name_H-M "P -1"
_symmetry_group_IT_number 2
_symmetry_cell_setting 'triclinic'
loop_
_space_group_symop_operation_xyz
x,y,z
-x,-y,-z
loop_
_atom_site_type_symbol
_atom_site_label
_atom_site_fract_x
_atom_site_fract_y
_atom_site_fract_z
Si Si1 0.082029 0.403692 0.579507
Si Si2 0.456630 0.691654 0.029130
Si Si3 0.875487 0.940652 0.147734
Si Si4 0.320012 0.662990 0.810593
Si Si5 0.844909 0.984886 0.586547
Si Si6 0.544530 0.208224 0.520329
Si Si7 0.694876 0.807132 0.977485
O O1 0.341897 0.261961 0.514464
O O2 0.000000 0.500000 0.500000
O O3 0.922438 0.610837 0.780675
O O4 0.045919 0.253549 0.536018
O O5 0.223268 0.916801 0.226772
O O6 0.500000 0.500000 0.000000
O O7 0.458832 0.669294 0.876500
O O8 0.631494 0.701976 0.017121
O O9 0.805996 0.146843 0.185755
O O10 0.785392 0.008347 0.326611
O O11 0.732423 0.913133 0.102447
O O12 0.134089 0.729691 0.968315
O O13 0.465224 0.434805 0.627254
O O14 0.606079 0.138328 0.619088
O O15 0.000000 0.000000 0.500000
O O16 0.500000 0.000000 0.000000
#
# Coordination Sequence:
#
# PCOD9063195 Si02
#       7
#     2   2   2   2   2   2   2
#     4  12  28  47  76 109 149 198 252 305 373 446
#     4  12  24  44  71 101 144 190 238 301 365 435
#     4  11  24  43  72 105 145 191 241 309 362 448
#     4  11  24  44  70 108 145 189 250 297 375 435
#     4  12  27  48  75 111 150 193 249 307 375 447
#     4  12  25  48  73 109 153 193 247 306 377 437
#     4  12  24  46  70 106 142 190 251 306 363 436
#
# _framework density 23.825306000000001
#
# number of rings (size 3 to 8) (size 9 to 14) (size 15 to 20)
#    0.000    0.286    4.286    5.143    0.000    1.143 
#    0.000    2.143    0.000    0.000    0.000    0.000 
#    0.000    0.000    0.000    0.000    0.000    0.000 
#
# Total GULP energy -78305.266443 kJ/mol
# GULP energy per Si atom -5593.233317 kJ/mol
# Density = 2.377108 g / cm^3
# Si number density = 23.825306 Si / 1000 Ang^3
#
#
#
# Elastic Constant Matrix: (Units=GPa)
#
#
# Indices 1 2 3 4 5 6 
#
# 1 106.0976 25.5434 24.8648 -2.9072 8.4586 2.9575
# 2 25.5434 88.5548 -0.5710 5.9342 10.0380 4.5309
# 3 24.8648 -0.5710 119.8135 2.4727 14.5972 14.2987
# 4 -2.9072 5.9342 2.4727 34.4230 5.8251 2.5895
# 5 8.4586 10.0380 14.5972 5.8251 38.1221 3.1890
# 6 2.9575 4.5309 14.2987 2.5895 3.1890 28.3848
#
#
#
# Elastic Compliance Matrix: (Units=1/GPa)
#
#
# Indices 1 2 3 4 5 6 
#
# 1 0.010826 -0.003162 -0.002227 0.001758 -0.001023 0.000453
# 2 -0.003162 0.012747 0.001311 -0.001960 -0.002700 -0.001884
# 3 -0.002227 0.001311 0.009744 -0.000239 -0.003168 -0.004508
# 4 0.001758 -0.001960 -0.000239 0.030429 -0.004261 -0.002047
# 5 -0.001023 -0.002700 -0.003168 -0.004261 0.029096 -0.000747
# 6 0.000453 -0.001884 -0.004508 -0.002047 -0.000747 0.038025
#
#
# Mechanical properties :
#
#
# Convention : Reuss Voigt Hill
#
# Bulk Modulus (GPa) = 39.74669 46.01561 42.88115
# Shear Modulus (GPa) = 33.91913 37.82790 35.87352
#
# Velocity S-wave (km/s) = 3.77724 3.98894 3.88453
# Velocity P-wave (km/s) = 5.97847 6.36956 6.17711
#
# Compressibility (1/GPa) = 0.02515933
#
# Stress axis : x y z
#
# Youngs Moduli (GPa) = 92.37276 78.45145 102.63017
#
# Poissons Ratio (x) = 0.24807 0.22861
# Poissons Ratio (y) = 0.29209 -0.13456
# Poissons Ratio (z) = 0.20576 -0.10286
#
# Static dielectric constant tensor:
#      x y z
#    x 2.010870 -0.052780 -0.024780 
#    y -0.052780 1.899860 -0.022910 
#    z -0.024780 -0.022910 1.888320 
# 
# From -- ./inp_files/241963.got.cif
#   From: 2010.05.17/outbox.cif.g08.bks.cpg/sg2_121_cif.got.tgz:241963.got - 2010.06.03 11:33:40.
