data_PCOD9063043
_publ_section_title
;
Structure prediction by ZEFSAII (Michael W. Deem and Ramdas Pophale) SiO2 
 PCOD9063043
Probable space group: P -1
;
_chemical_formula_sum "Si O2"
_cell_formula_units_Z 15
_cell_length_a 17.935198
_cell_length_b 6.646787
_cell_length_c 7.478375
_cell_angle_alpha 117.745821
_cell_angle_beta 65.242154
_cell_angle_gamma 131.235998
_cell_volume 584.883137
_symmetry_space_group_name_H-M "P -1"
_symmetry_group_IT_number 2
_symmetry_cell_setting 'triclinic'
loop_
_space_group_symop_operation_xyz
x,y,z
-x,-y,-z
loop_
_atom_site_type_symbol
_atom_site_label
_atom_site_fract_x
_atom_site_fract_y
_atom_site_fract_z
Si Si1 0.885499 0.299438 0.799632
Si Si2 0.813446 0.697174 0.511461
Si Si3 0.602004 0.415773 0.434128
Si Si4 0.500000 0.000000 0.000000
Si Si5 0.730919 0.423054 0.866757
Si Si6 0.535295 0.829712 0.183965
Si Si7 0.103909 0.631187 0.763568
Si Si8 0.693575 0.844064 0.256094
O O1 0.807113 0.367358 0.855024
O O2 0.000981 0.549809 0.746860
O O3 0.855776 0.016856 0.619673
O O4 0.885834 0.266167 0.000747
O O5 0.716561 0.534886 0.413686
O O6 0.770590 0.553798 0.686892
O O7 0.894186 0.639566 0.346332
O O8 0.542750 0.310486 0.635463
O O9 0.613162 0.666525 0.419818
O O10 0.552677 0.134289 0.244231
O O11 0.618276 0.147428 0.867849
O O12 0.503326 0.282167 0.019247
O O13 0.726200 0.651329 0.073657
O O14 0.639556 0.902683 0.180252
O O15 0.206119 0.870637 0.663912
#
# Coordination Sequence:
#
# PCOD9063043 Si02
#       8
#     2   2   2   1   2   2   2   2
#     4  11  27  51  75 104 150 191 249 310 371 438
#     4  12  25  48  74 109 147 195 250 301 371 443
#     4  11  24  43  69 106 150 196 245 303 366 443
#     4  12  24  46  72 106 156 188 250 302 364 444
#     4  12  27  45  70 111 145 196 246 300 373 445
#     4  11  24  44  69 107 148 198 246 301 368 440
#     4  11  25  50  76 108 145 194 246 313 370 439
#     4  12  24  46  73 106 152 196 245 305 375 437
#
# _framework density 25.646149999999999
#
# number of rings (size 3 to 8) (size 9 to 14) (size 15 to 20)
#    0.000    0.533    5.333    2.400    1.867    2.667 
#    2.400    0.000    0.000    0.000    0.000    0.000 
#    0.000    0.000    0.000    0.000    0.000    0.000 
#
# Total GULP energy -83947.014168 kJ/mol
# GULP energy per Si atom -5596.467611 kJ/mol
# Density = 2.558778 g / cm^3
# Si number density = 25.646150 Si / 1000 Ang^3
#
#
#
# Elastic Constant Matrix: (Units=GPa)
#
#
# Indices 1 2 3 4 5 6 
#
# 1 211.2491 78.7345 20.8803 3.4817 -14.8857 22.7107
# 2 78.7345 126.0286 33.5711 -1.8814 2.2074 7.4858
# 3 20.8803 33.5711 87.5883 13.8779 3.6072 -5.0818
# 4 3.4817 -1.8814 13.8779 49.2018 -10.5731 3.7068
# 5 -14.8857 2.2074 3.6072 -10.5731 38.5051 -7.2551
# 6 22.7107 7.4858 -5.0818 3.7068 -7.2551 38.9227
#
#
#
# Elastic Compliance Matrix: (Units=1/GPa)
#
#
# Indices 1 2 3 4 5 6 
#
# 1 0.006713 -0.003969 -0.000370 0.000200 0.002389 -0.002776
# 2 -0.003969 0.011491 -0.003673 0.001474 -0.001597 -0.000812
# 3 -0.000370 -0.003673 0.013899 -0.004674 -0.001988 0.002811
# 4 0.000200 0.001474 -0.004674 0.023218 0.006425 -0.002024
# 5 0.002389 -0.001597 -0.001988 0.006425 0.029607 0.003560
# 6 -0.002776 -0.000812 0.002811 -0.002024 0.003560 0.028691
#
#
# Mechanical properties :
#
#
# Convention : Reuss Voigt Hill
#
# Bulk Modulus (GPa) = 62.19709 76.80421 69.50065
# Shear Modulus (GPa) = 37.03611 44.77125 40.90368
#
# Velocity S-wave (km/s) = 3.80428 4.18273 3.99798
# Velocity P-wave (km/s) = 6.60314 7.30340 6.96208
#
# Compressibility (1/GPa) = 0.01607792
#
# Stress axis : x y z
#
# Youngs Moduli (GPa) = 148.95931 87.02375 71.94995
#
# Poissons Ratio (x) = 0.34543 0.02663
# Poissons Ratio (y) = 0.59128 0.26427
# Poissons Ratio (z) = 0.05514 0.31963
#
# Static dielectric constant tensor:
#      x y z
#    x 2.129390 -0.073270 0.116480 
#    y -0.073270 2.137310 0.031650 
#    z 0.116480 0.031650 2.163960 
# 
# From -- ./inp_files/35471.got.cif
#   From: 2010.05.17/outbox.cif.g08.bks.cpg/sg2_18_cif.got.tgz:35471.got - 2010.06.03 11:33:40.
