data_PCOD9063793
_publ_section_title
;
Structure prediction by ZEFSAII (Michael W. Deem and Ramdas Pophale) SiO2 
 PCOD9063793
Probable space group: P -1
;
_chemical_formula_sum "Si O2"
_cell_formula_units_Z 13
_cell_length_a 9.571510
_cell_length_b 9.694271
_cell_length_c 5.366658
_cell_angle_alpha 88.794076
_cell_angle_beta 98.667857
_cell_angle_gamma 70.114819
_cell_volume 461.524416
_symmetry_space_group_name_H-M "P -1"
_symmetry_group_IT_number 2
_symmetry_cell_setting 'triclinic'
loop_
_space_group_symop_operation_xyz
x,y,z
-x,-y,-z
loop_
_atom_site_type_symbol
_atom_site_label
_atom_site_fract_x
_atom_site_fract_y
_atom_site_fract_z
Si Si1 0.976834 0.113097 0.712634
Si Si2 0.279544 0.245648 0.479616
Si Si3 0.721915 0.081928 0.911697
Si Si4 0.990874 0.665132 0.967795
Si Si5 0.500000 0.000000 0.500000
Si Si6 0.514235 0.316285 0.228197
Si Si7 0.277625 0.520373 0.777735
O O1 0.799422 0.155282 0.723273
O O2 0.999495 0.269486 0.759593
O O3 0.000000 0.000000 0.500000
O O4 0.118323 0.022714 0.931207
O O5 0.341262 0.090992 0.638997
O O6 0.448441 0.221851 0.400851
O O7 0.241342 0.397049 0.611829
O O8 0.153904 0.259005 0.242891
O O9 0.616649 0.008405 0.752838
O O10 0.619150 0.205210 0.062585
O O11 0.000000 0.500000 0.000000
O O12 0.135586 0.652633 0.838367
O O13 0.610571 0.414723 0.338141
O O14 0.369465 0.428896 0.043287
#
# Coordination Sequence:
#
# PCOD9063793 Si02
#       7
#     2   2   2   2   1   2   2
#     4  11  27  48  75 104 149 202 251 306 379 450
#     4  12  26  45  74 110 146 200 244 309 385 438
#     4  11  25  48  71 106 145 194 252 313 370 450
#     4  12  25  49  74 109 152 196 253 306 377 458
#     4  12  26  46  76 104 156 188 258 314 370 436
#     4  11  24  44  74 104 147 189 248 308 373 455
#     4  11  24  46  72 106 152 189 246 308 380 453
#
# _framework density 28.167525000000001
#
# number of rings (size 3 to 8) (size 9 to 14) (size 15 to 20)
#    0.000    0.615    6.154    0.923    2.154    4.308 
#    0.000    0.000    0.000    0.000    0.000    0.000 
#    0.000    0.000    0.000    0.000    0.000    0.000 
#
# Total GULP energy -72617.096666 kJ/mol
# GULP energy per Si atom -5585.930513 kJ/mol
# Density = 2.810341 g / cm^3
# Si number density = 28.167525 Si / 1000 Ang^3
#
#
#
# Elastic Constant Matrix: (Units=GPa)
#
#
# Indices 1 2 3 4 5 6 
#
# 1 141.8365 28.9092 38.1736 4.7203 12.7824 -9.4239
# 2 28.9092 130.0032 40.1468 9.3012 21.1053 -14.7011
# 3 38.1736 40.1468 123.2708 23.8752 35.6231 8.7378
# 4 4.7203 9.3012 23.8752 67.3725 -2.4263 18.7101
# 5 12.7824 21.1053 35.6231 -2.4263 51.7515 17.7048
# 6 -9.4239 -14.7011 8.7378 18.7101 17.7048 45.5204
#
#
#
# Elastic Compliance Matrix: (Units=1/GPa)
#
#
# Indices 1 2 3 4 5 6 
#
# 1 0.008014 -0.000644 -0.001997 -0.000509 -0.001229 0.002522
# 2 -0.000644 0.010126 -0.001452 -0.002895 -0.005401 0.006706
# 3 -0.001997 -0.001452 0.012445 -0.004935 -0.008406 0.002027
# 4 -0.000509 -0.002895 -0.004935 0.020872 0.009977 -0.012553
# 5 -0.001229 -0.005401 -0.008406 0.009977 0.034163 -0.017773
# 6 0.002522 0.006706 0.002027 -0.012553 -0.017773 0.036339
#
#
# Mechanical properties :
#
#
# Convention : Reuss Voigt Hill
#
# Bulk Modulus (GPa) = 44.64632 67.72996 56.18814
# Shear Modulus (GPa) = 36.33350 52.12094 44.22722
#
# Velocity S-wave (km/s) = 3.59542 4.30628 3.96681
# Velocity P-wave (km/s) = 5.75507 6.98735 6.40093
#
# Compressibility (1/GPa) = 0.02239826
#
# Stress axis : x y z
#
# Youngs Moduli (GPa) = 124.77534 98.75385 80.35420
#
# Poissons Ratio (x) = 0.06364 0.16047
# Poissons Ratio (y) = 0.08041 0.11669
# Poissons Ratio (z) = 0.24918 0.14341
#
# Static dielectric constant tensor:
#      x y z
#    x 2.192660 -0.609860 -0.200560 
#    y -0.609860 0.608480 0.093300 
#    z -0.200560 0.093300 2.225860 
# 
# From -- ./inp_files/28767.got.cif
#   From: 2010.05.17/outbox.cif.g08.bks.cpg/sg2_15_cif.got.tgz:28767.got - 2010.06.03 11:33:40.
