data_PCOD9063788
_publ_section_title
;
Structure prediction by ZEFSAII (Michael W. Deem and Ramdas Pophale) SiO2 
 PCOD9063788
Probable space group: P -1
;
_chemical_formula_sum "Si O2"
_cell_formula_units_Z 12
_cell_length_a 15.717327
_cell_length_b 9.652390
_cell_length_c 13.249088
_cell_angle_alpha 46.037428
_cell_angle_beta 27.592858
_cell_angle_gamma 34.061875
_cell_volume 515.205720
_symmetry_space_group_name_H-M "P -1"
_symmetry_group_IT_number 2
_symmetry_cell_setting 'triclinic'
loop_
_space_group_symop_operation_xyz
x,y,z
-x,-y,-z
loop_
_atom_site_type_symbol
_atom_site_label
_atom_site_fract_x
_atom_site_fract_y
_atom_site_fract_z
Si Si1 0.996833 0.163975 0.833688
Si Si2 0.736700 0.599553 0.252781
Si Si3 0.468997 0.559053 0.120826
Si Si4 0.256464 0.052784 0.204276
Si Si5 0.734060 0.140946 0.495521
Si Si6 0.210008 0.389937 0.593007
O O1 0.150644 0.240541 0.669557
O O2 0.727911 0.414635 0.971456
O O3 0.097845 0.019035 0.694952
O O4 0.000000 0.000000 0.000000
O O5 0.729029 0.374516 0.392139
O O6 0.529110 0.765726 0.304231
O O7 0.671996 0.734636 0.360371
O O8 0.000000 0.500000 0.000000
O O9 0.313423 0.850234 0.165013
O O10 0.359682 0.443532 0.346012
O O11 0.500000 0.500000 0.000000
O O12 0.186675 0.000351 0.410614
O O13 0.043344 0.336355 0.254998
O O14 0.500000 0.000000 0.000000
#
# Coordination Sequence:
#
# PCOD9063788 Si02
#       6
#     2   2   2   2   2   2
#     4  12  28  48  70 107 146 183 235 294 349 413
#     4  11  24  44  74 103 136 188 235 281 351 415
#     4  12  28  47  73 107 141 184 236 290 355 418
#     4  12  25  48  74 103 143 187 234 290 352 418
#     4  11  26  45  71 104 144 180 236 292 340 422
#     4  12  26  47  73 103 144 187 233 289 351 419
#
# _framework density 23.291665999999999
#
# number of rings (size 3 to 8) (size 9 to 14) (size 15 to 20)
#    0.000    0.333    3.333    4.500    7.000    5.333 
#    0.000    0.000    0.000    0.000    0.000    0.000 
#    0.000    0.000    0.000    0.000    0.000    0.000 
#
# Total GULP energy -67298.455884 kJ/mol
# GULP energy per Si atom -5608.204657 kJ/mol
# Density = 2.323865 g / cm^3
# Si number density = 23.291666 Si / 1000 Ang^3
#
#
#
# Elastic Constant Matrix: (Units=GPa)
#
#
# Indices 1 2 3 4 5 6 
#
# 1 119.0966 21.1597 31.4977 7.3262 -0.3192 10.5222
# 2 21.1597 45.4127 -4.0051 15.1147 3.5290 -8.3366
# 3 31.4977 -4.0051 119.0013 9.8912 -7.9137 6.0028
# 4 7.3262 15.1147 9.8912 30.2638 0.7517 -6.6442
# 5 -0.3192 3.5290 -7.9137 0.7517 61.8120 5.3674
# 6 10.5222 -8.3366 6.0028 -6.6442 5.3674 44.5597
#
#
#
# Elastic Compliance Matrix: (Units=1/GPa)
#
#
# Indices 1 2 3 4 5 6 
#
# 1 0.010438 -0.005935 -0.002841 0.000672 0.000292 -0.003127
# 2 -0.005935 0.030730 0.003415 -0.013932 -0.001596 0.004805
# 3 -0.002841 0.003415 0.009755 -0.004411 0.001163 -0.000802
# 4 0.000672 -0.013932 -0.004411 0.042218 -0.000644 0.004202
# 5 0.000292 -0.001596 0.001163 -0.000644 0.016655 -0.002626
# 6 -0.003127 0.004805 -0.000802 0.004202 -0.002626 0.025130
#
#
# Mechanical properties :
#
#
# Convention : Reuss Voigt Hill
#
# Bulk Modulus (GPa) = 24.87560 42.31280 33.59420
# Shear Modulus (GPa) = 31.43690 42.98433 37.21061
#
# Velocity S-wave (km/s) = 3.67782 4.30057 4.00133
# Velocity P-wave (km/s) = 5.36082 6.54720 5.98348
#
# Compressibility (1/GPa) = 0.04020003
#
# Stress axis : x y z
#
# Youngs Moduli (GPa) = 95.80292 32.54173 102.51609
#
# Poissons Ratio (x) = 0.19312 0.29127
# Poissons Ratio (y) = 0.56855 -0.35004
# Poissons Ratio (z) = 0.27219 -0.11111
#
# Static dielectric constant tensor:
#      x y z
#    x 1.864800 -0.022570 -0.004230 
#    y -0.022570 1.842120 0.032300 
#    z -0.004230 0.032300 1.859180 
# 
# From -- ./inp_files/149808.got.cif
#   From: 2010.05.17/outbox.cif.g08.bks.cpg/sg2_75_cif.got.tgz:149808.got - 2010.06.03 11:33:40.
