data_PCOD9063163
_publ_section_title
;
Structure prediction by ZEFSAII (Michael W. Deem and Ramdas Pophale) SiO2 
 PCOD9063163
Probable space group: P -1
;
_chemical_formula_sum "Si O2"
_cell_formula_units_Z 10
_cell_length_a 13.920603
_cell_length_b 4.711462
_cell_length_c 7.475606
_cell_angle_alpha 110.047616
_cell_angle_beta 52.826385
_cell_angle_gamma 98.922428
_cell_volume 366.114023
_symmetry_space_group_name_H-M "P -1"
_symmetry_group_IT_number 2
_symmetry_cell_setting 'triclinic'
loop_
_space_group_symop_operation_xyz
x,y,z
-x,-y,-z
loop_
_atom_site_type_symbol
_atom_site_label
_atom_site_fract_x
_atom_site_fract_y
_atom_site_fract_z
Si Si1 0.101739 0.546937 0.667515
Si Si2 0.896187 0.268115 0.700890
Si Si3 0.497932 0.898852 0.187027
Si Si4 0.755785 0.924428 0.355373
Si Si5 0.353667 0.587391 0.869724
O O1 0.124191 0.580829 0.437458
O O2 0.178021 0.261998 0.599891
O O3 0.959824 0.489886 0.816864
O O4 0.148540 0.844904 0.771236
O O5 0.764359 0.197738 0.897834
O O6 0.000000 0.000000 0.500000
O O7 0.361689 0.876976 0.399683
O O8 0.555659 0.191833 0.276702
O O9 0.500000 0.000000 0.000000
O O10 0.421607 0.400245 0.913089
O O11 0.701857 0.675377 0.237743
#
# Coordination Sequence:
#
# PCOD9063163 Si02
#       5
#     2   2   2   2   2
#     4  11  24  43  71  94 136 177 222 272 331 389
#     4  11  25  46  69  97 135 178 230 272 320 397
#     4  12  25  45  71  99 135 175 223 270 333 402
#     4  12  24  45  68 102 138 170 219 278 337 395
#     4  12  27  43  70 101 135 175 220 276 337 389
#
# _framework density 27.313897000000001
#
# number of rings (size 3 to 8) (size 9 to 14) (size 15 to 20)
#    0.000    0.400    2.000    6.600    5.600    1.600 
#    0.000    0.000    0.000    0.000    0.000    0.000 
#    0.000    0.000    0.000    0.000    0.000    0.000 
#
# Total GULP energy -56097.113061 kJ/mol
# GULP energy per Si atom -5609.711306 kJ/mol
# Density = 2.725173 g / cm^3
# Si number density = 27.313897 Si / 1000 Ang^3
#
#
#
# Elastic Constant Matrix: (Units=GPa)
#
#
# Indices 1 2 3 4 5 6 
#
# 1 191.6983 48.5134 44.5693 -3.8568 -16.6160 -12.7747
# 2 48.5134 164.1677 11.8663 4.5016 -16.9689 8.0656
# 3 44.5693 11.8663 59.2262 6.6345 -27.7495 -5.3579
# 4 -3.8568 4.5016 6.6345 42.2296 5.5583 -1.9165
# 5 -16.6160 -16.9689 -27.7495 5.5583 46.1647 0.3406
# 6 -12.7747 8.0656 -5.3579 -1.9165 0.3406 63.9322
#
#
#
# Elastic Compliance Matrix: (Units=1/GPa)
#
#
# Indices 1 2 3 4 5 6 
#
# 1 0.007063 -0.001985 -0.006013 0.002129 -0.002067 0.001233
# 2 -0.001985 0.006978 0.001574 -0.001622 0.003001 -0.001210
# 3 -0.006013 0.001574 0.030242 -0.007737 0.017518 0.000809
# 4 0.002129 -0.001622 -0.007737 0.026307 -0.007654 0.000811
# 5 -0.002067 0.003001 0.017518 -0.007654 0.033470 0.000269
# 6 0.001233 -0.001210 0.000809 0.000811 0.000269 0.016131
#
#
# Mechanical properties :
#
#
# Convention : Reuss Voigt Hill
#
# Bulk Modulus (GPa) = 31.81175 69.44335 50.62755
# Shear Modulus (GPa) = 34.83905 51.14150 42.99027
#
# Velocity S-wave (km/s) = 3.57530 4.33177 3.97159
# Velocity P-wave (km/s) = 5.35870 7.10622 6.29341
#
# Compressibility (1/GPa) = 0.03143493
#
# Stress axis : x y z
#
# Youngs Moduli (GPa) = 141.59017 143.30157 33.06708
#
# Poissons Ratio (x) = 0.28447 0.19882
# Poissons Ratio (y) = 0.28107 -0.05205
# Poissons Ratio (z) = 0.85134 -0.22557
#
# Static dielectric constant tensor:
#      x y z
#    x 2.111750 0.134790 0.093310 
#    y 0.134790 2.181620 0.111440 
#    z 0.093310 0.111440 2.129020 
# 
# From -- ./inp_files/21852.got.cif
#   From: 2010.05.17/outbox.cif.g08.bks.cpg/sg2_11_cif.got.tgz:21852.got - 2010.06.03 11:33:40.
