data_PCOD9063155
_publ_section_title
;
Structure prediction by ZEFSAII (Michael W. Deem and Ramdas Pophale) SiO2 
 PCOD9063155
Probable space group: P -1
;
_chemical_formula_sum "Si O2"
_cell_formula_units_Z 14
_cell_length_a 11.657177
_cell_length_b 11.556380
_cell_length_c 10.821364
_cell_angle_alpha 57.624559
_cell_angle_beta 41.106433
_cell_angle_gamma 38.988246
_cell_volume 598.557353
_symmetry_space_group_name_H-M "P -1"
_symmetry_group_IT_number 2
_symmetry_cell_setting 'triclinic'
loop_
_space_group_symop_operation_xyz
x,y,z
-x,-y,-z
loop_
_atom_site_type_symbol
_atom_site_label
_atom_site_fract_x
_atom_site_fract_y
_atom_site_fract_z
Si Si1 0.853799 0.441052 0.268914
Si Si2 0.308160 0.605483 0.987980
Si Si3 0.815852 0.978791 0.790589
Si Si4 0.324148 0.339443 0.960781
Si Si5 0.883316 0.696856 0.423998
Si Si6 0.861485 0.956043 0.471799
Si Si7 0.512681 0.705865 0.586061
O O1 0.712348 0.600942 0.187903
O O2 0.685368 0.507740 0.485791
O O3 0.995708 0.240249 0.203296
O O4 0.069981 0.415849 0.159604
O O5 0.368436 0.455570 0.928195
O O6 0.351720 0.722366 0.812132
O O7 0.500000 0.500000 0.000000
O O8 0.055728 0.695912 0.197192
O O9 0.839019 0.965227 0.631370
O O10 0.533801 0.125784 0.951796
O O11 0.906349 0.073440 0.720956
O O12 0.845066 0.817781 0.501222
O O13 0.662577 0.751304 0.497351
O O14 0.000000 0.500000 0.500000
O O15 0.653802 0.149620 0.467004
#
# Coordination Sequence:
#
# PCOD9063155 Si02
#       7
#     2   2   2   2   2   2   2
#     4  11  24  45  74 107 147 192 239 306 364 423
#     4  12  26  42  73 107 141 198 240 291 368 435
#     4  11  24  43  71 107 144 192 246 296 366 431
#     4  11  24  45  70 109 146 186 252 296 360 438
#     4  12  25  49  71 104 146 193 245 295 363 435
#     4  11  26  44  71 109 143 193 246 301 363 432
#     4  12  25  48  75 105 153 189 244 306 357 435
#
# _framework density 23.389571
#
# number of rings (size 3 to 8) (size 9 to 14) (size 15 to 20)
#    0.000    0.571    4.286    3.429    4.000    1.714 
#    0.000    1.429    0.000    0.000    0.000    0.000 
#    0.000    0.000    0.000    0.000    0.000    0.000 
#
# Total GULP energy -78224.262585 kJ/mol
# GULP energy per Si atom -5587.447327 kJ/mol
# Density = 2.333634 g / cm^3
# Si number density = 23.389571 Si / 1000 Ang^3
#
#
#
# Elastic Constant Matrix: (Units=GPa)
#
#
# Indices 1 2 3 4 5 6 
#
# 1 79.7815 26.7573 28.4102 21.4945 -29.7610 12.9196
# 2 26.7573 69.0250 7.9233 0.7492 -3.9369 -6.1277
# 3 28.4102 7.9233 102.7592 -10.1079 -4.5316 1.2272
# 4 21.4945 0.7492 -10.1079 18.2771 0.7715 -4.5511
# 5 -29.7610 -3.9369 -4.5316 0.7715 28.2151 -7.9268
# 6 12.9196 -6.1277 1.2272 -4.5511 -7.9268 29.9895
#
#
#
# Elastic Compliance Matrix: (Units=1/GPa)
#
#
# Indices 1 2 3 4 5 6 
#
# 1 -0.289636 0.093977 0.103436 0.439521 -0.248230 0.140835
# 2 0.093977 -0.015355 -0.034681 -0.143011 0.083576 -0.041816
# 3 0.103436 -0.034681 -0.026478 -0.151035 0.090193 -0.049644
# 4 0.439521 -0.143011 -0.151035 -0.606722 0.378553 -0.204405
# 5 -0.248230 0.083576 0.090193 0.378553 -0.173534 0.131905
# 6 0.140835 -0.041816 -0.049644 -0.204405 0.131905 -0.029995
#
#
# Mechanical properties :
#
#
# Convention : Reuss Voigt Hill
#
# Bulk Modulus (GPa) = -166.54401 41.97192 -62.28605
# Shear Modulus (GPa) = -3.40325 27.86133 12.22904
#
# Velocity S-wave (km/s) = -1.20755 3.45510 2.28905
# Velocity P-wave (km/s) = 8.56173 5.82243 4.43861
#
# Compressibility (1/GPa) = -0.00600442
#
# Stress axis : x y z
#
# Youngs Moduli (GPa) = -3.45261 -65.12701 -37.76729
#
# Poissons Ratio (x) = 6.12045 3.90648
# Poissons Ratio (y) = 0.32447 -1.30979
# Poissons Ratio (z) = 0.35712 -2.25865
#
# Static dielectric constant tensor:
#      x y z
#    x 1.874360 0.035850 -0.026460 
#    y 0.035850 1.936250 0.000700 
#    z -0.026460 0.000700 1.988340 
# 
# From -- ./inp_files/425382.got.cif
#   From: 2010.05.17/outbox.cif.g08.bks.cpg/sg2_213_cif.got.tgz:425382.got - 2010.06.03 11:33:40.
