data_PCOD9063447
_publ_section_title
;
Structure prediction by ZEFSAII (Michael W. Deem and Ramdas Pophale) SiO2 
 PCOD9063447
Probable space group: P -1
;
_chemical_formula_sum "Si O2"
_cell_formula_units_Z 14
_cell_length_a 5.150810
_cell_length_b 5.636317
_cell_length_c 23.240764
_cell_angle_alpha 77.646817
_cell_angle_beta 122.408259
_cell_angle_gamma 95.787017
_cell_volume 556.363244
_symmetry_space_group_name_H-M "P -1"
_symmetry_group_IT_number 2
_symmetry_cell_setting 'triclinic'
loop_
_space_group_symop_operation_xyz
x,y,z
-x,-y,-z
loop_
_atom_site_type_symbol
_atom_site_label
_atom_site_fract_x
_atom_site_fract_y
_atom_site_fract_z
Si Si1 0.071320 0.259179 0.707972
Si Si2 0.430522 0.035478 0.279076
Si Si3 0.090952 0.823804 0.573029
Si Si4 0.439437 0.425893 0.431624
Si Si5 0.040238 0.871124 0.862011
Si Si6 0.165401 0.756067 0.010703
Si Si7 0.747534 0.595494 0.157937
O O1 0.893487 0.031007 0.726088
O O2 0.799991 0.387955 0.634481
O O3 0.360810 0.186955 0.707735
O O4 0.191324 0.420375 0.766229
O O5 0.645065 0.135410 0.349936
O O6 0.313975 0.170617 0.199617
O O7 0.255023 0.604122 0.568005
O O8 0.777690 0.806859 0.573642
O O9 0.000000 0.000000 0.500000
O O10 0.500000 0.500000 0.500000
O O11 0.200227 0.662425 0.852514
O O12 0.047071 0.167522 0.846077
O O13 0.208052 0.814033 0.945416
O O14 0.426664 0.700098 0.091161
O O15 0.000000 0.500000 0.000000
O O16 0.000000 0.000000 0.000000
#
# Coordination Sequence:
#
# PCOD9063447 Si02
#       7
#     2   2   2   2   2   2   2
#     4  11  24  44  68  99 135 178 229 289 350 418
#     4  11  24  44  68  99 135 178 229 289 350 418
#     4  12  24  41  65  95 133 179 230 290 350 418
#     4  12  24  41  65  95 133 179 230 290 350 418
#     4  11  24  44  68  98 138 186 234 289 351 420
#     4  12  24  40  66 100 138 184 235 292 351 418
#     4  11  24  44  68  98 138 186 234 289 351 420
#
# _framework density 25.163419000000001
#
# number of rings (size 3 to 8) (size 9 to 14) (size 15 to 20)
#    0.000    0.571    0.000    8.571    0.000    5.714 
#    0.000    0.000    0.000    0.000    0.000    0.000 
#    0.000    0.000    0.000    0.000    0.000    0.000 
#
# Total GULP energy -78042.247117 kJ/mol
# GULP energy per Si atom -5574.446223 kJ/mol
# Density = 2.510615 g / cm^3
# Si number density = 25.163419 Si / 1000 Ang^3
#
#
#
# Elastic Constant Matrix: (Units=GPa)
#
#
# Indices 1 2 3 4 5 6 
#
# 1 59.8659 37.7438 15.4344 3.0892 5.4653 -16.6761
# 2 37.7438 80.7612 22.3028 7.7854 -0.0263 -34.1399
# 3 15.4344 22.3028 193.3387 15.4817 23.7765 -40.4554
# 4 3.0892 7.7854 15.4817 67.5689 -9.2479 5.3998
# 5 5.4653 -0.0263 23.7765 -9.2479 45.6176 6.3516
# 6 -16.6761 -34.1399 -40.4554 5.3998 6.3516 54.0657
#
#
#
# Elastic Compliance Matrix: (Units=1/GPa)
#
#
# Indices 1 2 3 4 5 6 
#
# 1 0.024099 -0.010814 -0.000079 -0.000330 -0.003050 0.000937
# 2 -0.010814 0.022783 0.001444 -0.003750 -0.001978 0.012738
# 3 -0.000079 0.001444 0.007537 -0.003260 -0.005625 0.007514
# 4 -0.000330 -0.003750 -0.003260 0.017447 0.006303 -0.007392
# 5 -0.003050 -0.001978 -0.005625 0.006303 0.027931 -0.010309
# 6 0.000937 0.012738 0.007514 -0.007392 -0.010309 0.034400
#
#
# Mechanical properties :
#
#
# Convention : Reuss Voigt Hill
#
# Bulk Modulus (GPa) = 28.15209 53.88086 41.01647
# Shear Modulus (GPa) = 30.31500 50.68274 40.49887
#
# Velocity S-wave (km/s) = 3.47468 4.49279 4.01613
# Velocity P-wave (km/s) = 5.22588 6.95503 6.15151
#
# Compressibility (1/GPa) = 0.03552135
#
# Stress axis : x y z
#
# Youngs Moduli (GPa) = 41.49621 43.89227 132.67840
#
# Poissons Ratio (x) = 0.47465 0.01047
# Poissons Ratio (y) = 0.44874 -0.19161
# Poissons Ratio (z) = 0.00327 -0.06339
#
# Static dielectric constant tensor:
#      x y z
#    x 2.114640 0.181120 -0.071450 
#    y 0.181120 1.976660 -0.028810 
#    z -0.071450 -0.028810 2.140910 
# 
# From -- ./inp_files/7904.got.cif
#   From: 2010.05.17/outbox.cif.g08.bks.cpg/sg2_4_cif.got.tgz:7904.got - 2010.06.03 11:33:40.
