data_PCOD9063249
_publ_section_title
;
Structure prediction by ZEFSAII (Michael W. Deem and Ramdas Pophale) SiO2 
 PCOD9063249
Probable space group: P -1
;
_chemical_formula_sum "Si O2"
_cell_formula_units_Z 16
_cell_length_a 8.753523
_cell_length_b 12.280575
_cell_length_c 8.830421
_cell_angle_alpha 48.696522
_cell_angle_beta 87.525738
_cell_angle_gamma 99.194270
_cell_volume 689.656988
_symmetry_space_group_name_H-M "P -1"
_symmetry_group_IT_number 2
_symmetry_cell_setting 'triclinic'
loop_
_space_group_symop_operation_xyz
x,y,z
-x,-y,-z
loop_
_atom_site_type_symbol
_atom_site_label
_atom_site_fract_x
_atom_site_fract_y
_atom_site_fract_z
Si Si1 0.425129 0.361250 0.239208
Si Si2 0.350037 0.517041 0.394973
Si Si3 0.099629 0.467406 0.704599
Si Si4 0.843981 0.728711 0.877530
Si Si5 0.754897 0.240490 0.976865
Si Si6 0.372514 0.847697 0.607113
Si Si7 0.052879 0.769061 0.548567
Si Si8 0.054128 0.985630 0.840765
O O1 0.346547 0.426065 0.322961
O O2 0.301719 0.252634 0.232052
O O3 0.544595 0.266605 0.375988
O O4 0.500000 0.500000 0.000000
O O5 0.500000 0.500000 0.500000
O O6 0.194381 0.455709 0.559448
O O7 0.356646 0.688967 0.189778
O O8 0.083612 0.634117 0.573932
O O9 0.926387 0.355805 0.834638
O O10 0.198613 0.417570 0.881836
O O11 0.926926 0.864374 0.858263
O O12 0.968868 0.707426 0.765610
O O13 0.693863 0.233833 0.157187
O O14 0.790088 0.078082 0.100309
O O15 0.224057 0.870147 0.497603
O O16 0.500000 0.000000 0.500000
O O17 0.945696 0.861558 0.384592
O O18 0.000000 0.000000 0.000000
#
# Coordination Sequence:
#
# PCOD9063249 Si02
#       8
#     2   2   2   2   2   2   2   2
#     4  12  25  45  75 106 147 198 246 304 365 437
#     4  12  25  45  73 110 154 188 240 308 382 439
#     4  11  24  44  76 110 144 187 245 321 370 429
#     4  11  24  43  73 108 143 192 256 302 359 445
#     4  11  25  48  70 108 144 191 248 308 364 437
#     4  12  26  45  72 106 149 194 250 303 358 443
#     4  12  23  45  75 106 143 196 254 300 367 441
#     4  11  25  44  72 106 148 186 242 310 370 435
#
# _framework density 23.199940999999999
#
# number of rings (size 3 to 8) (size 9 to 14) (size 15 to 20)
#    0.000    0.500    3.750    5.625    1.750    3.000 
#    0.000    0.000    0.000    3.000    0.000    0.000 
#    0.000    0.000    0.000    0.000    0.000    0.000 
#
# Total GULP energy -89521.906837 kJ/mol
# GULP energy per Si atom -5595.119177 kJ/mol
# Density = 2.314714 g / cm^3
# Si number density = 23.199941 Si / 1000 Ang^3
#
#
#
# Elastic Constant Matrix: (Units=GPa)
#
#
# Indices 1 2 3 4 5 6 
#
# 1 74.2750 31.3652 50.9287 5.5524 12.9396 -14.8453
# 2 31.3652 116.9346 54.4539 17.0386 -7.2373 -29.9666
# 3 50.9287 54.4539 140.1542 8.0710 16.7362 -17.6833
# 4 5.5524 17.0386 8.0710 41.3617 -8.8679 6.2609
# 5 12.9396 -7.2373 16.7362 -8.8679 56.6298 -5.3309
# 6 -14.8453 -29.9666 -17.6833 6.2609 -5.3309 37.2271
#
#
#
# Elastic Compliance Matrix: (Units=1/GPa)
#
#
# Indices 1 2 3 4 5 6 
#
# 1 0.019285 -0.001538 -0.005458 -0.002099 -0.002962 0.003789
# 2 -0.001538 0.014592 -0.003812 -0.005963 0.003427 0.010816
# 3 -0.005458 -0.003812 0.010870 -0.000302 -0.002537 -0.000394
# 4 -0.002099 -0.005963 -0.000302 0.029255 0.003427 -0.010210
# 5 -0.002962 0.003427 -0.002537 0.003427 0.020314 0.002705
# 6 0.003789 0.010816 -0.000394 -0.010210 0.002705 0.038997
#
#
# Mechanical properties :
#
#
# Convention : Reuss Voigt Hill
#
# Bulk Modulus (GPa) = 43.22891 67.20661 55.21776
# Shear Modulus (GPa) = 30.74292 40.01812 35.38052
#
# Velocity S-wave (km/s) = 3.64418 4.15773 3.90939
# Velocity P-wave (km/s) = 6.03162 7.21666 6.65059
#
# Compressibility (1/GPa) = 0.02313267
#
# Stress axis : x y z
#
# Youngs Moduli (GPa) = 51.85280 68.52982 91.99739
#
# Poissons Ratio (x) = 0.10539 0.50209
# Poissons Ratio (y) = 0.07974 0.35068
# Poissons Ratio (z) = 0.28300 0.26123
#
# Static dielectric constant tensor:
#      x y z
#    x 1.911930 0.027080 -0.017270 
#    y 0.027080 1.843200 -0.007470 
#    z -0.017270 -0.007470 1.834880 
# 
# From -- ./inp_files/184134.got.cif
#   From: 2010.05.17/outbox.cif.g08.bks.cpg/sg2_93_cif.got.tgz:184134.got - 2010.06.03 11:33:40.
