data_PCOD9063228
_publ_section_title
;
Structure prediction by ZEFSAII (Michael W. Deem and Ramdas Pophale) SiO2 
 PCOD9063228
Probable space group: P -1
;
_chemical_formula_sum "Si O2"
_cell_formula_units_Z 12
_cell_length_a 9.654408
_cell_length_b 27.362150
_cell_length_c 25.080842
_cell_angle_alpha 9.696771
_cell_angle_beta 26.179728
_cell_angle_gamma 25.868361
_cell_volume 481.929465
_symmetry_space_group_name_H-M "P -1"
_symmetry_group_IT_number 2
_symmetry_cell_setting 'triclinic'
loop_
_space_group_symop_operation_xyz
x,y,z
-x,-y,-z
loop_
_atom_site_type_symbol
_atom_site_label
_atom_site_fract_x
_atom_site_fract_y
_atom_site_fract_z
Si Si1 0.311188 0.047814 0.792582
Si Si2 0.262028 0.453264 0.585306
Si Si3 0.182337 0.412002 0.228082
Si Si4 0.772116 0.277122 0.306587
Si Si5 0.815832 0.244453 0.042114
Si Si6 0.508814 0.380556 0.461014
O O1 0.598400 0.144343 0.557271
O O2 0.383376 0.139497 0.728827
O O3 0.989501 0.247505 0.665350
O O4 0.323922 0.700165 0.159963
O O5 0.500000 0.500000 0.500000
O O6 0.440247 0.339819 0.590997
O O7 0.042595 0.246735 0.910326
O O8 0.884811 0.393229 0.312043
O O9 0.274469 0.073689 0.580836
O O10 0.500000 0.500000 0.000000
O O11 0.038741 0.657778 0.058165
O O12 0.484794 0.483116 0.152207
O O13 0.000000 0.000000 0.500000
O O14 0.000000 0.500000 0.000000
#
# Coordination Sequence:
#
# PCOD9063228 Si02
#       6
#     2   2   2   2   2   2
#     4  11  27  47  72 113 145 194 250 306 373 441
#     4  11  25  51  78 109 149 195 254 308 373 445
#     4  12  27  45  73 106 151 195 246 302 372 440
#     4  11  24  43  73 101 144 195 240 302 368 441
#     4  11  26  47  71 109 141 193 255 305 359 444
#     4  12  26  48  76 107 153 197 243 309 373 440
#
# _framework density 24.899908
#
# number of rings (size 3 to 8) (size 9 to 14) (size 15 to 20)
#    0.000    0.667    1.667    4.500    7.000    6.000 
#    0.000    0.000    0.000    0.000    0.000    0.000 
#    0.000    0.000    0.000    0.000    0.000    0.000 
#
# Total GULP energy -67278.104715 kJ/mol
# GULP energy per Si atom -5606.508726 kJ/mol
# Density = 2.484324 g / cm^3
# Si number density = 24.899908 Si / 1000 Ang^3
#
#
#
# Elastic Constant Matrix: (Units=GPa)
#
#
# Indices 1 2 3 4 5 6 
#
# 1 91.5906 37.0060 15.8634 0.1331 7.1909 -3.3532
# 2 37.0060 128.5677 54.2665 18.5443 13.3514 -7.9483
# 3 15.8634 54.2665 176.2297 8.9459 3.7163 13.2094
# 4 0.1331 18.5443 8.9459 44.0162 5.0074 2.3164
# 5 7.1909 13.3514 3.7163 5.0074 36.3143 -2.5978
# 6 -3.3532 -7.9483 13.2094 2.3164 -2.5978 41.4286
#
#
#
# Elastic Compliance Matrix: (Units=1/GPa)
#
#
# Indices 1 2 3 4 5 6 
#
# 1 0.012520 -0.003667 -0.000065 0.001665 -0.001343 0.000153
# 2 -0.003667 0.011110 -0.003059 -0.003938 -0.002296 0.002886
# 3 -0.000065 -0.003059 0.006823 0.000020 0.000240 -0.002754
# 4 0.001665 -0.003938 0.000020 0.024762 -0.002453 -0.002166
# 5 -0.001343 -0.002296 0.000240 -0.002453 0.029056 0.001334
# 6 0.000153 0.002886 -0.002754 -0.002166 0.001334 0.025787
#
#
# Mechanical properties :
#
#
# Convention : Reuss Voigt Hill
#
# Bulk Modulus (GPa) = 59.28079 67.85108 63.56593
# Shear Modulus (GPa) = 38.68072 43.63528 41.15800
#
# Velocity S-wave (km/s) = 3.94566 4.19074 4.07004
# Velocity P-wave (km/s) = 6.67959 7.12216 6.90442
#
# Compressibility (1/GPa) = 0.01686887
#
# Stress axis : x y z
#
# Youngs Moduli (GPa) = 79.87343 90.01241 146.57274
#
# Poissons Ratio (x) = 0.33010 0.00959
# Poissons Ratio (y) = 0.29292 0.44835
# Poissons Ratio (z) = 0.00523 0.27534
#
# Static dielectric constant tensor:
#      x y z
#    x 1.966960 0.070870 0.081890 
#    y 0.070870 1.901580 -0.048340 
#    z 0.081890 -0.048340 1.852100 
# 
# From -- ./inp_files/59595.got.cif
#   From: 2010.05.17/outbox.cif.g08.bks.cpg/sg2_30_cif.got.tgz:59595.got - 2010.06.03 11:33:40.
