data_PCOD9063548
_publ_section_title
;
Structure prediction by ZEFSAII (Michael W. Deem and Ramdas Pophale) SiO2 
 PCOD9063548
Probable space group: P -1
;
_chemical_formula_sum "Si O2"
_cell_formula_units_Z 12
_cell_length_a 27.710894
_cell_length_b 5.189272
_cell_length_c 22.420390
_cell_angle_alpha 54.321701
_cell_angle_beta 11.523393
_cell_angle_gamma 54.993696
_cell_volume 523.124911
_symmetry_space_group_name_H-M "P -1"
_symmetry_group_IT_number 2
_symmetry_cell_setting 'triclinic'
loop_
_space_group_symop_operation_xyz
x,y,z
-x,-y,-z
loop_
_atom_site_type_symbol
_atom_site_label
_atom_site_fract_x
_atom_site_fract_y
_atom_site_fract_z
Si Si1 0.281217 0.384912 0.320855
Si Si2 0.026990 0.145479 0.298984
Si Si3 0.241413 0.297445 0.748851
Si Si4 0.770068 0.401935 0.110492
Si Si5 0.764289 0.582043 0.386511
Si Si6 0.458101 0.105434 0.268549
O O1 0.091686 0.667937 0.527147
O O2 0.157708 0.083100 0.480368
O O3 0.378132 0.285721 0.281814
O O4 0.500000 0.500000 0.000000
O O5 0.127126 0.405963 0.095850
O O6 0.255254 0.933272 0.070249
O O7 0.484313 0.468813 0.452655
O O8 0.293797 0.196364 0.629629
O O9 0.208188 0.979785 0.869787
O O10 0.000000 0.500000 0.000000
O O11 0.951602 0.467414 0.936311
O O12 0.650757 0.244987 0.555284
O O13 0.644829 0.723402 0.571389
#
# Coordination Sequence:
#
# PCOD9063548 Si02
#       6
#     2   2   2   2   2   2
#     4  12  27  50  77 110 146 184 238 304 366 437
#     4  12  26  46  78 107 144 195 237 294 365 434
#     4  11  26  46  69 107 148 192 247 301 347 416
#     4  11  24  44  70 104 143 193 245 288 357 419
#     4  12  24  46  71 102 143 191 240 297 354 415
#     4  12  25  46  74 106 142 185 242 297 355 433
#
# _framework density 22.939073
#
# number of rings (size 3 to 8) (size 9 to 14) (size 15 to 20)
#    0.000    0.333    5.000    3.000    0.000    2.000 
#    3.000    0.000    0.000    0.000    0.000    0.000 
#    0.000    0.000    0.000    0.000    0.000    0.000 
#
# Total GULP energy -67222.601878 kJ/mol
# GULP energy per Si atom -5601.883490 kJ/mol
# Density = 2.288686 g / cm^3
# Si number density = 22.939073 Si / 1000 Ang^3
#
#
#
# Elastic Constant Matrix: (Units=GPa)
#
#
# Indices 1 2 3 4 5 6 
#
# 1 59.9611 27.5562 37.6361 -1.2098 -7.2272 20.9014
# 2 27.5562 87.4286 53.2039 11.0254 17.3544 5.0539
# 3 37.6361 53.2039 149.0304 -0.9655 -5.4841 -6.0824
# 4 -1.2098 11.0254 -0.9655 38.1073 -6.6420 -2.8310
# 5 -7.2272 17.3544 -5.4841 -6.6420 30.0834 19.9730
# 6 20.9014 5.0539 -6.0824 -2.8310 19.9730 12.0843
#
#
#
# Elastic Compliance Matrix: (Units=1/GPa)
#
#
# Indices 1 2 3 4 5 6 
#
# 1 0.002256 0.003098 -0.001251 -0.002514 -0.022922 0.031470
# 2 0.003098 0.016878 -0.007574 -0.006288 0.000082 -0.017838
# 3 -0.001251 -0.007574 0.009975 0.003633 0.007695 -0.001516
# 4 -0.002514 -0.006288 0.003633 0.029368 0.002515 0.011529
# 5 -0.022922 0.000082 0.007695 0.002515 -0.003935 0.050578
# 6 0.031470 -0.017838 -0.001516 0.011529 0.050578 -0.045876
#
#
# Mechanical properties :
#
#
# Convention : Reuss Voigt Hill
#
# Bulk Modulus (GPa) = 56.64038 59.24581 57.94309
# Shear Modulus (GPa) = 192.28506 27.92327 110.10417
#
# Velocity S-wave (km/s) = 9.16549 3.49274 6.93561
# Velocity P-wave (km/s) = 11.69417 6.49224 9.45787
#
# Compressibility (1/GPa) = 0.01765525
#
# Stress axis : x y z
#
# Youngs Moduli (GPa) = 443.34298 59.24846 100.25443
#
# Poissons Ratio (x) = -0.18356 0.12542
# Poissons Ratio (y) = -1.37356 0.75929
# Poissons Ratio (z) = 0.55465 0.44873
#
# Static dielectric constant tensor:
#      x y z
#    x 1.870940 0.026620 0.021940 
#    y 0.026620 1.852680 0.038800 
#    z 0.021940 0.038800 1.879490 
# 
# From -- ./inp_files/614443.got.cif
#   From: 2010.05.17/outbox.cif.g08.bks.cpg/sg2_308_cif.got.tgz:614443.got - 2010.06.03 11:33:40.
