data_PCOD9063423
_publ_section_title
;
Structure prediction by ZEFSAII (Michael W. Deem and Ramdas Pophale) SiO2 
 PCOD9063423
Probable space group: P -1
;
_chemical_formula_sum "Si O2"
_cell_formula_units_Z 12
_cell_length_a 8.840893
_cell_length_b 11.290040
_cell_length_c 4.944149
_cell_angle_alpha 97.527031
_cell_angle_beta 118.388421
_cell_angle_gamma 73.618875
_cell_volume 416.523728
_symmetry_space_group_name_H-M "P -1"
_symmetry_group_IT_number 2
_symmetry_cell_setting 'triclinic'
loop_
_space_group_symop_operation_xyz
x,y,z
-x,-y,-z
loop_
_atom_site_type_symbol
_atom_site_label
_atom_site_fract_x
_atom_site_fract_y
_atom_site_fract_z
Si Si1 0.233624 0.124569 0.262307
Si Si2 0.308920 0.592490 0.354243
Si Si3 0.269580 0.946967 0.737830
Si Si4 0.843113 0.575284 0.196097
Si Si5 0.508194 0.740294 0.232565
Si Si6 0.950216 0.243376 0.465492
O O1 0.375483 0.205582 0.437244
O O2 0.047460 0.207478 0.250680
O O3 0.294250 0.014115 0.503191
O O4 0.228204 0.052784 0.961678
O O5 0.500000 0.500000 0.500000
O O6 0.347214 0.702328 0.236242
O O7 0.227462 0.649775 0.584867
O O8 0.184067 0.514363 0.091331
O O9 0.115089 0.876409 0.548282
O O10 0.431464 0.842884 0.972169
O O11 0.651117 0.624991 0.188841
O O12 0.000000 0.500000 0.500000
O O13 0.905949 0.700702 0.232171
#
# Coordination Sequence:
#
# PCOD9063423 Si02
#       6
#     2   2   2   2   2   2
#     4  11  27  46  73 107 147 192 247 305 366 440
#     4  12  25  46  74 109 148 195 249 309 370 443
#     4  12  24  47  73 109 147 193 246 306 366 440
#     4  11  24  44  68 103 146 193 246 307 370 441
#     4  11  25  44  72 107 146 195 244 303 371 440
#     4  11  25  43  71 105 143 194 244 302 369 438
#
# _framework density 28.809885999999999
#
# number of rings (size 3 to 8) (size 9 to 14) (size 15 to 20)
#    0.000    0.667    0.000    7.000    0.000    8.000 
#    0.000    0.000    0.000    0.000    0.000    0.000 
#    0.000    0.000    0.000    0.000    0.000    0.000 
#
# Total GULP energy -67401.334167 kJ/mol
# GULP energy per Si atom -5616.777847 kJ/mol
# Density = 2.874431 g / cm^3
# Si number density = 28.809886 Si / 1000 Ang^3
#
#
#
# Elastic Constant Matrix: (Units=GPa)
#
#
# Indices 1 2 3 4 5 6 
#
# 1 148.1909 58.8480 35.5027 15.7769 9.0108 -7.7217
# 2 58.8480 188.7501 56.9416 18.1240 2.2555 -25.5508
# 3 35.5027 56.9416 142.3325 19.8454 22.8795 1.9129
# 4 15.7769 18.1240 19.8454 63.7167 2.6004 20.0734
# 5 9.0108 2.2555 22.8795 2.6004 54.6757 11.0373
# 6 -7.7217 -25.5508 1.9129 20.0734 11.0373 76.7845
#
#
#
# Elastic Compliance Matrix: (Units=1/GPa)
#
#
# Indices 1 2 3 4 5 6 
#
# 1 0.007980 -0.002006 -0.000865 -0.001296 -0.000936 0.000630
# 2 -0.002006 0.007097 -0.002227 -0.001661 0.000529 0.002573
# 3 -0.000865 -0.002227 0.008925 -0.001762 -0.003396 -0.000102
# 4 -0.001296 -0.001661 -0.001762 0.018791 0.001283 -0.005736
# 5 -0.000936 0.000529 -0.003396 0.001283 0.020408 -0.003103
# 6 0.000630 0.002573 -0.000102 -0.005736 -0.003103 0.015891
#
#
# Mechanical properties :
#
#
# Convention : Reuss Voigt Hill
#
# Bulk Modulus (GPa) = 72.43423 86.87311 79.65367
# Shear Modulus (GPa) = 53.25355 60.90079 57.07717
#
# Velocity S-wave (km/s) = 4.30402 4.60269 4.45586
# Velocity P-wave (km/s) = 7.06372 7.64629 7.36077
#
# Compressibility (1/GPa) = 0.01380563
#
# Stress axis : x y z
#
# Youngs Moduli (GPa) = 125.31931 140.91061 112.03961
#
# Poissons Ratio (x) = 0.28266 0.09694
# Poissons Ratio (y) = 0.25139 0.24950
# Poissons Ratio (z) = 0.10843 0.31379
#
# Static dielectric constant tensor:
#      x y z
#    x 2.237780 0.056520 0.005430 
#    y 0.056520 2.385040 -0.136120 
#    z 0.005430 -0.136120 2.219530 
# 
# From -- ./inp_files/28780.got.cif
#   From: 2010.05.17/outbox.cif.g08.bks.cpg/sg2_15_cif.got.tgz:28780.got - 2010.06.03 11:33:40.
