data_PCOD9063439
_publ_section_title
;
Structure prediction by ZEFSAII (Michael W. Deem and Ramdas Pophale) SiO2 
 PCOD9063439
Probable space group: P -1
;
_chemical_formula_sum "Si O2"
_cell_formula_units_Z 12
_cell_length_a 12.577752
_cell_length_b 13.701362
_cell_length_c 5.316764
_cell_angle_alpha 84.466206
_cell_angle_beta 71.194689
_cell_angle_gamma 34.333151
_cell_volume 463.796843
_symmetry_space_group_name_H-M "P -1"
_symmetry_group_IT_number 2
_symmetry_cell_setting 'triclinic'
loop_
_space_group_symop_operation_xyz
x,y,z
-x,-y,-z
loop_
_atom_site_type_symbol
_atom_site_label
_atom_site_fract_x
_atom_site_fract_y
_atom_site_fract_z
Si Si1 0.230512 0.390751 0.908921
Si Si2 0.828864 0.815406 0.136084
Si Si3 0.937836 0.936476 0.149540
Si Si4 0.523460 0.320384 0.547133
Si Si5 0.310325 0.620821 0.306384
Si Si6 0.344482 0.189350 0.359596
O O1 0.390972 0.362536 0.845514
O O2 0.311966 0.278648 0.617675
O O3 0.245094 0.315784 0.167176
O O4 0.004839 0.605975 0.984930
O O5 0.936215 0.841660 0.999511
O O6 0.772548 0.825551 0.467409
O O7 0.591817 0.990579 0.166971
O O8 0.093494 0.794133 0.290019
O O9 0.696754 0.120969 0.360209
O O10 0.000000 0.000000 0.000000
O O11 0.358313 0.482665 0.432771
O O12 0.655383 0.317210 0.536584
O O13 0.500000 0.500000 0.000000
#
# Coordination Sequence:
#
# PCOD9063439 Si02
#       6
#     2   2   2   2   2   2
#     4  12  27  49  82 112 153 197 259 316 383 451
#     4  11  27  48  79 111 152 203 253 317 384 448
#     4  12  25  45  73 106 150 198 249 310 377 452
#     4  11  26  44  69 108 144 200 248 315 370 454
#     4  11  24  44  68  96 146 194 251 298 374 439
#     4  11  28  53  77 115 152 199 259 316 378 459
#
# _framework density 25.873398999999999
#
# number of rings (size 3 to 8) (size 9 to 14) (size 15 to 20)
#    0.000    0.667    3.333    2.500    9.333    5.333 
#    0.000    0.000    0.000    0.000    0.000    0.000 
#    0.000    0.000    0.000    0.000    0.000    0.000 
#
# Total GULP energy -67161.471394 kJ/mol
# GULP energy per Si atom -5596.789283 kJ/mol
# Density = 2.581451 g / cm^3
# Si number density = 25.873399 Si / 1000 Ang^3
#
#
#
# Elastic Constant Matrix: (Units=GPa)
#
#
# Indices 1 2 3 4 5 6 
#
# 1 104.0343 63.8000 35.1309 -9.8179 -18.0620 -1.3725
# 2 63.8000 214.7766 57.5328 7.5122 8.8375 -5.6918
# 3 35.1309 57.5328 92.0691 0.4034 -8.9742 -3.4839
# 4 -9.8179 7.5122 0.4034 43.4493 5.8577 1.9599
# 5 -18.0620 8.8375 -8.9742 5.8577 48.5274 4.0532
# 6 -1.3725 -5.6918 -3.4839 1.9599 4.0532 32.6987
#
#
#
# Elastic Compliance Matrix: (Units=1/GPa)
#
#
# Indices 1 2 3 4 5 6 
#
# 1 0.013995 -0.003845 -0.002493 0.003208 0.005160 -0.001179
# 2 -0.003845 0.006836 -0.003059 -0.001653 -0.003142 0.001191
# 3 -0.002493 -0.003059 0.013965 -0.000491 0.002220 0.000605
# 4 0.003208 -0.001653 -0.000491 0.024287 -0.001403 -0.001487
# 5 0.005160 -0.003142 0.002220 -0.001403 0.023928 -0.002976
# 6 -0.001179 0.001191 0.000605 -0.001487 -0.002976 0.031263
#
#
# Mechanical properties :
#
#
# Convention : Reuss Voigt Hill
#
# Bulk Modulus (GPa) = 62.48807 80.42304 71.45556
# Shear Modulus (GPa) = 36.12661 41.89617 39.01139
#
# Velocity S-wave (km/s) = 3.74074 4.02839 3.88723
# Velocity P-wave (km/s) = 6.54686 7.26553 6.91554
#
# Compressibility (1/GPa) = 0.01600305
#
# Stress axis : x y z
#
# Youngs Moduli (GPa) = 71.45319 146.28050 71.60542
#
# Poissons Ratio (x) = 0.56248 0.17852
# Poissons Ratio (y) = 0.27475 0.21901
# Poissons Ratio (z) = 0.17814 0.44740
#
# Static dielectric constant tensor:
#      x y z
#    x 2.100160 0.070270 0.027260 
#    y 0.070270 1.981010 0.012050 
#    z 0.027260 0.012050 2.027630 
# 
# From -- ./inp_files/96785.got.cif
#   From: 2010.05.17/outbox.cif.g08.bks.cpg/sg2_49_cif.got.tgz:96785.got - 2010.06.03 11:33:40.
