data_PCOD9063022
_publ_section_title
;
Structure prediction by ZEFSAII (Michael W. Deem and Ramdas Pophale) SiO2 
 PCOD9063022
Probable space group: P -1
;
_chemical_formula_sum "Si O2"
_cell_formula_units_Z 15
_cell_length_a 14.924015
_cell_length_b 5.626898
_cell_length_c 9.177651
_cell_angle_alpha 51.372006
_cell_angle_beta 97.542191
_cell_angle_gamma 108.928534
_cell_volume 566.872504
_symmetry_space_group_name_H-M "P -1"
_symmetry_group_IT_number 2
_symmetry_cell_setting 'triclinic'
loop_
_space_group_symop_operation_xyz
x,y,z
-x,-y,-z
loop_
_atom_site_type_symbol
_atom_site_label
_atom_site_fract_x
_atom_site_fract_y
_atom_site_fract_z
Si Si1 0.380020 0.013162 0.662168
Si Si2 0.752923 0.228746 0.502435
Si Si3 0.875624 0.810560 0.699738
Si Si4 0.550659 0.337206 0.752866
Si Si5 0.191738 0.818809 0.894390
Si Si6 0.500000 0.500000 0.000000
Si Si7 0.925970 0.793751 0.394985
Si Si8 0.307051 0.012843 0.102493
O O1 0.476197 0.029535 0.766447
O O2 0.410020 0.369981 0.462327
O O3 0.340461 0.784241 0.603273
O O4 0.287162 0.932555 0.774195
O O5 0.845950 0.529695 0.390151
O O6 0.728979 0.178786 0.684918
O O7 0.787654 0.925962 0.588975
O O8 0.914258 0.707564 0.596974
O O9 0.842077 0.544026 0.917379
O O10 0.963789 0.109141 0.660117
O O11 0.502938 0.446674 0.838084
O O12 0.632661 0.198225 0.875152
O O13 0.107320 0.895022 0.762036
O O14 0.223359 0.014986 0.976900
O O15 0.617258 0.653769 0.968476
#
# Coordination Sequence:
#
# PCOD9063022 Si02
#       8
#     2   2   2   2   2   1   2   2
#     4  11  24  43  69 102 145 184 241 294 347 423
#     4  12  24  47  74 105 145 194 236 294 364 435
#     4  11  25  47  74 106 147 185 236 305 366 422
#     4  11  25  47  64 102 147 190 237 299 351 417
#     4  12  24  46  73 105 144 191 239 297 352 432
#     4  12  24  42  70  94 140 186 240 284 360 406
#     4  11  25  47  73 107 146 186 237 305 361 428
#     4  12  26  42  69 102 144 189 241 289 355 424
#
# _framework density 26.460975999999999
#
# number of rings (size 3 to 8) (size 9 to 14) (size 15 to 20)
#    0.000    0.533    5.333    2.800    0.000    2.667 
#    0.000    1.333    0.000    0.000    0.000    0.000 
#    0.000    0.000    0.000    0.000    0.000    0.000 
#
# Total GULP energy -83810.899591 kJ/mol
# GULP energy per Si atom -5587.393306 kJ/mol
# Density = 2.640075 g / cm^3
# Si number density = 26.460976 Si / 1000 Ang^3
#
#
#
# Elastic Constant Matrix: (Units=GPa)
#
#
# Indices 1 2 3 4 5 6 
#
# 1 104.5239 21.4529 43.9735 7.5399 4.7242 21.7109
# 2 21.4529 102.8887 27.7187 2.2216 -18.9338 36.8268
# 3 43.9735 27.7187 159.1218 -0.6387 -6.2895 12.0460
# 4 7.5399 2.2216 -0.6387 44.3357 12.4707 -6.0685
# 5 4.7242 -18.9338 -6.2895 12.4707 43.9860 0.2418
# 6 21.7109 36.8268 12.0460 -6.0685 0.2418 51.9444
#
#
#
# Elastic Compliance Matrix: (Units=1/GPa)
#
#
# Indices 1 2 3 4 5 6 
#
# 1 0.012020 -0.000288 -0.002994 -0.002350 -0.001153 -0.004395
# 2 -0.000288 0.015795 -0.001520 -0.004551 0.007965 -0.011294
# 3 -0.002994 -0.001520 0.007348 0.000637 0.000533 0.000697
# 4 -0.002350 -0.004551 0.000637 0.026784 -0.009249 0.007233
# 5 -0.001153 0.007965 0.000533 -0.009249 0.029021 -0.006504
# 6 -0.004395 -0.011294 0.000697 0.007233 -0.006504 0.029809
#
#
# Mechanical properties :
#
#
# Convention : Reuss Voigt Hill
#
# Bulk Modulus (GPa) = 39.12587 61.42496 50.27541
# Shear Modulus (GPa) = 35.99680 46.27917 41.13799
#
# Velocity S-wave (km/s) = 3.69233 4.18659 3.94720
# Velocity P-wave (km/s) = 5.74422 6.82890 6.30991
#
# Compressibility (1/GPa) = 0.02555854
#
# Stress axis : x y z
#
# Youngs Moduli (GPa) = 83.19220 63.30965 136.09921
#
# Poissons Ratio (x) = 0.01824 0.40748
# Poissons Ratio (y) = 0.02397 0.20692
# Poissons Ratio (z) = 0.24907 0.09625
#
# Static dielectric constant tensor:
#      x y z
#    x 1.933400 0.065370 -0.088320 
#    y 0.065370 2.016440 0.105860 
#    z -0.088320 0.105860 1.952390 
# 
# From -- ./inp_files/288377.got.cif
#   From: 2010.05.17/outbox.cif.g08.bks.cpg/sg2_145_cif.got.tgz:288377.got - 2010.06.03 11:33:40.
