data_PCOD9063516
_publ_section_title
;
Structure prediction by ZEFSAII (Michael W. Deem and Ramdas Pophale) SiO2 
 PCOD9063516
Probable space group: P -1
;
_chemical_formula_sum "Si O2"
_cell_formula_units_Z 14
_cell_length_a 5.003651
_cell_length_b 16.137162
_cell_length_c 23.008465
_cell_angle_alpha 19.762896
_cell_angle_beta 82.380599
_cell_angle_gamma 76.467689
_cell_volume 588.647405
_symmetry_space_group_name_H-M "P -1"
_symmetry_group_IT_number 2
_symmetry_cell_setting 'triclinic'
loop_
_space_group_symop_operation_xyz
x,y,z
-x,-y,-z
loop_
_atom_site_type_symbol
_atom_site_label
_atom_site_fract_x
_atom_site_fract_y
_atom_site_fract_z
Si Si1 0.284524 0.480650 0.068347
Si Si2 0.500381 0.708241 0.687500
Si Si3 0.614966 0.186360 0.914298
Si Si4 0.056469 0.658421 0.644983
Si Si5 0.413802 0.551083 0.535388
Si Si6 0.011096 0.728826 0.243924
Si Si7 0.863883 0.963547 0.701962
O O1 0.425006 0.433799 0.158826
O O2 0.212833 0.225042 0.218444
O O3 0.500000 0.500000 0.000000
O O4 0.035308 0.755052 0.883485
O O5 0.199535 0.723619 0.657442
O O6 0.775180 0.592700 0.714040
O O7 0.500000 0.000000 0.500000
O O8 0.334944 0.427079 0.770327
O O9 0.879447 0.262077 0.830536
O O10 0.500000 0.000000 0.000000
O O11 0.765756 0.997862 0.087466
O O12 0.994940 0.874123 0.452804
O O13 0.500000 0.500000 0.500000
O O14 0.684725 0.328036 0.699322
O O15 0.119822 0.493921 0.591485
O O16 0.371740 0.814876 0.399602
#
# Coordination Sequence:
#
# PCOD9063516 Si02
#       7
#     2   2   2   2   2   2   2
#     4  11  27  48  73 103 149 192 242 297 369 439
#     4  12  27  48  73 109 143 182 247 309 357 427
#     4  11  24  44  73 105 146 184 239 295 362 434
#     4  12  27  44  79 106 144 193 242 300 367 425
#     4  12  27  47  73 105 147 193 246 296 360 442
#     4  11  24  44  70 100 146 187 238 293 358 422
#     4  11  26  46  75 102 145 195 241 295 371 430
#
# _framework density 23.783339999999999
#
# number of rings (size 3 to 8) (size 9 to 14) (size 15 to 20)
#    0.000    0.571    4.286    1.714   12.000    2.286 
#    0.000    0.000    0.000    0.000    0.000    0.000 
#    0.000    0.000    0.000    0.000    0.000    0.000 
#
# Total GULP energy -78035.963829 kJ/mol
# GULP energy per Si atom -5573.997416 kJ/mol
# Density = 2.372921 g / cm^3
# Si number density = 23.783340 Si / 1000 Ang^3
#
#
#
# Elastic Constant Matrix: (Units=GPa)
#
#
# Indices 1 2 3 4 5 6 
#
# 1 85.6551 22.7836 6.2713 7.8791 1.5100 -24.3881
# 2 22.7836 105.5302 55.5255 17.2519 -0.9732 -3.6394
# 3 6.2713 55.5255 106.8573 10.5648 5.0589 -10.6136
# 4 7.8791 17.2519 10.5648 32.8648 2.7774 14.2824
# 5 1.5100 -0.9732 5.0589 2.7774 26.1830 2.6215
# 6 -24.3881 -3.6394 -10.6136 14.2824 2.6215 31.7231
#
#
#
# Elastic Compliance Matrix: (Units=1/GPa)
#
#
# Indices 1 2 3 4 5 6 
#
# 1 0.020409 -0.003704 0.004637 -0.014421 -0.003040 0.023560
# 2 -0.003704 0.014746 -0.007424 -0.003757 0.002813 -0.002180
# 3 0.004637 -0.007424 0.014835 -0.006382 -0.003820 0.010865
# 4 -0.014421 -0.003757 -0.006382 0.054508 -0.000033 -0.038191
# 5 -0.003040 0.002813 -0.003820 -0.000033 0.039872 -0.006572
# 6 0.023560 -0.002180 0.010865 -0.038191 -0.006572 0.070757
#
#
# Mechanical properties :
#
#
# Convention : Reuss Voigt Hill
#
# Bulk Modulus (GPa) = 27.02105 51.91151 39.46628
# Shear Modulus (GPa) = 20.79474 32.38499 26.58986
#
# Velocity S-wave (km/s) = 2.96013 3.69408 3.34728
# Velocity P-wave (km/s) = 4.80304 6.33002 5.61865
#
# Compressibility (1/GPa) = 0.03700819
#
# Stress axis : x y z
#
# Youngs Moduli (GPa) = 48.99908 67.81298 67.40954
#
# Poissons Ratio (x) = 0.25116 -0.31255
# Poissons Ratio (y) = 0.18148 0.50042
# Poissons Ratio (z) = -0.22719 0.50341
#
# Static dielectric constant tensor:
#      x y z
#    x 1.750860 -0.304640 0.044440 
#    y -0.304640 1.539660 0.248270 
#    z 0.044440 0.248270 2.762430 
# 
# From -- ./inp_files/604941.got.cif
#   From: 2010.05.17/outbox.cif.g08.bks.cpg/sg2_303_cif.got.tgz:604941.got - 2010.06.03 11:33:40.
