data_PCOD9063112
_publ_section_title
;
Structure prediction by ZEFSAII (Michael W. Deem and Ramdas Pophale) SiO2 
 PCOD9063112
Probable space group: P -1
;
_chemical_formula_sum "Si O2"
_cell_formula_units_Z 16
_cell_length_a 17.189222
_cell_length_b 12.675143
_cell_length_c 8.923300
_cell_angle_alpha 85.032264
_cell_angle_beta 138.151912
_cell_angle_gamma 128.086777
_cell_volume 718.747562
_symmetry_space_group_name_H-M "P -1"
_symmetry_group_IT_number 2
_symmetry_cell_setting 'triclinic'
loop_
_space_group_symop_operation_xyz
x,y,z
-x,-y,-z
loop_
_atom_site_type_symbol
_atom_site_label
_atom_site_fract_x
_atom_site_fract_y
_atom_site_fract_z
Si Si1 0.580473 0.923906 0.736256
Si Si2 0.143463 0.007872 0.650194
Si Si3 0.067527 0.804088 0.299169
Si Si4 0.310064 0.308207 0.665022
Si Si5 0.479464 0.928617 0.141579
Si Si6 0.082157 0.900473 0.993384
Si Si7 0.585712 0.667666 0.519588
Si Si8 0.257788 0.606515 0.069612
O O1 0.370413 0.736954 0.365472
O O2 0.531529 0.985423 0.763683
O O3 0.697480 0.924444 0.009864
O O4 0.758731 0.068676 0.844819
O O5 0.282427 0.171884 0.707560
O O6 0.032427 0.836640 0.404539
O O7 0.000000 0.000000 0.500000
O O8 0.310703 0.982421 0.578668
O O9 0.986371 0.800674 0.031645
O O10 0.971764 0.613956 0.202152
O O11 0.356374 0.329180 0.558169
O O12 0.100830 0.221307 0.375836
O O13 0.500000 0.500000 0.000000
O O14 0.296222 0.713119 0.970064
O O15 0.500000 0.000000 0.000000
O O16 0.217888 0.112463 0.167745
O O17 0.500000 0.500000 0.500000
O O18 0.395915 0.606281 0.241368
#
# Coordination Sequence:
#
# PCOD9063112 Si02
#       8
#     2   2   2   2   2   2   2   2
#     4  11  25  47  74 105 148 189 245 308 365 430
#     4  12  26  46  68 104 148 191 236 304 369 434
#     4  12  26  49  77 106 144 200 243 302 374 435
#     4  12  27  39  65 105 148 192 240 295 367 437
#     4  12  25  52  78 106 150 189 250 309 366 432
#     4  11  24  47  69 105 146 197 244 301 368 433
#     4  11  24  43  71 100 146 195 247 292 362 450
#     4  11  27  45  76 112 141 192 252 298 368 441
#
# _framework density 22.260945
#
# number of rings (size 3 to 8) (size 9 to 14) (size 15 to 20)
#    0.000    0.500    6.250    1.500    8.750    1.000 
#    0.000    0.000    0.000    0.000    0.000    0.000 
#    0.000    0.000    0.000    0.000    0.000    0.000 
#
# Total GULP energy -89209.220547 kJ/mol
# GULP energy per Si atom -5575.576284 kJ/mol
# Density = 2.221028 g / cm^3
# Si number density = 22.260945 Si / 1000 Ang^3
#
#
#
# Elastic Constant Matrix: (Units=GPa)
#
#
# Indices 1 2 3 4 5 6 
#
# 1 128.9397 24.3977 16.2360 3.7507 -14.3637 -9.9714
# 2 24.3977 149.3712 23.5416 -2.8203 -19.1682 22.4995
# 3 16.2360 23.5416 76.2458 4.9163 -21.6035 0.5925
# 4 3.7507 -2.8203 4.9163 45.8273 2.8288 -2.9533
# 5 -14.3637 -19.1682 -21.6035 2.8288 24.4423 -5.2812
# 6 -9.9714 22.4995 0.5925 -2.9533 -5.2812 36.7062
#
#
#
# Elastic Compliance Matrix: (Units=1/GPa)
#
#
# Indices 1 2 3 4 5 6 
#
# 1 0.008922 -0.001417 0.000007 -0.000878 0.005094 0.003954
# 2 -0.001417 0.008321 -0.001255 0.000229 0.003488 -0.004945
# 3 0.000007 -0.001255 0.018194 -0.002852 0.015981 0.002547
# 4 -0.000878 0.000229 -0.002852 0.022587 -0.005316 0.000720
# 5 0.005094 0.003488 0.015981 -0.005316 0.063030 0.007629
# 6 0.003954 -0.004945 0.002547 0.000720 0.007629 0.032463
#
#
# Mechanical properties :
#
#
# Convention : Reuss Voigt Hill
#
# Bulk Modulus (GPa) = 33.21681 53.65636 43.43659
# Shear Modulus (GPa) = 29.60651 40.75391 35.18021
#
# Velocity S-wave (km/s) = 3.65084 4.28335 3.97968
# Velocity P-wave (km/s) = 5.72062 6.97270 6.37746
#
# Compressibility (1/GPa) = 0.03010524
#
# Stress axis : x y z
#
# Youngs Moduli (GPa) = 112.08818 120.18139 54.96414
#
# Poissons Ratio (x) = 0.17027 -0.00037
# Poissons Ratio (y) = 0.15881 0.06900
# Poissons Ratio (z) = -0.00076 0.15087
#
# Static dielectric constant tensor:
#      x y z
#    x 1.860480 -0.031010 0.021350 
#    y -0.031010 1.990690 -0.049660 
#    z 0.021350 -0.049660 2.017880 
# 
# From -- ./inp_files/333309.got.cif
#   From: 2010.05.17/outbox.cif.g08.bks.cpg/sg2_167_cif.got.tgz:333309.got - 2010.06.03 11:33:40.
