data_PCOD9063363
_publ_section_title
;
Structure prediction by ZEFSAII (Michael W. Deem and Ramdas Pophale) SiO2 
 PCOD9063363
Probable space group: P -1
;
_chemical_formula_sum "Si O2"
_cell_formula_units_Z 16
_cell_length_a 14.555449
_cell_length_b 13.914895
_cell_length_c 6.280308
_cell_angle_alpha 121.622604
_cell_angle_beta 58.289067
_cell_angle_gamma 140.515924
_cell_volume 671.317720
_symmetry_space_group_name_H-M "P -1"
_symmetry_group_IT_number 2
_symmetry_cell_setting 'triclinic'
loop_
_space_group_symop_operation_xyz
x,y,z
-x,-y,-z
loop_
_atom_site_type_symbol
_atom_site_label
_atom_site_fract_x
_atom_site_fract_y
_atom_site_fract_z
Si Si1 0.967873 0.870784 0.543022
Si Si2 0.723114 0.703853 0.992758
Si Si3 0.532687 0.432677 0.194439
Si Si4 0.484467 0.839952 0.947293
Si Si5 0.283299 0.064518 0.556908
Si Si6 0.015167 0.337521 0.889810
Si Si7 0.727563 0.107914 0.255452
Si Si8 0.170153 0.664072 0.222164
O O1 0.877771 0.824162 0.817352
O O2 0.894861 0.712220 0.326732
O O3 0.000000 0.000000 0.500000
O O4 0.127726 0.936666 0.484741
O O5 0.603184 0.640265 0.883109
O O6 0.677110 0.562785 0.022888
O O7 0.701769 0.791455 0.282323
O O8 0.500000 0.500000 0.500000
O O9 0.529136 0.299155 0.112639
O O10 0.585027 0.899880 0.686843
O O11 0.319832 0.766045 0.017863
O O12 0.573922 0.984661 0.170514
O O13 0.272143 0.003895 0.731311
O O14 0.959603 0.357979 0.761984
O O15 0.866868 0.203044 0.041685
O O16 0.106064 0.492312 0.098754
O O17 0.768086 0.239134 0.520852
#
# Coordination Sequence:
#
# PCOD9063363 Si02
#       8
#     2   2   2   2   2   2   2   2
#     4  12  25  45  75 106 144 192 232 293 363 431
#     4  11  25  42  70 103 142 192 231 285 367 425
#     4  11  24  44  66 104 146 181 236 299 351 434
#     4  12  25  44  75 104 142 193 237 298 364 418
#     4  12  24  45  70 106 144 176 240 300 345 432
#     4  11  26  50  70 106 149 181 242 301 356 418
#     4  12  23  48  71 100 140 185 241 300 352 416
#     4  11  27  47  73 102 140 194 240 300 352 426
#
# _framework density 23.833722999999999
#
# number of rings (size 3 to 8) (size 9 to 14) (size 15 to 20)
#    0.000    0.500    5.000    2.625    1.750    4.000 
#    4.500    0.000    0.000    0.000    0.000    0.000 
#    0.000    0.000    0.000    0.000    0.000    0.000 
#
# Total GULP energy -89464.716479 kJ/mol
# GULP energy per Si atom -5591.544780 kJ/mol
# Density = 2.377948 g / cm^3
# Si number density = 23.833723 Si / 1000 Ang^3
#
#
#
# Elastic Constant Matrix: (Units=GPa)
#
#
# Indices 1 2 3 4 5 6 
#
# 1 51.7292 31.3842 9.4021 1.1949 -11.4245 -13.8391
# 2 31.3842 122.4742 43.8181 3.8402 2.1094 -13.3081
# 3 9.4021 43.8181 102.6481 7.4706 -13.3561 0.9521
# 4 1.1949 3.8402 7.4706 55.6426 -0.6299 -5.7915
# 5 -11.4245 2.1094 -13.3561 -0.6299 20.4208 -3.1622
# 6 -13.8391 -13.3081 0.9521 -5.7915 -3.1622 45.1873
#
#
#
# Elastic Compliance Matrix: (Units=1/GPa)
#
#
# Indices 1 2 3 4 5 6 
#
# 1 0.031089 -0.008738 0.003624 0.000581 0.021997 0.008485
# 2 -0.008738 0.012764 -0.005961 0.000047 -0.010025 0.000513
# 3 0.003624 -0.005961 0.013543 -0.001388 0.011410 -0.000310
# 4 0.000581 0.000047 -0.001388 0.018418 0.000385 0.002609
# 5 0.021997 -0.010025 0.011410 0.000385 0.071113 0.008570
# 6 0.008485 0.000513 -0.000310 0.002609 0.008570 0.025821
#
#
# Mechanical properties :
#
#
# Convention : Reuss Voigt Hill
#
# Bulk Modulus (GPa) = 28.37238 49.56225 38.96732
# Shear Modulus (GPa) = 24.19593 37.06661 30.63127
#
# Velocity S-wave (km/s) = 3.18967 3.94790 3.58887
# Velocity P-wave (km/s) = 5.04931 6.45146 5.79296
#
# Compressibility (1/GPa) = 0.03524555
#
# Stress axis : x y z
#
# Youngs Moduli (GPa) = 32.16564 78.34758 73.83859
#
# Poissons Ratio (x) = 0.68461 -0.26757
# Poissons Ratio (y) = 0.28107 0.44013
# Poissons Ratio (z) = -0.11656 0.46700
#
# Static dielectric constant tensor:
#      x y z
#    x 1.859160 -0.013750 -0.008370 
#    y -0.013750 2.011020 0.119460 
#    z -0.008370 0.119460 2.002630 
# 
# From -- ./inp_files/98570.got.cif
#   From: 2010.05.17/outbox.cif.g08.bks.cpg/sg2_50_cif.got.tgz:98570.got - 2010.06.03 11:33:40.
