data_PCOD9063867
_publ_section_title
;
Structure prediction by ZEFSAII (Michael W. Deem and Ramdas Pophale) SiO2 
 PCOD9063867
Probable space group: P -1
;
_chemical_formula_sum "Si O2"
_cell_formula_units_Z 16
_cell_length_a 17.000226
_cell_length_b 11.393286
_cell_length_c 9.003928
_cell_angle_alpha 128.330540
_cell_angle_beta 84.071141
_cell_angle_gamma 138.814676
_cell_volume 640.125527
_symmetry_space_group_name_H-M "P -1"
_symmetry_group_IT_number 2
_symmetry_cell_setting 'triclinic'
loop_
_space_group_symop_operation_xyz
x,y,z
-x,-y,-z
loop_
_atom_site_type_symbol
_atom_site_label
_atom_site_fract_x
_atom_site_fract_y
_atom_site_fract_z
Si Si1 0.088248 0.972692 0.551493
Si Si2 0.539752 0.180418 0.501477
Si Si3 0.945471 0.423554 0.783174
Si Si4 0.640953 0.637521 0.002772
Si Si5 0.497015 0.162430 0.185989
Si Si6 0.784075 0.142197 0.178108
Si Si7 0.135144 0.464976 0.294676
Si Si8 0.885554 0.872852 0.664939
O O1 0.063193 0.966642 0.378778
O O2 0.114142 0.839615 0.453582
O O3 0.263693 0.312313 0.857853
O O4 0.949644 0.811799 0.562644
O O5 0.563466 0.387184 0.713358
O O6 0.425085 0.012527 0.247447
O O7 0.719051 0.407644 0.592431
O O8 0.500000 0.000000 0.500000
O O9 0.821868 0.351291 0.707772
O O10 0.103787 0.713708 0.872180
O O11 0.000000 0.500000 0.000000
O O12 0.500000 0.500000 0.000000
O O13 0.747694 0.933221 0.115950
O O14 0.684875 0.544555 0.457919
O O15 0.500000 0.000000 0.000000
O O16 0.385471 0.075004 0.029996
O O17 0.866304 0.412077 0.475503
O O18 0.984817 0.113855 0.973101
#
# Coordination Sequence:
#
# PCOD9063867 Si02
#       8
#     2   2   2   2   2   2   2   2
#     4  11  24  44  75 113 157 203 257 320 392 460
#     4  12  30  48  79 113 153 204 264 319 391 463
#     4  12  27  46  76 111 157 202 256 324 392 466
#     4  12  27  48  77 115 163 208 255 325 389 473
#     4  12  28  50  78 111 157 203 258 327 389 461
#     4  12  28  50  80 114 158 206 261 320 403 469
#     4  12  25  50  78 114 147 201 267 319 383 472
#     4  11  26  46  79 115 155 202 268 322 391 465
#
# _framework density 24.995097999999999
#
# number of rings (size 3 to 8) (size 9 to 14) (size 15 to 20)
#    0.000    0.250    5.000    2.625    5.250    1.000 
#    0.000    0.000    0.000    0.000    0.000    0.000 
#    0.000    0.000    0.000    0.000    0.000    0.000 
#
# Total GULP energy -89417.411588 kJ/mol
# GULP energy per Si atom -5588.588224 kJ/mol
# Density = 2.493821 g / cm^3
# Si number density = 24.995098 Si / 1000 Ang^3
#
#
#
# Elastic Constant Matrix: (Units=GPa)
#
#
# Indices 1 2 3 4 5 6 
#
# 1 95.0115 8.7240 29.5999 -14.9794 3.0703 -13.3570
# 2 8.7240 118.5332 48.7637 -20.9877 -2.9627 -5.3511
# 3 29.5999 48.7637 125.1362 -27.2436 0.1098 -13.8544
# 4 -14.9794 -20.9877 -27.2436 43.9649 -2.1765 4.2707
# 5 3.0703 -2.9627 0.1098 -2.1765 51.4934 -1.4493
# 6 -13.3570 -5.3511 -13.8544 4.2707 -1.4493 45.4760
#
#
#
# Elastic Compliance Matrix: (Units=1/GPa)
#
#
# Indices 1 2 3 4 5 6 
#
# 1 0.011967 0.000607 -0.002178 0.002736 -0.000484 0.002651
# 2 0.000607 0.010399 -0.003534 0.003009 0.000699 0.000065
# 3 -0.002178 -0.003534 0.011013 0.004216 0.000135 0.001908
# 4 0.002736 0.003009 0.004216 0.027798 0.001172 -0.000131
# 5 -0.000484 0.000699 0.000135 0.001172 0.019552 0.000494
# 6 0.002651 0.000065 0.001908 -0.000131 0.000494 0.023385
#
#
# Mechanical properties :
#
#
# Convention : Reuss Voigt Hill
#
# Bulk Modulus (GPa) = 43.16010 56.98402 50.07206
# Shear Modulus (GPa) = 40.96784 44.95974 42.96379
#
# Velocity S-wave (km/s) = 4.05289 4.24576 4.15045
# Velocity P-wave (km/s) = 6.26148 6.84711 6.56083
#
# Compressibility (1/GPa) = 0.02316955
#
# Stress axis : x y z
#
# Youngs Moduli (GPa) = 83.56011 96.16361 90.80397
#
# Poissons Ratio (x) = -0.05839 0.19775
# Poissons Ratio (y) = -0.05074 0.32092
# Poissons Ratio (z) = 0.18198 0.33986
#
# Static dielectric constant tensor:
#      x y z
#    x 2.021130 0.025570 0.038650 
#    y 0.025570 2.064320 0.049810 
#    z 0.038650 0.049810 2.103740 
# 
# From -- ./inp_files/333773.got.cif
#   From: 2010.05.17/outbox.cif.g08.bks.cpg/sg2_167_cif.got.tgz:333773.got - 2010.06.03 11:33:40.
