data_PCOD9063784
_publ_section_title
;
Structure prediction by ZEFSAII (Michael W. Deem and Ramdas Pophale) SiO2 
 PCOD9063784
Probable space group: P -1
;
_chemical_formula_sum "Si O2"
_cell_formula_units_Z 14
_cell_length_a 9.408388
_cell_length_b 7.729047
_cell_length_c 10.458378
_cell_angle_alpha 122.919604
_cell_angle_beta 74.543640
_cell_angle_gamma 125.128220
_cell_volume 520.940960
_symmetry_space_group_name_H-M "P -1"
_symmetry_group_IT_number 2
_symmetry_cell_setting 'triclinic'
loop_
_space_group_symop_operation_xyz
x,y,z
-x,-y,-z
loop_
_atom_site_type_symbol
_atom_site_label
_atom_site_fract_x
_atom_site_fract_y
_atom_site_fract_z
Si Si1 0.228982 0.748199 0.973420
Si Si2 0.499116 0.979952 0.747684
Si Si3 0.449214 0.617863 0.735013
Si Si4 0.798701 0.340154 0.523760
Si Si5 0.081149 0.224902 0.903505
Si Si6 0.840799 0.937729 0.423567
Si Si7 0.645664 0.515012 0.834646
O O1 0.104377 0.848540 0.022008
O O2 0.339137 0.851403 0.115341
O O3 0.361936 0.792458 0.841784
O O4 0.121204 0.456157 0.897143
O O5 0.563372 0.774869 0.654990
O O6 0.335648 0.797192 0.612789
O O7 0.518058 0.232932 0.789877
O O8 0.308893 0.342173 0.639160
O O9 0.541279 0.631867 0.850361
O O10 0.748704 0.501620 0.682965
O O11 0.000000 0.500000 0.500000
O O12 0.780868 0.126533 0.533260
O O13 0.093469 0.043573 0.732440
O O14 0.225039 0.329302 0.020665
O O15 0.000000 0.000000 0.500000
#
# Coordination Sequence:
#
# PCOD9063784 Si02
#       7
#     2   2   2   2   2   2   2
#     4   9  21  40  71 106 143 187 239 298 359 424
#     4  11  24  44  74 101 147 186 246 291 367 421
#     4  11  24  44  74 107 141 196 240 300 361 432
#     4  12  28  47  69 108 152 188 237 311 362 429
#     4   9  22  42  73 104 146 190 240 300 359 427
#     4  11  25  43  74 106 148 194 241 295 370 428
#     4  11  26  48  74 108 147 188 246 297 362 432
#
# _framework density 26.874445000000001
#
# number of rings (size 3 to 8) (size 9 to 14) (size 15 to 20)
#    0.000    1.429    1.429    1.714   12.000    3.429 
#    0.000    1.429    0.000    0.000    0.000    0.000 
#    0.000    0.000    0.000    0.000    0.000    0.000 
#
# Total GULP energy -78113.750942 kJ/mol
# GULP energy per Si atom -5579.553639 kJ/mol
# Density = 2.681328 g / cm^3
# Si number density = 26.874445 Si / 1000 Ang^3
#
#
#
# Elastic Constant Matrix: (Units=GPa)
#
#
# Indices 1 2 3 4 5 6 
#
# 1 97.1200 5.8591 61.0928 -10.7375 10.6657 -22.0759
# 2 5.8591 119.9024 -1.9925 15.2069 1.5862 -22.2875
# 3 61.0928 -1.9925 151.4972 -15.7732 13.9053 14.6633
# 4 -10.7375 15.2069 -15.7732 33.3046 0.8695 2.5051
# 5 10.6657 1.5862 13.9053 0.8695 58.7347 -6.2907
# 6 -22.0759 -22.2875 14.6633 2.5051 -6.2907 41.8951
#
#
#
# Elastic Compliance Matrix: (Units=1/GPa)
#
#
# Indices 1 2 3 4 5 6 
#
# 1 0.019071 0.001507 -0.009027 0.000127 0.000133 0.014022
# 2 0.001507 0.010318 -0.001847 -0.005675 0.000760 0.007383
# 3 -0.009027 -0.001847 0.011909 0.004425 -0.002323 -0.010521
# 4 0.000127 -0.005675 0.004425 0.035333 -0.002184 -0.006942
# 5 0.000133 0.000760 -0.002323 -0.002184 0.018005 0.004121
# 6 0.014022 0.007383 -0.010521 -0.006942 0.004121 0.039902
#
#
# Mechanical properties :
#
#
# Convention : Reuss Voigt Hill
#
# Bulk Modulus (GPa) = 44.32054 55.38206 49.85130
# Shear Modulus (GPa) = 31.09603 47.02422 39.06013
#
# Velocity S-wave (km/s) = 3.40529 4.18757 3.81652
# Velocity P-wave (km/s) = 5.65586 6.63577 6.16532
#
# Compressibility (1/GPa) = 0.02256290
#
# Stress axis : x y z
#
# Youngs Moduli (GPa) = 52.43640 96.91956 83.97108
#
# Poissons Ratio (x) = -0.14603 0.75800
# Poissons Ratio (y) = -0.07901 0.15510
# Poissons Ratio (z) = 0.47334 0.17902
#
# Static dielectric constant tensor:
#      x y z
#    x 2.151550 0.071670 -0.132900 
#    y 0.071670 2.338360 -0.134670 
#    z -0.132900 -0.134670 2.107890 
# 
# From -- ./inp_files/383516.got.cif
#   From: 2010.05.17/outbox.cif.g08.bks.cpg/sg2_192_cif.got.tgz:383516.got - 2010.06.03 11:33:40.
