data_PCOD9063376
_publ_section_title
;
Structure prediction by ZEFSAII (Michael W. Deem and Ramdas Pophale) SiO2 
 PCOD9063376
Probable space group: P -1
;
_chemical_formula_sum "Si O2"
_cell_formula_units_Z 14
_cell_length_a 21.180381
_cell_length_b 20.664069
_cell_length_c 8.292823
_cell_angle_alpha 146.863137
_cell_angle_beta 149.418105
_cell_angle_gamma 20.745466
_cell_volume 643.517252
_symmetry_space_group_name_H-M "P -1"
_symmetry_group_IT_number 2
_symmetry_cell_setting 'triclinic'
loop_
_space_group_symop_operation_xyz
x,y,z
-x,-y,-z
loop_
_atom_site_type_symbol
_atom_site_label
_atom_site_fract_x
_atom_site_fract_y
_atom_site_fract_z
Si Si1 0.136119 0.017877 0.348923
Si Si2 0.093262 0.083099 0.756184
Si Si3 0.486980 0.638587 0.182842
Si Si4 0.240615 0.382584 0.410841
Si Si5 0.417186 0.988555 0.441457
Si Si6 0.689370 0.299713 0.419520
Si Si7 0.162663 0.237454 0.678598
O O1 0.103120 0.096770 0.616333
O O2 0.117623 0.136051 0.423913
O O3 0.355080 0.812046 0.374333
O O4 0.000000 0.000000 0.000000
O O5 0.870717 0.250347 0.672408
O O6 0.203587 0.876160 0.599364
O O7 0.220361 0.076113 0.127014
O O8 0.685554 0.562546 0.423685
O O9 0.500000 0.500000 0.000000
O O10 0.375722 0.706700 0.909076
O O11 0.416320 0.225947 0.590155
O O12 0.036808 0.566239 0.425463
O O13 0.206279 0.290452 0.036593
O O14 0.500000 0.000000 0.500000
O O15 0.347248 0.106968 0.694856
O O16 0.500000 0.500000 0.500000
#
# Coordination Sequence:
#
# PCOD9063376 Si02
#       7
#     2   2   2   2   2   2   2
#     4  12  23  44  73 101 139 183 236 289 351 424
#     4  11  25  42  66 103 136 180 233 283 350 417
#     4  12  24  43  71 105 139 185 234 287 351 420
#     4  11  25  47  71 100 142 183 241 289 345 424
#     4  12  26  46  72 100 142 186 234 290 359 419
#     4  11  24  44  66  99 143 178 222 290 352 415
#     4  11  26  47  72 101 140 186 237 295 348 422
#
# _framework density 21.75544
#
# number of rings (size 3 to 8) (size 9 to 14) (size 15 to 20)
#    0.000    0.571    4.286    3.000    6.000    0.571 
#    0.000    0.000    0.000    0.000    0.000    0.000 
#    0.000    0.000    0.000    0.000    0.000    0.000 
#
# Total GULP energy -78246.845536 kJ/mol
# GULP energy per Si atom -5589.060395 kJ/mol
# Density = 2.170592 g / cm^3
# Si number density = 21.755440 Si / 1000 Ang^3
#
#
#
# Elastic Constant Matrix: (Units=GPa)
#
#
# Indices 1 2 3 4 5 6 
#
# 1 111.9004 45.2400 5.1626 12.4092 10.8221 -4.8339
# 2 45.2400 133.2928 10.5039 -0.2362 11.8876 -22.1220
# 3 5.1626 10.5039 59.9279 -6.8318 14.4707 6.8033
# 4 12.4092 -0.2362 -6.8318 33.6177 1.6708 1.6931
# 5 10.8221 11.8876 14.4707 1.6708 30.3411 -1.8150
# 6 -4.8339 -22.1220 6.8033 1.6931 -1.8150 28.8836
#
#
#
# Elastic Compliance Matrix: (Units=1/GPa)
#
#
# Indices 1 2 3 4 5 6 
#
# 1 0.011058 -0.003691 -0.000111 -0.003974 -0.002278 -0.000860
# 2 -0.003691 0.010291 -0.001931 0.000729 -0.001381 0.007590
# 3 -0.000111 -0.001931 0.020830 0.005119 -0.009858 -0.007323
# 4 -0.003974 0.000729 0.005119 0.032596 -0.003310 -0.003431
# 5 -0.002278 -0.001381 -0.009858 -0.003310 0.039409 0.003554
# 6 -0.000860 0.007590 -0.007323 -0.003431 0.003554 0.042440
#
#
# Mechanical properties :
#
#
# Convention : Reuss Voigt Hill
#
# Bulk Modulus (GPa) = 32.55922 47.43712 39.99817
# Shear Modulus (GPa) = 28.03834 34.84945 31.44389
#
# Velocity S-wave (km/s) = 3.59388 4.00668 3.80588
# Velocity P-wave (km/s) = 5.67625 6.57698 6.14315
#
# Compressibility (1/GPa) = 0.03071327
#
# Stress axis : x y z
#
# Youngs Moduli (GPa) = 90.43546 97.17017 48.00715
#
# Poissons Ratio (x) = 0.35865 0.00533
# Poissons Ratio (y) = 0.33379 0.09270
# Poissons Ratio (z) = 0.01004 0.18763
#
# Static dielectric constant tensor:
#      x y z
#    x 1.833620 0.010840 0.034020 
#    y 0.010840 1.775530 0.011400 
#    z 0.034020 0.011400 1.811360 
# 
# From -- ./inp_files/266096.got.cif
#   From: 2010.05.17/outbox.cif.g08.bks.cpg/sg2_134_cif.got.tgz:266096.got - 2010.06.03 11:33:40.
