data_PCOD9063645
_publ_section_title
;
Structure prediction by ZEFSAII (Michael W. Deem and Ramdas Pophale) SiO2 
 PCOD9063645
Probable space group: P -1
;
_chemical_formula_sum "Si O2"
_cell_formula_units_Z 16
_cell_length_a 18.965307
_cell_length_b 9.254505
_cell_length_c 5.814683
_cell_angle_alpha 129.234737
_cell_angle_beta 92.149439
_cell_angle_gamma 71.352356
_cell_volume 729.876452
_symmetry_space_group_name_H-M "P -1"
_symmetry_group_IT_number 2
_symmetry_cell_setting 'triclinic'
loop_
_space_group_symop_operation_xyz
x,y,z
-x,-y,-z
loop_
_atom_site_type_symbol
_atom_site_label
_atom_site_fract_x
_atom_site_fract_y
_atom_site_fract_z
Si Si1 0.729062 0.754626 0.623231
Si Si2 0.180691 0.983110 0.162395
Si Si3 0.933564 0.055207 0.232678
Si Si4 0.265914 0.586217 0.053707
Si Si5 0.157260 0.503637 0.282654
Si Si6 0.930391 0.714983 0.208114
Si Si7 0.568174 0.576718 0.097464
Si Si8 0.570293 0.787353 0.811611
O O1 0.747670 0.951061 0.780994
O O2 0.716994 0.629489 0.282961
O O3 0.809514 0.596905 0.574571
O O4 0.653938 0.800472 0.815386
O O5 0.110291 0.168201 0.451634
O O6 0.145299 0.941557 0.882991
O O7 0.206718 0.779617 0.110552
O O8 0.953974 0.879603 0.244639
O O9 0.914622 0.286595 0.526998
O O10 0.000000 0.000000 0.000000
O O11 0.347709 0.600014 0.090637
O O12 0.225863 0.559361 0.250666
O O13 0.136471 0.337479 0.976842
O O14 0.000000 0.500000 0.000000
O O15 0.564579 0.672288 0.453268
O O16 0.500000 0.500000 0.000000
O O17 0.564502 0.699874 0.979287
O O18 0.500000 0.000000 0.000000
#
# Coordination Sequence:
#
# PCOD9063645 Si02
#       8
#     2   2   2   2   2   2   2   2
#     4  11  24  44  72 100 137 178 233 290 347 410
#     4  12  25  44  69 100 128 180 234 280 347 414
#     4  12  28  43  66  97 132 177 225 284 351 420
#     4  11  24  44  72 100 137 178 233 290 347 410
#     4  12  23  46  67  94 136 174 230 288 341 420
#     4  12  28  43  66  97 132 177 225 284 351 420
#     4  11  25  47  72 108 149 191 236 292 359 424
#     4  11  25  47  72 108 149 191 236 292 359 424
#
# _framework density 21.921516
#
# number of rings (size 3 to 8) (size 9 to 14) (size 15 to 20)
#    0.000    0.500    6.250    1.500    5.250    2.000 
#    4.500    0.000    0.000    0.000    0.000    0.000 
#    0.000    0.000    0.000    0.000    0.000    0.000 
#
# Total GULP energy -89230.106771 kJ/mol
# GULP energy per Si atom -5576.881673 kJ/mol
# Density = 2.187162 g / cm^3
# Si number density = 21.921516 Si / 1000 Ang^3
#
#
#
# Elastic Constant Matrix: (Units=GPa)
#
#
# Indices 1 2 3 4 5 6 
#
# 1 102.5993 10.9956 21.3254 2.4082 -3.4810 13.1338
# 2 10.9956 107.9575 13.6190 0.2941 -9.6541 2.7373
# 3 21.3254 13.6190 85.2566 3.6678 1.6714 7.9313
# 4 2.4082 0.2941 3.6678 29.2141 -0.6236 -3.3743
# 5 -3.4810 -9.6541 1.6714 -0.6236 43.3376 2.5200
# 6 13.1338 2.7373 7.9313 -3.3743 2.5200 48.7156
#
#
#
# Elastic Compliance Matrix: (Units=1/GPa)
#
#
# Indices 1 2 3 4 5 6 
#
# 1 0.010678 -0.000644 -0.002310 -0.000861 0.000940 -0.002575
# 2 -0.000644 0.009708 -0.001416 0.000152 0.002182 -0.000244
# 3 -0.002310 -0.001416 0.012753 -0.001582 -0.000932 -0.001435
# 4 -0.000861 0.000152 -0.001582 0.034838 0.000360 0.002876
# 5 0.000940 0.002182 -0.000932 0.000360 0.023760 -0.001429
# 6 -0.002575 -0.000244 -0.001435 0.002876 -0.001429 0.021742
#
#
# Mechanical properties :
#
#
# Convention : Reuss Voigt Hill
#
# Bulk Modulus (GPa) = 40.98701 43.07706 42.03203
# Shear Modulus (GPa) = 38.35758 40.91171 39.63464
#
# Velocity S-wave (km/s) = 4.18756 4.32473 4.25670
# Velocity P-wave (km/s) = 6.48989 6.68064 6.58596
#
# Compressibility (1/GPa) = 0.02439798
#
# Stress axis : x y z
#
# Youngs Moduli (GPa) = 93.65487 103.00711 78.41212
#
# Poissons Ratio (x) = 0.06638 0.18111
# Poissons Ratio (y) = 0.06035 0.11105
# Poissons Ratio (z) = 0.21632 0.14588
#
# Static dielectric constant tensor:
#      x y z
#    x 1.826510 0.063130 0.067800 
#    y 0.063130 2.538420 0.424500 
#    z 0.067800 0.424500 2.100670 
# 
# From -- ./inp_files/14494.got.cif
#   From: 2010.05.17/outbox.cif.g08.bks.cpg/sg2_8_cif.got.tgz:14494.got - 2010.06.03 11:33:40.
