data_PCOD9063216
_publ_section_title
;
Structure prediction by ZEFSAII (Michael W. Deem and Ramdas Pophale) SiO2 
 PCOD9063216
Probable space group: P -1
;
_chemical_formula_sum "Si O2"
_cell_formula_units_Z 16
_cell_length_a 19.364508
_cell_length_b 13.165781
_cell_length_c 9.329021
_cell_angle_alpha 38.400540
_cell_angle_beta 40.980058
_cell_angle_gamma 29.858548
_cell_volume 713.399072
_symmetry_space_group_name_H-M "P -1"
_symmetry_group_IT_number 2
_symmetry_cell_setting 'triclinic'
loop_
_space_group_symop_operation_xyz
x,y,z
-x,-y,-z
loop_
_atom_site_type_symbol
_atom_site_label
_atom_site_fract_x
_atom_site_fract_y
_atom_site_fract_z
Si Si1 0.360819 0.545319 0.707055
Si Si2 0.922163 0.724571 0.966855
Si Si3 0.226176 0.104327 0.503106
Si Si4 0.088363 0.060571 0.531400
Si Si5 0.967558 0.866880 0.017546
Si Si6 0.763734 0.536855 0.785998
Si Si7 0.650000 0.809591 0.391189
Si Si8 0.539000 0.814122 0.254474
O O1 0.500000 0.500000 0.500000
O O2 0.227501 0.803657 0.622940
O O3 0.351531 0.417865 0.740385
O O4 0.359837 0.443253 0.968951
O O5 0.995489 0.721800 0.996939
O O6 0.913903 0.877409 0.695085
O O7 0.766522 0.827616 0.152515
O O8 0.000000 0.500000 0.000000
O O9 0.229901 0.286899 0.350731
O O10 0.116549 0.185298 0.454454
O O11 0.385917 0.893936 0.438113
O O12 0.174751 0.042954 0.780029
O O13 0.966244 0.057997 0.764519
O O14 0.092162 0.700521 0.122304
O O15 0.734962 0.595837 0.598873
O O16 0.603488 0.799330 0.319651
O O17 0.500000 0.000000 0.500000
O O18 0.500000 0.000000 0.000000
#
# Coordination Sequence:
#
# PCOD9063216 Si02
#       8
#     2   2   2   2   2   2   2   2
#     4  11  24  44  67 103 141 186 225 286 353 412
#     4  12  27  46  73 105 138 185 242 290 346 421
#     4  12  21  43  69  99 134 186 230 282 342 418
#     4  11  26  42  71  99 144 182 231 288 356 414
#     4  11  25  46  67 100 142 181 230 295 358 406
#     4  11  24  43  72  98 137 182 237 287 345 419
#     4  12  25  44  71 108 137 178 238 292 340 413
#     4  12  23  43  73 102 138 182 236 281 344 420
#
# _framework density 22.427838999999999
#
# number of rings (size 3 to 8) (size 9 to 14) (size 15 to 20)
#    0.000    0.500    5.000    2.625    7.000    0.000 
#    0.000    0.625    0.000    0.000    0.000    0.000 
#    0.000    0.000    0.000    0.000    0.000    0.000 
#
# Total GULP energy -89422.367047 kJ/mol
# GULP energy per Si atom -5588.897940 kJ/mol
# Density = 2.237679 g / cm^3
# Si number density = 22.427839 Si / 1000 Ang^3
#
#
#
# Elastic Constant Matrix: (Units=GPa)
#
#
# Indices 1 2 3 4 5 6 
#
# 1 125.1506 16.6600 54.8585 -1.2139 27.1656 2.5729
# 2 16.6600 46.8650 36.3097 2.5487 -6.9478 2.7455
# 3 54.8585 36.3097 207.9183 8.5188 1.6186 -17.0284
# 4 -1.2139 2.5487 8.5188 34.4489 -7.4197 -4.3733
# 5 27.1656 -6.9478 1.6186 -7.4197 47.8233 5.2411
# 6 2.5729 2.7455 -17.0284 -4.3733 5.2411 27.6093
#
#
#
# Elastic Compliance Matrix: (Units=1/GPa)
#
#
# Indices 1 2 3 4 5 6 
#
# 1 0.010828 -0.002887 -0.002372 -0.000332 -0.006430 -0.001017
# 2 -0.002887 0.027259 -0.004566 -0.000441 0.006403 -0.006543
# 3 -0.002372 -0.004566 0.006652 -0.000836 -0.000184 0.004680
# 4 -0.000332 -0.000441 -0.000836 0.030682 0.004523 0.003561
# 5 -0.006430 0.006403 -0.000184 0.004523 0.026694 -0.004502
# 6 -0.001017 -0.006543 0.004680 0.003561 -0.004502 0.041270
#
#
# Mechanical properties :
#
#
# Convention : Reuss Voigt Hill
#
# Bulk Modulus (GPa) = 39.86040 66.17669 53.01854
# Shear Modulus (GPa) = 29.17172 40.11668 34.64420
#
# Velocity S-wave (km/s) = 3.61042 4.23389 3.93453
# Velocity P-wave (km/s) = 5.93225 7.31243 6.65820
#
# Compressibility (1/GPa) = 0.02508756
#
# Stress axis : x y z
#
# Youngs Moduli (GPa) = 92.35337 36.68577 150.33137
#
# Poissons Ratio (x) = 0.10590 0.35665
# Poissons Ratio (y) = 0.26660 0.68646
# Poissons Ratio (z) = 0.21910 0.16752
#
# Static dielectric constant tensor:
#      x y z
#    x 1.873080 0.024140 -0.039240 
#    y 0.024140 1.866070 0.032900 
#    z -0.039240 0.032900 1.863170 
# 
# From -- ./inp_files/347464.got.cif
#   From: 2010.05.17/outbox.cif.g08.bks.cpg/sg2_174_cif.got.tgz:347464.got - 2010.06.03 11:33:40.
