data_PCOD9063514
_publ_section_title
;
Structure prediction by ZEFSAII (Michael W. Deem and Ramdas Pophale) SiO2 
 PCOD9063514
Probable space group: P -1
;
_chemical_formula_sum "Si O2"
_cell_formula_units_Z 14
_cell_length_a 15.222532
_cell_length_b 10.709499
_cell_length_c 9.358664
_cell_angle_alpha 56.399290
_cell_angle_beta 97.059903
_cell_angle_gamma 146.401274
_cell_volume 478.032524
_symmetry_space_group_name_H-M "P -1"
_symmetry_group_IT_number 2
_symmetry_cell_setting 'triclinic'
loop_
_space_group_symop_operation_xyz
x,y,z
-x,-y,-z
loop_
_atom_site_type_symbol
_atom_site_label
_atom_site_fract_x
_atom_site_fract_y
_atom_site_fract_z
Si Si1 0.251757 0.033635 0.850265
Si Si2 0.032909 0.951848 0.394897
Si Si3 0.823037 0.134945 0.383014
Si Si4 0.814897 0.887052 0.964785
Si Si5 0.484493 0.834693 0.204558
Si Si6 0.280470 0.953014 0.289357
Si Si7 0.625214 0.221802 0.535645
O O1 0.259732 0.054089 0.667189
O O2 0.451054 0.222746 0.810420
O O3 0.247439 0.186924 0.831925
O O4 0.022181 0.573305 0.129818
O O5 0.066015 0.837610 0.535019
O O6 0.204496 0.238566 0.110864
O O7 0.772991 0.561098 0.527878
O O8 0.000000 0.000000 0.500000
O O9 0.649613 0.915511 0.613109
O O10 0.692046 0.850902 0.914361
O O11 0.100089 0.328975 0.750343
O O12 0.590338 0.027792 0.259635
O O13 0.500000 0.000000 0.000000
O O14 0.368298 0.928044 0.283532
O O15 0.000000 0.500000 0.500000
O O16 0.500000 0.000000 0.500000
#
# Coordination Sequence:
#
# PCOD9063514 Si02
#       7
#     2   2   2   2   2   2   2
#     4  11  19  32  53  88 111 131 178 235 279 304
#     4  10  22  41  57  75 108 154 185 211 267 337
#     4  10  19  30  56  80 111 142 173 222 277 319
#     4   9  19  33  54  73 105 147 179 212 266 332
#     4  11  21  32  54  86 110 134 179 236 265 303
#     4   9  14  28  44  68 101 141 178 199 257 323
#     4  10  18  27  45  77 112 134 167 219 274 311
#
# _framework density 29.286711
#
# number of rings (size 3 to 8) (size 9 to 14) (size 15 to 20)
#    0.000    2.000    4.286    2.571    2.000    0.000 
#    0.000    2.143    0.000    0.000    0.000    0.000 
#    0.000    0.000    0.000    0.000    0.000    0.000 
#
# Total GULP energy -78018.997035 kJ/mol
# GULP energy per Si atom -5572.785502 kJ/mol
# Density = 2.922005 g / cm^3
# Si number density = 29.286711 Si / 1000 Ang^3
#
#
#
# Elastic Constant Matrix: (Units=GPa)
#
#
# Indices 1 2 3 4 5 6 
#
# 1 135.3808 27.8191 56.6378 15.8204 -34.4326 -19.2698
# 2 27.8191 70.1730 30.9055 33.5459 -8.4504 -24.0628
# 3 56.6378 30.9055 141.5927 45.2352 -21.1890 -27.2834
# 4 15.8204 33.5459 45.2352 61.6218 -22.5628 -14.4352
# 5 -34.4326 -8.4504 -21.1890 -22.5628 63.3720 25.1376
# 6 -19.2698 -24.0628 -27.2834 -14.4352 25.1376 55.0175
#
#
#
# Elastic Compliance Matrix: (Units=1/GPa)
#
#
# Indices 1 2 3 4 5 6 
#
# 1 0.010912 -0.004605 -0.004301 0.004721 0.006345 -0.001986
# 2 -0.004605 0.024321 0.001671 -0.013742 -0.007415 0.009635
# 3 -0.004301 0.001671 0.011412 -0.008283 -0.002836 0.004006
# 4 0.004721 -0.013742 -0.008283 0.031453 0.011292 -0.005371
# 5 0.006345 -0.007415 -0.002836 0.011292 0.025769 -0.011238
# 6 -0.001986 0.009635 0.004006 -0.005371 -0.011238 0.027407
#
#
# Mechanical properties :
#
#
# Convention : Reuss Voigt Hill
#
# Bulk Modulus (GPa) = 31.08160 64.20791 47.64476
# Shear Modulus (GPa) = 31.95546 51.45454 41.70500
#
# Velocity S-wave (km/s) = 3.30680 4.19612 3.77772
# Velocity P-wave (km/s) = 5.02154 6.74151 5.94407
#
# Compressibility (1/GPa) = 0.03217337
#
# Stress axis : x y z
#
# Youngs Moduli (GPa) = 91.64505 41.11753 87.62898
#
# Poissons Ratio (x) = 0.18935 0.37688
# Poissons Ratio (y) = 0.42204 -0.14640
# Poissons Ratio (z) = 0.39415 -0.06869
#
# Static dielectric constant tensor:
#      x y z
#    x 2.199130 0.099510 0.071320 
#    y 0.099510 2.217180 -0.002000 
#    z 0.071320 -0.002000 2.399830 
# 
# From -- ./inp_files/174725.got.cif
#   From: 2010.05.17/outbox.cif.g08.bks.cpg/sg2_88_cif.got.tgz:174725.got - 2010.06.03 11:33:40.
