data_PCOD9063813
_publ_section_title
;
Structure prediction by ZEFSAII (Michael W. Deem and Ramdas Pophale) SiO2 
 PCOD9063813
Probable space group: P -1
;
_chemical_formula_sum "Si O2"
_cell_formula_units_Z 16
_cell_length_a 8.733323
_cell_length_b 11.150214
_cell_length_c 8.657273
_cell_angle_alpha 67.776592
_cell_angle_beta 113.318859
_cell_angle_gamma 107.565352
_cell_volume 705.100509
_symmetry_space_group_name_H-M "P -1"
_symmetry_group_IT_number 2
_symmetry_cell_setting 'triclinic'
loop_
_space_group_symop_operation_xyz
x,y,z
-x,-y,-z
loop_
_atom_site_type_symbol
_atom_site_label
_atom_site_fract_x
_atom_site_fract_y
_atom_site_fract_z
Si Si1 0.883436 0.290225 0.816186
Si Si2 0.665594 0.495269 0.676634
Si Si3 0.402044 0.893743 0.361798
Si Si4 0.353442 0.859073 0.700990
Si Si5 0.509144 0.364100 0.984458
Si Si6 0.245129 0.207259 0.449585
Si Si7 0.830582 0.804465 0.209852
Si Si8 0.073127 0.900402 0.813660
O O1 0.820894 0.429250 0.708119
O O2 0.711336 0.186593 0.771008
O O3 0.019443 0.266690 0.754981
O O4 0.945714 0.233457 0.027790
O O5 0.500000 0.500000 0.500000
O O6 0.600888 0.405666 0.839995
O O7 0.734331 0.644902 0.676999
O O8 0.306349 0.872745 0.497042
O O9 0.575539 0.837878 0.475781
O O10 0.465599 0.043046 0.266208
O O11 0.224549 0.902120 0.750309
O O12 0.381827 0.715591 0.826424
O O13 0.334069 0.267656 0.915257
O O14 0.500000 0.500000 0.000000
O O15 0.203607 0.213766 0.611742
O O16 0.099137 0.112150 0.346425
O O17 0.885354 0.963728 0.138403
#
# Coordination Sequence:
#
# PCOD9063813 Si02
#       8
#     2   2   2   2   2   2   2   2
#     4  12  27  45  73 105 148 193 241 299 367 431
#     4  12  25  50  72 103 142 198 245 293 357 433
#     4  11  24  44  74 108 144 192 245 297 365 434
#     4  11  25  43  75 107 142 192 248 293 366 428
#     4  12  27  48  75 106 148 191 247 299 361 439
#     4  12  26  46  76 104 153 190 240 301 361 433
#     4  12  27  47  73 110 148 191 238 306 369 424
#     4  12  27  47  73 112 149 184 244 310 364 427
#
# _framework density 22.691799
#
# number of rings (size 3 to 8) (size 9 to 14) (size 15 to 20)
#    0.000    0.250    5.000    3.000    7.000    3.000 
#    0.000    0.000    0.000    0.000    0.000    0.000 
#    0.000    0.000    0.000    0.000    0.000    0.000 
#
# Total GULP energy -89508.553810 kJ/mol
# GULP energy per Si atom -5594.284613 kJ/mol
# Density = 2.264015 g / cm^3
# Si number density = 22.691799 Si / 1000 Ang^3
#
#
#
# Elastic Constant Matrix: (Units=GPa)
#
#
# Indices 1 2 3 4 5 6 
#
# 1 115.0407 31.1635 33.0327 -4.0794 0.3553 -31.9864
# 2 31.1635 110.9180 32.9731 -8.5859 14.7035 -11.2400
# 3 33.0327 32.9731 71.1364 -4.8226 9.5511 -7.5505
# 4 -4.0794 -8.5859 -4.8226 48.8742 1.3855 9.8150
# 5 0.3553 14.7035 9.5511 1.3855 29.1361 -1.7902
# 6 -31.9864 -11.2400 -7.5505 9.8150 -1.7902 40.7394
#
#
#
# Elastic Compliance Matrix: (Units=1/GPa)
#
#
# Indices 1 2 3 4 5 6 
#
# 1 0.013111 -0.001841 -0.004747 -0.001678 0.002985 0.009442
# 2 -0.001841 0.011391 -0.003660 0.001525 -0.004571 0.000450
# 3 -0.004747 -0.003660 0.018430 0.001266 -0.004308 -0.001816
# 4 -0.001678 0.001525 0.001266 0.022007 -0.002584 -0.006078
# 5 0.002985 -0.004571 -0.004308 -0.002584 0.038286 0.002589
# 6 0.009442 0.000450 -0.001816 -0.006078 0.002589 0.033325
#
#
# Mechanical properties :
#
#
# Convention : Reuss Voigt Hill
#
# Bulk Modulus (GPa) = 44.57347 54.60374 49.58861
# Shear Modulus (GPa) = 30.39051 37.07832 33.73441
#
# Velocity S-wave (km/s) = 3.66358 4.04666 3.85987
# Velocity P-wave (km/s) = 6.13036 6.77860 6.46261
#
# Compressibility (1/GPa) = 0.02243487
#
# Stress axis : x y z
#
# Youngs Moduli (GPa) = 76.27211 87.79157 54.25979
#
# Poissons Ratio (x) = 0.16165 0.25758
# Poissons Ratio (y) = 0.14044 0.19858
# Poissons Ratio (z) = 0.36207 0.32130
#
# Static dielectric constant tensor:
#      x y z
#    x 1.850260 -0.019770 -0.000700 
#    y -0.019770 1.880030 -0.007940 
#    z -0.000700 -0.007940 1.849240 
# 
# From -- ./inp_files/185398.got.cif
#   From: 2010.05.17/outbox.cif.g08.bks.cpg/sg2_93_cif.got.tgz:185398.got - 2010.06.03 11:33:40.
