data_PCOD9063267
_publ_section_title
;
Structure prediction by ZEFSAII (Michael W. Deem and Ramdas Pophale) SiO2 
 PCOD9063267
Probable space group: P -1
;
_chemical_formula_sum "Si O2"
_cell_formula_units_Z 14
_cell_length_a 14.350801
_cell_length_b 15.496778
_cell_length_c 7.979194
_cell_angle_alpha 103.928184
_cell_angle_beta 124.344037
_cell_angle_gamma 30.789465
_cell_volume 612.454946
_symmetry_space_group_name_H-M "P -1"
_symmetry_group_IT_number 2
_symmetry_cell_setting 'triclinic'
loop_
_space_group_symop_operation_xyz
x,y,z
-x,-y,-z
loop_
_atom_site_type_symbol
_atom_site_label
_atom_site_fract_x
_atom_site_fract_y
_atom_site_fract_z
Si Si1 0.260436 0.909110 0.054835
Si Si2 0.771577 0.257997 0.209686
Si Si3 0.262925 0.327145 0.585652
Si Si4 0.446392 0.048842 0.171270
Si Si5 0.832650 0.481779 0.734939
Si Si6 0.246999 0.661824 0.428347
Si Si7 0.660345 0.090643 0.480457
O O1 0.215914 0.839178 0.932502
O O2 0.527561 0.751734 0.164279
O O3 0.291683 0.908820 0.281449
O O4 0.014323 0.139028 0.849048
O O5 0.752148 0.264716 0.392441
O O6 0.500000 0.500000 0.000000
O O7 0.055711 0.101992 0.404817
O O8 0.186753 0.424634 0.376446
O O9 0.000000 0.500000 0.500000
O O10 0.417231 0.125232 0.663250
O O11 0.571569 0.052709 0.353742
O O12 0.135388 0.266397 0.993002
O O13 0.500000 0.000000 0.000000
O O14 0.763050 0.433815 0.565583
O O15 0.602288 0.666532 0.721967
O O16 0.500000 0.500000 0.500000
#
# Coordination Sequence:
#
# PCOD9063267 Si02
#       7
#     2   2   2   2   2   2   2
#     4  11  25  45  66 109 146 193 245 299 363 438
#     4  12  25  45  75 105 145 194 248 303 372 437
#     4  11  24  43  74 105 150 187 244 303 362 434
#     4  12  24  46  75 109 145 196 251 300 368 437
#     4  11  24  47  71 107 147 189 244 303 369 435
#     4  12  25  48  75 108 144 192 247 309 367 442
#     4  11  26  45  73 104 150 196 240 307 367 434
#
# _framework density 22.858823999999998
#
# number of rings (size 3 to 8) (size 9 to 14) (size 15 to 20)
#    0.000    0.571    2.857    5.571    2.000    2.286 
#    2.571    0.000    0.000    0.000    0.000    0.000 
#    0.000    0.000    0.000    0.000    0.000    0.000 
#
# Total GULP energy -78235.118254 kJ/mol
# GULP energy per Si atom -5588.222732 kJ/mol
# Density = 2.280680 g / cm^3
# Si number density = 22.858824 Si / 1000 Ang^3
#
#
#
# Elastic Constant Matrix: (Units=GPa)
#
#
# Indices 1 2 3 4 5 6 
#
# 1 86.9768 58.8349 45.5067 -9.6368 27.0323 -5.1615
# 2 58.8349 115.1869 70.8002 -19.6237 1.1760 9.9823
# 3 45.5067 70.8002 113.1652 -25.4454 32.7318 -9.6041
# 4 -9.6368 -19.6237 -25.4454 70.2425 -3.2002 12.6605
# 5 27.0323 1.1760 32.7318 -3.2002 41.1978 -2.9035
# 6 -5.1615 9.9823 -9.6041 12.6605 -2.9035 52.5753
#
#
#
# Elastic Compliance Matrix: (Units=1/GPa)
#
#
# Indices 1 2 3 4 5 6 
#
# 1 0.029235 -0.021199 0.009279 -0.001052 -0.025507 0.007435
# 2 -0.021199 0.033910 -0.021741 0.002084 0.029576 -0.011360
# 3 0.009279 -0.021741 0.027687 0.002570 -0.026702 0.008003
# 4 -0.001052 0.002084 0.002570 0.016303 -0.000425 -0.003979
# 5 -0.025507 0.029576 -0.026702 -0.000425 0.060675 -0.009544
# 6 0.007435 -0.011360 0.008003 -0.003979 -0.009544 0.023800
#
#
# Mechanical properties :
#
#
# Convention : Reuss Voigt Hill
#
# Bulk Modulus (GPa) = 42.53395 73.95694 58.24544
# Shear Modulus (GPa) = 18.74282 42.14893 30.44588
#
# Velocity S-wave (km/s) = 2.86656 4.29870 3.65349
# Velocity P-wave (km/s) = 5.44094 7.55397 6.58279
#
# Compressibility (1/GPa) = 0.02351063
#
# Stress axis : x y z
#
# Youngs Moduli (GPa) = 34.20593 29.48975 36.11740
#
# Poissons Ratio (x) = 0.62515 -0.33512
# Poissons Ratio (y) = 0.72513 0.78522
# Poissons Ratio (z) = -0.31739 0.64113
#
# Static dielectric constant tensor:
#      x y z
#    x 1.908410 -0.029700 -0.006180 
#    y -0.029700 1.879220 -0.032080 
#    z -0.006180 -0.032080 1.908850 
# 
# From -- ./inp_files/315700.got.cif
#   From: 2010.05.17/outbox.cif.g08.bks.cpg/sg2_158_cif.got.tgz:315700.got - 2010.06.03 11:33:40.
