data_PCOD9063668
_publ_section_title
;
Structure prediction by ZEFSAII (Michael W. Deem and Ramdas Pophale) SiO2 
 PCOD9063668
Probable space group: P -1
;
_chemical_formula_sum "Si O2"
_cell_formula_units_Z 14
_cell_length_a 10.677531
_cell_length_b 12.563845
_cell_length_c 13.254370
_cell_angle_alpha 151.543814
_cell_angle_beta 98.116707
_cell_angle_gamma 100.770722
_cell_volume 630.620654
_symmetry_space_group_name_H-M "P -1"
_symmetry_group_IT_number 2
_symmetry_cell_setting 'triclinic'
loop_
_space_group_symop_operation_xyz
x,y,z
-x,-y,-z
loop_
_atom_site_type_symbol
_atom_site_label
_atom_site_fract_x
_atom_site_fract_y
_atom_site_fract_z
Si Si1 0.398218 0.594572 0.527267
Si Si2 0.874497 0.536001 0.463775
Si Si3 0.701418 0.193300 0.953615
Si Si4 0.439895 0.743999 0.198724
Si Si5 0.856409 0.801677 0.009006
Si Si6 0.996411 0.527999 0.902812
Si Si7 0.234790 0.120742 0.734763
O O1 0.500000 0.500000 0.500000
O O2 0.293056 0.610061 0.611664
O O3 0.539647 0.895216 0.735568
O O4 0.261488 0.364540 0.238022
O O5 0.000000 0.500000 0.500000
O O6 0.818400 0.392991 0.227293
O O7 0.974347 0.883806 0.749200
O O8 0.626215 0.285308 0.945618
O O9 0.819380 0.198875 0.892640
O O10 0.614327 0.824669 0.260740
O O11 0.500000 0.000000 0.500000
O O12 0.282082 0.427008 0.963270
O O13 0.771968 0.871095 0.138392
O O14 0.887452 0.600438 0.900463
O O15 0.930311 0.209868 0.590423
O O16 0.000000 0.500000 0.000000
#
# Coordination Sequence:
#
# PCOD9063668 Si02
#       7
#     2   2   2   2   2   2   2
#     4  12  27  47  74 108 148 193 256 319 370 440
#     4  12  27  48  75 108 147 200 259 310 378 447
#     4  12  25  44  74 103 147 188 249 301 375 433
#     4  11  25  45  70 110 145 191 242 308 366 455
#     4  12  26  47  75 103 151 193 244 310 382 438
#     4  12  26  45  74 110 151 195 246 300 376 466
#     4  11  24  44  72 103 149 190 241 296 379 448
#
# _framework density 22.20035
#
# number of rings (size 3 to 8) (size 9 to 14) (size 15 to 20)
#    0.000    0.286    1.429    7.714    6.000    2.286 
#    0.000    0.000    0.000    0.000    0.000    0.000 
#    0.000    0.000    0.000    0.000    0.000    0.000 
#
# Total GULP energy -78128.442403 kJ/mol
# GULP energy per Si atom -5580.603029 kJ/mol
# Density = 2.214982 g / cm^3
# Si number density = 22.200350 Si / 1000 Ang^3
#
#
#
# Elastic Constant Matrix: (Units=GPa)
#
#
# Indices 1 2 3 4 5 6 
#
# 1 89.5153 67.7895 41.7784 9.9646 14.3705 9.8799
# 2 67.7895 183.5375 86.1657 -3.7970 20.7536 1.8614
# 3 41.7784 86.1657 150.4248 -4.3516 28.6551 -27.6482
# 4 9.9646 -3.7970 -4.3516 47.5622 5.4704 6.9754
# 5 14.3705 20.7536 28.6551 5.4704 32.2955 -6.8405
# 6 9.8799 1.8614 -27.6482 6.9754 -6.8405 52.4698
#
#
#
# Elastic Compliance Matrix: (Units=1/GPa)
#
#
# Indices 1 2 3 4 5 6 
#
# 1 0.017328 -0.005052 -0.002253 -0.003303 -0.002794 -0.004196
# 2 -0.005052 0.009400 -0.004117 0.001809 -0.000849 -0.001903
# 3 -0.002253 -0.004117 0.011853 0.001024 -0.005787 0.005925
# 4 -0.003303 0.001809 0.001024 0.022917 -0.005035 -0.002605
# 5 -0.002794 -0.000849 -0.005787 -0.005035 0.039443 0.003318
# 6 -0.004196 -0.001903 0.005925 -0.002605 0.003318 0.023818
#
#
# Mechanical properties :
#
#
# Convention : Reuss Voigt Hill
#
# Bulk Modulus (GPa) = 63.54649 90.54943 77.04796
# Shear Modulus (GPa) = 32.71197 41.64843 37.18020
#
# Velocity S-wave (km/s) = 3.84277 4.33601 4.09682
# Velocity P-wave (km/s) = 6.95524 8.12059 7.56040
#
# Compressibility (1/GPa) = 0.01573651
#
# Stress axis : x y z
#
# Youngs Moduli (GPa) = 57.70918 106.38261 84.36626
#
# Poissons Ratio (x) = 0.53747 0.19010
# Poissons Ratio (y) = 0.29156 0.34733
# Poissons Ratio (z) = 0.13003 0.43797
#
# Static dielectric constant tensor:
#      x y z
#    x 2.010710 0.036350 0.009820 
#    y 0.036350 1.678050 0.114110 
#    z 0.009820 0.114110 1.842710 
# 
# From -- ./inp_files/406928.got.cif
#   From: 2010.05.17/outbox.cif.g08.bks.cpg/sg2_204_cif.got.tgz:406928.got - 2010.06.03 11:33:40.
