data_PCOD9063255
_publ_section_title
;
Structure prediction by ZEFSAII (Michael W. Deem and Ramdas Pophale) SiO2 
 PCOD9063255
Probable space group: P -1
;
_chemical_formula_sum "Si O2"
_cell_formula_units_Z 14
_cell_length_a 20.543731
_cell_length_b 11.392204
_cell_length_c 6.540485
_cell_angle_alpha 120.597699
_cell_angle_beta 125.869643
_cell_angle_gamma 27.417553
_cell_volume 570.927436
_symmetry_space_group_name_H-M "P -1"
_symmetry_group_IT_number 2
_symmetry_cell_setting 'triclinic'
loop_
_space_group_symop_operation_xyz
x,y,z
-x,-y,-z
loop_
_atom_site_type_symbol
_atom_site_label
_atom_site_fract_x
_atom_site_fract_y
_atom_site_fract_z
Si Si1 0.192789 0.035868 0.463159
Si Si2 0.303370 0.144260 0.816590
Si Si3 0.271841 0.590046 0.684999
Si Si4 0.994763 0.393433 0.070668
Si Si5 0.394295 0.528768 0.245612
Si Si6 0.461796 0.169313 0.322466
Si Si7 0.990891 0.839150 0.447875
O O1 0.316688 0.961634 0.717594
O O2 0.062860 0.200303 0.532756
O O3 0.142879 0.180090 0.291373
O O4 0.238495 0.820044 0.290364
O O5 0.137167 0.405972 0.828210
O O6 0.361447 0.090355 0.644184
O O7 0.399275 0.110528 0.100767
O O8 0.386020 0.334065 0.535192
O O9 0.148587 0.678520 0.661750
O O10 0.151891 0.854335 0.570824
O O11 0.372218 0.538527 0.972768
O O12 0.000000 0.500000 0.000000
O O13 0.980636 0.270762 0.816961
O O14 0.500000 0.500000 0.500000
O O15 0.411978 0.357932 0.235924
#
# Coordination Sequence:
#
# PCOD9063255 Si02
#       7
#     2   2   2   2   2   2   2
#     4  12  25  46  74 109 147 193 244 311 366 437
#     4  11  25  47  68 104 151 197 237 298 372 438
#     4  11  25  45  74 111 145 193 249 309 366 427
#     4  12  25  44  74 107 148 190 242 303 373 443
#     4  12  26  47  74 108 146 198 251 305 365 437
#     4  11  25  48  71 101 152 193 246 300 363 444
#     4  11  24  43  73 112 145 188 251 306 365 431
#
# _framework density 24.521504
#
# number of rings (size 3 to 8) (size 9 to 14) (size 15 to 20)
#    0.000    0.571    7.143    0.429    2.000    1.143 
#    5.143    1.429    0.000    0.000    0.000    0.000 
#    0.000    0.000    0.000    0.000    0.000    0.000 
#
# Total GULP energy -78089.351204 kJ/mol
# GULP energy per Si atom -5577.810800 kJ/mol
# Density = 2.446569 g / cm^3
# Si number density = 24.521504 Si / 1000 Ang^3
#
#
#
# Elastic Constant Matrix: (Units=GPa)
#
#
# Indices 1 2 3 4 5 6 
#
# 1 126.0258 30.0265 40.9499 -7.3654 9.5251 -4.0490
# 2 30.0265 69.7179 49.2180 14.6966 0.4445 4.6435
# 3 40.9499 49.2180 127.6680 26.6732 16.4584 -11.0198
# 4 -7.3654 14.6966 26.6732 52.3181 0.5219 1.0546
# 5 9.5251 0.4445 16.4584 0.5219 35.7818 5.1802
# 6 -4.0490 4.6435 -11.0198 1.0546 5.1802 36.6465
#
#
#
# Elastic Compliance Matrix: (Units=1/GPa)
#
#
# Indices 1 2 3 4 5 6 
#
# 1 0.009857 -0.003447 -0.002255 0.003503 -0.001739 0.000993
# 2 -0.003447 0.022660 -0.008368 -0.002508 0.005458 -0.006468
# 3 -0.002255 -0.008368 0.014290 -0.005310 -0.006690 0.006207
# 4 0.003503 -0.002508 -0.005310 0.023040 0.001460 -0.001761
# 5 -0.001739 0.005458 -0.006690 0.001460 0.032488 -0.007530
# 6 0.000993 -0.006468 0.006207 -0.001761 -0.007530 0.031198
#
#
# Mechanical properties :
#
#
# Convention : Reuss Voigt Hill
#
# Bulk Modulus (GPa) = 53.56943 62.64450 58.10697
# Shear Modulus (GPa) = 29.78046 38.49710 34.13878
#
# Velocity S-wave (km/s) = 3.48870 3.96654 3.73526
# Velocity P-wave (km/s) = 6.17425 6.82496 6.50774
#
# Compressibility (1/GPa) = 0.01866736
#
# Stress axis : x y z
#
# Youngs Moduli (GPa) = 101.45288 44.12989 69.98035
#
# Poissons Ratio (x) = 0.15211 0.15779
# Poissons Ratio (y) = 0.34969 0.58561
# Poissons Ratio (z) = 0.22875 0.36929
#
# Static dielectric constant tensor:
#      x y z
#    x 1.990180 -0.034740 0.047210 
#    y -0.034740 2.234350 -0.008860 
#    z 0.047210 -0.008860 1.956200 
# 
# From -- ./inp_files/118873.got.cif
#   From: 2010.05.17/outbox.cif.g08.bks.cpg/sg2_60_cif.got.tgz:118873.got - 2010.06.03 11:33:40.
