data_PCOD9063581
_publ_section_title
;
Structure prediction by ZEFSAII (Michael W. Deem and Ramdas Pophale) SiO2 
 PCOD9063581
Probable space group: P -1
;
_chemical_formula_sum "Si O2"
_cell_formula_units_Z 12
_cell_length_a 15.517402
_cell_length_b 12.310106
_cell_length_c 9.044386
_cell_angle_alpha 49.973905
_cell_angle_beta 142.191414
_cell_angle_gamma 153.350317
_cell_volume 462.409060
_symmetry_space_group_name_H-M "P -1"
_symmetry_group_IT_number 2
_symmetry_cell_setting 'triclinic'
loop_
_space_group_symop_operation_xyz
x,y,z
-x,-y,-z
loop_
_atom_site_type_symbol
_atom_site_label
_atom_site_fract_x
_atom_site_fract_y
_atom_site_fract_z
Si Si1 0.583106 0.857507 0.059264
Si Si2 0.189904 0.716101 0.190712
Si Si3 0.588903 0.394582 0.364044
Si Si4 0.861172 0.890525 0.202779
Si Si5 0.304011 0.119684 0.488164
Si Si6 0.026018 0.366346 0.725918
O O1 0.796259 0.933206 0.217111
O O2 0.618116 0.901581 0.242479
O O3 0.314546 0.567632 0.925368
O O4 0.618551 0.029933 0.863793
O O5 0.325361 0.694410 0.465909
O O6 0.055574 0.687849 0.165904
O O7 0.000000 0.500000 0.000000
O O8 0.792081 0.672213 0.342013
O O9 0.533269 0.361245 0.491330
O O10 0.339232 0.226298 0.087294
O O11 0.132924 0.109008 0.314737
O O12 0.143298 0.884833 0.370212
O O13 0.000000 0.500000 0.500000
#
# Coordination Sequence:
#
# PCOD9063581 Si02
#       6
#     2   2   2   2   2   2
#     4  12  27  46  72 105 142 181 231 289 345 411
#     4  12  26  46  72 105 142 183 230 287 350 412
#     4  11  24  44  71 101 139 183 233 286 344 412
#     4  11  24  45  70 101 139 184 233 284 344 411
#     4  12  26  45  72 104 139 184 234 285 345 412
#     4  12  25  43  70 103 140 183 229 281 345 411
#
# _framework density 25.951049000000001
#
# number of rings (size 3 to 8) (size 9 to 14) (size 15 to 20)
#    0.000    0.333    0.000   10.000    0.000    6.000 
#    0.000    0.000    0.000    0.000    0.000    0.000 
#    0.000    0.000    0.000    0.000    0.000    0.000 
#
# Total GULP energy -67426.180374 kJ/mol
# GULP energy per Si atom -5618.848365 kJ/mol
# Density = 2.589198 g / cm^3
# Si number density = 25.951049 Si / 1000 Ang^3
#
#
#
# Elastic Constant Matrix: (Units=GPa)
#
#
# Indices 1 2 3 4 5 6 
#
# 1 150.8175 23.9717 34.4048 -3.8410 -19.5362 12.2795
# 2 23.9717 72.0222 34.4605 -10.5396 -15.7753 1.4814
# 3 34.4048 34.4605 104.9725 -12.0037 -14.5309 -4.4261
# 4 -3.8410 -10.5396 -12.0037 39.9793 0.1456 -7.1710
# 5 -19.5362 -15.7753 -14.5309 0.1456 60.9733 4.4571
# 6 12.2795 1.4814 -4.4261 -7.1710 4.4571 38.6212
#
#
#
# Elastic Compliance Matrix: (Units=1/GPa)
#
#
# Indices 1 2 3 4 5 6 
#
# 1 0.007776 -0.001215 -0.002101 -0.000754 0.001900 -0.003026
# 2 -0.001215 0.017647 -0.004646 0.003018 0.003107 -0.000621
# 3 -0.002101 -0.004646 0.012283 0.002736 0.000851 0.002664
# 4 -0.000754 0.003018 0.002736 0.027535 0.000726 0.005466
# 5 0.001900 0.003107 0.000851 0.000726 0.018204 -0.002592
# 6 -0.003026 -0.000621 0.002664 0.005466 -0.002592 0.028498
#
#
# Mechanical properties :
#
#
# Convention : Reuss Voigt Hill
#
# Bulk Modulus (GPa) = 45.90762 57.05403 51.48082
# Shear Modulus (GPa) = 37.00235 43.57978 40.29106
#
# Velocity S-wave (km/s) = 3.78014 4.10238 3.94455
# Velocity P-wave (km/s) = 6.06474 6.66876 6.37391
#
# Compressibility (1/GPa) = 0.02178288
#
# Stress axis : x y z
#
# Youngs Moduli (GPa) = 128.60004 56.66692 81.41426
#
# Poissons Ratio (x) = 0.06886 0.17101
# Poissons Ratio (y) = 0.15626 0.37824
# Poissons Ratio (z) = 0.27013 0.26327
#
# Static dielectric constant tensor:
#      x y z
#    x 2.014280 -0.011590 -0.006750 
#    y -0.011590 1.976430 -0.004240 
#    z -0.006750 -0.004240 2.031360 
# 
# From -- ./inp_files/306635.got.cif
#   From: 2010.05.17/outbox.cif.g08.bks.cpg/sg2_154_cif.got.tgz:306635.got - 2010.06.03 11:33:40.
