data_PCOD9063379
_publ_section_title
;
Structure prediction by ZEFSAII (Michael W. Deem and Ramdas Pophale) SiO2 
 PCOD9063379
Probable space group: P -1
;
_chemical_formula_sum "Si O2"
_cell_formula_units_Z 14
_cell_length_a 8.144983
_cell_length_b 18.485803
_cell_length_c 10.768354
_cell_angle_alpha 33.627509
_cell_angle_beta 68.915582
_cell_angle_gamma 48.535484
_cell_volume 596.839517
_symmetry_space_group_name_H-M "P -1"
_symmetry_group_IT_number 2
_symmetry_cell_setting 'triclinic'
loop_
_space_group_symop_operation_xyz
x,y,z
-x,-y,-z
loop_
_atom_site_type_symbol
_atom_site_label
_atom_site_fract_x
_atom_site_fract_y
_atom_site_fract_z
Si Si1 0.094022 0.852876 0.319716
Si Si2 0.689823 0.073049 0.523565
Si Si3 0.288403 0.123091 0.986441
Si Si4 0.122392 0.746116 0.737240
Si Si5 0.893589 0.398373 0.505445
Si Si6 0.152624 0.433280 0.180845
Si Si7 0.580356 0.204187 0.883597
O O1 0.163314 0.750268 0.575410
O O2 0.068299 0.754257 0.363275
O O3 0.305299 0.833482 0.231280
O O4 0.826291 0.060982 0.103716
O O5 0.758439 0.190084 0.319458
O O6 0.397411 0.222029 0.393075
O O7 0.834105 0.912258 0.613714
O O8 0.770588 0.974352 0.777280
O O9 0.412149 0.163041 0.988673
O O10 0.045380 0.304758 0.725406
O O11 0.500000 0.000000 0.000000
O O12 0.209512 0.555881 0.016958
O O13 0.608024 0.582762 0.337658
O O14 0.012873 0.446794 0.316910
O O15 0.000000 0.500000 0.000000
#
# Coordination Sequence:
#
# PCOD9063379 Si02
#       7
#     2   2   2   2   2   2   2
#     4  11  24  44  67 100 140 176 223 281 338 401
#     4  11  26  48  69  99 136 184 228 274 340 402
#     4  12  22  46  72  97 138 176 227 283 334 399
#     4  11  26  46  69  98 137 186 224 274 336 411
#     4  12  25  45  70 103 133 177 228 280 342 397
#     4  12  25  44  69 102 137 174 225 280 335 406
#     4  11  25  42  68 103 135 179 223 280 342 398
#
# _framework density 23.456892
#
# number of rings (size 3 to 8) (size 9 to 14) (size 15 to 20)
#    0.000    0.571    4.286    3.000    4.000    0.571 
#    5.143    0.000    0.000    0.000    0.000    0.000 
#    0.000    0.000    0.000    0.000    0.000    0.000 
#
# Total GULP energy -78352.828256 kJ/mol
# GULP energy per Si atom -5596.630590 kJ/mol
# Density = 2.340350 g / cm^3
# Si number density = 23.456892 Si / 1000 Ang^3
#
#
#
# Elastic Constant Matrix: (Units=GPa)
#
#
# Indices 1 2 3 4 5 6 
#
# 1 40.1842 -1.9873 12.5049 1.3311 -11.4112 -10.4274
# 2 -1.9873 68.7525 27.0819 -14.0355 6.0766 -18.9131
# 3 12.5049 27.0819 114.6606 -7.2513 0.1871 -14.7511
# 4 1.3311 -14.0355 -7.2513 51.9691 -13.8566 4.7520
# 5 -11.4112 6.0766 0.1871 -13.8566 40.3664 0.2773
# 6 -10.4274 -18.9131 -14.7511 4.7520 0.2773 23.4016
#
#
#
# Elastic Compliance Matrix: (Units=1/GPa)
#
#
# Indices 1 2 3 4 5 6 
#
# 1 0.033137 0.006443 -0.002775 0.001188 0.008695 0.017879
# 2 0.006443 0.021612 -0.003329 0.003516 -0.000330 0.017529
# 3 -0.002775 -0.003329 0.010139 0.000302 -0.000243 0.002406
# 4 0.001188 0.003516 0.000302 0.022290 0.007464 -0.001053
# 5 0.008695 -0.000330 -0.000243 0.007464 0.029833 0.001586
# 6 0.017879 0.017529 0.002406 -0.001053 0.001586 0.066577
#
#
# Mechanical properties :
#
#
# Convention : Reuss Voigt Hill
#
# Bulk Modulus (GPa) = 15.25170 33.19958 24.22564
# Shear Modulus (GPa) = 24.41827 35.54726 29.98277
#
# Velocity S-wave (km/s) = 3.22993 3.89707 3.57908
# Velocity P-wave (km/s) = 4.51952 5.86803 5.23736
#
# Compressibility (1/GPa) = 0.06556648
#
# Stress axis : x y z
#
# Youngs Moduli (GPa) = 30.17786 46.27162 98.62588
#
# Poissons Ratio (x) = -0.29814 0.27365
# Poissons Ratio (y) = -0.19444 0.32834
# Poissons Ratio (z) = 0.08373 0.15405
#
# Static dielectric constant tensor:
#      x y z
#    x 1.956770 -0.009410 -0.047630 
#    y -0.009410 1.870220 -0.011450 
#    z -0.047630 -0.011450 1.862300 
# 
# From -- ./inp_files/273435.got.cif
#   From: 2010.05.17/outbox.cif.g08.bks.cpg/sg2_137_cif.got.tgz:273435.got - 2010.06.03 11:33:40.
