data_PCOD9063688
_publ_section_title
;
Structure prediction by ZEFSAII (Michael W. Deem and Ramdas Pophale) SiO2 
 PCOD9063688
Probable space group: P -1
;
_chemical_formula_sum "Si O2"
_cell_formula_units_Z 14
_cell_length_a 21.901685
_cell_length_b 21.556347
_cell_length_c 12.502692
_cell_angle_alpha 152.069192
_cell_angle_beta 18.597752
_cell_angle_gamma 161.419150
_cell_volume 593.401396
_symmetry_space_group_name_H-M "P -1"
_symmetry_group_IT_number 2
_symmetry_cell_setting 'triclinic'
loop_
_space_group_symop_operation_xyz
x,y,z
-x,-y,-z
loop_
_atom_site_type_symbol
_atom_site_label
_atom_site_fract_x
_atom_site_fract_y
_atom_site_fract_z
Si Si1 0.481008 0.926787 0.803926
Si Si2 0.509993 0.783250 0.831121
Si Si3 0.598833 0.837295 0.209388
Si Si4 0.888399 0.460736 0.280543
Si Si5 0.681362 0.395646 0.889713
Si Si6 0.834070 0.756647 0.103648
Si Si7 0.135015 0.239375 0.187615
O O1 0.244154 0.693213 0.829506
O O2 0.798820 0.036302 0.423744
O O3 0.500000 0.000000 0.000000
O O4 0.425267 0.027377 0.977522
O O5 0.742823 0.832363 0.444869
O O6 0.443240 0.692024 0.919557
O O7 0.216692 0.613327 0.994024
O O8 0.295548 0.695741 0.554786
O O9 0.532718 0.772850 0.099179
O O10 0.739703 0.790315 0.974075
O O11 0.822611 0.070508 0.201370
O O12 0.835604 0.592004 0.569516
O O13 0.000000 0.500000 0.500000
O O14 0.706213 0.562513 0.074471
O O15 0.746045 0.715162 0.061453
#
# Coordination Sequence:
#
# PCOD9063688 Si02
#       7
#     2   2   2   2   2   2   2
#     4  11  25  45  72 108 146 183 231 291 351 423
#     4  11  27  47  69 109 146 184 236 291 347 420
#     4  12  25  42  78 102 136 192 233 290 351 414
#     4  11  24  46  73 102 142 191 228 283 357 414
#     4  12  26  49  71 102 143 187 244 287 348 422
#     4  12  26  45  74 105 144 183 236 299 348 419
#     4  11  24  44  72 109 141 182 242 286 354 423
#
# _framework density 23.592797999999998
#
# number of rings (size 3 to 8) (size 9 to 14) (size 15 to 20)
#    0.000    0.571    4.286    3.000    2.000    6.857 
#    0.000    0.000    0.000    0.000    0.000    0.000 
#    0.000    0.000    0.000    0.000    0.000    0.000 
#
# Total GULP energy -78385.945030 kJ/mol
# GULP energy per Si atom -5598.996074 kJ/mol
# Density = 2.353910 g / cm^3
# Si number density = 23.592798 Si / 1000 Ang^3
#
#
#
# Elastic Constant Matrix: (Units=GPa)
#
#
# Indices 1 2 3 4 5 6 
#
# 1 177.6272 44.9917 31.5967 14.8271 26.9319 0.0501
# 2 44.9917 131.6792 0.7637 8.8090 10.8806 19.7980
# 3 31.5967 0.7637 71.3498 4.0149 14.4967 -1.1820
# 4 14.8271 8.8090 4.0149 34.7767 0.4784 5.0428
# 5 26.9319 10.8806 14.4967 0.4784 27.5344 -5.1981
# 6 0.0501 19.7980 -1.1820 5.0428 -5.1981 44.3187
#
#
#
# Elastic Compliance Matrix: (Units=1/GPa)
#
#
# Indices 1 2 3 4 5 6 
#
# 1 0.007527 -0.002030 -0.002083 -0.002453 -0.005327 0.000497
# 2 -0.002030 0.009270 0.001441 -0.000970 -0.003244 -0.004370
# 3 -0.002083 0.001441 0.016466 -0.001141 -0.007358 -0.000936
# 4 -0.002453 -0.000970 -0.001141 0.030552 0.002325 -0.002798
# 5 -0.005327 -0.003244 -0.007358 0.002325 0.047892 0.006612
# 6 0.000497 -0.004370 -0.000936 -0.002798 0.006612 0.025584
#
#
# Mechanical properties :
#
#
# Convention : Reuss Voigt Hill
#
# Bulk Modulus (GPa) = 35.81813 59.48448 47.65131
# Shear Modulus (GPa) = 32.90747 41.54624 37.22685
#
# Velocity S-wave (km/s) = 3.73877 4.20095 3.97658
# Velocity P-wave (km/s) = 5.81830 6.98558 6.42849
#
# Compressibility (1/GPa) = 0.02791882
#
# Stress axis : x y z
#
# Youngs Moduli (GPa) = 132.85918 107.87992 60.73052
#
# Poissons Ratio (x) = 0.21901 0.12649
# Poissons Ratio (y) = 0.26972 -0.08752
# Poissons Ratio (z) = 0.27673 -0.15547
#
# Static dielectric constant tensor:
#      x y z
#    x 1.915920 0.010360 0.020660 
#    y 0.010360 1.899590 0.018860 
#    z 0.020660 0.018860 1.941800 
# 
# From -- ./inp_files/472702.got.cif
#   From: 2010.05.17/outbox.cif.g08.bks.cpg/sg2_237_cif.got.tgz:472702.got - 2010.06.03 11:33:40.
