data_PCOD9063805
_publ_section_title
;
Structure prediction by ZEFSAII (Michael W. Deem and Ramdas Pophale) SiO2 
 PCOD9063805
Probable space group: P -1
;
_chemical_formula_sum "Si O2"
_cell_formula_units_Z 14
_cell_length_a 5.389117
_cell_length_b 11.537363
_cell_length_c 11.283282
_cell_angle_alpha 106.492840
_cell_angle_beta 64.732941
_cell_angle_gamma 119.394483
_cell_volume 550.287092
_symmetry_space_group_name_H-M "P -1"
_symmetry_group_IT_number 2
_symmetry_cell_setting 'triclinic'
loop_
_space_group_symop_operation_xyz
x,y,z
-x,-y,-z
loop_
_atom_site_type_symbol
_atom_site_label
_atom_site_fract_x
_atom_site_fract_y
_atom_site_fract_z
Si Si1 0.670609 0.845930 0.903332
Si Si2 0.680435 0.724434 0.271886
Si Si3 0.785749 0.360494 0.444467
Si Si4 0.867727 0.102228 0.592911
Si Si5 0.743327 0.733358 0.646224
Si Si6 0.350240 0.059336 0.828126
Si Si7 0.350582 0.529623 0.922815
O O1 0.658728 0.843490 0.761479
O O2 0.522636 0.686334 0.905285
O O3 0.527572 0.903419 0.051063
O O4 0.028620 0.933670 0.873364
O O5 0.450581 0.716535 0.423227
O O6 0.660090 0.805027 0.183036
O O7 0.636801 0.576481 0.206210
O O8 0.003973 0.815743 0.289178
O O9 0.569263 0.364851 0.382217
O O10 0.000000 0.500000 0.500000
O O11 0.037528 0.312015 0.333674
O O12 0.516089 0.028103 0.673159
O O13 0.015449 0.208911 0.491929
O O14 0.000000 0.000000 0.500000
O O15 0.500000 0.500000 0.000000
O O16 0.000000 0.500000 0.000000
#
# Coordination Sequence:
#
# PCOD9063805 Si02
#       7
#     2   2   2   2   2   2   2
#     4  11  26  47  76 117 149 208 255 328 385 460
#     4  11  24  45  76 110 148 204 259 312 386 457
#     4  11  24  44  74 106 152 197 251 311 376 456
#     4  11  25  46  76 110 152 211 252 320 386 464
#     4  11  25  45  71 110 148 195 255 310 381 450
#     4  11  24  50  76 108 159 198 271 314 390 461
#     4  12  27  50  77 109 159 203 252 313 395 465
#
# _framework density 25.441268000000001
#
# number of rings (size 3 to 8) (size 9 to 14) (size 15 to 20)
#    0.000    0.857    2.857    3.000    4.000    4.571 
#    5.143    2.857    0.000    0.000    0.000    0.000 
#    0.000    0.000    0.000    0.000    0.000    0.000 
#
# Total GULP energy -78077.266651 kJ/mol
# GULP energy per Si atom -5576.947618 kJ/mol
# Density = 2.538336 g / cm^3
# Si number density = 25.441268 Si / 1000 Ang^3
#
#
#
# Elastic Constant Matrix: (Units=GPa)
#
#
# Indices 1 2 3 4 5 6 
#
# 1 75.0950 19.2945 29.0954 -9.2310 -10.5076 11.4827
# 2 19.2945 110.9828 21.0477 -2.0319 -12.1260 20.4682
# 3 29.0954 21.0477 149.3361 1.8146 -14.7776 22.9625
# 4 -9.2310 -2.0319 1.8146 46.9083 14.9510 6.6813
# 5 -10.5076 -12.1260 -14.7776 14.9510 43.7439 -8.6354
# 6 11.4827 20.4682 22.9625 6.6813 -8.6354 31.7190
#
#
#
# Elastic Compliance Matrix: (Units=1/GPa)
#
#
# Indices 1 2 3 4 5 6 
#
# 1 0.015637 -0.001490 -0.002256 0.003382 0.000718 -0.003584
# 2 -0.001490 0.010537 -0.000176 0.000673 0.001094 -0.005977
# 3 -0.002256 -0.000176 0.007976 -0.000610 0.001460 -0.004318
# 4 0.003382 0.000673 -0.000610 0.026663 -0.010218 -0.009614
# 5 0.000718 0.001094 0.001460 -0.010218 0.028901 0.007998
# 6 -0.003584 -0.005977 -0.004318 -0.009614 0.007998 0.044010
#
#
# Mechanical properties :
#
#
# Convention : Reuss Voigt Hill
#
# Bulk Modulus (GPa) = 38.01048 52.69877 45.35463
# Shear Modulus (GPa) = 33.25908 42.20599 37.73253
#
# Velocity S-wave (km/s) = 3.61957 4.07745 3.85531
# Velocity P-wave (km/s) = 5.69572 6.55182 6.13871
#
# Compressibility (1/GPa) = 0.02630853
#
# Stress axis : x y z
#
# Youngs Moduli (GPa) = 63.94986 94.90537 125.36869
#
# Poissons Ratio (x) = 0.14136 0.28280
# Poissons Ratio (y) = 0.09525 0.02204
# Poissons Ratio (z) = 0.14425 0.01668
#
# Static dielectric constant tensor:
#      x y z
#    x 2.279990 -0.091400 0.033720 
#    y -0.091400 2.027370 -0.028290 
#    z 0.033720 -0.028290 2.058890 
# 
# From -- ./inp_files/364938.got.cif
#   From: 2010.05.17/outbox.cif.g08.bks.cpg/sg2_183_cif.got.tgz:364938.got - 2010.06.03 11:33:40.
