data_PCOD9063352
_publ_section_title
;
Structure prediction by ZEFSAII (Michael W. Deem and Ramdas Pophale) SiO2 
 PCOD9063352
Probable space group: P -1
;
_chemical_formula_sum "Si O2"
_cell_formula_units_Z 16
_cell_length_a 5.193101
_cell_length_b 8.365930
_cell_length_c 17.817400
_cell_angle_alpha 61.616210
_cell_angle_beta 109.117626
_cell_angle_gamma 105.448646
_cell_volume 637.732393
_symmetry_space_group_name_H-M "P -1"
_symmetry_group_IT_number 2
_symmetry_cell_setting 'triclinic'
loop_
_space_group_symop_operation_xyz
x,y,z
-x,-y,-z
loop_
_atom_site_type_symbol
_atom_site_label
_atom_site_fract_x
_atom_site_fract_y
_atom_site_fract_z
Si Si1 0.845991 0.793995 0.544346
Si Si2 0.373062 0.256057 0.628263
Si Si3 0.100033 0.952305 0.274828
Si Si4 0.215168 0.370949 0.187476
Si Si5 0.340580 0.977364 0.886521
Si Si6 0.600009 0.379883 0.351962
Si Si7 0.146831 0.772815 0.067570
Si Si8 0.356686 0.303199 0.052721
O O1 0.683612 0.721818 0.469813
O O2 0.618268 0.773599 0.593106
O O3 0.093433 0.672728 0.608234
O O4 0.000000 0.000000 0.500000
O O5 0.615709 0.129282 0.687428
O O6 0.429617 0.441394 0.640485
O O7 0.089299 0.157692 0.657199
O O8 0.116641 0.165398 0.250559
O O9 0.923574 0.935392 0.184163
O O10 0.503574 0.409771 0.250951
O O11 0.099289 0.563814 0.138868
O O12 0.195907 0.342570 0.102573
O O13 0.427829 0.827628 0.870763
O O14 0.608874 0.127168 0.881021
O O15 0.278473 0.849592 0.982661
O O16 0.831960 0.796017 0.010189
O O17 0.500000 0.500000 0.000000
#
# Coordination Sequence:
#
# PCOD9063352 Si02
#       8
#     2   2   2   2   2   2   2   2
#     4  12  25  49  79 112 151 190 239 295 368 444
#     4  12  26  49  76 109 148 193 241 300 371 440
#     4  12  25  45  73 106 146 191 245 305 365 436
#     4  12  25  45  67 105 142 188 251 303 373 433
#     4  11  24  44  67  98 143 188 249 302 371 431
#     4  12  27  47  75 112 148 192 242 298 364 440
#     4  11  24  44  65 100 138 190 247 306 369 437
#     4  12  23  43  70  96 138 195 246 308 368 439
#
# _framework density 25.088895999999998
#
# number of rings (size 3 to 8) (size 9 to 14) (size 15 to 20)
#    0.000    0.250    2.500    7.125    0.000    2.000 
#    4.500    0.000    0.000    0.000    0.000    0.000 
#    0.000    0.000    0.000    0.000    0.000    0.000 
#
# Total GULP energy -89354.038109 kJ/mol
# GULP energy per Si atom -5584.627382 kJ/mol
# Density = 2.503179 g / cm^3
# Si number density = 25.088896 Si / 1000 Ang^3
#
#
#
# Elastic Constant Matrix: (Units=GPa)
#
#
# Indices 1 2 3 4 5 6 
#
# 1 81.7222 1.2582 8.3035 0.5643 27.1493 13.4186
# 2 1.2582 93.8246 10.0105 4.3661 6.1213 15.5073
# 3 8.3035 10.0105 87.3049 18.3893 27.2810 3.1902
# 4 0.5643 4.3661 18.3893 45.8139 14.2865 2.0547
# 5 27.1493 6.1213 27.2810 14.2865 58.6364 -9.0768
# 6 13.4186 15.5073 3.1902 2.0547 -9.0768 22.1903
#
#
#
# Elastic Compliance Matrix: (Units=1/GPa)
#
#
# Indices 1 2 3 4 5 6 
#
# 1 0.020836 0.004024 0.002387 0.004319 -0.015727 -0.022588
# 2 0.004024 0.013258 0.000206 0.001048 -0.005796 -0.014196
# 3 0.002387 0.000206 0.014678 -0.003060 -0.008262 -0.006794
# 4 0.004319 0.001048 -0.003060 0.025895 -0.008344 -0.008715
# 5 -0.015727 -0.005796 -0.008262 -0.008344 0.035466 0.030028
# 6 -0.022588 -0.014196 -0.006794 -0.008715 0.030028 0.082711
#
#
# Mechanical properties :
#
#
# Convention : Reuss Voigt Hill
#
# Bulk Modulus (GPa) = 16.12746 33.55513 24.84129
# Shear Modulus (GPa) = 24.96532 41.54675 33.25603
#
# Velocity S-wave (km/s) = 3.15790 4.07379 3.64473
# Velocity P-wave (km/s) = 4.44281 5.96081 5.25689
#
# Compressibility (1/GPa) = 0.06200604
#
# Stress axis : x y z
#
# Youngs Moduli (GPa) = 47.99444 75.42650 68.13006
#
# Poissons Ratio (x) = -0.30354 -0.16261
# Poissons Ratio (y) = -0.19314 -0.01405
# Poissons Ratio (z) = -0.11455 -0.01555
#
# Static dielectric constant tensor:
#      x y z
#    x 2.152090 -0.087760 0.163920 
#    y -0.087760 2.138140 -0.110930 
#    z 0.163920 -0.110930 2.245820 
# 
# From -- ./inp_files/582300.got.cif
#   From: 2010.05.17/outbox.cif.g08.bks.cpg/sg2_292_cif.got.tgz:582300.got - 2010.06.03 11:33:40.
