data_PCOD9063763
_publ_section_title
;
Structure prediction by ZEFSAII (Michael W. Deem and Ramdas Pophale) SiO2 
 PCOD9063763
Probable space group: P -1
;
_chemical_formula_sum "Si O2"
_cell_formula_units_Z 16
_cell_length_a 10.227649
_cell_length_b 4.812031
_cell_length_c 14.165226
_cell_angle_alpha 77.279124
_cell_angle_beta 118.598816
_cell_angle_gamma 92.100088
_cell_volume 595.143226
_symmetry_space_group_name_H-M "P -1"
_symmetry_group_IT_number 2
_symmetry_cell_setting 'triclinic'
loop_
_space_group_symop_operation_xyz
x,y,z
-x,-y,-z
loop_
_atom_site_type_symbol
_atom_site_label
_atom_site_fract_x
_atom_site_fract_y
_atom_site_fract_z
Si Si1 0.769536 0.605477 0.054245
Si Si2 0.186147 0.022155 0.536729
Si Si3 0.210148 0.660129 0.269002
Si Si4 0.716672 0.483900 0.252505
Si Si5 0.398936 0.407822 0.193317
Si Si6 0.967785 0.090606 0.089993
Si Si7 0.501584 0.118270 0.596305
Si Si8 0.962094 0.418721 0.609137
O O1 0.710595 0.464596 0.138845
O O2 0.829934 0.904780 0.081722
O O3 0.910038 0.408322 0.074634
O O4 0.651835 0.650873 0.925752
O O5 0.330620 0.197002 0.555228
O O6 0.059433 0.283287 0.478973
O O7 0.861034 0.178131 0.551204
O O8 0.235766 0.813062 0.655366
O O9 0.257488 0.563065 0.187295
O O10 0.374591 0.658983 0.370981
O O11 0.105421 0.501648 0.315819
O O12 0.116195 0.967150 0.204939
O O13 0.550140 0.575181 0.226327
O O14 0.860958 0.659376 0.310820
O O15 0.442388 0.127519 0.291223
O O16 0.000000 0.000000 0.000000
O O17 0.500000 0.000000 0.500000
#
# Coordination Sequence:
#
# PCOD9063763 Si02
#       8
#     2   2   2   2   2   2   2   2
#     4  12  27  50  77 111 151 202 254 306 374 450
#     4  11  27  47  75 108 154 198 253 310 374 450
#     4  12  26  44  80 111 152 193 256 312 385 443
#     4  11  27  51  76 110 155 204 253 307 379 450
#     4  11  27  49  74 112 155 201 248 314 378 454
#     4  12  26  47  80 112 151 195 252 315 371 439
#     4  11  24  44  73 109 154 196 246 312 382 445
#     4  12  26  48  77 111 148 199 254 315 373 446
#
# _framework density 26.884284000000001
#
# number of rings (size 3 to 8) (size 9 to 14) (size 15 to 20)
#    0.000    0.500    3.750    3.000    7.000    2.000 
#    4.500    1.250    0.000    0.000    0.000    0.000 
#    0.000    0.000    0.000    0.000    0.000    0.000 
#
# Total GULP energy -89629.803685 kJ/mol
# GULP energy per Si atom -5601.862730 kJ/mol
# Density = 2.682309 g / cm^3
# Si number density = 26.884284 Si / 1000 Ang^3
#
#
#
# Elastic Constant Matrix: (Units=GPa)
#
#
# Indices 1 2 3 4 5 6 
#
# 1 164.5337 4.7092 36.7417 5.9082 9.0213 8.5067
# 2 4.7092 92.3802 28.5142 4.5535 2.3332 -4.8181
# 3 36.7417 28.5142 173.7889 6.9265 -6.5044 5.8180
# 4 5.9082 4.5535 6.9265 36.2749 -2.7027 8.4087
# 5 9.0213 2.3332 -6.5044 -2.7027 51.1250 0.0728
# 6 8.5067 -4.8181 5.8180 8.4087 0.0728 34.7693
#
#
#
# Elastic Compliance Matrix: (Units=1/GPa)
#
#
# Indices 1 2 3 4 5 6 
#
# 1 0.006544 0.000097 -0.001385 -0.000638 -0.001367 -0.001199
# 2 0.000097 0.011659 -0.001977 -0.001711 -0.000895 0.002338
# 3 -0.001385 -0.001977 0.006463 -0.000466 0.001134 -0.000906
# 4 -0.000638 -0.001711 -0.000466 0.029773 0.001716 -0.007207
# 5 -0.001367 -0.000895 0.001134 0.001716 0.020078 -0.000436
# 6 -0.001199 0.002338 -0.000906 -0.007207 -0.000436 0.031274
#
#
# Mechanical properties :
#
#
# Convention : Reuss Voigt Hill
#
# Bulk Modulus (GPa) = 55.13873 63.40365 59.27119
# Shear Modulus (GPa) = 42.24204 48.48302 45.36253
#
# Velocity S-wave (km/s) = 3.96820 4.25125 4.11216
# Velocity P-wave (km/s) = 6.44591 6.90888 6.68140
#
# Compressibility (1/GPa) = 0.01813607
#
# Stress axis : x y z
#
# Youngs Moduli (GPa) = 152.80798 85.77084 154.73498
#
# Poissons Ratio (x) = -0.00835 0.21433
# Poissons Ratio (y) = -0.01488 0.30593
# Poissons Ratio (z) = 0.21166 0.16958
#
# Static dielectric constant tensor:
#      x y z
#    x 2.163720 0.047110 -0.034790 
#    y 0.047110 2.099020 0.055120 
#    z -0.034790 0.055120 2.133280 
# 
# From -- ./inp_files/98212.got.cif
#   From: 2010.05.17/outbox.cif.g08.bks.cpg/sg2_50_cif.got.tgz:98212.got - 2010.06.03 11:33:40.
