data_PCOD9063542
_publ_section_title
;
Structure prediction by ZEFSAII (Michael W. Deem and Ramdas Pophale) SiO2 
 PCOD9063542
Probable space group: P -1
;
_chemical_formula_sum "Si O2"
_cell_formula_units_Z 14
_cell_length_a 13.068899
_cell_length_b 7.992608
_cell_length_c 9.546701
_cell_angle_alpha 129.529997
_cell_angle_beta 57.225156
_cell_angle_gamma 103.153095
_cell_volume 636.075729
_symmetry_space_group_name_H-M "P -1"
_symmetry_group_IT_number 2
_symmetry_cell_setting 'triclinic'
loop_
_space_group_symop_operation_xyz
x,y,z
-x,-y,-z
loop_
_atom_site_type_symbol
_atom_site_label
_atom_site_fract_x
_atom_site_fract_y
_atom_site_fract_z
Si Si1 0.336256 0.931708 0.187535
Si Si2 0.332649 0.543033 0.166770
Si Si3 0.064936 0.513894 0.312185
Si Si4 0.077436 0.155307 0.609886
Si Si5 0.899040 0.900997 0.116514
Si Si6 0.601277 0.981968 0.108700
Si Si7 0.385738 0.861649 0.531321
O O1 0.359837 0.674436 0.076913
O O2 0.220843 0.064159 0.427245
O O3 0.316268 0.977354 0.062927
O O4 0.459097 0.019216 0.186673
O O5 0.183937 0.616480 0.320513
O O6 0.366907 0.277640 0.008139
O O7 0.395476 0.656967 0.308656
O O8 0.000000 0.500000 0.500000
O O9 0.967187 0.623599 0.327012
O O10 0.123169 0.292826 0.072350
O O11 0.048333 0.164700 0.801637
O O12 0.000000 0.000000 0.500000
O O13 0.758932 0.025060 0.318370
O O14 0.000000 0.000000 0.000000
O O15 0.610951 0.159758 0.315480
O O16 0.500000 0.000000 0.500000
#
# Coordination Sequence:
#
# PCOD9063542 Si02
#       7
#     2   2   2   2   2   2   2
#     4  11  24  44  70 103 141 184 240 291 356 428
#     4  12  23  46  73 101 141 191 231 297 359 421
#     4  12  25  44  70 105 139 192 242 291 363 434
#     4  12  23  43  66  98 144 178 233 299 349 425
#     4  12  26  44  70 105 142 187 243 296 361 431
#     4  11  25  45  72 103 141 188 240 291 356 434
#     4  12  24  44  73 106 145 185 241 297 359 432
#
# _framework density 22.009957
#
# number of rings (size 3 to 8) (size 9 to 14) (size 15 to 20)
#    0.000    0.286    5.714    3.429    2.000    0.000 
#    0.000    5.714    0.000    0.000    0.000    0.000 
#    0.000    0.000    0.000    0.000    0.000    0.000 
#
# Total GULP energy -78021.530382 kJ/mol
# GULP energy per Si atom -5572.966456 kJ/mol
# Density = 2.195986 g / cm^3
# Si number density = 22.009957 Si / 1000 Ang^3
#
#
#
# Elastic Constant Matrix: (Units=GPa)
#
#
# Indices 1 2 3 4 5 6 
#
# 1 116.8267 34.7068 47.2466 -15.9704 3.4510 4.9772
# 2 34.7068 80.5864 53.2005 -23.0722 11.2638 -3.7065
# 3 47.2466 53.2005 108.4985 -21.9609 6.6067 -1.3548
# 4 -15.9704 -23.0722 -21.9609 46.0526 -5.5718 4.7335
# 5 3.4510 11.2638 6.6067 -5.5718 52.8630 -3.0821
# 6 4.9772 -3.7065 -1.3548 4.7335 -3.0821 26.7008
#
#
#
# Elastic Compliance Matrix: (Units=1/GPa)
#
#
# Indices 1 2 3 4 5 6 
#
# 1 0.010897 -0.002181 -0.003448 0.001342 0.000167 -0.002728
# 2 -0.002181 0.020474 -0.007842 0.005282 -0.002589 0.001616
# 3 -0.003448 -0.007842 0.014962 0.002041 0.000240 -0.000021
# 4 0.001342 0.005282 0.002041 0.026337 0.001077 -0.003958
# 5 0.000167 -0.002589 0.000240 0.001077 0.019640 0.001698
# 6 -0.002728 0.001616 -0.000021 -0.003958 0.001698 0.039081
#
#
# Mechanical properties :
#
#
# Convention : Reuss Voigt Hill
#
# Bulk Modulus (GPa) = 51.57419 64.02438 57.79929
# Shear Modulus (GPa) = 30.34019 36.50713 33.42366
#
# Velocity S-wave (km/s) = 3.71681 4.07709 3.90111
# Velocity P-wave (km/s) = 6.47323 7.16348 6.82708
#
# Compressibility (1/GPa) = 0.01938954
#
# Stress axis : x y z
#
# Youngs Moduli (GPa) = 91.76875 48.84201 66.83623
#
# Poissons Ratio (x) = 0.10653 0.23046
# Poissons Ratio (y) = 0.20016 0.52416
# Poissons Ratio (z) = 0.31644 0.38304
#
# Static dielectric constant tensor:
#      x y z
#    x 2.030600 0.026750 -0.175940 
#    y 0.026750 1.987640 -0.069340 
#    z -0.175940 -0.069340 1.924500 
# 
# From -- ./inp_files/245790.got.cif
#   From: 2010.05.17/outbox.cif.g08.bks.cpg/sg2_123_cif.got.tgz:245790.got - 2010.06.03 11:33:40.
