data_PCOD9063171
_publ_section_title
;
Structure prediction by ZEFSAII (Michael W. Deem and Ramdas Pophale) SiO2 
 PCOD9063171
Probable space group: P -1
;
_chemical_formula_sum "Si O2"
_cell_formula_units_Z 16
_cell_length_a 11.538948
_cell_length_b 10.054861
_cell_length_c 9.438203
_cell_angle_alpha 135.035007
_cell_angle_beta 81.742724
_cell_angle_gamma 96.049920
_cell_volume 765.806395
_symmetry_space_group_name_H-M "P -1"
_symmetry_group_IT_number 2
_symmetry_cell_setting 'triclinic'
loop_
_space_group_symop_operation_xyz
x,y,z
-x,-y,-z
loop_
_atom_site_type_symbol
_atom_site_label
_atom_site_fract_x
_atom_site_fract_y
_atom_site_fract_z
Si Si1 0.644040 0.596900 0.136150
Si Si2 0.166170 0.542899 0.384182
Si Si3 0.012410 0.185128 0.236965
Si Si4 0.595990 0.611703 0.659845
Si Si5 0.498916 0.773983 0.078366
Si Si6 0.356089 0.148730 0.427748
Si Si7 0.876120 0.419434 0.915714
Si Si8 0.105480 0.002572 0.370196
O O1 0.616724 0.734444 0.115244
O O2 0.592267 0.697591 0.358180
O O3 0.586961 0.390997 0.973815
O O4 0.779387 0.557012 0.097841
O O5 0.106396 0.702537 0.614113
O O6 0.302337 0.512188 0.377739
O O7 0.146218 0.592135 0.258815
O O8 0.096688 0.345817 0.275886
O O9 0.064559 0.113047 0.322133
O O10 0.000000 0.000000 0.000000
O O11 0.500000 0.500000 0.500000
O O12 0.659044 0.753601 0.647116
O O13 0.527454 0.730898 0.879180
O O14 0.441110 0.972617 0.265557
O O15 0.229616 0.086125 0.461111
O O16 0.866601 0.214084 0.830358
O O17 0.000000 0.500000 0.000000
O O18 0.000000 0.000000 0.500000
#
# Coordination Sequence:
#
# PCOD9063171 Si02
#       8
#     2   2   2   2   2   2   2   2
#     4  11  24  43  71  99 136 179 232 287 352 412
#     4  11  25  48  71 101 146 183 235 300 346 425
#     4  11  25  45  72 103 140 186 235 288 361 421
#     4  12  25  48  73  99 143 191 237 287 356 415
#     4  11  24  46  68  99 139 182 231 292 345 410
#     4  12  25  44  70 102 139 181 238 293 346 421
#     4  12  24  44  74 103 141 186 230 293 363 416
#     4  12  24  44  69 105 143 179 233 294 351 423
#
# _framework density 20.89301
#
# number of rings (size 3 to 8) (size 9 to 14) (size 15 to 20)
#    0.000    0.500    6.250    2.250    0.000    2.000 
#    4.500    0.000    0.000    0.000    0.000    0.000 
#    0.000    0.000    0.000    0.000    0.000    0.000 
#
# Total GULP energy -89415.724738 kJ/mol
# GULP energy per Si atom -5588.482796 kJ/mol
# Density = 2.084546 g / cm^3
# Si number density = 20.893010 Si / 1000 Ang^3
#
#
#
# Elastic Constant Matrix: (Units=GPa)
#
#
# Indices 1 2 3 4 5 6 
#
# 1 93.8855 5.6713 20.9484 26.2726 -17.9791 -15.2467
# 2 5.6713 74.3422 12.9840 11.2331 -5.9100 -9.5293
# 3 20.9484 12.9840 123.4588 22.6791 -24.2215 -15.2661
# 4 26.2726 11.2331 22.6791 31.8754 -1.0663 -6.1188
# 5 -17.9791 -5.9100 -24.2215 -1.0663 24.3291 0.5915
# 6 -15.2467 -9.5293 -15.2661 -6.1188 0.5915 32.6398
#
#
#
# Elastic Compliance Matrix: (Units=1/GPa)
#
#
# Indices 1 2 3 4 5 6 
#
# 1 0.019363 0.002987 0.004300 -0.017876 0.018332 0.008245
# 2 0.002987 0.015311 0.001175 -0.007534 0.006647 0.004882
# 3 0.004300 0.001175 0.013298 -0.011715 0.016041 0.006085
# 4 -0.017876 -0.007534 -0.011715 0.055285 -0.024154 -0.005228
# 5 0.018332 0.006647 0.016041 -0.024154 0.070881 0.012194
# 6 0.008245 0.004882 0.006085 -0.005228 0.012194 0.037559
#
#
# Mechanical properties :
#
#
# Convention : Reuss Voigt Hill
#
# Bulk Modulus (GPa) = 15.40915 41.21042 28.30979
# Shear Modulus (GPa) = 23.10484 34.57438 28.83961
#
# Velocity S-wave (km/s) = 3.32906 4.07237 3.71933
# Velocity P-wave (km/s) = 4.70831 6.47145 5.65897
#
# Compressibility (1/GPa) = 0.06489649
#
# Stress axis : x y z
#
# Youngs Moduli (GPa) = 51.64419 65.31305 75.19776
#
# Poissons Ratio (x) = -0.19510 -0.32337
# Poissons Ratio (y) = -0.15427 -0.08834
# Poissons Ratio (z) = -0.22208 -0.07673
#
# Static dielectric constant tensor:
#      x y z
#    x 2.606240 1.004020 0.354640 
#    y 1.004020 2.946140 0.398840 
#    z 0.354640 0.398840 1.899290 
# 
# From -- ./inp_files/245853.got.cif
#   From: 2010.05.17/outbox.cif.g08.bks.cpg/sg2_123_cif.got.tgz:245853.got - 2010.06.03 11:33:40.
