data_PCOD9063902
_publ_section_title
;
Structure prediction by ZEFSAII (Michael W. Deem and Ramdas Pophale) SiO2 
 PCOD9063902
Probable space group: P -1
;
_chemical_formula_sum "Si O2"
_cell_formula_units_Z 16
_cell_length_a 9.314959
_cell_length_b 12.098044
_cell_length_c 11.090274
_cell_angle_alpha 117.811422
_cell_angle_beta 92.148052
_cell_angle_gamma 133.979647
_cell_volume 654.720177
_symmetry_space_group_name_H-M "P -1"
_symmetry_group_IT_number 2
_symmetry_cell_setting 'triclinic'
loop_
_space_group_symop_operation_xyz
x,y,z
-x,-y,-z
loop_
_atom_site_type_symbol
_atom_site_label
_atom_site_fract_x
_atom_site_fract_y
_atom_site_fract_z
Si Si1 0.892422 0.027991 0.423399
Si Si2 0.229868 0.615714 0.848284
Si Si3 0.154888 0.559505 0.420476
Si Si4 0.590409 0.420456 0.936650
Si Si5 0.650273 0.020511 0.601894
Si Si6 0.069031 0.205067 0.256951
Si Si7 0.310888 0.149627 0.129107
Si Si8 0.113086 0.775810 0.049627
O O1 0.634696 0.806453 0.246834
O O2 0.843884 0.096804 0.557282
O O3 0.000000 0.000000 0.500000
O O4 0.048536 0.171033 0.382864
O O5 0.415695 0.703122 0.796408
O O6 0.966449 0.447610 0.696538
O O7 0.309007 0.579237 0.940519
O O8 0.260019 0.781084 0.975713
O O9 0.443366 0.787043 0.538695
O O10 0.100559 0.373182 0.316475
O O11 0.000000 0.500000 0.500000
O O12 0.500000 0.500000 0.000000
O O13 0.822876 0.570887 0.933225
O O14 0.500000 0.000000 0.500000
O O15 0.791251 0.188888 0.797186
O O16 0.276291 0.265795 0.232330
O O17 0.828813 0.979661 0.067341
O O18 0.176292 0.963109 0.121216
#
# Coordination Sequence:
#
# PCOD9063902 Si02
#       8
#     2   2   2   2   2   2   2   2
#     4  12  26  48  73 104 148 195 242 312 387 448
#     4  12  25  45  73 108 145 198 253 312 373 452
#     4  12  27  46  76 114 156 197 250 314 387 453
#     4  12  26  44  72 106 145 196 255 308 375 463
#     4  12  26  46  72 105 152 198 244 309 381 448
#     4  11  25  48  73 109 150 195 252 317 379 456
#     4  11  24  44  78 104 145 194 255 316 379 438
#     4  12  25  47  74 107 145 198 259 308 376 453
#
# _framework density 24.437920999999999
#
# number of rings (size 3 to 8) (size 9 to 14) (size 15 to 20)
#    0.000    0.250    2.500    6.750    3.500    1.000 
#    0.000    4.375    0.000    0.000    0.000    0.000 
#    0.000    0.000    0.000    0.000    0.000    0.000 
#
# Total GULP energy -89481.725139 kJ/mol
# GULP energy per Si atom -5592.607821 kJ/mol
# Density = 2.438230 g / cm^3
# Si number density = 24.437921 Si / 1000 Ang^3
#
#
#
# Elastic Constant Matrix: (Units=GPa)
#
#
# Indices 1 2 3 4 5 6 
#
# 1 182.7844 45.4806 35.7490 2.0499 -20.3058 -6.0354
# 2 45.4806 106.9762 31.5446 -10.1129 0.7057 -4.8697
# 3 35.7490 31.5446 77.6229 -6.6519 8.1023 6.8892
# 4 2.0499 -10.1129 -6.6519 39.0893 -5.0550 5.2373
# 5 -20.3058 0.7057 8.1023 -5.0550 55.8002 -9.7916
# 6 -6.0354 -4.8697 6.8892 5.2373 -9.7916 45.1248
#
#
#
# Elastic Compliance Matrix: (Units=1/GPa)
#
#
# Indices 1 2 3 4 5 6 
#
# 1 0.007037 -0.002160 -0.002993 -0.001287 0.003261 0.002022
# 2 -0.002160 0.011617 -0.003640 0.002335 0.000027 0.001256
# 3 -0.002993 -0.003640 0.016746 0.002139 -0.004067 -0.004481
# 4 -0.001287 0.002335 0.002139 0.027184 0.001099 -0.003163
# 5 0.003261 0.000027 -0.004067 0.001099 0.020751 0.005435
# 6 0.002022 0.001256 -0.004481 -0.003163 0.005435 0.024797
#
#
# Mechanical properties :
#
#
# Convention : Reuss Voigt Hill
#
# Bulk Modulus (GPa) = 56.13834 65.88133 61.00984
# Shear Modulus (GPa) = 37.97678 44.97681 41.47679
#
# Velocity S-wave (km/s) = 3.94637 4.29470 4.12422
# Velocity P-wave (km/s) = 6.61716 7.18400 6.90640
#
# Compressibility (1/GPa) = 0.01781314
#
# Stress axis : x y z
#
# Youngs Moduli (GPa) = 142.09863 86.07707 59.71486
#
# Poissons Ratio (x) = 0.18596 0.17874
# Poissons Ratio (y) = 0.30699 0.21739
# Poissons Ratio (z) = 0.42533 0.31335
#
# Static dielectric constant tensor:
#      x y z
#    x 2.010080 0.054190 -0.086050 
#    y 0.054190 2.001520 -0.046380 
#    z -0.086050 -0.046380 2.008380 
# 
# From -- ./inp_files/392850.got.cif
#   From: 2010.05.17/outbox.cif.g08.bks.cpg/sg2_197_cif.got.tgz:392850.got - 2010.06.03 11:33:40.
