data_PCOD9063141
_publ_section_title
;
Structure prediction by ZEFSAII (Michael W. Deem and Ramdas Pophale) SiO2 
 PCOD9063141
Probable space group: P -1
;
_chemical_formula_sum "Si O2"
_cell_formula_units_Z 16
_cell_length_a 17.595995
_cell_length_b 11.555015
_cell_length_c 6.382653
_cell_angle_alpha 96.957112
_cell_angle_beta 49.466275
_cell_angle_gamma 125.640752
_cell_volume 728.540165
_symmetry_space_group_name_H-M "P -1"
_symmetry_group_IT_number 2
_symmetry_cell_setting 'triclinic'
loop_
_space_group_symop_operation_xyz
x,y,z
-x,-y,-z
loop_
_atom_site_type_symbol
_atom_site_label
_atom_site_fract_x
_atom_site_fract_y
_atom_site_fract_z
Si Si1 0.868262 0.893689 0.567768
Si Si2 0.135280 0.527916 0.294086
Si Si3 0.659668 0.152252 0.733308
Si Si4 0.749198 0.406801 0.346353
Si Si5 0.347435 0.255347 0.711908
Si Si6 0.948222 0.707986 0.286652
Si Si7 0.204747 0.975127 0.623042
Si Si8 0.577061 0.491372 0.669989
O O1 0.867281 0.765898 0.434799
O O2 0.854174 0.979906 0.431619
O O3 0.754766 0.818025 0.928865
O O4 0.000000 0.000000 0.500000
O O5 0.253219 0.687362 0.248333
O O6 0.074226 0.359618 0.457116
O O7 0.000000 0.500000 0.500000
O O8 0.215501 0.559221 0.949687
O O9 0.689075 0.235045 0.474008
O O10 0.736086 0.090569 0.611046
O O11 0.500000 0.000000 0.000000
O O12 0.890178 0.552454 0.230593
O O13 0.650894 0.433437 0.605563
O O14 0.484478 0.371813 0.619363
O O15 0.333612 0.347843 0.586654
O O16 0.322099 0.123604 0.585443
O O17 0.091537 0.849356 0.964855
O O18 0.500000 0.500000 0.000000
#
# Coordination Sequence:
#
# PCOD9063141 Si02
#       8
#     2   2   2   2   2   2   2   2
#     4  12  26  42  69 110 143 183 228 290 361 429
#     4  11  25  47  75 102 139 188 240 294 351 416
#     4  11  29  47  70 102 143 188 242 290 353 419
#     4  11  25  45  73  99 138 187 237 289 347 420
#     4  11  25  42  70 102 140 185 231 280 365 410
#     4  11  24  43  71 105 141 177 235 289 354 422
#     4  12  26  44  70 103 148 182 233 297 353 423
#     4  11  25  45  71 100 142 184 237 292 346 424
#
# _framework density 21.961727
#
# number of rings (size 3 to 8) (size 9 to 14) (size 15 to 20)
#    0.000    0.750    1.250    4.875   10.500    5.500 
#    0.000    0.000    0.000    0.000    0.000    0.000 
#    0.000    0.000    0.000    0.000    0.000    0.000 
#
# Total GULP energy -89236.872374 kJ/mol
# GULP energy per Si atom -5577.304523 kJ/mol
# Density = 2.191174 g / cm^3
# Si number density = 21.961727 Si / 1000 Ang^3
#
#
#
# Elastic Constant Matrix: (Units=GPa)
#
#
# Indices 1 2 3 4 5 6 
#
# 1 86.7285 27.0108 29.3094 -19.4726 8.3642 -16.9933
# 2 27.0108 87.5303 23.9956 -16.7094 11.9269 -2.9974
# 3 29.3094 23.9956 108.5590 -14.3733 22.8429 -13.6880
# 4 -19.4726 -16.7094 -14.3733 35.0852 -10.7552 5.6747
# 5 8.3642 11.9269 22.8429 -10.7552 22.4791 3.7792
# 6 -16.9933 -2.9974 -13.6880 5.6747 3.7792 40.5752
#
#
#
# Elastic Compliance Matrix: (Units=1/GPa)
#
#
# Indices 1 2 3 4 5 6 
#
# 1 0.015325 -0.002922 -0.002138 0.005414 -0.000186 0.004741
# 2 -0.002922 0.013744 -0.001227 0.003610 -0.003090 -0.000839
# 3 -0.002138 -0.001227 0.013379 -0.001258 -0.013586 0.004969
# 4 0.005414 0.003610 -0.001258 0.038589 0.016625 -0.004836
# 5 -0.000186 -0.003090 -0.013586 0.016625 0.070269 -0.013760
# 6 0.004741 -0.000839 0.004969 -0.004836 -0.013760 0.030203
#
#
# Mechanical properties :
#
#
# Convention : Reuss Voigt Hill
#
# Bulk Modulus (GPa) = 33.47262 49.27217 41.37239
# Shear Modulus (GPa) = 24.50497 33.12802 28.81649
#
# Velocity S-wave (km/s) = 3.34399 3.88808 3.62625
# Velocity P-wave (km/s) = 5.49401 6.52996 6.03426
#
# Compressibility (1/GPa) = 0.02987516
#
# Stress axis : x y z
#
# Youngs Moduli (GPa) = 65.25145 72.75904 74.74609
#
# Poissons Ratio (x) = 0.21259 0.15980
# Poissons Ratio (y) = 0.19065 0.09169
# Poissons Ratio (z) = 0.13950 0.08925
#
# Static dielectric constant tensor:
#      x y z
#    x 1.920690 0.081250 -0.009690 
#    y 0.081250 1.875850 -0.057200 
#    z -0.009690 -0.057200 1.835670 
# 
# From -- ./inp_files/109727.got.cif
#   From: 2010.05.17/outbox.cif.g08.bks.cpg/sg2_55_cif.got.tgz:109727.got - 2010.06.03 11:33:40.
