data_PCOD9063800
_publ_section_title
;
Structure prediction by ZEFSAII (Michael W. Deem and Ramdas Pophale) SiO2 
 PCOD9063800
Probable space group: P -1
;
_chemical_formula_sum "Si O2"
_cell_formula_units_Z 12
_cell_length_a 4.826615
_cell_length_b 9.318407
_cell_length_c 17.878394
_cell_angle_alpha 36.882970
_cell_angle_beta 71.856204
_cell_angle_gamma 63.685477
_cell_volume 431.203622
_symmetry_space_group_name_H-M "P -1"
_symmetry_group_IT_number 2
_symmetry_cell_setting 'triclinic'
loop_
_space_group_symop_operation_xyz
x,y,z
-x,-y,-z
loop_
_atom_site_type_symbol
_atom_site_label
_atom_site_fract_x
_atom_site_fract_y
_atom_site_fract_z
Si Si1 0.358237 0.270651 0.604082
Si Si2 0.863801 0.570333 0.286796
Si Si3 0.051375 0.215971 0.215194
Si Si4 0.708768 0.160089 0.881131
Si Si5 0.161157 0.702110 0.965226
Si Si6 0.801923 0.909687 0.463360
O O1 0.500000 0.500000 0.500000
O O2 0.154584 0.305247 0.680991
O O3 0.618943 0.992932 0.707975
O O4 0.214838 0.249595 0.544379
O O5 0.531222 0.697034 0.224017
O O6 0.150935 0.617823 0.199409
O O7 0.940599 0.275972 0.426357
O O8 0.003875 0.510299 0.092294
O O9 0.847880 0.155402 0.321065
O O10 0.976273 0.173891 0.153621
O O11 0.500000 0.000000 0.000000
O O12 0.047872 0.937771 0.932193
O O13 0.500000 0.500000 0.000000
O O14 0.500000 0.000000 0.500000
#
# Coordination Sequence:
#
# PCOD9063800 Si02
#       6
#     2   2   2   2   2   2
#     4  12  24  49  77 111 151 210 266 323 393 488
#     4  12  26  50  79 114 155 212 272 326 401 492
#     4  11  24  44  74 105 153 199 265 318 397 472
#     4  12  28  48  79 113 158 210 270 331 404 477
#     4  11  25  46  73 108 153 210 268 321 393 482
#     4  12  29  46  76 117 160 202 261 337 409 469
#
# _framework density 27.829077999999999
#
# number of rings (size 3 to 8) (size 9 to 14) (size 15 to 20)
#    0.000    0.333    3.333    5.000    4.667    3.333 
#    0.000    0.000    0.000    0.000    0.000    0.000 
#    0.000    0.000    0.000    0.000    0.000    0.000 
#
# Total GULP energy -67085.996112 kJ/mol
# GULP energy per Si atom -5590.499676 kJ/mol
# Density = 2.776574 g / cm^3
# Si number density = 27.829078 Si / 1000 Ang^3
#
#
#
# Elastic Constant Matrix: (Units=GPa)
#
#
# Indices 1 2 3 4 5 6 
#
# 1 102.8135 1.3603 38.4898 17.7374 15.0179 -7.1943
# 2 1.3603 79.7949 13.0965 14.5581 5.1570 -14.0481
# 3 38.4898 13.0965 204.3513 30.2590 -4.9201 -19.1666
# 4 17.7374 14.5581 30.2590 45.6129 -11.1988 7.3676
# 5 15.0179 5.1570 -4.9201 -11.1988 70.4600 1.3229
# 6 -7.1943 -14.0481 -19.1666 7.3676 1.3229 47.9076
#
#
#
# Elastic Compliance Matrix: (Units=1/GPa)
#
#
# Indices 1 2 3 4 5 6 
#
# 1 0.011920 0.001774 -0.001353 -0.005659 -0.003716 0.002742
# 2 0.001774 0.015018 0.000280 -0.007306 -0.002731 0.005982
# 3 -0.001353 0.000280 0.005995 -0.004009 -0.000005 0.002894
# 4 -0.005659 -0.007306 -0.004009 0.032359 0.006787 -0.009760
# 5 -0.003716 -0.002731 -0.000005 0.006787 0.016316 -0.002855
# 6 0.002742 0.005982 0.002894 -0.009760 -0.002855 0.025777
#
#
# Mechanical properties :
#
#
# Convention : Reuss Voigt Hill
#
# Bulk Modulus (GPa) = 29.12295 54.76142 41.94218
# Shear Modulus (GPa) = 42.57877 55.06364 48.82121
#
# Velocity S-wave (km/s) = 3.91578 4.45301 4.19301
# Velocity P-wave (km/s) = 5.56166 6.79408 6.20853
#
# Compressibility (1/GPa) = 0.03433718
#
# Stress axis : x y z
#
# Youngs Moduli (GPa) = 83.88916 66.58510 166.79251
#
# Poissons Ratio (x) = -0.11814 0.22571
# Poissons Ratio (y) = -0.14884 -0.04677
# Poissons Ratio (z) = 0.11352 -0.01867
#
# Static dielectric constant tensor:
#      x y z
#    x 2.251060 -0.014610 -0.108560 
#    y -0.014610 2.441270 0.027740 
#    z -0.108560 0.027740 2.164200 
# 
# From -- ./inp_files/117602.got.cif
#   From: 2010.05.17/outbox.cif.g08.bks.cpg/sg2_59_cif.got.tgz:117602.got - 2010.06.03 11:33:40.
