data_PCOD9063742
_publ_section_title
;
Structure prediction by ZEFSAII (Michael W. Deem and Ramdas Pophale) SiO2 
 PCOD9063742
Probable space group: P -1
;
_chemical_formula_sum "Si O2"
_cell_formula_units_Z 15
_cell_length_a 13.797539
_cell_length_b 14.998097
_cell_length_c 5.220674
_cell_angle_alpha 84.434122
_cell_angle_beta 78.570668
_cell_angle_gamma 143.432403
_cell_volume 566.948141
_symmetry_space_group_name_H-M "P -1"
_symmetry_group_IT_number 2
_symmetry_cell_setting 'triclinic'
loop_
_space_group_symop_operation_xyz
x,y,z
-x,-y,-z
loop_
_atom_site_type_symbol
_atom_site_label
_atom_site_fract_x
_atom_site_fract_y
_atom_site_fract_z
Si Si1 0.387283 0.563248 0.471828
Si Si2 0.000000 0.000000 0.500000
Si Si3 0.395654 0.184957 0.309655
Si Si4 0.862862 0.151144 0.277055
Si Si5 0.042047 0.211091 0.676283
Si Si6 0.373409 0.732960 0.214032
Si Si7 0.328188 0.304660 0.062594
Si Si8 0.208412 0.696689 0.811460
O O1 0.422772 0.631697 0.713451
O O2 0.261690 0.382191 0.552952
O O3 0.296235 0.573830 0.353681
O O4 0.581877 0.682118 0.217986
O O5 0.987976 0.067125 0.719177
O O6 0.118528 0.172385 0.206689
O O7 0.275611 0.183699 0.334768
O O8 0.303722 0.047287 0.588923
O O9 0.435046 0.155247 0.046818
O O10 0.796873 0.202248 0.269812
O O11 0.960686 0.204788 0.479926
O O12 0.981668 0.221340 0.949607
O O13 0.326651 0.745677 0.500842
O O14 0.294921 0.733292 0.026625
O O15 0.500000 0.500000 0.000000
O O16 0.000000 0.500000 0.000000
#
# Coordination Sequence:
#
# PCOD9063742 Si02
#       8
#     2   1   2   2   2   2   2   2
#     4  11  24  47  75 108 157 200 252 313 382 455
#     4  12  24  50  74 118 146 202 258 318 372 478
#     4  11  26  47  74 109 155 198 252 314 381 458
#     4  12  28  48  75 112 155 200 252 323 378 443
#     4  12  27  47  77 109 154 200 253 316 384 444
#     4  11  24  44  73 105 147 200 250 303 371 459
#     4  11  24  46  74 111 150 198 252 315 383 453
#     4  12  24  45  73 109 150 196 257 309 376 454
#
# _framework density 26.457446000000001
#
# number of rings (size 3 to 8) (size 9 to 14) (size 15 to 20)
#    0.000    0.533    4.000    3.600    5.600    2.133 
#    2.400    0.000    0.000    0.000    0.000    0.000 
#    0.000    0.000    0.000    0.000    0.000    0.000 
#
# Total GULP energy -83582.536667 kJ/mol
# GULP energy per Si atom -5572.169111 kJ/mol
# Density = 2.639723 g / cm^3
# Si number density = 26.457446 Si / 1000 Ang^3
#
#
#
# Elastic Constant Matrix: (Units=GPa)
#
#
# Indices 1 2 3 4 5 6 
#
# 1 136.1955 15.2640 37.1630 11.1398 13.1009 -23.9152
# 2 15.2640 130.5248 35.3532 -10.8140 5.8858 -5.9312
# 3 37.1630 35.3532 136.4980 22.2927 -8.8919 6.9661
# 4 11.1398 -10.8140 22.2927 45.8384 0.8063 7.7181
# 5 13.1009 5.8858 -8.8919 0.8063 47.9180 0.8793
# 6 -23.9152 -5.9312 6.9661 7.7181 0.8793 38.1131
#
#
#
# Elastic Compliance Matrix: (Units=1/GPa)
#
#
# Indices 1 2 3 4 5 6 
#
# 1 0.009921 -0.000069 -0.002917 -0.002173 -0.003342 0.007265
# 2 -0.000069 0.008903 -0.003018 0.003406 -0.001715 0.001243
# 3 -0.002917 -0.003018 0.009989 -0.004358 0.003156 -0.003316
# 4 -0.002173 0.003406 -0.004358 0.026179 -0.000976 -0.005316
# 5 -0.003342 -0.001715 0.003156 -0.000976 0.022655 -0.003266
# 6 0.007265 0.001243 -0.003316 -0.005316 -0.003266 0.032748
#
#
# Mechanical properties :
#
#
# Convention : Reuss Voigt Hill
#
# Bulk Modulus (GPa) = 59.51121 64.30876 61.90998
# Shear Modulus (GPa) = 39.06109 47.40310 43.23209
#
# Velocity S-wave (km/s) = 3.84653 4.23741 4.04669
# Velocity P-wave (km/s) = 6.50152 6.94983 6.72941
#
# Compressibility (1/GPa) = 0.01680356
#
# Stress axis : x y z
#
# Youngs Moduli (GPa) = 100.79784 112.32075 100.11485
#
# Poissons Ratio (x) = 0.00780 0.29199
# Poissons Ratio (y) = 0.00700 0.30219
# Poissons Ratio (z) = 0.29398 0.33903
#
# Static dielectric constant tensor:
#      x y z
#    x 1.144430 -0.759640 0.565430 
#    y -0.759640 1.434330 0.391430 
#    z 0.565430 0.391430 2.018020 
# 
# From -- ./inp_files/98043.got.cif
#   From: 2010.05.17/outbox.cif.g08.bks.cpg/sg2_50_cif.got.tgz:98043.got - 2010.06.03 11:33:40.
