data_PCOD9063265
_publ_section_title
;
Structure prediction by ZEFSAII (Michael W. Deem and Ramdas Pophale) SiO2 
 PCOD9063265
Probable space group: P -1
;
_chemical_formula_sum "Si O2"
_cell_formula_units_Z 16
_cell_length_a 19.286019
_cell_length_b 15.848083
_cell_length_c 10.883743
_cell_angle_alpha 35.114444
_cell_angle_beta 136.669273
_cell_angle_gamma 158.523641
_cell_volume 691.475610
_symmetry_space_group_name_H-M "P -1"
_symmetry_group_IT_number 2
_symmetry_cell_setting 'triclinic'
loop_
_space_group_symop_operation_xyz
x,y,z
-x,-y,-z
loop_
_atom_site_type_symbol
_atom_site_label
_atom_site_fract_x
_atom_site_fract_y
_atom_site_fract_z
Si Si1 0.614790 0.292098 0.799933
Si Si2 0.846531 0.701449 0.221808
Si Si3 0.536480 0.411512 0.339212
Si Si4 0.169257 0.065811 0.375971
Si Si5 0.639416 0.384755 0.993574
Si Si6 0.268329 0.051526 0.986105
Si Si7 0.047449 0.722628 0.842777
Si Si8 0.925573 0.566923 0.284928
O O1 0.557547 0.304588 0.588050
O O2 0.842768 0.549865 0.791240
O O3 0.570275 0.308687 0.854787
O O4 0.500000 0.000000 0.000000
O O5 0.643081 0.514377 0.225465
O O6 0.838142 0.550278 0.304622
O O7 0.953518 0.790749 0.378548
O O8 0.000000 0.000000 0.000000
O O9 0.313421 0.179169 0.324340
O O10 0.639151 0.673690 0.229310
O O11 0.178654 0.976585 0.614562
O O12 0.227932 0.307452 0.182697
O O13 0.763658 0.394452 0.176488
O O14 0.450658 0.168828 0.091432
O O15 0.147409 0.852396 0.949282
O O16 0.120472 0.877679 0.113932
O O17 0.000000 0.500000 0.000000
O O18 0.000000 0.500000 0.500000
#
# Coordination Sequence:
#
# PCOD9063265 Si02
#       8
#     2   2   2   2   2   2   2   2
#     4  12  25  42  71 105 142 180 228 289 364 428
#     4  12  24  45  71 101 137 187 252 281 340 414
#     4  11  24  44  73 106 139 184 234 298 343 420
#     4  11  24  43  74 105 138 186 235 290 353 417
#     4  11  24  46  71 101 141 182 236 290 351 429
#     4  11  24  45  72 101 141 184 236 286 359 420
#     4  12  25  42  69 105 147 182 225 292 362 427
#     4  12  28  45  69 102 142 189 240 298 346 409
#
# _framework density 23.138921
#
# number of rings (size 3 to 8) (size 9 to 14) (size 15 to 20)
#    0.000    0.500    5.000    3.000    1.750    7.000 
#    0.000    0.000    0.000    0.000    0.000    0.000 
#    0.000    0.000    0.000    0.000    0.000    0.000 
#
# Total GULP energy -89483.718725 kJ/mol
# GULP energy per Si atom -5592.732420 kJ/mol
# Density = 2.308626 g / cm^3
# Si number density = 23.138921 Si / 1000 Ang^3
#
#
#
# Elastic Constant Matrix: (Units=GPa)
#
#
# Indices 1 2 3 4 5 6 
#
# 1 107.7323 13.3400 9.4276 -4.7474 -9.2614 18.9073
# 2 13.3400 62.4014 19.4303 -5.8369 -5.7855 19.6924
# 3 9.4276 19.4303 85.5044 14.2062 6.2991 12.0894
# 4 -4.7474 -5.8369 14.2062 26.2394 4.9238 -4.6049
# 5 -9.2614 -5.7855 6.2991 4.9238 23.7780 -1.1794
# 6 18.9073 19.6924 12.0894 -4.6049 -1.1794 48.9231
#
#
#
# Elastic Compliance Matrix: (Units=1/GPa)
#
#
# Indices 1 2 3 4 5 6 
#
# 1 0.010396 -0.000366 -0.001035 0.001036 0.003850 -0.003424
# 2 -0.000366 0.020566 -0.004956 0.005186 0.004788 -0.006309
# 3 -0.001035 -0.004956 0.015055 -0.009123 -0.003821 -0.002276
# 4 0.001036 0.005186 -0.009123 0.046076 -0.005262 0.003976
# 5 0.003850 0.004788 -0.003821 -0.005262 0.046731 -0.001839
# 6 -0.003424 -0.006309 -0.002276 0.003976 -0.001839 0.025195
#
#
# Mechanical properties :
#
#
# Convention : Reuss Voigt Hill
#
# Bulk Modulus (GPa) = 30.02586 37.78154 33.90370
# Shear Modulus (GPa) = 26.61947 34.01747 30.31847
#
# Velocity S-wave (km/s) = 3.39546 3.83840 3.62371
# Velocity P-wave (km/s) = 5.32698 6.00067 5.67383
#
# Compressibility (1/GPa) = 0.03330463
#
# Stress axis : x y z
#
# Youngs Moduli (GPa) = 96.19351 48.62284 66.42509
#
# Poissons Ratio (x) = 0.01778 0.06873
# Poissons Ratio (y) = 0.03517 0.32918
# Poissons Ratio (z) = 0.09954 0.24096
#
# Static dielectric constant tensor:
#      x y z
#    x 1.913810 -0.002590 -0.021740 
#    y -0.002590 1.878440 0.033840 
#    z -0.021740 0.033840 1.875970 
# 
# From -- ./inp_files/297390.got.cif
#   From: 2010.05.17/outbox.cif.g08.bks.cpg/sg2_149_cif.got.tgz:297390.got - 2010.06.03 11:33:40.
