data_PCOD9063677
_publ_section_title
;
Structure prediction by ZEFSAII (Michael W. Deem and Ramdas Pophale) SiO2 
 PCOD9063677
Probable space group: P -1
;
_chemical_formula_sum "Si O2"
_cell_formula_units_Z 12
_cell_length_a 9.162465
_cell_length_b 9.544160
_cell_length_c 12.150870
_cell_angle_alpha 64.363738
_cell_angle_beta 138.476979
_cell_angle_gamma 133.083242
_cell_volume 507.617327
_symmetry_space_group_name_H-M "P -1"
_symmetry_group_IT_number 2
_symmetry_cell_setting 'triclinic'
loop_
_space_group_symop_operation_xyz
x,y,z
-x,-y,-z
loop_
_atom_site_type_symbol
_atom_site_label
_atom_site_fract_x
_atom_site_fract_y
_atom_site_fract_z
Si Si1 0.536224 0.286663 0.321708
Si Si2 0.010033 0.797452 0.853858
Si Si3 0.050401 0.340404 0.689569
Si Si4 0.382960 0.586111 0.326917
Si Si5 0.249748 0.864544 0.206030
Si Si6 0.148987 0.113540 0.658664
O O1 0.283012 0.249469 0.260014
O O2 0.802391 0.356788 0.521841
O O3 0.662318 0.455088 0.244145
O O4 0.427916 0.083110 0.274532
O O5 0.921994 0.597428 0.816967
O O6 0.162644 0.969160 0.793069
O O7 0.172242 0.851567 0.039993
O O8 0.010652 0.256708 0.817466
O O9 0.007927 0.185030 0.629684
O O10 0.500000 0.500000 0.500000
O O11 0.393782 0.758484 0.330266
O O12 0.567763 0.688878 0.288288
O O13 0.000000 0.000000 0.500000
#
# Coordination Sequence:
#
# PCOD9063677 Si02
#       6
#     2   2   2   2   2   2
#     4  11  24  44  72 106 140 184 240 290 346 418
#     4  12  26  46  71 107 148 184 230 295 363 414
#     4  11  25  43  74 105 136 189 243 288 347 416
#     4  12  26  47  72 103 144 186 240 291 344 426
#     4  12  27  45  73 106 146 185 233 295 358 420
#     4  12  25  43  74 103 138 187 236 289 350 419
#
# _framework density 23.639855000000001
#
# number of rings (size 3 to 8) (size 9 to 14) (size 15 to 20)
#    0.000    0.333    5.000    3.500    2.333    4.000 
#    0.000    0.000    0.000    0.000    0.000    0.000 
#    0.000    0.000    0.000    0.000    0.000    0.000 
#
# Total GULP energy -67175.718219 kJ/mol
# GULP energy per Si atom -5597.976518 kJ/mol
# Density = 2.358605 g / cm^3
# Si number density = 23.639855 Si / 1000 Ang^3
#
#
#
# Elastic Constant Matrix: (Units=GPa)
#
#
# Indices 1 2 3 4 5 6 
#
# 1 76.4841 31.4107 21.3991 -15.7343 -21.7914 9.0806
# 2 31.4107 171.9426 37.4664 -14.1890 -23.7814 20.0409
# 3 21.3991 37.4664 76.7543 -19.5203 -27.2019 20.2185
# 4 -15.7343 -14.1890 -19.5203 24.0048 9.4588 -13.5590
# 5 -21.7914 -23.7814 -27.2019 9.4588 38.9038 -14.1441
# 6 9.0806 20.0409 20.2185 -13.5590 -14.1441 53.9291
#
#
#
# Elastic Compliance Matrix: (Units=1/GPa)
#
#
# Indices 1 2 3 4 5 6 
#
# 1 0.017387 -0.001710 0.000408 0.008740 0.007478 0.001713
# 2 -0.001710 0.006912 -0.002093 0.000093 0.001378 -0.001112
# 3 0.000408 -0.002093 0.020780 0.010976 0.010213 -0.001644
# 4 0.008740 0.000093 0.010976 0.061605 0.001366 0.010226
# 5 0.007478 0.001378 0.010213 0.001366 0.039389 0.005074
# 6 0.001713 -0.001112 -0.001644 0.010226 0.005074 0.023186
#
#
# Mechanical properties :
#
#
# Convention : Reuss Voigt Hill
#
# Bulk Modulus (GPa) = 26.11516 56.19257 41.15386
# Shear Modulus (GPa) = 26.48157 39.02787 32.75472
#
# Velocity S-wave (km/s) = 3.35058 4.06758 3.72637
# Velocity P-wave (km/s) = 5.10290 6.77363 5.99674
#
# Compressibility (1/GPa) = 0.03829194
#
# Stress axis : x y z
#
# Youngs Moduli (GPa) = 57.51261 144.67691 48.12277
#
# Poissons Ratio (x) = 0.24733 -0.01966
# Poissons Ratio (y) = 0.09832 0.10071
# Poissons Ratio (z) = -0.02349 0.30277
#
# Static dielectric constant tensor:
#      x y z
#    x 1.947460 -0.010190 0.026660 
#    y -0.010190 1.888470 -0.012000 
#    z 0.026660 -0.012000 1.904110 
# 
# From -- ./inp_files/157783.got.cif
#   From: 2010.05.17/outbox.cif.g08.bks.cpg/sg2_79_cif.got.tgz:157783.got - 2010.06.03 11:33:40.
