data_PCOD9063240
_publ_section_title
;
Structure prediction by ZEFSAII (Michael W. Deem and Ramdas Pophale) SiO2 
 PCOD9063240
Probable space group: P -1
;
_chemical_formula_sum "Si O2"
_cell_formula_units_Z 15
_cell_length_a 5.207237
_cell_length_b 17.687153
_cell_length_c 12.174812
_cell_angle_alpha 33.945016
_cell_angle_beta 104.269414
_cell_angle_gamma 108.201654
_cell_volume 594.639729
_symmetry_space_group_name_H-M "P -1"
_symmetry_group_IT_number 2
_symmetry_cell_setting 'triclinic'
loop_
_space_group_symop_operation_xyz
x,y,z
-x,-y,-z
loop_
_atom_site_type_symbol
_atom_site_label
_atom_site_fract_x
_atom_site_fract_y
_atom_site_fract_z
Si Si1 0.304791 0.575652 0.455083
Si Si2 0.746107 0.123520 0.685877
Si Si3 0.047380 0.799348 0.839765
Si Si4 0.932154 0.483948 0.140020
Si Si5 0.000000 0.000000 0.000000
Si Si6 0.773629 0.030406 0.558465
Si Si7 0.347667 0.876450 0.998901
Si Si8 0.560147 0.645364 0.623981
O O1 0.500000 0.500000 0.500000
O O2 0.343221 0.730439 0.228018
O O3 0.385149 0.571171 0.595160
O O4 0.000000 0.500000 0.500000
O O5 0.998642 0.160887 0.746730
O O6 0.787621 0.105183 0.585182
O O7 0.495756 0.199948 0.574968
O O8 0.651244 0.972826 0.921004
O O9 0.053264 0.864915 0.637861
O O10 0.999170 0.635776 0.019444
O O11 0.281468 0.855293 0.886873
O O12 0.824671 0.877238 0.771709
O O13 0.143703 0.388279 0.313731
O O14 0.620717 0.415743 0.215215
O O15 0.000000 0.500000 0.000000
O O16 0.853292 0.049413 0.043140
O O17 0.500000 0.000000 0.500000
#
# Coordination Sequence:
#
# PCOD9063240 Si02
#       8
#     2   2   2   2   1   2   2   2
#     4  12  28  48  74 108 148 197 246 300 369 444
#     4  12  27  45  76 107 147 188 249 303 376 438
#     4  11  25  45  72 107 142 191 244 302 373 435
#     4  12  29  50  76 107 150 200 251 308 375 446
#     4  12  26  46  70 106 150 188 246 300 370 444
#     4  11  24  43  73 105 140 183 240 306 363 433
#     4  12  26  45  73 105 144 191 240 302 365 441
#     4  12  28  48  75 108 149 197 248 309 370 444
#
# _framework density 25.225358
#
# number of rings (size 3 to 8) (size 9 to 14) (size 15 to 20)
#    0.000    0.267    4.000    4.000    7.467    1.067 
#    0.000    0.000    0.000    0.000    0.000    0.000 
#    0.000    0.000    0.000    0.000    0.000    0.000 
#
# Total GULP energy -83707.273642 kJ/mol
# GULP energy per Si atom -5580.484909 kJ/mol
# Density = 2.516794 g / cm^3
# Si number density = 25.225358 Si / 1000 Ang^3
#
#
#
# Elastic Constant Matrix: (Units=GPa)
#
#
# Indices 1 2 3 4 5 6 
#
# 1 114.9087 23.7016 37.4433 -23.1167 12.2686 -22.5361
# 2 23.7016 125.6363 45.4921 7.4455 0.1407 -17.7242
# 3 37.4433 45.4921 133.3474 -9.3401 16.2145 -13.9915
# 4 -23.1167 7.4455 -9.3401 57.7152 -7.9148 6.1600
# 5 12.2686 0.1407 16.2145 -7.9148 51.0094 1.7742
# 6 -22.5361 -17.7242 -13.9915 6.1600 1.7742 45.2586
#
#
#
# Elastic Compliance Matrix: (Units=1/GPa)
#
#
# Indices 1 2 3 4 5 6 
#
# 1 0.011280 -0.001065 -0.001904 0.003671 -0.001680 0.004177
# 2 -0.001065 0.009762 -0.003006 -0.002356 0.000727 0.002656
# 3 -0.001904 -0.003006 0.009496 0.000738 -0.002466 0.000806
# 4 0.003671 -0.002356 0.000738 0.019667 0.001997 -0.001622
# 5 -0.001680 0.000727 -0.002466 0.001997 0.021184 -0.002417
# 6 0.004177 0.002656 0.000806 -0.001622 -0.002417 0.025780
#
#
# Mechanical properties :
#
#
# Convention : Reuss Voigt Hill
#
# Bulk Modulus (GPa) = 53.80063 65.24070 59.52066
# Shear Modulus (GPa) = 43.35930 48.61367 45.98648
#
# Velocity S-wave (km/s) = 4.15043 4.39472 4.27432
# Velocity P-wave (km/s) = 6.65901 7.18824 6.92868
#
# Compressibility (1/GPa) = 0.01858714
#
# Stress axis : x y z
#
# Youngs Moduli (GPa) = 88.65350 102.43398 105.31189
#
# Poissons Ratio (x) = 0.10907 0.20055
# Poissons Ratio (y) = 0.09440 0.31659
# Poissons Ratio (z) = 0.16882 0.30794
#
# Static dielectric constant tensor:
#      x y z
#    x 2.210160 0.064910 -0.135710 
#    y 0.064910 2.089370 -0.097020 
#    z -0.135710 -0.097020 2.257200 
# 
# From -- ./inp_files/76693.got.cif
#   From: 2010.05.17/outbox.cif.g08.bks.cpg/sg2_39_cif.got.tgz:76693.got - 2010.06.03 11:33:40.
