data_PCOD9063610
_publ_section_title
;
Structure prediction by ZEFSAII (Michael W. Deem and Ramdas Pophale) SiO2 
 PCOD9063610
Probable space group: P -1
;
_chemical_formula_sum "Si O2"
_cell_formula_units_Z 14
_cell_length_a 9.656743
_cell_length_b 15.145927
_cell_length_c 15.808754
_cell_angle_alpha 139.689993
_cell_angle_beta 141.922326
_cell_angle_gamma 27.535476
_cell_volume 642.118951
_symmetry_space_group_name_H-M "P -1"
_symmetry_group_IT_number 2
_symmetry_cell_setting 'triclinic'
loop_
_space_group_symop_operation_xyz
x,y,z
-x,-y,-z
loop_
_atom_site_type_symbol
_atom_site_label
_atom_site_fract_x
_atom_site_fract_y
_atom_site_fract_z
Si Si1 0.331531 0.710797 0.300870
Si Si2 0.677186 0.909947 0.798141
Si Si3 0.325281 0.149250 0.444979
Si Si4 0.388368 0.640688 0.724163
Si Si5 0.588436 0.092418 0.175319
Si Si6 0.414452 0.604405 0.948963
Si Si7 0.685831 0.678990 0.030625
O O1 0.546876 0.752467 0.432979
O O2 0.362515 0.594615 0.312302
O O3 0.486408 0.550410 0.185577
O O4 0.966816 0.908790 0.246000
O O5 0.633050 0.918780 0.682515
O O6 0.621703 0.814765 0.771042
O O7 0.038800 0.804804 0.911038
O O8 0.403193 0.128729 0.862191
O O9 0.952325 0.286435 0.389451
O O10 0.500000 0.000000 0.500000
O O11 0.448635 0.738061 0.758360
O O12 0.400056 0.728906 0.878800
O O13 0.500000 0.000000 0.000000
O O14 0.500000 0.500000 0.000000
O O15 0.658480 0.623326 0.067433
O O16 0.000000 0.500000 0.000000
#
# Coordination Sequence:
#
# PCOD9063610 Si02
#       7
#     2   2   2   2   2   2   2
#     4  11  25  48  71 102 152 191 249 301 363 442
#     4  12  25  43  71 108 147 186 248 301 364 449
#     4  12  26  48  74 101 146 207 248 299 362 440
#     4  11  24  45  74 100 141 198 235 307 371 428
#     4  12  25  44  75 106 147 189 239 310 382 432
#     4  11  25  39  70 107 139 186 242 306 371 431
#     4  11  24  44  71 105 145 181 238 309 378 428
#
# _framework density 21.802814000000001
#
# number of rings (size 3 to 8) (size 9 to 14) (size 15 to 20)
#    0.000    0.571    5.714    3.429    4.000    0.571 
#    0.000    0.714    0.000    0.000    0.000    0.000 
#    0.000    0.000    0.000    0.000    0.000    0.000 
#
# Total GULP energy -77934.601968 kJ/mol
# GULP energy per Si atom -5566.757283 kJ/mol
# Density = 2.175319 g / cm^3
# Si number density = 21.802814 Si / 1000 Ang^3
#
#
#
# Elastic Constant Matrix: (Units=GPa)
#
#
# Indices 1 2 3 4 5 6 
#
# 1 188.5961 61.2240 27.3018 -2.4668 13.7463 26.8594
# 2 61.2240 110.0566 23.7941 -13.7340 7.4958 10.8468
# 3 27.3018 23.7941 50.0307 -12.5674 17.3946 11.2525
# 4 -2.4668 -13.7340 -12.5674 28.2888 2.3144 6.4036
# 5 13.7463 7.4958 17.3946 2.3144 42.9242 0.2702
# 6 26.8594 10.8468 11.2525 6.4036 0.2702 48.6604
#
#
#
# Elastic Compliance Matrix: (Units=1/GPa)
#
#
# Indices 1 2 3 4 5 6 
#
# 1 0.007064 -0.003396 -0.001584 -0.001062 -0.000954 -0.002631
# 2 -0.003396 0.012210 -0.002443 0.004778 -0.000307 -0.000910
# 3 -0.001584 -0.002443 0.032352 0.015942 -0.012985 -0.008088
# 4 -0.001062 0.004778 0.015942 0.047788 -0.009465 -0.010401
# 5 -0.000954 -0.000307 -0.012985 -0.009465 0.029399 0.004680
# 6 -0.002631 -0.000910 -0.008088 -0.010401 0.004680 0.025419
#
#
# Mechanical properties :
#
#
# Convention : Reuss Voigt Hill
#
# Bulk Modulus (GPa) = 27.18687 63.70258 45.44473
# Shear Modulus (GPa) = 27.57312 39.73226 33.65269
#
# Velocity S-wave (km/s) = 3.56006 4.27353 3.93301
# Velocity P-wave (km/s) = 5.42174 7.32337 6.44309
#
# Compressibility (1/GPa) = 0.03678246
#
# Stress axis : x y z
#
# Youngs Moduli (GPa) = 141.55727 81.89929 30.91017
#
# Poissons Ratio (x) = 0.27811 0.04895
# Poissons Ratio (y) = 0.48070 0.07550
# Poissons Ratio (z) = 0.22416 0.20004
#
# Static dielectric constant tensor:
#      x y z
#    x 2.435600 0.115390 -0.036780 
#    y 0.115390 1.865800 -0.008670 
#    z -0.036780 -0.008670 1.889580 
# 
# From -- ./inp_files/398386.got.cif
#   From: 2010.05.17/outbox.cif.g08.bks.cpg/sg2_200_cif.got.tgz:398386.got - 2010.06.03 11:33:40.
