data_PCOD9063476
_publ_section_title
;
Structure prediction by ZEFSAII (Michael W. Deem and Ramdas Pophale) SiO2 
 PCOD9063476
Probable space group: P -1
;
_chemical_formula_sum "Si O2"
_cell_formula_units_Z 16
_cell_length_a 12.180533
_cell_length_b 16.592823
_cell_length_c 8.528104
_cell_angle_alpha 122.452412
_cell_angle_beta 98.550443
_cell_angle_gamma 37.138527
_cell_volume 734.636341
_symmetry_space_group_name_H-M "P -1"
_symmetry_group_IT_number 2
_symmetry_cell_setting 'triclinic'
loop_
_space_group_symop_operation_xyz
x,y,z
-x,-y,-z
loop_
_atom_site_type_symbol
_atom_site_label
_atom_site_fract_x
_atom_site_fract_y
_atom_site_fract_z
Si Si1 0.900833 0.937629 0.023464
Si Si2 0.728645 0.911546 0.202036
Si Si3 0.578076 0.699758 0.858529
Si Si4 0.013153 0.946738 0.619051
Si Si5 0.250422 0.208870 0.366828
Si Si6 0.076129 0.398792 0.215150
Si Si7 0.665211 0.038482 0.664045
Si Si8 0.721252 0.381849 0.485664
O O1 0.853260 0.897925 0.111699
O O2 0.663998 0.123309 0.083830
O O3 0.974015 0.981040 0.170425
O O4 0.088183 0.770308 0.764103
O O5 0.501688 0.046456 0.217201
O O6 0.662648 0.999498 0.448889
O O7 0.874546 0.708508 0.028106
O O8 0.736203 0.661569 0.779828
O O9 0.682697 0.519302 0.669684
O O10 0.550432 0.759969 0.091986
O O11 0.216700 0.727476 0.464701
O O12 0.817210 0.018505 0.673674
O O13 0.000000 0.000000 0.500000
O O14 0.105945 0.310822 0.284889
O O15 0.252133 0.110081 0.363442
O O16 0.142607 0.378892 0.609627
O O17 0.500000 0.500000 0.500000
#
# Coordination Sequence:
#
# PCOD9063476 Si02
#       8
#     2   2   2   2   2   2   2   2
#     4  12  25  46  78 102 142 187 241 297 357 424
#     4  12  25  45  68 106 143 185 234 289 357 426
#     4  12  24  45  74 106 138 186 242 295 352 430
#     4  12  25  49  71 104 146 186 232 302 366 417
#     4  11  24  44  69 104 140 188 235 291 348 424
#     4  11  25  41  71 104 141 184 238 290 349 422
#     4  12  25  46  72  99 146 190 231 290 362 425
#     4  12  26  46  78 108 137 188 250 294 350 431
#
# _framework density 21.779485000000001
#
# number of rings (size 3 to 8) (size 9 to 14) (size 15 to 20)
#    0.000    0.250    6.250    3.375    3.500    0.500 
#    2.250    3.750    0.000    0.000    0.000    0.000 
#    0.000    0.000    0.000    0.000    0.000    0.000 
#
# Total GULP energy -89435.498207 kJ/mol
# GULP energy per Si atom -5589.718638 kJ/mol
# Density = 2.172991 g / cm^3
# Si number density = 21.779485 Si / 1000 Ang^3
#
#
#
# Elastic Constant Matrix: (Units=GPa)
#
#
# Indices 1 2 3 4 5 6 
#
# 1 129.6470 43.4401 49.7291 0.1422 8.2946 25.0223
# 2 43.4401 67.0763 47.3585 -0.2640 -4.2338 23.6351
# 3 49.7291 47.3585 173.3713 4.5378 30.3933 14.7976
# 4 0.1422 -0.2640 4.5378 37.7608 -2.0432 0.5424
# 5 8.2946 -4.2338 30.3933 -2.0432 48.2851 3.6960
# 6 25.0223 23.6351 14.7976 0.5424 3.6960 35.9867
#
#
#
# Elastic Compliance Matrix: (Units=1/GPa)
#
#
# Indices 1 2 3 4 5 6 
#
# 1 0.010548 -0.004804 -0.001200 0.000057 -0.001203 -0.003563
# 2 -0.004804 0.027902 -0.006663 0.001665 0.008543 -0.013148
# 3 -0.001200 -0.006663 0.008866 -0.001475 -0.006192 0.002222
# 4 0.000057 0.001665 -0.001475 0.026812 0.002288 -0.001166
# 5 -0.001203 0.008543 -0.006192 0.002288 0.026038 -0.004937
# 6 -0.003563 -0.013148 0.002222 -0.001166 -0.004937 0.038511
#
#
# Mechanical properties :
#
#
# Convention : Reuss Voigt Hill
#
# Bulk Modulus (GPa) = 45.48941 72.35001 58.91971
# Shear Modulus (GPa) = 29.18194 39.71097 34.44646
#
# Velocity S-wave (km/s) = 3.66441 4.27467 3.98125
# Velocity P-wave (km/s) = 6.23182 7.59310 6.94589
#
# Compressibility (1/GPa) = 0.02198314
#
# Stress axis : x y z
#
# Youngs Moduli (GPa) = 94.80784 35.83909 112.78453
#
# Poissons Ratio (x) = 0.17218 0.13530
# Poissons Ratio (y) = 0.45548 0.75147
# Poissons Ratio (z) = 0.11373 0.23879
#
# Static dielectric constant tensor:
#      x y z
#    x 2.094510 -0.135800 -0.315710 
#    y -0.135800 1.884880 0.133960 
#    z -0.315710 0.133960 2.190850 
# 
# From -- ./inp_files/279887.got.cif
#   From: 2010.05.17/outbox.cif.g08.bks.cpg/sg2_140_cif.got.tgz:279887.got - 2010.06.03 11:33:40.
