data_PCOD9063785
_publ_section_title
;
Structure prediction by ZEFSAII (Michael W. Deem and Ramdas Pophale) SiO2 
 PCOD9063785
Probable space group: P -1
;
_chemical_formula_sum "Si O2"
_cell_formula_units_Z 16
_cell_length_a 21.314435
_cell_length_b 12.089234
_cell_length_c 18.215984
_cell_angle_alpha 28.519372
_cell_angle_beta 20.063199
_cell_angle_gamma 38.886377
_cell_volume 736.569408
_symmetry_space_group_name_H-M "P -1"
_symmetry_group_IT_number 2
_symmetry_cell_setting 'triclinic'
loop_
_space_group_symop_operation_xyz
x,y,z
-x,-y,-z
loop_
_atom_site_type_symbol
_atom_site_label
_atom_site_fract_x
_atom_site_fract_y
_atom_site_fract_z
Si Si1 0.272024 0.397716 0.612147
Si Si2 0.457635 0.194416 0.990539
Si Si3 0.560490 0.374105 0.436199
Si Si4 0.021473 0.387003 0.120874
Si Si5 0.001914 0.132932 0.741529
Si Si6 0.032650 0.117743 0.476172
Si Si7 0.843626 0.384308 0.633757
Si Si8 0.427998 0.127987 0.229232
O O1 0.387257 0.541246 0.332817
O O2 0.437302 0.413795 0.480729
O O3 0.151425 0.576434 0.664587
O O4 0.128229 0.126896 0.934189
O O5 0.256884 0.240701 0.164200
O O6 0.432109 0.079279 0.166205
O O7 0.500000 0.000000 0.000000
O O8 0.500000 0.500000 0.500000
O O9 0.525747 0.092792 0.651799
O O10 0.787222 0.484079 0.120900
O O11 0.014727 0.110645 0.283308
O O12 0.000000 0.500000 0.000000
O O13 0.038317 0.339422 0.643208
O O14 0.215611 0.132392 0.481834
O O15 0.902997 0.231822 0.724294
O O16 0.906645 0.282456 0.548216
O O17 0.000000 0.000000 0.500000
O O18 0.616821 0.349838 0.906470
#
# Coordination Sequence:
#
# PCOD9063785 Si02
#       8
#     2   2   2   2   2   2   2   2
#     4  12  24  42  62  99 138 177 221 278 338 402
#     4  12  24  41  64 101 144 180 215 278 353 412
#     4  12  22  35  64  99 131 173 230 281 332 404
#     4  12  22  39  65  96 136 176 220 279 340 398
#     4  11  24  47  72  97 136 184 236 279 331 403
#     4  12  24  44  69 101 141 180 218 281 356 408
#     4  11  24  44  74 102 129 180 240 282 327 407
#     4  12  23  43  70  99 133 176 233 282 342 396
#
# _framework density 21.722325999999999
#
# number of rings (size 3 to 8) (size 9 to 14) (size 15 to 20)
#    0.000    0.250    6.250    4.875    0.000    0.000 
#    0.000    1.250    0.000    0.000    0.000    0.000 
#    0.000    0.000    0.000    0.000    0.000    0.000 
#
# Total GULP energy -89424.152690 kJ/mol
# GULP energy per Si atom -5589.009543 kJ/mol
# Density = 2.167289 g / cm^3
# Si number density = 21.722326 Si / 1000 Ang^3
#
#
#
# Elastic Constant Matrix: (Units=GPa)
#
#
# Indices 1 2 3 4 5 6 
#
# 1 67.4113 34.8945 28.3055 9.8717 -13.3105 -5.3709
# 2 34.8945 80.6627 38.1570 1.1987 -3.5088 3.3314
# 3 28.3055 38.1570 148.2261 -0.7262 -19.1407 -0.9679
# 4 9.8717 1.1987 -0.7262 39.4480 -6.0424 -10.7304
# 5 -13.3105 -3.5088 -19.1407 -6.0424 34.9916 5.4744
# 6 -5.3709 3.3314 -0.9679 -10.7304 5.4744 31.2747
#
#
#
# Elastic Compliance Matrix: (Units=1/GPa)
#
#
# Indices 1 2 3 4 5 6 
#
# 1 0.021630 -0.008591 -0.001183 -0.003662 0.005722 0.002335
# 2 -0.008591 0.017657 -0.003282 0.000351 -0.002786 -0.002850
# 3 -0.001183 -0.003282 0.008336 0.001189 0.003968 0.000118
# 4 -0.003662 0.000351 0.001189 0.029136 0.002939 0.008853
# 5 0.005722 -0.002786 0.003968 0.002939 0.033699 -0.003488
# 6 0.002335 -0.002850 0.000118 0.008853 -0.003488 0.036331
#
#
# Mechanical properties :
#
#
# Convention : Reuss Voigt Hill
#
# Bulk Modulus (GPa) = 46.48348 55.44603 50.96476
# Shear Modulus (GPa) = 27.76703 34.13907 30.95305
#
# Velocity S-wave (km/s) = 3.57917 3.96866 3.77894
# Velocity P-wave (km/s) = 6.20693 6.82500 6.52329
#
# Compressibility (1/GPa) = 0.02151302
#
# Stress axis : x y z
#
# Youngs Moduli (GPa) = 46.23236 56.63418 119.96106
#
# Poissons Ratio (x) = 0.48652 0.14190
# Poissons Ratio (y) = 0.39716 0.39366
# Poissons Ratio (z) = 0.05469 0.18585
#
# Static dielectric constant tensor:
#      x y z
#    x 1.578600 -0.987180 -1.182680 
#    y -0.987180 -2.752180 -5.334650 
#    z -1.182680 -5.334650 -4.421660 
# 
# From -- ./inp_files/577910.got.cif
#   From: 2010.05.17/outbox.cif.g08.bks.cpg/sg2_289_cif.got.tgz:577910.got - 2010.06.03 11:33:40.
