data_PCOD9063068
_publ_section_title
;
Structure prediction by ZEFSAII (Michael W. Deem and Ramdas Pophale) SiO2 
 PCOD9063068
Probable space group: P -1
;
_chemical_formula_sum "Si O2"
_cell_formula_units_Z 16
_cell_length_a 15.899432
_cell_length_b 15.899437
_cell_length_c 10.097357
_cell_angle_alpha 44.001910
_cell_angle_beta 135.998042
_cell_angle_gamma 151.744999
_cell_volume 810.417462
_symmetry_space_group_name_H-M "P -1"
_symmetry_group_IT_number 2
_symmetry_cell_setting 'triclinic'
loop_
_space_group_symop_operation_xyz
x,y,z
-x,-y,-z
loop_
_atom_site_type_symbol
_atom_site_label
_atom_site_fract_x
_atom_site_fract_y
_atom_site_fract_z
Si Si1 0.595492 0.404507 0.120041
Si Si2 0.490730 0.097905 0.987387
Si Si3 0.261580 0.136536 0.550922
Si Si4 0.902095 0.509270 0.987386
Si Si5 0.550568 0.449434 0.314714
Si Si6 0.136534 0.261578 0.449080
Si Si7 0.004888 0.389073 0.728179
Si Si8 0.389073 0.004888 0.271822
O O1 0.589161 0.410836 0.264619
O O2 0.465722 0.197001 0.162996
O O3 0.802999 0.534278 0.162997
O O4 0.524814 0.475185 0.895670
O O5 0.350451 0.095868 0.783418
O O6 0.691574 0.308426 0.989629
O O7 0.430228 0.002488 0.169087
O O8 0.500000 0.000000 0.000000
O O9 0.397676 0.267452 0.436186
O O10 0.238166 0.238166 0.500001
O O11 0.057729 0.942274 0.496473
O O12 0.904132 0.649549 0.783416
O O13 0.000000 0.500000 0.000000
O O14 0.997511 0.569772 0.169086
O O15 0.732552 0.602328 0.436183
O O16 0.000000 0.500000 0.500000
O O17 0.827022 0.172978 0.745733
O O18 0.500000 0.000000 0.500000
#
# Coordination Sequence:
#
# PCOD9063068 Si02
#       8
#     2   2   2   2   2   2   2   2
#     4  11  26  46  68 104 132 188 233 271 349 407
#     4  12  25  43  69 104 138 175 231 288 342 409
#     4  11  24  43  70 102 139 181 228 285 347 404
#     4  12  25  43  69 104 138 175 231 288 342 409
#     4  11  25  44  72  96 143 180 231 286 329 417
#     4  11  24  43  70 102 139 181 228 285 347 404
#     4  12  25  45  69  97 139 182 225 280 343 408
#     4  12  25  45  69  97 139 182 225 280 343 408
#
# _framework density 19.742910999999999
#
# number of rings (size 3 to 8) (size 9 to 14) (size 15 to 20)
#    0.000    0.500    3.750    4.125    3.500    4.000 
#    0.000    2.500    0.000    0.000    0.000    0.000 
#    0.000    0.000    0.000    0.000    0.000    0.000 
#
# Total GULP energy -89576.074923 kJ/mol
# GULP energy per Si atom -5598.504683 kJ/mol
# Density = 1.969798 g / cm^3
# Si number density = 19.742911 Si / 1000 Ang^3
#
#
#
# Elastic Constant Matrix: (Units=GPa)
#
#
# Indices 1 2 3 4 5 6 
#
# 1 112.8558 39.8477 57.8217 2.7799 -9.1559 -3.4712
# 2 39.8477 142.1635 22.1469 3.9692 -16.0250 11.9311
# 3 57.8217 22.1469 121.5433 5.7564 -21.4783 -10.2987
# 4 2.7799 3.9692 5.7564 26.3744 -3.0260 1.0454
# 5 -9.1559 -16.0250 -21.4783 -3.0260 36.8544 -1.7944
# 6 -3.4712 11.9311 -10.2987 1.0454 -1.7944 34.9384
#
#
#
# Elastic Compliance Matrix: (Units=1/GPa)
#
#
# Indices 1 2 3 4 5 6 
#
# 1 0.012712 -0.002871 -0.005739 0.000166 -0.001398 0.000475
# 2 -0.002871 0.008403 0.000107 -0.000545 0.002814 -0.002963
# 3 -0.005739 0.000107 0.012331 -0.001566 0.005843 0.003375
# 4 0.000166 -0.000545 -0.001566 0.038603 0.001997 -0.001311
# 5 -0.001398 0.002814 0.005843 0.001997 0.031686 0.002190
# 6 0.000475 -0.002963 0.003375 -0.001311 0.002190 0.030827
#
#
# Mechanical properties :
#
#
# Convention : Reuss Voigt Hill
#
# Bulk Modulus (GPa) = 60.82949 68.46614 64.64781
# Shear Modulus (GPa) = 31.83715 36.74984 34.29349
#
# Velocity S-wave (km/s) = 4.02006 4.31910 4.17226
# Velocity P-wave (km/s) = 7.24055 7.72185 7.48507
#
# Compressibility (1/GPa) = 0.01643940
#
# Stress axis : x y z
#
# Youngs Moduli (GPa) = 78.66508 119.00024 81.09695
#
# Poissons Ratio (x) = 0.34167 0.46542
# Poissons Ratio (y) = 0.22586 -0.00865
# Poissons Ratio (z) = 0.45146 -0.01270
#
# Static dielectric constant tensor:
#      x y z
#    x 1.637820 -0.140070 0.002790 
#    y -0.140070 1.152160 -0.000560 
#    z 0.002790 -0.000560 1.680030 
# 
# From -- ./inp_files/271743.got.cif
#   From: 2010.05.17/outbox.cif.g08.bks.cpg/sg2_136_cif.got.tgz:271743.got - 2010.06.03 11:33:40.
