data_PCOD9063984
_publ_section_title
;
Structure prediction by ZEFSAII (Michael W. Deem and Ramdas Pophale) SiO2 
 PCOD9063984
Probable space group: P -1
;
_chemical_formula_sum "Si O2"
_cell_formula_units_Z 16
_cell_length_a 18.054211
_cell_length_b 5.804303
_cell_length_c 8.948374
_cell_angle_alpha 53.195225
_cell_angle_beta 94.930903
_cell_angle_gamma 80.106348
_cell_volume 718.126868
_symmetry_space_group_name_H-M "P -1"
_symmetry_group_IT_number 2
_symmetry_cell_setting 'triclinic'
loop_
_space_group_symop_operation_xyz
x,y,z
-x,-y,-z
loop_
_atom_site_type_symbol
_atom_site_label
_atom_site_fract_x
_atom_site_fract_y
_atom_site_fract_z
Si Si1 0.686100 0.822915 0.808190
Si Si2 0.810223 0.086426 0.876709
Si Si3 0.456795 0.827031 0.944383
Si Si4 0.779783 0.749692 0.550109
Si Si5 0.936556 0.846063 0.488993
Si Si6 0.491304 0.845218 0.402014
Si Si7 0.043052 0.197281 0.837384
Si Si8 0.291701 0.815531 0.895040
O O1 0.717367 0.770783 0.662991
O O2 0.743946 0.995188 0.813549
O O3 0.596116 0.991910 0.726369
O O4 0.694594 0.525134 0.025296
O O5 0.819713 0.390181 0.685392
O O6 0.774810 0.158859 0.006660
O O7 0.886204 0.815128 0.031275
O O8 0.373283 0.810448 0.989477
O O9 0.443983 0.060810 0.717396
O O10 0.500000 0.500000 0.000000
O O11 0.500000 0.000000 0.000000
O O12 0.851130 0.899530 0.526484
O O13 0.735232 0.923984 0.331498
O O14 0.927349 0.908203 0.284733
O O15 0.981046 0.505935 0.669607
O O16 0.000000 0.000000 0.500000
O O17 0.500000 0.500000 0.500000
O O18 0.500000 0.000000 0.500000
O O19 0.000000 0.000000 0.000000
#
# Coordination Sequence:
#
# PCOD9063984 Si02
#       8
#     2   2   2   2   2   2   2   2
#     4  11  27  44  71 101 140 186 234 293 363 431
#     4  11  25  45  68  99 142 180 230 295 356 428
#     4  12  25  46  73 102 142 190 243 299 366 436
#     4  11  25  45  66 103 138 183 234 289 359 429
#     4  11  26  43  69 101 138 180 238 287 349 436
#     4  12  27  48  75 108 148 193 249 308 368 439
#     4  11  24  45  68  99 137 182 230 291 354 421
#     4  11  25  46  68  99 141 181 234 291 357 429
#
# _framework density 22.280187999999999
#
# number of rings (size 3 to 8) (size 9 to 14) (size 15 to 20)
#    0.000    0.750    3.750    2.250    8.750    1.500 
#    0.000    0.000    0.000    0.000    0.000    0.000 
#    0.000    0.000    0.000    0.000    0.000    0.000 
#
# Total GULP energy -89097.035986 kJ/mol
# GULP energy per Si atom -5568.564749 kJ/mol
# Density = 2.222948 g / cm^3
# Si number density = 22.280188 Si / 1000 Ang^3
#
#
#
# Elastic Constant Matrix: (Units=GPa)
#
#
# Indices 1 2 3 4 5 6 
#
# 1 115.8445 11.9880 19.7227 -13.1482 12.5013 19.1777
# 2 11.9880 78.5452 37.9339 -11.4432 8.2642 20.9317
# 3 19.7227 37.9339 140.7838 -10.9691 -3.7107 5.6035
# 4 -13.1482 -11.4432 -10.9691 19.9753 11.2141 -1.4187
# 5 12.5013 8.2642 -3.7107 11.2141 42.2434 1.2082
# 6 19.1777 20.9317 5.6035 -1.4187 1.2082 38.8389
#
#
#
# Elastic Compliance Matrix: (Units=1/GPa)
#
#
# Indices 1 2 3 4 5 6 
#
# 1 0.011904 0.003343 -0.001512 0.012634 -0.007470 -0.006768
# 2 0.003343 0.020794 -0.004618 0.016051 -0.009400 -0.011312
# 3 -0.001512 -0.004618 0.008539 0.000045 0.002033 0.001942
# 4 0.012634 0.016051 0.000045 0.082847 -0.028554 -0.010980
# 5 -0.007470 -0.009400 0.002033 -0.028554 0.035300 0.006320
# 6 -0.006768 -0.011312 0.001942 -0.010980 0.006320 0.034308
#
#
# Mechanical properties :
#
#
# Convention : Reuss Voigt Hill
#
# Bulk Modulus (GPa) = 28.03966 52.71809 40.37887
# Shear Modulus (GPa) = 23.67957 37.91345 30.79651
#
# Velocity S-wave (km/s) = 3.26361 4.12960 3.72188
# Velocity P-wave (km/s) = 5.17821 6.81549 6.05247
#
# Compressibility (1/GPa) = 0.03566377
#
# Stress axis : x y z
#
# Youngs Moduli (GPa) = 84.00510 48.09137 117.10957
#
# Poissons Ratio (x) = -0.16078 0.17703
# Poissons Ratio (y) = -0.28086 0.54083
# Poissons Ratio (z) = 0.12699 0.22209
#
# Static dielectric constant tensor:
#      x y z
#    x 1.819280 -0.063010 0.035170 
#    y -0.063010 1.934160 0.033880 
#    z 0.035170 0.033880 1.833690 
# 
# From -- ./inp_files/55569.got.cif
#   From: 2010.05.17/outbox.cif.g08.bks.cpg/sg2_28_cif.got.tgz:55569.got - 2010.06.03 11:33:40.
