data_PCOD9063197
_publ_section_title
;
Structure prediction by ZEFSAII (Michael W. Deem and Ramdas Pophale) SiO2 
 PCOD9063197
Probable space group: P -1
;
_chemical_formula_sum "Si O2"
_cell_formula_units_Z 14
_cell_length_a 8.641354
_cell_length_b 14.681781
_cell_length_c 9.359139
_cell_angle_alpha 38.617002
_cell_angle_beta 96.623314
_cell_angle_gamma 116.443069
_cell_volume 603.327594
_symmetry_space_group_name_H-M "P -1"
_symmetry_group_IT_number 2
_symmetry_cell_setting 'triclinic'
loop_
_space_group_symop_operation_xyz
x,y,z
-x,-y,-z
loop_
_atom_site_type_symbol
_atom_site_label
_atom_site_fract_x
_atom_site_fract_y
_atom_site_fract_z
Si Si1 0.143107 0.043935 0.330022
Si Si2 0.471491 0.132607 0.743739
Si Si3 0.297475 0.465553 0.046596
Si Si4 0.140890 0.497929 0.706672
Si Si5 0.968315 0.150589 0.943088
Si Si6 0.986860 0.727549 0.514146
Si Si7 0.510341 0.158742 0.377797
O O1 0.134463 0.880009 0.454002
O O2 0.343616 0.161996 0.282416
O O3 0.000000 0.000000 0.500000
O O4 0.095610 0.121672 0.096744
O O5 0.651442 0.340343 0.536643
O O6 0.487280 0.125315 0.584191
O O7 0.500000 0.000000 0.000000
O O8 0.244284 0.030568 0.861456
O O9 0.200406 0.347878 0.318980
O O10 0.500000 0.500000 0.000000
O O11 0.185226 0.414348 0.948086
O O12 0.309592 0.643755 0.868400
O O13 0.000606 0.331558 0.791764
O O14 0.045785 0.595203 0.638370
O O15 0.028114 0.196884 0.729128
O O16 0.500000 0.000000 0.500000
#
# Coordination Sequence:
#
# PCOD9063197 Si02
#       7
#     2   2   2   2   2   2   2
#     4  12  24  47  72 102 143 193 237 294 367 428
#     4  11  24  43  72 105 149 179 239 297 366 421
#     4  11  25  45  68 101 141 187 241 298 359 428
#     4  11  25  47  74 105 143 192 243 296 361 436
#     4  12  26  46  75 109 147 192 238 306 367 428
#     4  12  26  45  71 106 144 186 246 300 359 434
#     4  11  25  43  70 103 135 186 245 292 352 432
#
# _framework density 23.204640000000001
#
# number of rings (size 3 to 8) (size 9 to 14) (size 15 to 20)
#    0.000    0.571    2.857    5.571    4.000    0.000 
#    0.000    1.429    0.000    0.000    0.000    0.000 
#    0.000    0.000    0.000    0.000    0.000    0.000 
#
# Total GULP energy -78137.160631 kJ/mol
# GULP energy per Si atom -5581.225759 kJ/mol
# Density = 2.315183 g / cm^3
# Si number density = 23.204640 Si / 1000 Ang^3
#
#
#
# Elastic Constant Matrix: (Units=GPa)
#
#
# Indices 1 2 3 4 5 6 
#
# 1 81.1814 32.7611 34.0880 0.1553 0.5019 3.8490
# 2 32.7611 123.5140 29.9922 1.5815 -4.0946 -14.8151
# 3 34.0880 29.9922 127.6765 27.0310 -18.3000 -2.3237
# 4 0.1553 1.5815 27.0310 53.3784 2.6799 14.7367
# 5 0.5019 -4.0946 -18.3000 2.6799 41.6847 -1.4336
# 6 3.8490 -14.8151 -2.3237 14.7367 -1.4336 31.8252
#
#
#
# Elastic Compliance Matrix: (Units=1/GPa)
#
#
# Indices 1 2 3 4 5 6 
#
# 1 0.016370 -0.004083 -0.004964 0.004546 -0.003293 -0.006496
# 2 -0.004083 0.010115 -0.000678 -0.001643 0.001056 0.005961
# 3 -0.004964 -0.000678 0.011864 -0.007634 0.005862 0.004950
# 4 0.004546 -0.001643 -0.007634 0.026963 -0.005804 -0.014619
# 5 -0.003293 0.001056 0.005862 -0.005804 0.027260 0.005233
# 6 -0.006496 0.005961 0.004950 -0.014619 0.005233 0.042349
#
#
# Mechanical properties :
#
#
# Convention : Reuss Voigt Hill
#
# Bulk Modulus (GPa) = 52.91710 58.45050 55.68380
# Shear Modulus (GPa) = 31.11960 41.07971 36.09966
#
# Velocity S-wave (km/s) = 3.66607 4.21209 3.94853
# Velocity P-wave (km/s) = 6.38546 6.99281 6.69602
#
# Compressibility (1/GPa) = 0.01889748
#
# Stress axis : x y z
#
# Youngs Moduli (GPa) = 61.08744 98.86239 84.29158
#
# Poissons Ratio (x) = 0.40368 0.41843
# Poissons Ratio (y) = 0.24943 0.05717
# Poissons Ratio (z) = 0.30324 0.06705
#
# Static dielectric constant tensor:
#      x y z
#    x 1.905020 -0.032760 0.013940 
#    y -0.032760 1.840400 -0.089940 
#    z 0.013940 -0.089940 1.925730 
# 
# From -- ./inp_files/190730.got.cif
#   From: 2010.05.17/outbox.cif.g08.bks.cpg/sg2_96_cif.got.tgz:190730.got - 2010.06.03 11:33:40.
