data_PCOD9063671
_publ_section_title
;
Structure prediction by ZEFSAII (Michael W. Deem and Ramdas Pophale) SiO2 
 PCOD9063671
Probable space group: P -1
;
_chemical_formula_sum "Si O2"
_cell_formula_units_Z 16
_cell_length_a 24.906362
_cell_length_b 14.792054
_cell_length_c 8.612343
_cell_angle_alpha 53.236656
_cell_angle_beta 41.838202
_cell_angle_gamma 20.958716
_cell_volume 691.330296
_symmetry_space_group_name_H-M "P -1"
_symmetry_group_IT_number 2
_symmetry_cell_setting 'triclinic'
loop_
_space_group_symop_operation_xyz
x,y,z
-x,-y,-z
loop_
_atom_site_type_symbol
_atom_site_label
_atom_site_fract_x
_atom_site_fract_y
_atom_site_fract_z
Si Si1 0.596568 0.714191 0.272636
Si Si2 0.979737 0.363682 0.798301
Si Si3 0.567316 0.613668 0.752338
Si Si4 0.832844 0.654545 0.491698
Si Si5 0.740919 0.151234 0.884852
Si Si6 0.145480 0.592008 0.487171
Si Si7 0.677783 0.252017 0.253715
Si Si8 0.848076 0.258947 0.951950
O O1 0.547614 0.707340 0.539015
O O2 0.398780 0.023940 0.316142
O O3 0.774345 0.571151 0.079674
O O4 0.684947 0.522679 0.143390
O O5 0.929485 0.475024 0.620681
O O6 0.056196 0.367767 0.737323
O O7 0.154051 0.047702 0.738535
O O8 0.708940 0.321938 0.729215
O O9 0.660972 0.586873 0.693870
O O10 0.362260 0.812976 0.035545
O O11 0.836611 0.561235 0.438418
O O12 0.629006 0.276238 0.160861
O O13 0.970855 0.833903 0.736837
O O14 0.071360 0.749776 0.327638
O O15 0.500000 0.500000 0.500000
O O16 0.764371 0.265053 0.024302
O O17 0.000000 0.000000 0.000000
#
# Coordination Sequence:
#
# PCOD9063671 Si02
#       8
#     2   2   2   2   2   2   2   2
#     4  12  24  47  72 104 147 187 245 292 352 421
#     4  11  24  44  72 104 143 190 238 302 349 411
#     4  11  25  44  71 101 144 187 226 298 364 424
#     4  11  26  46  69 104 144 196 246 290 341 425
#     4  11  25  45  69 105 146 184 229 295 370 434
#     4  12  25  45  70 100 145 188 236 287 360 424
#     4  12  24  45  74 109 142 177 239 305 365 430
#     4  12  23  41  72 109 135 182 238 296 361 420
#
# _framework density 23.143785000000001
#
# number of rings (size 3 to 8) (size 9 to 14) (size 15 to 20)
#    0.000    0.500    3.750    4.500    0.000    4.500 
#    2.250    4.375    0.000    0.000    0.000    0.000 
#    0.000    0.000    0.000    0.000    0.000    0.000 
#
# Total GULP energy -89429.664805 kJ/mol
# GULP energy per Si atom -5589.354050 kJ/mol
# Density = 2.309111 g / cm^3
# Si number density = 23.143785 Si / 1000 Ang^3
#
#
#
# Elastic Constant Matrix: (Units=GPa)
#
#
# Indices 1 2 3 4 5 6 
#
# 1 139.1169 34.1588 20.6464 -2.8556 -38.1805 15.4798
# 2 34.1588 115.0610 26.5495 8.8842 -2.9960 6.7111
# 3 20.6464 26.5495 41.6055 -13.9971 -11.8998 8.5012
# 4 -2.8556 8.8842 -13.9971 23.6876 2.1700 -5.7586
# 5 -38.1805 -2.9960 -11.8998 2.1700 51.9702 -8.9680
# 6 15.4798 6.7111 8.5012 -5.7586 -8.9680 33.2166
#
#
#
# Elastic Compliance Matrix: (Units=1/GPa)
#
#
# Indices 1 2 3 4 5 6 
#
# 1 0.009990 -0.002517 -0.000858 0.000537 0.006622 -0.002046
# 2 -0.002517 0.013170 -0.012043 -0.012401 -0.003593 -0.001526
# 3 -0.000858 -0.012043 0.044546 0.029713 0.007389 -0.001421
# 4 0.000537 -0.012401 0.029713 0.065834 0.005015 0.007418
# 5 0.006622 -0.003593 0.007389 0.005015 0.026010 0.003641
# 6 -0.002046 -0.001526 -0.001421 0.007418 0.003641 0.034000
#
#
# Mechanical properties :
#
#
# Convention : Reuss Voigt Hill
#
# Bulk Modulus (GPa) = 27.12278 50.94365 39.03322
# Shear Modulus (GPa) = 21.12583 36.07013 28.59798
#
# Velocity S-wave (km/s) = 3.02455 3.95210 3.51902
# Velocity P-wave (km/s) = 4.89304 6.54867 5.78044
#
# Compressibility (1/GPa) = 0.03686937
#
# Stress axis : x y z
#
# Youngs Moduli (GPa) = 100.10223 75.92905 22.44856
#
# Poissons Ratio (x) = 0.19115 0.01926
# Poissons Ratio (y) = 0.25200 0.27035
# Poissons Ratio (z) = 0.08589 0.91441
#
# Static dielectric constant tensor:
#      x y z
#    x 1.966800 -0.031590 -0.022210 
#    y -0.031590 1.881390 -0.004490 
#    z -0.022210 -0.004490 1.871340 
# 
# From -- ./inp_files/357367.got.cif
#   From: 2010.05.17/outbox.cif.g08.bks.cpg/sg2_179_cif.got.tgz:357367.got - 2010.06.03 11:33:40.
