data_PCOD9063186
_publ_section_title
;
Structure prediction by ZEFSAII (Michael W. Deem and Ramdas Pophale) SiO2 
 PCOD9063186
Probable space group: P -1
;
_chemical_formula_sum "Si O2"
_cell_formula_units_Z 14
_cell_length_a 8.124545
_cell_length_b 11.119013
_cell_length_c 12.046589
_cell_angle_alpha 55.456570
_cell_angle_beta 107.114725
_cell_angle_gamma 65.496407
_cell_volume 577.323445
_symmetry_space_group_name_H-M "P -1"
_symmetry_group_IT_number 2
_symmetry_cell_setting 'triclinic'
loop_
_space_group_symop_operation_xyz
x,y,z
-x,-y,-z
loop_
_atom_site_type_symbol
_atom_site_label
_atom_site_fract_x
_atom_site_fract_y
_atom_site_fract_z
Si Si1 0.513351 0.654743 0.745580
Si Si2 0.202479 0.992168 0.079970
Si Si3 0.167297 0.619095 0.758853
Si Si4 0.083119 0.037326 0.285827
Si Si5 0.738734 0.002468 0.299208
Si Si6 0.719277 0.697883 0.387892
Si Si7 0.039923 0.562268 0.212233
O O1 0.423222 0.547178 0.815603
O O2 0.789490 0.502826 0.826536
O O3 0.307282 0.841774 0.515351
O O4 0.463846 0.785250 0.775840
O O5 0.495877 0.764714 0.237082
O O6 0.186771 0.016655 0.198101
O O7 0.000000 0.000000 0.000000
O O8 0.116164 0.199648 0.904324
O O9 0.064568 0.743891 0.790667
O O10 0.956022 0.808760 0.529386
O O11 0.144434 0.460028 0.831614
O O12 0.884526 0.027623 0.239049
O O13 0.649071 0.912729 0.268855
O O14 0.754055 0.611069 0.562743
O O15 0.000000 0.500000 0.500000
#
# Coordination Sequence:
#
# PCOD9063186 Si02
#       7
#     2   2   2   2   2   2   2
#     4   9  17  39  72 103 138 173 223 286 358 414
#     4  12  29  45  65 104 140 187 237 285 337 413
#     4   8  18  36  68 106 134 174 226 281 349 419
#     4   9  18  40  66  97 142 179 222 283 346 411
#     4   8  18  37  70 103 130 178 227 284 345 415
#     4  11  26  48  71  96 134 195 238 283 344 403
#     4  11  24  43  72 103 136 178 231 292 343 420
#
# _framework density 24.249838
#
# number of rings (size 3 to 8) (size 9 to 14) (size 15 to 20)
#    0.000    2.286    1.429    1.714    4.000    6.857 
#    2.571    1.429    0.000    0.000    0.000    0.000 
#    0.000    0.000    0.000    0.000    0.000    0.000 
#
# Total GULP energy -78360.646217 kJ/mol
# GULP energy per Si atom -5597.189015 kJ/mol
# Density = 2.419464 g / cm^3
# Si number density = 24.249838 Si / 1000 Ang^3
#
#
#
# Elastic Constant Matrix: (Units=GPa)
#
#
# Indices 1 2 3 4 5 6 
#
# 1 132.0703 51.1032 49.5921 -18.7885 6.9605 12.1494
# 2 51.1032 51.7728 23.2070 -8.0974 6.3321 14.2905
# 3 49.5921 23.2070 105.1391 -13.4281 9.8095 27.3616
# 4 -18.7885 -8.0974 -13.4281 23.2140 3.4640 1.8590
# 5 6.9605 6.3321 9.8095 3.4640 28.5624 -2.9187
# 6 12.1494 14.2905 27.3616 1.8590 -2.9187 45.5764
#
#
#
# Elastic Compliance Matrix: (Units=1/GPa)
#
#
# Indices 1 2 3 4 5 6 
#
# 1 0.014251 -0.012175 -0.004049 0.004722 0.000277 0.002275
# 2 -0.012175 0.034761 0.001816 0.005110 -0.006943 -0.009397
# 3 -0.004049 0.001816 0.015014 0.007744 -0.006455 -0.009233
# 4 0.004722 0.005110 0.007744 0.055922 -0.012809 -0.010611
# 5 0.000277 -0.006943 -0.006455 -0.012809 0.041187 0.009139
# 6 0.002275 -0.009397 -0.009233 -0.010611 0.009139 0.030842
#
#
# Mechanical properties :
#
#
# Convention : Reuss Voigt Hill
#
# Bulk Modulus (GPa) = 28.40116 59.64296 44.02206
# Shear Modulus (GPa) = 21.50251 30.47589 25.98920
#
# Velocity S-wave (km/s) = 2.98099 3.54891 3.27728
# Velocity P-wave (km/s) = 4.85652 6.43751 5.70208
#
# Compressibility (1/GPa) = 0.03520983
#
# Stress axis : x y z
#
# Youngs Moduli (GPa) = 70.17021 28.76802 66.60238
#
# Poissons Ratio (x) = 0.35025 0.26970
# Poissons Ratio (y) = 0.85431 -0.12095
# Poissons Ratio (z) = 0.28414 -0.05224
#
# Static dielectric constant tensor:
#      x y z
#    x 1.943640 -0.013270 0.032260 
#    y -0.013270 1.916360 0.020370 
#    z 0.032260 0.020370 1.960340 
# 
# From -- ./inp_files/498875.got.cif
#   From: 2010.05.17/outbox.cif.g08.bks.cpg/sg2_250_cif.got.tgz:498875.got - 2010.06.03 11:33:40.
