data_PCOD9063692
_publ_section_title
;
Structure prediction by ZEFSAII (Michael W. Deem and Ramdas Pophale) SiO2 
 PCOD9063692
Probable space group: P -1
;
_chemical_formula_sum "Si O2"
_cell_formula_units_Z 14
_cell_length_a 10.961642
_cell_length_b 5.813628
_cell_length_c 9.612773
_cell_angle_alpha 107.188328
_cell_angle_beta 76.250452
_cell_angle_gamma 95.725653
_cell_volume 568.174729
_symmetry_space_group_name_H-M "P -1"
_symmetry_group_IT_number 2
_symmetry_cell_setting 'triclinic'
loop_
_space_group_symop_operation_xyz
x,y,z
-x,-y,-z
loop_
_atom_site_type_symbol
_atom_site_label
_atom_site_fract_x
_atom_site_fract_y
_atom_site_fract_z
Si Si1 0.529743 0.849418 0.598909
Si Si2 0.285811 0.562377 0.620516
Si Si3 0.104352 0.342557 0.868606
Si Si4 0.063493 0.958033 0.328425
Si Si5 0.194066 0.484879 0.328510
Si Si6 0.678718 0.594635 0.987521
Si Si7 0.433871 0.848746 0.108810
O O1 0.391922 0.759889 0.674954
O O2 0.622003 0.650685 0.484353
O O3 0.500000 0.000000 0.500000
O O4 0.603820 0.002857 0.722080
O O5 0.184440 0.483130 0.750122
O O6 0.222638 0.601505 0.493067
O O7 0.036529 0.112596 0.776145
O O8 0.204852 0.278023 0.947687
O O9 0.000000 0.500000 0.000000
O O10 0.130008 0.698689 0.295355
O O11 0.125787 0.221834 0.321723
O O12 0.000000 0.000000 0.500000
O O13 0.310423 0.411101 0.184159
O O14 0.673624 0.308863 0.965169
O O15 0.549262 0.687301 0.098699
O O16 0.500000 0.000000 0.000000
#
# Coordination Sequence:
#
# PCOD9063692 Si02
#       7
#     2   2   2   2   2   2   2
#     4  11  24  44  72 110 147 195 259 322 385 458
#     4  11  26  44  74 110 149 201 259 319 386 463
#     4  12  26  49  73 112 158 203 259 319 389 464
#     4  12  28  50  75 110 149 204 260 314 378 460
#     4  12  27  48  79 107 154 204 263 313 385 461
#     4  11  26  45  71 112 148 200 256 317 387 463
#     4  11  24  44  73 105 151 196 252 320 390 455
#
# _framework density 24.640307
#
# number of rings (size 3 to 8) (size 9 to 14) (size 15 to 20)
#    0.000    0.571    2.857    3.857    6.000    7.429 
#    2.571    0.000    0.000    0.000    0.000    0.000 
#    0.000    0.000    0.000    0.000    0.000    0.000 
#
# Total GULP energy -78199.574067 kJ/mol
# GULP energy per Si atom -5585.683862 kJ/mol
# Density = 2.458422 g / cm^3
# Si number density = 24.640307 Si / 1000 Ang^3
#
#
#
# Elastic Constant Matrix: (Units=GPa)
#
#
# Indices 1 2 3 4 5 6 
#
# 1 95.0698 34.6585 24.2783 10.7403 -5.3575 11.8562
# 2 34.6585 106.1681 15.0467 3.5007 -4.1794 13.7316
# 3 24.2783 15.0467 117.2081 8.9943 -13.8243 10.1205
# 4 10.7403 3.5007 8.9943 39.3402 13.8536 2.2809
# 5 -5.3575 -4.1794 -13.8243 13.8536 54.9213 -8.3408
# 6 11.8562 13.7316 10.1205 2.2809 -8.3408 32.9298
#
#
#
# Elastic Compliance Matrix: (Units=1/GPa)
#
#
# Indices 1 2 3 4 5 6 
#
# 1 0.012918 -0.003556 -0.001677 -0.003054 0.001006 -0.002186
# 2 -0.003556 0.011046 -0.000451 0.000352 -0.000204 -0.003263
# 3 -0.001677 -0.000451 0.009557 -0.002546 0.002653 -0.001297
# 4 -0.003054 0.000352 -0.002546 0.030088 -0.008897 -0.002602
# 5 0.001006 -0.000204 0.002653 -0.008897 0.021975 0.005090
# 6 -0.002186 -0.003263 -0.001297 -0.002602 0.005090 0.034384
#
#
# Mechanical properties :
#
#
# Convention : Reuss Voigt Hill
#
# Bulk Modulus (GPa) = 45.14147 51.82368 48.48257
# Shear Modulus (GPa) = 36.04344 41.73575 38.88960
#
# Velocity S-wave (km/s) = 3.82879 4.12005 3.97708
# Velocity P-wave (km/s) = 6.15679 6.61141 6.38815
#
# Compressibility (1/GPa) = 0.02215258
#
# Stress axis : x y z
#
# Youngs Moduli (GPa) = 77.41277 90.52838 104.63021
#
# Poissons Ratio (x) = 0.32194 0.17552
# Poissons Ratio (y) = 0.27530 0.04716
# Poissons Ratio (z) = 0.12986 0.04081
#
# Static dielectric constant tensor:
#      x y z
#    x 2.687760 -0.512490 0.695670 
#    y -0.512490 2.490500 -0.518780 
#    z 0.695670 -0.518780 2.751660 
# 
# From -- ./inp_files/81044.got.cif
#   From: 2010.05.17/outbox.cif.g08.bks.cpg/sg2_41_cif.got.tgz:81044.got - 2010.06.03 11:33:40.
