data_PCOD9063865
_publ_section_title
;
Structure prediction by ZEFSAII (Michael W. Deem and Ramdas Pophale) SiO2 
 PCOD9063865
Probable space group: P -1
;
_chemical_formula_sum "Si O2"
_cell_formula_units_Z 11
_cell_length_a 8.418329
_cell_length_b 8.215349
_cell_length_c 9.838194
_cell_angle_alpha 50.765615
_cell_angle_beta 57.327608
_cell_angle_gamma 77.291206
_cell_volume 435.864444
_symmetry_space_group_name_H-M "P -1"
_symmetry_group_IT_number 2
_symmetry_cell_setting 'triclinic'
loop_
_space_group_symop_operation_xyz
x,y,z
-x,-y,-z
loop_
_atom_site_type_symbol
_atom_site_label
_atom_site_fract_x
_atom_site_fract_y
_atom_site_fract_z
Si Si1 0.394919 0.841792 0.848708
Si Si2 0.203867 0.468886 0.974924
Si Si3 0.000000 0.000000 0.000000
Si Si4 0.841684 0.613653 0.446039
Si Si5 0.515126 0.256958 0.854251
Si Si6 0.190868 0.146105 0.392367
O O1 0.337156 0.696865 0.819661
O O2 0.617791 0.952728 0.669660
O O3 0.229479 0.974606 0.882826
O O4 0.408124 0.694270 0.053327
O O5 0.306368 0.318603 0.911422
O O6 0.193537 0.349386 0.186643
O O7 0.000000 0.500000 0.000000
O O8 0.057592 0.250942 0.796823
O O9 0.659729 0.422284 0.608101
O O10 0.810549 0.785980 0.485978
O O11 0.000000 0.500000 0.500000
O O12 0.500000 0.000000 0.000000
O O13 0.000000 0.000000 0.500000
#
# Coordination Sequence:
#
# PCOD9063865 Si02
#       6
#     2   2   1   2   2   2
#     4  11  24  49  71 110 159 198 261 326 393 468
#     4  11  24  44  75 112 151 198 268 318 388 479
#     4  12  28  42  84 114 148 210 260 318 396 470
#     4  12  25  49  74 111 158 200 258 324 390 461
#     4  11  24  47  77 107 159 210 253 327 396 460
#     4  11  25  46  75 107 155 207 248 322 400 459
#
# _framework density 25.237204999999999
#
# number of rings (size 3 to 8) (size 9 to 14) (size 15 to 20)
#    0.000    0.727    5.455    1.091   10.182    2.182 
#    0.000    0.909    0.000    0.000    0.000    0.000 
#    0.000    0.000    0.000    0.000    0.000    0.000 
#
# Total GULP energy -61244.115101 kJ/mol
# GULP energy per Si atom -5567.646827 kJ/mol
# Density = 2.517976 g / cm^3
# Si number density = 25.237205 Si / 1000 Ang^3
#
#
#
# Elastic Constant Matrix: (Units=GPa)
#
#
# Indices 1 2 3 4 5 6 
#
# 1 150.0782 71.1403 52.5643 0.0834 -28.7900 -40.6450
# 2 71.1403 122.9091 31.9073 -11.2705 -34.3905 -26.2453
# 3 52.5643 31.9073 131.6188 -25.7487 -29.7360 3.7769
# 4 0.0834 -11.2705 -25.7487 32.0144 -2.9025 -6.2631
# 5 -28.7900 -34.3905 -29.7360 -2.9025 51.7089 3.6376
# 6 -40.6450 -26.2453 3.7769 -6.2631 3.6376 65.4896
#
#
#
# Elastic Compliance Matrix: (Units=1/GPa)
#
#
# Indices 1 2 3 4 5 6 
#
# 1 0.012165 -0.005080 -0.004637 -0.004495 0.000099 0.005346
# 2 -0.005080 0.014065 0.001800 0.007644 0.007802 0.002678
# 3 -0.004637 0.001800 0.012769 0.011095 0.006737 -0.002206
# 4 -0.004495 0.007644 0.011095 0.044520 0.011231 0.003268
# 5 0.000099 0.007802 0.006737 0.011231 0.028928 0.002267
# 6 0.005346 0.002678 -0.002206 0.003268 0.002267 0.019974
#
#
# Mechanical properties :
#
#
# Convention : Reuss Voigt Hill
#
# Bulk Modulus (GPa) = 43.16839 79.53664 61.35252
# Shear Modulus (GPa) = 32.05642 46.44219 39.24930
#
# Velocity S-wave (km/s) = 3.56786 4.29444 3.94790
# Velocity P-wave (km/s) = 5.84081 7.49491 6.71895
#
# Compressibility (1/GPa) = 0.02316510
#
# Stress axis : x y z
#
# Youngs Moduli (GPa) = 82.20503 71.10017 78.31556
#
# Poissons Ratio (x) = 0.36119 0.36314
# Poissons Ratio (y) = 0.41760 -0.14099
# Poissons Ratio (z) = 0.38118 -0.12800
#
# Static dielectric constant tensor:
#      x y z
#    x 1.864290 0.203380 -0.064160 
#    y 0.203380 2.127050 -0.057390 
#    z -0.064160 -0.057390 2.149700 
# 
# From -- ./inp_files/194774.got.cif
#   From: 2010.05.17/outbox.cif.g08.bks.cpg/sg2_98_cif.got.tgz:194774.got - 2010.06.03 11:33:40.
