data_PCOD9063323
_publ_section_title
;
Structure prediction by ZEFSAII (Michael W. Deem and Ramdas Pophale) SiO2 
 PCOD9063323
Probable space group: P -1
;
_chemical_formula_sum "Si O2"
_cell_formula_units_Z 12
_cell_length_a 10.019049
_cell_length_b 12.439459
_cell_length_c 5.191797
_cell_angle_alpha 115.846598
_cell_angle_beta 104.205114
_cell_angle_gamma 88.051816
_cell_volume 562.547917
_symmetry_space_group_name_H-M "P -1"
_symmetry_group_IT_number 2
_symmetry_cell_setting 'triclinic'
loop_
_space_group_symop_operation_xyz
x,y,z
-x,-y,-z
loop_
_atom_site_type_symbol
_atom_site_label
_atom_site_fract_x
_atom_site_fract_y
_atom_site_fract_z
Si Si1 0.654837 0.555075 0.184159
Si Si2 0.430531 0.053071 0.773701
Si Si3 0.071976 0.564247 0.845869
Si Si4 0.972061 0.815656 0.900005
Si Si5 0.125029 0.033942 0.406386
Si Si6 0.687126 0.719293 0.884117
O O1 0.766798 0.456759 0.130227
O O2 0.659329 0.635215 0.531118
O O3 0.500000 0.500000 0.000000
O O4 0.702631 0.636563 0.049491
O O5 0.500000 0.000000 0.500000
O O6 0.270254 0.021436 0.593616
O O7 0.429674 0.194130 0.994398
O O8 0.500000 0.000000 0.000000
O O9 0.000000 0.500000 0.500000
O O10 0.042568 0.701240 0.922512
O O11 0.000000 0.500000 0.000000
O O12 0.828342 0.801620 0.978377
O O13 0.903301 0.841485 0.616183
O O14 0.093142 0.924172 0.075774
O O15 0.000000 0.000000 0.500000
#
# Coordination Sequence:
#
# PCOD9063323 Si02
#       6
#     2   2   2   2   2   2
#     4  12  26  47  71 109 145 194 244 305 374 441
#     4  12  27  47  73 108 145 191 247 303 379 447
#     4  12  25  44  73 109 140 189 255 297 358 446
#     4  11  24  43  76 108 147 195 252 307 368 440
#     4  11  25  45  74 108 146 195 250 307 369 439
#     4  12  24  47  75  98 150 196 235 306 384 435
#
# _framework density 21.331517000000002
#
# number of rings (size 3 to 8) (size 9 to 14) (size 15 to 20)
#    0.000    0.333    5.000    3.500    4.667    2.667 
#    0.000    0.000    0.000    0.000    0.000    0.000 
#    0.000    0.000    0.000    0.000    0.000    0.000 
#
# Total GULP energy -66829.724210 kJ/mol
# GULP energy per Si atom -5569.143684 kJ/mol
# Density = 2.128297 g / cm^3
# Si number density = 21.331517 Si / 1000 Ang^3
#
#
#
# Elastic Constant Matrix: (Units=GPa)
#
#
# Indices 1 2 3 4 5 6 
#
# 1 157.6609 55.6654 67.2364 -9.4983 2.8495 -26.3789
# 2 55.6654 146.3930 48.2708 -28.5785 -8.8316 -24.6427
# 3 67.2364 48.2708 154.8399 -19.1535 -3.4449 -5.9588
# 4 -9.4983 -28.5785 -19.1535 44.5755 0.9619 -4.1153
# 5 2.8495 -8.8316 -3.4449 0.9619 51.1239 -2.2435
# 6 -26.3789 -24.6427 -5.9588 -4.1153 -2.2435 47.9252
#
#
#
# Elastic Compliance Matrix: (Units=1/GPa)
#
#
# Indices 1 2 3 4 5 6 
#
# 1 0.008965 -0.001872 -0.003236 -0.000338 -0.000881 0.003499
# 2 -0.001872 0.010000 -0.001372 0.005801 0.001829 0.004524
# 3 -0.003236 -0.001372 0.008495 0.001957 0.000424 -0.001243
# 4 -0.000338 0.005801 0.001957 0.027404 0.000876 0.005434
# 5 -0.000881 0.001829 0.000424 0.000876 0.020004 0.001520
# 6 0.003499 0.004524 -0.001243 0.005434 0.001520 0.025502
#
#
# Mechanical properties :
#
#
# Convention : Reuss Voigt Hill
#
# Bulk Modulus (GPa) = 68.97019 89.02655 78.99837
# Shear Modulus (GPa) = 42.31468 47.90632 45.11050
#
# Velocity S-wave (km/s) = 4.45867 4.74413 4.60361
# Velocity P-wave (km/s) = 7.67522 8.47552 8.08528
#
# Compressibility (1/GPa) = 0.01449902
#
# Stress axis : x y z
#
# Youngs Moduli (GPa) = 111.54894 100.00499 117.71771
#
# Poissons Ratio (x) = 0.18721 0.38093
# Poissons Ratio (y) = 0.20882 0.16152
# Poissons Ratio (z) = 0.36097 0.13722
#
# Static dielectric constant tensor:
#      x y z
#    x 1.770500 -0.062320 -0.101770 
#    y -0.062320 1.758900 0.110730 
#    z -0.101770 0.110730 1.946040 
# 
# From -- ./inp_files/25883.got.cif
#   From: 2010.05.17/outbox.cif.g08.bks.cpg/sg2_13_cif.got.tgz:25883.got - 2010.06.03 11:33:40.
