data_PCOD9063377
_publ_section_title
;
Structure prediction by ZEFSAII (Michael W. Deem and Ramdas Pophale) SiO2 
 PCOD9063377
Probable space group: P -1
;
_chemical_formula_sum "Si O2"
_cell_formula_units_Z 16
_cell_length_a 11.083711
_cell_length_b 26.858063
_cell_length_c 5.322359
_cell_angle_alpha 113.804999
_cell_angle_beta 59.146173
_cell_angle_gamma 152.379295
_cell_volume 625.444096
_symmetry_space_group_name_H-M "P -1"
_symmetry_group_IT_number 2
_symmetry_cell_setting 'triclinic'
loop_
_space_group_symop_operation_xyz
x,y,z
-x,-y,-z
loop_
_atom_site_type_symbol
_atom_site_label
_atom_site_fract_x
_atom_site_fract_y
_atom_site_fract_z
Si Si1 0.101772 0.894923 0.917745
Si Si2 0.010657 0.768169 0.429614
Si Si3 0.549060 0.120321 0.187382
Si Si4 0.296134 0.482686 0.119427
Si Si5 0.605196 0.690711 0.378647
Si Si6 0.948493 0.037982 0.273714
Si Si7 0.493622 0.773715 0.731455
Si Si8 0.033847 0.653317 0.317104
O O1 0.944797 0.878981 0.849641
O O2 0.182322 0.868642 0.618388
O O3 0.889167 0.803816 0.168062
O O4 0.340476 0.013769 0.017523
O O5 0.714802 0.696714 0.527160
O O6 0.003878 0.708948 0.464529
O O7 0.159476 0.803845 0.077561
O O8 0.582050 0.196388 0.274448
O O9 0.368593 0.056432 0.504138
O O10 0.452571 0.592472 0.188068
O O11 0.078308 0.409195 0.434116
O O12 0.500000 0.500000 0.000000
O O13 0.151293 0.425960 0.889411
O O14 0.432399 0.689473 0.578617
O O15 0.169353 0.109714 0.407350
O O16 0.000000 0.000000 0.000000
O O17 0.345800 0.738608 0.084055
#
# Coordination Sequence:
#
# PCOD9063377 Si02
#       8
#     2   2   2   2   2   2   2   2
#     4  12  23  40  68 102 138 187 237 288 355 418
#     4  11  25  43  68 107 137 188 239 292 358 427
#     4  11  24  44  66  99 146 185 239 286 353 425
#     4  12  26  50  79 106 142 185 239 304 374 425
#     4  12  26  43  73 100 142 183 238 298 356 432
#     4  12  23  41  69  96 141 198 231 286 350 427
#     4  11  24  47  67 106 139 188 238 287 360 428
#     4  11  28  49  77 107 143 188 239 303 363 435
#
# _framework density 25.581823
#
# number of rings (size 3 to 8) (size 9 to 14) (size 15 to 20)
#    0.000    0.500    5.000    2.625    1.750    7.000 
#    0.000    0.000    0.000    0.000    0.000    0.000 
#    0.000    0.000    0.000    0.000    0.000    0.000 
#
# Total GULP energy -89435.385699 kJ/mol
# GULP energy per Si atom -5589.711606 kJ/mol
# Density = 2.552360 g / cm^3
# Si number density = 25.581823 Si / 1000 Ang^3
#
#
#
# Elastic Constant Matrix: (Units=GPa)
#
#
# Indices 1 2 3 4 5 6 
#
# 1 77.2483 32.3921 51.5825 12.1553 -32.8336 -22.0844
# 2 32.3921 112.6373 30.3847 39.7863 -19.8473 -9.4531
# 3 51.5825 30.3847 99.9773 22.9558 -13.6550 -19.6507
# 4 12.1553 39.7863 22.9558 60.5587 -17.5799 -6.1680
# 5 -32.8336 -19.8473 -13.6550 -17.5799 37.3903 14.3640
# 6 -22.0844 -9.4531 -19.6507 -6.1680 14.3640 31.8336
#
#
#
# Elastic Compliance Matrix: (Units=1/GPa)
#
#
# Indices 1 2 3 4 5 6 
#
# 1 0.035615 -0.004656 -0.014735 0.009559 0.026297 0.004216
# 2 -0.004656 0.012755 0.000097 -0.007745 -0.000708 -0.000564
# 3 -0.014735 0.000097 0.018616 -0.006924 -0.011284 0.005048
# 4 0.009559 -0.007745 -0.006924 0.026439 0.014753 -0.001476
# 5 0.026297 -0.000708 -0.011284 0.014753 0.056767 -0.011689
# 6 0.004216 -0.000564 0.005048 -0.001476 -0.011689 0.042275
#
#
# Mechanical properties :
#
#
# Convention : Reuss Voigt Hill
#
# Bulk Modulus (GPa) = 35.21512 57.62015 46.41764
# Shear Modulus (GPa) = 20.78811 37.65675 29.22243
#
# Velocity S-wave (km/s) = 2.85373 3.84084 3.38348
# Velocity P-wave (km/s) = 4.96527 6.49940 5.78343
#
# Compressibility (1/GPa) = 0.02839689
#
# Stress axis : x y z
#
# Youngs Moduli (GPa) = 28.07778 78.40350 53.71686
#
# Poissons Ratio (x) = 0.36508 0.79151
# Poissons Ratio (y) = 0.13074 -0.00520
# Poissons Ratio (z) = 0.41372 -0.00759
#
# Static dielectric constant tensor:
#      x y z
#    x 2.055480 0.071400 0.012790 
#    y 0.071400 2.035850 0.023290 
#    z 0.012790 0.023290 2.054340 
# 
# From -- ./inp_files/85087.got.cif
#   From: 2010.05.17/outbox.cif.g08.bks.cpg/sg2_43_cif.got.tgz:85087.got - 2010.06.03 11:33:40.
