data_PCOD9063873
_publ_section_title
;
Structure prediction by ZEFSAII (Michael W. Deem and Ramdas Pophale) SiO2 
 PCOD9063873
Probable space group: P -1
;
_chemical_formula_sum "Si O2"
_cell_formula_units_Z 12
_cell_length_a 21.188955
_cell_length_b 14.067419
_cell_length_c 5.522696
_cell_angle_alpha 99.190122
_cell_angle_beta 104.829470
_cell_angle_gamma 17.651701
_cell_volume 462.215496
_symmetry_space_group_name_H-M "P -1"
_symmetry_group_IT_number 2
_symmetry_cell_setting 'triclinic'
loop_
_space_group_symop_operation_xyz
x,y,z
-x,-y,-z
loop_
_atom_site_type_symbol
_atom_site_label
_atom_site_fract_x
_atom_site_fract_y
_atom_site_fract_z
Si Si1 0.200214 0.229173 0.396873
Si Si2 0.327066 0.871746 0.048300
Si Si3 0.687322 0.308515 0.504399
Si Si4 0.849820 0.505882 0.817947
Si Si5 0.811764 0.465115 0.268388
Si Si6 0.442798 0.331499 0.173759
O O1 0.745590 0.600588 0.519129
O O2 0.161435 0.365829 0.214256
O O3 0.424660 0.932602 0.645000
O O4 0.253557 0.052961 0.250321
O O5 0.571605 0.491356 0.206542
O O6 0.366233 0.872161 0.839305
O O7 0.773187 0.588541 0.047184
O O8 0.112827 0.107081 0.916164
O O9 0.500000 0.500000 0.500000
O O10 0.695616 0.399111 0.690194
O O11 0.926454 0.925202 0.609334
O O12 0.000000 0.500000 0.500000
O O13 0.690810 0.536491 0.108243
#
# Coordination Sequence:
#
# PCOD9063873 Si02
#       6
#     2   2   2   2   2   2
#     4  11  24  45  75 105 141 188 246 296 350 422
#     4  11  24  44  76 102 139 189 247 294 352 421
#     4  11  24  46  75 103 141 189 243 294 349 431
#     4  12  26  46  73 104 145 191 239 288 354 432
#     4  12  29  46  71 109 151 186 234 297 364 423
#     4  11  27  45  71 107 142 189 236 300 361 418
#
# _framework density 25.961915000000001
#
# number of rings (size 3 to 8) (size 9 to 14) (size 15 to 20)
#    0.000    0.667    3.333    3.000    9.333    3.333 
#    0.000    0.000    0.000    0.000    0.000    0.000 
#    0.000    0.000    0.000    0.000    0.000    0.000 
#
# Total GULP energy -67185.945362 kJ/mol
# GULP energy per Si atom -5598.828780 kJ/mol
# Density = 2.590282 g / cm^3
# Si number density = 25.961915 Si / 1000 Ang^3
#
#
#
# Elastic Constant Matrix: (Units=GPa)
#
#
# Indices 1 2 3 4 5 6 
#
# 1 82.8928 28.6319 42.9074 6.9147 -11.1171 8.3997
# 2 28.6319 81.1897 28.6661 10.3769 -9.4318 7.5472
# 3 42.9074 28.6661 166.4229 4.8846 4.4139 10.7305
# 4 6.9147 10.3769 4.8846 36.0699 -7.1304 0.5728
# 5 -11.1171 -9.4318 4.4139 -7.1304 61.7900 2.5315
# 6 8.3997 7.5472 10.7305 0.5728 2.5315 38.6173
#
#
#
# Elastic Compliance Matrix: (Units=1/GPa)
#
#
# Indices 1 2 3 4 5 6 
#
# 1 0.015681 -0.003779 -0.003306 -0.000957 0.002448 -0.001900
# 2 -0.003779 0.014867 -0.001422 -0.003054 0.001410 -0.001735
# 3 -0.003306 -0.001422 0.007205 -0.000177 -0.001310 -0.000917
# 4 -0.000957 -0.003054 -0.000177 0.029350 0.002751 0.000238
# 5 0.002448 0.001410 -0.001310 0.002751 0.017317 -0.001620
# 6 -0.001900 -0.001735 -0.000917 0.000238 -0.001620 0.027005
#
#
# Mechanical properties :
#
#
# Convention : Reuss Voigt Hill
#
# Bulk Modulus (GPa) = 48.22131 58.99066 53.60599
# Shear Modulus (GPa) = 36.94012 42.64878 39.79445
#
# Velocity S-wave (km/s) = 3.77617 4.05747 3.91935
# Velocity P-wave (km/s) = 6.13407 6.68746 6.41673
#
# Compressibility (1/GPa) = 0.02073772
#
# Stress axis : x y z
#
# Youngs Moduli (GPa) = 63.77019 67.26206 138.78787
#
# Poissons Ratio (x) = 0.25421 0.45888
# Poissons Ratio (y) = 0.24101 0.19740
# Poissons Ratio (z) = 0.21084 0.09567
#
# Static dielectric constant tensor:
#      x y z
#    x 2.169150 0.038590 -0.076390 
#    y 0.038590 2.009350 -0.036740 
#    z -0.076390 -0.036740 2.111190 
# 
# From -- ./inp_files/119691.got.cif
#   From: 2010.05.17/outbox.cif.g08.bks.cpg/sg2_60_cif.got.tgz:119691.got - 2010.06.03 11:33:40.
