data_PCOD9063905
_publ_section_title
;
Structure prediction by ZEFSAII (Michael W. Deem and Ramdas Pophale) SiO2 
 PCOD9063905
Probable space group: P -1
;
_chemical_formula_sum "Si O2"
_cell_formula_units_Z 14
_cell_length_a 10.612404
_cell_length_b 9.406424
_cell_length_c 6.946214
_cell_angle_alpha 70.688129
_cell_angle_beta 119.207516
_cell_angle_gamma 79.538961
_cell_volume 519.333319
_symmetry_space_group_name_H-M "P -1"
_symmetry_group_IT_number 2
_symmetry_cell_setting 'triclinic'
loop_
_space_group_symop_operation_xyz
x,y,z
-x,-y,-z
loop_
_atom_site_type_symbol
_atom_site_label
_atom_site_fract_x
_atom_site_fract_y
_atom_site_fract_z
Si Si1 0.262896 0.071053 0.037210
Si Si2 0.881986 0.960602 0.682389
Si Si3 0.758711 0.244251 0.019172
Si Si4 0.649246 0.604498 0.726850
Si Si5 0.818557 0.586289 0.265617
Si Si6 0.313939 0.672865 0.639603
Si Si7 0.589756 0.923996 0.303459
O O1 0.280126 0.896314 0.044770
O O2 0.434307 0.036653 0.263440
O O3 0.500000 0.000000 0.000000
O O4 0.222096 0.224481 0.795968
O O5 0.738565 0.963716 0.443325
O O6 0.836331 0.154738 0.600325
O O7 0.864299 0.885754 0.906901
O O8 0.051457 0.850903 0.767508
O O9 0.711607 0.413450 0.789946
O O10 0.473124 0.656224 0.660404
O O11 0.638628 0.736049 0.496392
O O12 0.769700 0.594625 0.997841
O O13 0.669697 0.305833 0.127265
O O14 0.727111 0.485256 0.334941
O O15 0.000000 0.500000 0.500000
#
# Coordination Sequence:
#
# PCOD9063905 Si02
#       7
#     2   2   2   2   2   2   2
#     4  12  25  50  76 117 159 211 260 324 395 471
#     4  12  24  49  81 110 165 206 259 333 395 462
#     4  11  26  45  82 120 153 206 262 323 403 477
#     4  11  25  54  77 113 165 208 262 329 394 472
#     4  11  24  44  78 117 155 202 255 317 400 460
#     4  11  24  50  81 110 161 212 256 321 396 475
#     4  12  27  49  81 112 153 213 272 324 390 465
#
# _framework density 26.957637999999999
#
# number of rings (size 3 to 8) (size 9 to 14) (size 15 to 20)
#    0.000    0.571    2.857    5.571    0.000    5.714 
#    5.143    0.000    0.000    0.000    0.000    0.000 
#    0.000    0.000    0.000    0.000    0.000    0.000 
#
# Total GULP energy -78430.922676 kJ/mol
# GULP energy per Si atom -5602.208763 kJ/mol
# Density = 2.689628 g / cm^3
# Si number density = 26.957638 Si / 1000 Ang^3
#
#
#
# Elastic Constant Matrix: (Units=GPa)
#
#
# Indices 1 2 3 4 5 6 
#
# 1 69.7732 23.3038 77.2984 8.9035 10.3198 2.3603
# 2 23.3038 144.9883 78.1891 -29.6313 -1.7527 6.1172
# 3 77.2984 78.1891 207.3780 -27.2538 3.9263 20.5137
# 4 8.9035 -29.6313 -27.2538 71.8910 7.6160 3.2727
# 5 10.3198 -1.7527 3.9263 7.6160 64.4088 -8.6763
# 6 2.3603 6.1172 20.5137 3.2727 -8.6763 37.2771
#
#
#
# Elastic Compliance Matrix: (Units=1/GPa)
#
#
# Indices 1 2 3 4 5 6 
#
# 1 0.029503 0.000095 -0.012615 -0.008398 -0.002252 0.005272
# 2 0.000095 0.009090 -0.003136 0.002531 0.000129 0.000036
# 3 -0.012615 -0.003136 0.011946 0.005077 -0.000166 -0.005745
# 4 -0.008398 0.002531 0.005077 0.018310 -0.001690 -0.004679
# 5 -0.002252 0.000129 -0.000166 -0.001690 0.016672 0.004242
# 6 0.005272 0.000036 -0.005745 -0.004679 0.004242 0.031046
#
#
# Mechanical properties :
#
#
# Convention : Reuss Voigt Hill
#
# Bulk Modulus (GPa) = 52.01333 86.63578 69.32455
# Shear Modulus (GPa) = 32.40695 50.93860 41.67277
#
# Velocity S-wave (km/s) = 3.47096 4.35165 3.93601
# Velocity P-wave (km/s) = 5.94977 7.58001 6.81382
#
# Compressibility (1/GPa) = 0.01922584
#
# Stress axis : x y z
#
# Youngs Moduli (GPa) = 33.89505 110.00624 83.71281
#
# Poissons Ratio (x) = -0.01048 1.05607
# Poissons Ratio (y) = -0.00323 0.26255
# Poissons Ratio (z) = 0.42760 0.34501
#
# Static dielectric constant tensor:
#      x y z
#    x 2.230370 -0.100330 -0.116050 
#    y -0.100330 2.203720 0.041910 
#    z -0.116050 0.041910 2.123340 
# 
# From -- ./inp_files/251721.got.cif
#   From: 2010.05.17/outbox.cif.g08.bks.cpg/sg2_126_cif.got.tgz:251721.got - 2010.06.03 11:33:40.
