data_PCOD9063091
_publ_section_title
;
Structure prediction by ZEFSAII (Michael W. Deem and Ramdas Pophale) SiO2 
 PCOD9063091
Probable space group: P -1
;
_chemical_formula_sum "Si O2"
_cell_formula_units_Z 16
_cell_length_a 24.657641
_cell_length_b 5.671435
_cell_length_c 26.710265
_cell_angle_alpha 106.035900
_cell_angle_beta 169.230036
_cell_angle_gamma 71.764327
_cell_volume 652.635132
_symmetry_space_group_name_H-M "P -1"
_symmetry_group_IT_number 2
_symmetry_cell_setting 'triclinic'
loop_
_space_group_symop_operation_xyz
x,y,z
-x,-y,-z
loop_
_atom_site_type_symbol
_atom_site_label
_atom_site_fract_x
_atom_site_fract_y
_atom_site_fract_z
Si Si1 0.754832 0.158393 0.857109
Si Si2 0.235005 0.664715 0.234996
Si Si3 0.818459 0.629648 0.993487
Si Si4 0.441881 0.579152 0.008980
Si Si5 0.708450 0.086645 0.530521
Si Si6 0.722278 0.063079 0.289846
Si Si7 0.493748 0.608512 0.797438
Si Si8 0.976041 0.705972 0.671432
O O1 0.678717 0.253399 0.736822
O O2 0.876366 0.335267 0.017288
O O3 0.439034 0.116804 0.588319
O O4 0.031413 0.915891 0.089473
O O5 0.500000 0.500000 0.500000
O O6 0.000000 0.500000 0.000000
O O7 0.586515 0.725055 0.744984
O O8 0.643924 0.703328 0.891512
O O9 0.089847 0.764635 0.247521
O O10 0.118496 0.706818 0.745685
O O11 0.500000 0.500000 0.000000
O O12 0.524681 0.307884 0.096113
O O13 0.618669 0.802259 0.188981
O O14 0.885339 0.964831 0.634396
O O15 0.725934 0.183381 0.355476
O O16 0.000000 0.000000 0.500000
O O17 0.306361 0.414161 0.596938
O O18 0.768534 0.464610 0.072287
#
# Coordination Sequence:
#
# PCOD9063091 Si02
#       8
#     2   2   2   2   2   2   2   2
#     4  11  28  52  80 118 162 196 264 330 386 480
#     4  11  28  55  83 114 155 209 256 315 395 474
#     4  12  27  46  76 115 153 205 256 318 396 468
#     4  11  24  43  70 107 148 206 267 333 403 481
#     4  12  27  46  76 115 153 205 256 318 396 468
#     4  11  24  43  70 107 148 206 267 333 403 481
#     4  11  24  47  72 107 153 198 254 326 393 467
#     4  11  24  47  72 107 153 198 254 326 393 467
#
# _framework density 24.515993999999999
#
# number of rings (size 3 to 8) (size 9 to 14) (size 15 to 20)
#    0.000    0.750    1.250    4.500    0.000   13.000 
#    0.000    1.875    0.000    0.000    0.000    0.000 
#    0.000    0.000    0.000    0.000    0.000    0.000 
#
# Total GULP energy -89472.759564 kJ/mol
# GULP energy per Si atom -5592.047473 kJ/mol
# Density = 2.446019 g / cm^3
# Si number density = 24.515994 Si / 1000 Ang^3
#
#
#
# Elastic Constant Matrix: (Units=GPa)
#
#
# Indices 1 2 3 4 5 6 
#
# 1 136.9296 32.8198 25.7340 -12.5478 17.9674 -20.0443
# 2 32.8198 100.9215 49.5542 8.5324 -6.7111 -38.2086
# 3 25.7340 49.5542 165.6290 14.9486 -23.6965 -20.3729
# 4 -12.5478 8.5324 14.9486 44.1414 4.1686 -12.0492
# 5 17.9674 -6.7111 -23.6965 4.1686 40.2455 -8.3697
# 6 -20.0443 -38.2086 -20.3729 -12.0492 -8.3697 41.4720
#
#
#
# Elastic Compliance Matrix: (Units=1/GPa)
#
#
# Indices 1 2 3 4 5 6 
#
# 1 0.009723 -0.002362 -0.001878 0.004918 -0.005970 0.001825
# 2 -0.002362 0.018130 -0.002300 0.000334 0.005961 0.015733
# 3 -0.001878 -0.002300 0.008316 -0.003096 0.005955 0.001361
# 4 0.004918 0.000334 -0.003096 0.027758 -0.005135 0.008193
# 5 -0.005970 0.005961 0.005955 -0.005135 0.034848 0.011073
# 6 0.001825 0.015733 0.001361 0.008193 0.011073 0.044773
#
#
# Mechanical properties :
#
#
# Convention : Reuss Voigt Hill
#
# Bulk Modulus (GPa) = 43.30559 68.85513 56.08036
# Shear Modulus (GPa) = 30.42761 44.86324 37.64543
#
# Velocity S-wave (km/s) = 3.52679 4.28244 3.92285
# Velocity P-wave (km/s) = 5.85550 7.25253 6.59113
#
# Compressibility (1/GPa) = 0.02309170
#
# Stress axis : x y z
#
# Youngs Moduli (GPa) = 102.84603 55.15598 120.24637
#
# Poissons Ratio (x) = 0.13027 0.22578
# Poissons Ratio (y) = 0.24291 0.27652
# Poissons Ratio (z) = 0.19311 0.12684
#
# Static dielectric constant tensor:
#      x y z
#    x 2.037110 0.142600 -0.016450 
#    y 0.142600 2.158490 -0.083320 
#    z -0.016450 -0.083320 1.901610 
# 
# From -- ./inp_files/624225.got.cif
#   From: 2010.05.17/outbox.cif.g08.bks.cpg/sg2_313_cif.got.tgz:624225.got - 2010.06.03 11:33:40.
