data_PCOD9063344
_publ_section_title
;
Structure prediction by ZEFSAII (Michael W. Deem and Ramdas Pophale) SiO2 
 PCOD9063344
Probable space group: P -1
;
_chemical_formula_sum "Si O2"
_cell_formula_units_Z 10
_cell_length_a 9.573808
_cell_length_b 5.435871
_cell_length_c 15.478262
_cell_angle_alpha 86.121237
_cell_angle_beta 151.523590
_cell_angle_gamma 90.906899
_cell_volume 381.574093
_symmetry_space_group_name_H-M "P -1"
_symmetry_group_IT_number 2
_symmetry_cell_setting 'triclinic'
loop_
_space_group_symop_operation_xyz
x,y,z
-x,-y,-z
loop_
_atom_site_type_symbol
_atom_site_label
_atom_site_fract_x
_atom_site_fract_y
_atom_site_fract_z
Si Si1 0.461102 0.818948 0.905618
Si Si2 0.251877 0.170914 0.654901
Si Si3 0.980974 0.399976 0.222543
Si Si4 0.737882 0.411015 0.478191
Si Si5 0.870799 0.770364 0.882975
O O1 0.136298 0.749985 0.756112
O O2 0.490358 0.984975 0.834516
O O3 0.700698 0.588154 0.039653
O O4 0.500000 0.000000 0.000000
O O5 0.357574 0.340017 0.633658
O O6 0.069214 0.337241 0.624173
O O7 0.000000 0.000000 0.500000
O O8 0.223686 0.548887 0.399533
O O9 0.056417 0.245914 0.180782
O O10 0.487793 0.233667 0.319359
O O11 0.000000 0.500000 0.000000
O O12 0.000000 0.000000 0.000000
#
# Coordination Sequence:
#
# PCOD9063344 Si02
#       5
#     2   2   2   2   2
#     4  11  24  43  79 116 159 198 258 325 397 465
#     4  11  24  43  79 116 159 198 258 325 397 465
#     4  11  26  49  76 117 155 208 264 322 391 477
#     4  11  26  49  76 117 155 208 264 322 391 477
#     4  12  33  52  79 114 161 214 267 330 395 470
#
# _framework density 26.207231
#
# number of rings (size 3 to 8) (size 9 to 14) (size 15 to 20)
#    0.000    0.800    4.000    0.600   11.200    0.000 
#    0.000    3.000    0.000    0.000    0.000    0.000 
#    0.000    0.000    0.000    0.000    0.000    0.000 
#
# Total GULP energy -55864.300966 kJ/mol
# GULP energy per Si atom -5586.430097 kJ/mol
# Density = 2.614758 g / cm^3
# Si number density = 26.207231 Si / 1000 Ang^3
#
#
#
# Elastic Constant Matrix: (Units=GPa)
#
#
# Indices 1 2 3 4 5 6 
#
# 1 141.6488 44.1115 61.9254 9.8423 -17.2258 -17.3589
# 2 44.1115 106.7399 33.4184 24.5118 -20.4915 -1.9903
# 3 61.9254 33.4184 126.1961 29.4415 -13.3265 -1.0826
# 4 9.8423 24.5118 29.4415 65.4133 -9.5404 -24.8630
# 5 -17.2258 -20.4915 -13.3265 -9.5404 47.2220 5.7168
# 6 -17.3589 -1.9903 -1.0826 -24.8630 5.7168 38.2493
#
#
#
# Elastic Compliance Matrix: (Units=1/GPa)
#
#
# Indices 1 2 3 4 5 6 
#
# 1 0.011573 -0.003925 -0.005787 0.005685 0.001014 0.008428
# 2 -0.003925 0.012876 0.000232 -0.005883 0.003696 -0.005481
# 3 -0.005787 0.000232 0.012472 -0.007452 0.000880 -0.007236
# 4 0.005685 -0.005883 -0.007452 0.027662 0.000591 0.019956
# 5 0.001014 0.003696 0.000880 0.000591 0.023821 -0.002499
# 6 0.008428 -0.005481 -0.007236 0.019956 -0.002499 0.042824
#
#
# Mechanical properties :
#
#
# Convention : Reuss Voigt Hill
#
# Bulk Modulus (GPa) = 55.67297 72.61058 64.14178
# Shear Modulus (GPa) = 32.01580 45.85221 38.93400
#
# Velocity S-wave (km/s) = 3.49899 4.18736 3.85856
# Velocity P-wave (km/s) = 6.13297 7.15158 6.66178
#
# Compressibility (1/GPa) = 0.01796204
#
# Stress axis : x y z
#
# Youngs Moduli (GPa) = 86.40997 77.66211 80.18242
#
# Poissons Ratio (x) = 0.30480 0.46398
# Poissons Ratio (y) = 0.33913 -0.01860
# Poissons Ratio (z) = 0.50001 -0.01801
#
# Static dielectric constant tensor:
#      x y z
#    x 2.690810 0.774360 -0.587810 
#    y 0.774360 3.414480 -0.771670 
#    z -0.587810 -0.771670 2.894290 
# 
# From -- ./inp_files/134723.got.cif
#   From: 2010.05.17/outbox.cif.g08.bks.cpg/sg2_68_cif.got.tgz:134723.got - 2010.06.03 11:33:40.
