data_PCOD9063136
_publ_section_title
;
Structure prediction by ZEFSAII (Michael W. Deem and Ramdas Pophale) SiO2 
 PCOD9063136
Probable space group: P -1
;
_chemical_formula_sum "Si O2"
_cell_formula_units_Z 14
_cell_length_a 9.377417
_cell_length_b 10.628369
_cell_length_c 11.921117
_cell_angle_alpha 50.528738
_cell_angle_beta 38.714971
_cell_angle_gamma 60.782639
_cell_volume 573.567610
_symmetry_space_group_name_H-M "P -1"
_symmetry_group_IT_number 2
_symmetry_cell_setting 'triclinic'
loop_
_space_group_symop_operation_xyz
x,y,z
-x,-y,-z
loop_
_atom_site_type_symbol
_atom_site_label
_atom_site_fract_x
_atom_site_fract_y
_atom_site_fract_z
Si Si1 0.005063 0.817746 0.051648
Si Si2 0.882746 0.665079 0.436471
Si Si3 0.302093 0.409042 0.743469
Si Si4 0.864278 0.265107 0.391534
Si Si5 0.399874 0.822293 0.625722
Si Si6 0.783391 0.137607 0.754740
Si Si7 0.673850 0.780968 0.947456
O O1 0.003049 0.699115 0.225400
O O2 0.768699 0.762153 0.170466
O O3 0.204782 0.789478 0.856679
O O4 0.000000 0.000000 0.000000
O O5 0.611649 0.695165 0.571325
O O6 0.000000 0.500000 0.500000
O O7 0.972278 0.807715 0.382863
O O8 0.500000 0.500000 0.500000
O O9 0.114765 0.544756 0.760105
O O10 0.320906 0.370222 0.884542
O O11 0.725676 0.187553 0.414194
O O12 0.749039 0.219728 0.606621
O O13 0.129370 0.217963 0.265688
O O14 0.500000 0.000000 0.500000
O O15 0.746220 0.947043 0.873304
O O16 0.591962 0.198724 0.924553
#
# Coordination Sequence:
#
# PCOD9063136 Si02
#       7
#     2   2   2   2   2   2   2
#     4  12  26  49  78 107 151 203 257 308 377 455
#     4  12  28  47  73 111 158 196 244 315 386 449
#     4  12  24  44  75 110 143 189 252 314 368 431
#     4  12  25  45  78 108 145 186 258 312 366 445
#     4  12  27  47  82 111 148 203 258 308 378 458
#     4  11  26  46  70 106 153 190 241 303 378 448
#     4  11  24  43  71 104 142 191 239 303 374 433
#
# _framework density 24.408629999999999
#
# number of rings (size 3 to 8) (size 9 to 14) (size 15 to 20)
#    0.000    0.286    4.286    4.286    2.000    4.000 
#    0.000    0.000    0.000    0.000    0.000    0.000 
#    0.000    0.000    0.000    0.000    0.000    0.000 
#
# Total GULP energy -78198.344329 kJ/mol
# GULP energy per Si atom -5585.596024 kJ/mol
# Density = 2.435307 g / cm^3
# Si number density = 24.408630 Si / 1000 Ang^3
#
#
#
# Elastic Constant Matrix: (Units=GPa)
#
#
# Indices 1 2 3 4 5 6 
#
# 1 62.3206 -10.6619 24.8184 11.5620 -8.9043 8.2238
# 2 -10.6619 53.8313 18.6452 5.5111 -15.2812 -5.7687
# 3 24.8184 18.6452 146.9167 21.0792 -9.0581 -7.3806
# 4 11.5620 5.5111 21.0792 54.5774 -6.0141 -4.6476
# 5 -8.9043 -15.2812 -9.0581 -6.0141 43.0903 -6.8710
# 6 8.2238 -5.7687 -7.3806 -4.6476 -6.8710 39.7314
#
#
#
# Elastic Compliance Matrix: (Units=1/GPa)
#
#
# Indices 1 2 3 4 5 6 
#
# 1 0.020420 0.006645 -0.003696 -0.003343 0.004772 -0.003514
# 2 0.006645 0.024198 -0.003268 -0.001275 0.009574 0.003038
# 3 -0.003696 -0.003268 0.008188 -0.001943 -0.000226 0.001545
# 4 -0.003343 -0.001275 -0.001943 0.020342 0.001738 0.002826
# 5 0.004772 0.009574 -0.000226 0.001738 0.028664 0.005521
# 6 -0.003514 0.003038 0.001545 0.002826 0.005521 0.027910
#
#
# Mechanical properties :
#
#
# Convention : Reuss Voigt Hill
#
# Bulk Modulus (GPa) = 19.16804 36.51913 27.84359
# Shear Modulus (GPa) = 33.84114 42.83096 38.33605
#
# Velocity S-wave (km/s) = 3.72753 4.19351 3.96737
# Velocity P-wave (km/s) = 5.13771 6.20012 5.69375
#
# Compressibility (1/GPa) = 0.05217018
#
# Stress axis : x y z
#
# Youngs Moduli (GPa) = 48.97059 41.32519 122.12975
#
# Poissons Ratio (x) = -0.27460 0.45134
# Poissons Ratio (y) = -0.32541 0.39908
# Poissons Ratio (z) = 0.18097 0.13504
#
# Static dielectric constant tensor:
#      x y z
#    x 1.604250 0.274280 -0.068110 
#    y 0.274280 1.966050 0.054680 
#    z -0.068110 0.054680 1.940310 
# 
# From -- ./inp_files/391921.got.cif
#   From: 2010.05.17/outbox.cif.g08.bks.cpg/sg2_196_cif.got.tgz:391921.got - 2010.06.03 11:33:40.
