data_PCOD9063369
_publ_section_title
;
Structure prediction by ZEFSAII (Michael W. Deem and Ramdas Pophale) SiO2 
 PCOD9063369
Probable space group: P -1
;
_chemical_formula_sum "Si O2"
_cell_formula_units_Z 16
_cell_length_a 11.767675
_cell_length_b 11.428752
_cell_length_c 25.692095
_cell_angle_alpha 149.550703
_cell_angle_beta 29.829721
_cell_angle_gamma 130.329877
_cell_volume 798.552135
_symmetry_space_group_name_H-M "P -1"
_symmetry_group_IT_number 2
_symmetry_cell_setting 'triclinic'
loop_
_space_group_symop_operation_xyz
x,y,z
-x,-y,-z
loop_
_atom_site_type_symbol
_atom_site_label
_atom_site_fract_x
_atom_site_fract_y
_atom_site_fract_z
Si Si1 0.225223 0.587648 0.618109
Si Si2 0.667335 0.891975 0.678914
Si Si3 0.346276 0.431754 0.990847
Si Si4 0.006956 0.833009 0.080896
Si Si5 0.131888 0.938254 0.481285
Si Si6 0.762237 0.188986 0.132993
Si Si7 0.660267 0.516026 0.098950
Si Si8 0.858541 0.554989 0.297378
O O1 0.500000 0.500000 0.500000
O O2 0.236859 0.368610 0.490642
O O3 0.061477 0.588602 0.734450
O O4 0.132445 0.867879 0.740860
O O5 0.474521 0.886205 0.797539
O O6 0.916414 0.940038 0.607214
O O7 0.491754 0.133383 0.807116
O O8 0.322618 0.578732 0.003372
O O9 0.500000 0.500000 0.000000
O O10 0.085038 0.484407 0.140613
O O11 0.814010 0.696599 0.106772
O O12 0.141261 0.794720 0.956535
O O13 0.209454 0.698412 0.993076
O O14 0.370495 0.678866 0.287431
O O15 0.223566 0.155823 0.544139
O O16 0.000000 0.000000 0.500000
O O17 0.679171 0.453196 0.298956
O O18 0.000000 0.000000 0.000000
#
# Coordination Sequence:
#
# PCOD9063369 Si02
#       8
#     2   2   2   2   2   2   2   2
#     4  12  21  36  64  97 127 162 216 270 319 376
#     4  12  23  36  64  96 128 164 219 268 319 372
#     4  12  21  38  65  98 127 164 216 267 318 379
#     4  11  24  44  67  94 131 172 215 273 327 385
#     4  12  23  40  63  97 132 169 216 267 320 391
#     4  12  21  38  64  98 127 163 222 272 314 377
#     4  11  24  44  66  94 132 173 216 264 332 393
#     4  12  21  34  65  95 124 160 221 270 313 366
#
# _framework density 20.036262000000001
#
# number of rings (size 3 to 8) (size 9 to 14) (size 15 to 20)
#    0.000    0.250    8.750    1.500    0.000    0.000 
#    0.000    3.125    0.000    0.000    0.000    0.000 
#    0.000    0.000    0.000    0.000    0.000    0.000 
#
# Total GULP energy -89332.154912 kJ/mol
# GULP energy per Si atom -5583.259682 kJ/mol
# Density = 1.999066 g / cm^3
# Si number density = 20.036262 Si / 1000 Ang^3
#
#
#
# Elastic Constant Matrix: (Units=GPa)
#
#
# Indices 1 2 3 4 5 6 
#
# 1 93.5826 32.1314 43.2918 13.5483 -8.5014 -22.3244
# 2 32.1314 90.4240 32.9956 -3.6762 -8.0343 -15.6161
# 3 43.2918 32.9956 101.1479 4.3785 -8.6668 -21.9663
# 4 13.5483 -3.6762 4.3785 49.2118 5.9300 3.4711
# 5 -8.5014 -8.0343 -8.6668 5.9300 32.6727 2.9834
# 6 -22.3244 -15.6161 -21.9663 3.4711 2.9834 33.4095
#
#
#
# Elastic Compliance Matrix: (Units=1/GPa)
#
#
# Indices 1 2 3 4 5 6 
#
# 1 0.016270 -0.003077 -0.003954 -0.005188 0.002719 0.007130
# 2 -0.003077 0.013697 -0.002608 0.001776 0.001341 0.002327
# 3 -0.003954 -0.002608 0.013719 -0.000887 0.001664 0.005102
# 4 -0.005188 0.001776 -0.000887 0.022907 -0.004834 -0.005168
# 5 0.002719 0.001341 0.001664 -0.004834 0.032862 0.001105
# 6 0.007130 0.002327 0.005102 -0.005168 0.001105 0.039577
#
#
# Mechanical properties :
#
#
# Convention : Reuss Voigt Hill
#
# Bulk Modulus (GPa) = 40.96879 55.77689 48.37284
# Shear Modulus (GPa) = 30.03988 34.84119 32.44053
#
# Velocity S-wave (km/s) = 3.87625 4.17454 4.02816
# Velocity P-wave (km/s) = 6.36596 7.15082 6.76977
#
# Compressibility (1/GPa) = 0.02440883
#
# Stress axis : x y z
#
# Youngs Moduli (GPa) = 61.46179 73.00761 72.89334
#
# Poissons Ratio (x) = 0.22462 0.28823
# Poissons Ratio (y) = 0.18909 0.19010
# Poissons Ratio (z) = 0.24303 0.19040
#
# Static dielectric constant tensor:
#      x y z
#    x 1.708440 0.041240 0.031210 
#    y 0.041240 1.801680 -0.011980 
#    z 0.031210 -0.011980 1.733990 
# 
# From -- ./inp_files/618439.got.cif
#   From: 2010.05.17/outbox.cif.g08.bks.cpg/sg2_310_cif.got.tgz:618439.got - 2010.06.03 11:33:40.
