data_PCOD9063528
_publ_section_title
;
Structure prediction by ZEFSAII (Michael W. Deem and Ramdas Pophale) SiO2 
 PCOD9063528
Probable space group: P -1
;
_chemical_formula_sum "Si O2"
_cell_formula_units_Z 16
_cell_length_a 14.147972
_cell_length_b 14.322929
_cell_length_c 10.349649
_cell_angle_alpha 119.076824
_cell_angle_beta 138.182650
_cell_angle_gamma 30.356553
_cell_volume 625.185117
_symmetry_space_group_name_H-M "P -1"
_symmetry_group_IT_number 2
_symmetry_cell_setting 'triclinic'
loop_
_space_group_symop_operation_xyz
x,y,z
-x,-y,-z
loop_
_atom_site_type_symbol
_atom_site_label
_atom_site_fract_x
_atom_site_fract_y
_atom_site_fract_z
Si Si1 0.067968 0.284696 0.352397
Si Si2 0.647296 0.348391 0.349362
Si Si3 0.042514 0.020412 0.753564
Si Si4 0.611726 0.021829 0.858378
Si Si5 0.121535 0.562729 0.026545
Si Si6 0.743973 0.515186 0.439923
Si Si7 0.815697 0.038856 0.754472
Si Si8 0.301352 0.229871 0.935358
O O1 0.373292 0.129574 0.597090
O O2 0.980308 0.382779 0.189378
O O3 0.856733 0.448644 0.363749
O O4 0.075369 0.151593 0.264804
O O5 0.642930 0.463280 0.347406
O O6 0.883321 0.188631 0.592714
O O7 0.737287 0.200263 0.238343
O O8 0.357980 0.500567 0.221206
O O9 0.834705 0.077818 0.656816
O O10 0.190444 0.007063 0.992433
O O11 0.444430 0.176635 0.912826
O O12 0.840505 0.781216 0.958518
O O13 0.264322 0.358290 0.072441
O O14 0.496028 0.755196 0.375877
O O15 0.001087 0.378697 0.699197
O O16 0.000000 0.000000 0.000000
O O17 0.500000 0.000000 0.000000
#
# Coordination Sequence:
#
# PCOD9063528 Si02
#       8
#     2   2   2   2   2   2   2   2
#     4  11  26  45  69 104 145 179 234 287 349 421
#     4  11  24  44  71  99 141 186 233 287 347 411
#     4  11  24  44  70 101 142 184 233 290 344 410
#     4  11  24  45  71 101 138 184 231 289 346 415
#     4  12  26  44  73 102 136 187 232 286 353 420
#     4  11  25  44  70 102 139 188 226 287 352 410
#     4  12  26  44  73 105 143 184 233 292 350 417
#     4  11  26  45  68 100 139 178 231 287 351 416
#
# _framework density 25.592419
#
# number of rings (size 3 to 8) (size 9 to 14) (size 15 to 20)
#    0.000    0.750    2.500    4.125    3.500    8.500 
#    0.000    0.000    0.000    0.000    0.000    0.000 
#    0.000    0.000    0.000    0.000    0.000    0.000 
#
# Total GULP energy -89665.099900 kJ/mol
# GULP energy per Si atom -5604.068744 kJ/mol
# Density = 2.553417 g / cm^3
# Si number density = 25.592419 Si / 1000 Ang^3
#
#
#
# Elastic Constant Matrix: (Units=GPa)
#
#
# Indices 1 2 3 4 5 6 
#
# 1 72.5958 29.8652 17.3939 3.9608 11.1125 12.5075
# 2 29.8652 108.1521 -6.1626 -8.1414 15.5661 -12.2577
# 3 17.3939 -6.1626 66.7946 -2.1233 29.7409 2.3230
# 4 3.9608 -8.1414 -2.1233 41.3468 -0.6818 9.2839
# 5 11.1125 15.5661 29.7409 -0.6818 37.6670 -2.1450
# 6 12.5075 -12.2577 2.3230 9.2839 -2.1450 39.7966
#
#
#
# Elastic Compliance Matrix: (Units=1/GPa)
#
#
# Indices 1 2 3 4 5 6 
#
# 1 0.019160 -0.006823 -0.006114 -0.001838 0.001548 -0.007254
# 2 -0.006823 0.013480 0.006737 0.002418 -0.008556 0.004878
# 3 -0.006114 0.006737 0.027228 0.002819 -0.022397 0.000542
# 4 -0.001838 0.002418 0.002819 0.026078 -0.002499 -0.005060
# 5 0.001548 -0.008556 -0.022397 -0.002499 0.047342 0.001320
# 6 -0.007254 0.004878 0.000542 -0.005060 0.001320 0.030130
#
#
# Mechanical properties :
#
#
# Convention : Reuss Voigt Hill
#
# Bulk Modulus (GPa) = 21.06637 36.63730 28.85183
# Shear Modulus (GPa) = 26.09058 37.52515 31.80787
#
# Velocity S-wave (km/s) = 3.19637 3.83333 3.52925
# Velocity P-wave (km/s) = 4.67672 5.82575 5.28257
#
# Compressibility (1/GPa) = 0.04746903
#
# Stress axis : x y z
#
# Youngs Moduli (GPa) = 52.19297 74.18179 36.72639
#
# Poissons Ratio (x) = 0.50611 0.22456
# Poissons Ratio (y) = 0.35609 -0.24743
# Poissons Ratio (z) = 0.31913 -0.49978
#
# Static dielectric constant tensor:
#      x y z
#    x 2.241930 0.150890 -0.003820 
#    y 0.150890 2.068370 0.011060 
#    z -0.003820 0.011060 1.981890 
# 
# From -- ./inp_files/455838.got.cif
#   From: 2010.05.17/outbox.cif.g08.bks.cpg/sg2_228_cif.got.tgz:455838.got - 2010.06.03 11:33:40.
