data_PCOD9063015
_publ_section_title
;
Structure prediction by ZEFSAII (Michael W. Deem and Ramdas Pophale) SiO2 
 PCOD9063015
Probable space group: P -1
;
_chemical_formula_sum "Si O2"
_cell_formula_units_Z 12
_cell_length_a 18.986074
_cell_length_b 13.572020
_cell_length_c 23.130981
_cell_angle_alpha 160.445461
_cell_angle_beta 16.549666
_cell_angle_gamma 152.369580
_cell_volume 558.792680
_symmetry_space_group_name_H-M "P -1"
_symmetry_group_IT_number 2
_symmetry_cell_setting 'triclinic'
loop_
_space_group_symop_operation_xyz
x,y,z
-x,-y,-z
loop_
_atom_site_type_symbol
_atom_site_label
_atom_site_fract_x
_atom_site_fract_y
_atom_site_fract_z
Si Si1 0.647161 0.591527 0.379850
Si Si2 0.906485 0.540144 0.529396
Si Si3 0.362115 0.253659 0.944273
Si Si4 0.172179 0.788852 0.079682
Si Si5 0.764688 0.892511 0.155898
Si Si6 0.579080 0.555491 0.206584
O O1 0.500000 0.500000 0.500000
O O2 0.936155 0.619501 0.179462
O O3 0.509894 0.920959 0.652483
O O4 0.659751 0.364498 0.190694
O O5 0.627388 0.500928 0.709168
O O6 0.000000 0.500000 0.500000
O O7 0.925314 0.869435 0.672725
O O8 0.093791 0.296956 0.210563
O O9 0.333228 0.295467 0.922043
O O10 0.500000 0.500000 0.000000
O O11 0.321960 0.728474 0.988371
O O12 0.796707 0.682786 0.071206
O O13 0.560654 0.180065 0.495157
O O14 0.000000 0.000000 0.000000
#
# Coordination Sequence:
#
# PCOD9063015 Si02
#       6
#     2   2   2   2   2   2
#     4  11  25  42  71 100 140 187 231 286 350 421
#     4  12  25  45  72 101 140 185 234 295 355 416
#     4  12  23  44  70 100 140 183 238 285 340 425
#     4  11  25  45  67 103 143 178 233 291 353 413
#     4  11  24  43  69 101 137 185 230 287 349 423
#     4  11  25  43  72 100 140 182 233 289 357 413
#
# _framework density 21.474869999999999
#
# number of rings (size 3 to 8) (size 9 to 14) (size 15 to 20)
#    0.000    0.667    5.000    2.500    2.333    1.333 
#    0.000    0.833    0.000    0.000    0.000    0.000 
#    0.000    0.000    0.000    0.000    0.000    0.000 
#
# Total GULP energy -67060.466380 kJ/mol
# GULP energy per Si atom -5588.372198 kJ/mol
# Density = 2.142599 g / cm^3
# Si number density = 21.474870 Si / 1000 Ang^3
#
#
#
# Elastic Constant Matrix: (Units=GPa)
#
#
# Indices 1 2 3 4 5 6 
#
# 1 149.2339 44.0805 39.7683 -11.5659 3.7436 -18.4538
# 2 44.0805 91.3847 11.8143 -28.1093 11.1701 -15.0874
# 3 39.7683 11.8143 80.9512 -5.7385 5.6167 -17.7424
# 4 -11.5659 -28.1093 -5.7385 32.9689 -4.7752 10.7501
# 5 3.7436 11.1701 5.6167 -4.7752 33.8045 0.0912
# 6 -18.4538 -15.0874 -17.7424 10.7501 0.0912 37.4214
#
#
#
# Elastic Compliance Matrix: (Units=1/GPa)
#
#
# Indices 1 2 3 4 5 6 
#
# 1 0.008935 -0.004120 -0.003629 -0.001358 0.000779 0.001413
# 2 -0.004120 0.017377 0.001045 0.012388 -0.003714 0.001920
# 3 -0.003629 0.001045 0.015468 -0.000004 -0.002530 0.005973
# 4 -0.001358 0.012388 -0.000004 0.043393 0.002209 -0.008148
# 5 0.000779 -0.003714 -0.002530 0.002209 0.031464 -0.003024
# 6 0.001413 0.001920 0.005973 -0.008148 -0.003024 0.033373
#
#
# Mechanical properties :
#
#
# Convention : Reuss Voigt Hill
#
# Bulk Modulus (GPa) = 35.24814 56.98845 46.11829
# Shear Modulus (GPa) = 28.92273 35.89940 32.41107
#
# Velocity S-wave (km/s) = 3.67388 4.09307 3.88913
# Velocity P-wave (km/s) = 5.86906 6.99518 6.45672
#
# Compressibility (1/GPa) = 0.02837029
#
# Stress axis : x y z
#
# Youngs Moduli (GPa) = 111.92112 57.54876 64.65117
#
# Poissons Ratio (x) = 0.23713 0.23460
# Poissons Ratio (y) = 0.46117 -0.06755
# Poissons Ratio (z) = 0.40613 -0.06013
#
# Static dielectric constant tensor:
#      x y z
#    x 1.831860 0.017400 -0.037570 
#    y 0.017400 1.919910 -0.028910 
#    z -0.037570 -0.028910 1.746510 
# 
# From -- ./inp_files/156378.got.cif
#   From: 2010.05.17/outbox.cif.g08.bks.cpg/sg2_79_cif.got.tgz:156378.got - 2010.06.03 11:33:40.
