data_PCOD9063035
_publ_section_title
;
Structure prediction by ZEFSAII (Michael W. Deem and Ramdas Pophale) SiO2 
 PCOD9063035
Probable space group: P -1
;
_chemical_formula_sum "Si O2"
_cell_formula_units_Z 16
_cell_length_a 6.927066
_cell_length_b 19.478308
_cell_length_c 9.518093
_cell_angle_alpha 127.196520
_cell_angle_beta 46.646170
_cell_angle_gamma 101.349527
_cell_volume 689.028357
_symmetry_space_group_name_H-M "P -1"
_symmetry_group_IT_number 2
_symmetry_cell_setting 'triclinic'
loop_
_space_group_symop_operation_xyz
x,y,z
-x,-y,-z
loop_
_atom_site_type_symbol
_atom_site_label
_atom_site_fract_x
_atom_site_fract_y
_atom_site_fract_z
Si Si1 0.853654 0.252321 0.542583
Si Si2 0.372351 0.785255 0.649049
Si Si3 0.709605 0.343114 0.250315
Si Si4 0.672231 0.055221 0.909308
Si Si5 0.688557 0.998199 0.539515
Si Si6 0.121064 0.395940 0.489420
Si Si7 0.767085 0.597244 0.886561
Si Si8 0.064224 0.201102 0.678809
O O1 0.827321 0.183803 0.349497
O O2 0.953138 0.201687 0.577851
O O3 0.056293 0.307273 0.464390
O O4 0.534770 0.330991 0.818952
O O5 0.289670 0.705261 0.661113
O O6 0.698702 0.753046 0.396523
O O7 0.349767 0.860093 0.873195
O O8 0.381325 0.404520 0.459457
O O9 0.951632 0.385563 0.181252
O O10 0.810424 0.262718 0.982123
O O11 0.012015 0.998639 0.656509
O O12 0.569630 0.072193 0.818012
O O13 0.500000 0.000000 0.000000
O O14 0.774542 0.898358 0.451424
O O15 0.500000 0.000000 0.500000
O O16 0.224725 0.389762 0.269339
O O17 0.837677 0.489663 0.754721
#
# Coordination Sequence:
#
# PCOD9063035 Si02
#       8
#     2   2   2   2   2   2   2   2
#     4  12  25  44  72 103 142 188 242 291 346 423
#     4  12  25  44  72 102 141 185 236 287 355 417
#     4  12  23  46  68 104 139 186 237 288 352 420
#     4  11  25  49  72 107 141 179 233 288 355 426
#     4  11  27  50  75 106 142 184 232 291 357 423
#     4  11  24  43  70 104 143 186 235 297 350 416
#     4  11  24  43  69 104 144 187 235 292 358 412
#     4  12  25  46  71 103 142 183 236 293 347 420
#
# _framework density 23.221102999999999
#
# number of rings (size 3 to 8) (size 9 to 14) (size 15 to 20)
#    0.000    0.500    7.500    0.750    0.000    3.500 
#    2.250    1.250    0.000    0.000    0.000    0.000 
#    0.000    0.000    0.000    0.000    0.000    0.000 
#
# Total GULP energy -89479.314984 kJ/mol
# GULP energy per Si atom -5592.457186 kJ/mol
# Density = 2.316825 g / cm^3
# Si number density = 23.221103 Si / 1000 Ang^3
#
#
#
# Elastic Constant Matrix: (Units=GPa)
#
#
# Indices 1 2 3 4 5 6 
#
# 1 168.9395 32.6836 22.0251 -11.2189 14.0179 -19.5000
# 2 32.6836 86.1781 26.9105 -12.1514 4.5182 -6.5617
# 3 22.0251 26.9105 62.1068 -18.2472 -8.8494 -7.2139
# 4 -11.2189 -12.1514 -18.2472 33.7363 4.5750 -5.2410
# 5 14.0179 4.5182 -8.8494 4.5750 35.9712 -10.5292
# 6 -19.5000 -6.5617 -7.2139 -5.2410 -10.5292 37.4993
#
#
#
# Elastic Compliance Matrix: (Units=1/GPa)
#
#
# Indices 1 2 3 4 5 6 
#
# 1 0.007032 -0.001702 -0.001234 0.001789 -0.002256 0.002738
# 2 -0.001702 0.014375 -0.005380 0.002087 -0.002693 0.000131
# 3 -0.001234 -0.005380 0.023815 0.010527 0.007610 0.006606
# 4 0.001789 0.002087 0.010527 0.038094 -0.000745 0.008435
# 5 -0.002256 -0.002693 0.007610 -0.000745 0.033668 0.009169
# 6 0.002738 0.000131 0.006606 0.008435 0.009169 0.033138
#
#
# Mechanical properties :
#
#
# Convention : Reuss Voigt Hill
#
# Bulk Modulus (GPa) = 34.97945 53.38475 44.18210
# Shear Modulus (GPa) = 28.36340 37.14837 32.75588
#
# Velocity S-wave (km/s) = 3.49872 4.00405 3.75988
# Velocity P-wave (km/s) = 5.60515 6.66455 6.15767
#
# Compressibility (1/GPa) = 0.02858821
#
# Stress axis : x y z
#
# Youngs Moduli (GPa) = 142.21705 69.56511 41.99097
#
# Poissons Ratio (x) = 0.11843 0.05181
# Poissons Ratio (y) = 0.24212 0.22592
# Poissons Ratio (z) = 0.17546 0.37428
#
# Static dielectric constant tensor:
#      x y z
#    x 1.887390 0.014620 0.034330 
#    y 0.014620 1.856420 0.044580 
#    z 0.034330 0.044580 1.884920 
# 
# From -- ./inp_files/141474.got.cif
#   From: 2010.05.17/outbox.cif.g08.bks.cpg/sg2_71_cif.got.tgz:141474.got - 2010.06.03 11:33:40.
