data_PCOD9063527
_publ_section_title
;
Structure prediction by ZEFSAII (Michael W. Deem and Ramdas Pophale) SiO2 
 PCOD9063527
Probable space group: P -1
;
_chemical_formula_sum "Si O2"
_cell_formula_units_Z 16
_cell_length_a 22.925783
_cell_length_b 19.653975
_cell_length_c 8.591476
_cell_angle_alpha 42.257160
_cell_angle_beta 146.950469
_cell_angle_gamma 158.924231
_cell_volume 741.581158
_symmetry_space_group_name_H-M "P -1"
_symmetry_group_IT_number 2
_symmetry_cell_setting 'triclinic'
loop_
_space_group_symop_operation_xyz
x,y,z
-x,-y,-z
loop_
_atom_site_type_symbol
_atom_site_label
_atom_site_fract_x
_atom_site_fract_y
_atom_site_fract_z
Si Si1 0.013788 0.219065 0.211354
Si Si2 0.881478 0.326932 0.638695
Si Si3 0.453021 0.478278 0.751923
Si Si4 0.265941 0.641799 0.487549
Si Si5 0.912967 0.202509 0.363250
Si Si6 0.795929 0.896810 0.676585
Si Si7 0.449853 0.938868 0.171840
Si Si8 0.627392 0.793720 0.126668
O O1 0.991266 0.223942 0.336915
O O2 0.222717 0.330117 0.459658
O O3 0.817447 0.991323 0.117196
O O4 0.003580 0.321075 0.939040
O O5 0.832698 0.345257 0.659292
O O6 0.000000 0.500000 0.500000
O O7 0.662101 0.121087 0.427240
O O8 0.608989 0.690139 0.689150
O O9 0.473911 0.388072 0.863869
O O10 0.500000 0.500000 0.000000
O O11 0.346193 0.750200 0.317710
O O12 0.091034 0.416901 0.462703
O O13 0.457200 0.744977 0.830270
O O14 0.849053 0.054782 0.573301
O O15 0.709544 0.104444 0.057626
O O16 0.723946 0.843762 0.424905
O O17 0.000000 0.000000 0.000000
O O18 0.500000 0.000000 0.000000
#
# Coordination Sequence:
#
# PCOD9063527 Si02
#       8
#     2   2   2   2   2   2   2   2
#     4  11  24  44  70 101 142 183 229 291 353 414
#     4  12  26  44  69 106 144 186 237 287 353 424
#     4  12  26  46  72 105 139 182 237 297 352 425
#     4  12  24  47  74 101 146 189 234 290 355 420
#     4  11  25  44  70 101 141 188 229 291 354 416
#     4  11  25  48  71 103 139 183 239 292 354 425
#     4  12  26  45  68 105 141 186 239 289 352 421
#     4  11  24  47  72 101 136 189 234 290 360 417
#
# _framework density 21.575520999999998
#
# number of rings (size 3 to 8) (size 9 to 14) (size 15 to 20)
#    0.000    0.500    2.500    6.750    5.250    1.000 
#    4.500    0.000    0.000    0.000    0.000    0.000 
#    0.000    0.000    0.000    0.000    0.000    0.000 
#
# Total GULP energy -89503.654937 kJ/mol
# GULP energy per Si atom -5593.978434 kJ/mol
# Density = 2.152641 g / cm^3
# Si number density = 21.575521 Si / 1000 Ang^3
#
#
#
# Elastic Constant Matrix: (Units=GPa)
#
#
# Indices 1 2 3 4 5 6 
#
# 1 43.3672 15.8395 -2.8246 -15.4095 -7.8960 1.0304
# 2 15.8395 157.4408 20.1347 -32.5120 -5.2730 -2.2598
# 3 -2.8246 20.1347 101.8475 -21.2733 13.4203 1.5969
# 4 -15.4095 -32.5120 -21.2733 42.4281 5.9811 -3.5199
# 5 -7.8960 -5.2730 13.4203 5.9811 36.7919 4.0175
# 6 1.0304 -2.2598 1.5969 -3.5199 4.0175 36.0806
#
#
#
# Elastic Compliance Matrix: (Units=1/GPa)
#
#
# Indices 1 2 3 4 5 6 
#
# 1 0.027808 -0.000919 0.002674 0.010254 0.003230 -0.000329
# 2 -0.000919 0.007625 -0.000437 0.005367 0.000069 0.001039
# 3 0.002674 -0.000437 0.012243 0.007573 -0.005260 0.000679
# 4 0.010254 0.005367 0.007573 0.036395 -0.006140 0.003942
# 5 0.003230 0.000069 -0.005260 -0.006140 0.031229 -0.003931
# 6 -0.000329 0.001039 0.000679 0.003942 -0.003931 0.028583
#
#
# Mechanical properties :
#
#
# Convention : Reuss Voigt Hill
#
# Bulk Modulus (GPa) = 19.87572 40.99496 30.43534
# Shear Modulus (GPa) = 31.64185 41.02718 36.33452
#
# Velocity S-wave (km/s) = 3.83373 4.36542 4.10818
# Velocity P-wave (km/s) = 5.36924 6.66717 6.05309
#
# Compressibility (1/GPa) = 0.05031265
#
# Stress axis : x y z
#
# Youngs Moduli (GPa) = 35.96096 131.13989 81.67648
#
# Poissons Ratio (x) = 0.12049 -0.21842
# Poissons Ratio (y) = 0.03304 0.03573
# Poissons Ratio (z) = -0.09617 0.05737
#
# Static dielectric constant tensor:
#      x y z
#    x 1.777660 0.002730 -0.010010 
#    y 0.002730 1.793910 -0.031290 
#    z -0.010010 -0.031290 1.773260 
# 
# From -- ./inp_files/355281.got.cif
#   From: 2010.05.17/outbox.cif.g08.bks.cpg/sg2_178_cif.got.tgz:355281.got - 2010.06.03 11:33:40.
