data_PCOD9063498
_publ_section_title
;
Structure prediction by ZEFSAII (Michael W. Deem and Ramdas Pophale) SiO2 
 PCOD9063498
Probable space group: P -1
;
_chemical_formula_sum "Si O2"
_cell_formula_units_Z 12
_cell_length_a 7.918245
_cell_length_b 16.317657
_cell_length_c 6.620543
_cell_angle_alpha 52.666047
_cell_angle_beta 127.795735
_cell_angle_gamma 122.070204
_cell_volume 519.901757
_symmetry_space_group_name_H-M "P -1"
_symmetry_group_IT_number 2
_symmetry_cell_setting 'triclinic'
loop_
_space_group_symop_operation_xyz
x,y,z
-x,-y,-z
loop_
_atom_site_type_symbol
_atom_site_label
_atom_site_fract_x
_atom_site_fract_y
_atom_site_fract_z
Si Si1 0.139029 0.930427 0.325714
Si Si2 0.425055 0.733970 0.296626
Si Si3 0.081055 0.700376 0.767778
Si Si4 0.007003 0.620539 0.397292
Si Si5 0.679215 0.601032 0.894858
Si Si6 0.550093 0.935287 0.324247
O O1 0.020936 0.810847 0.493922
O O2 0.340372 0.916997 0.348906
O O3 0.244707 0.999430 0.494303
O O4 0.000000 0.000000 0.000000
O O5 0.540531 0.640851 0.559909
O O6 0.580642 0.831221 0.387767
O O7 0.206241 0.705883 0.313964
O O8 0.324531 0.738616 0.993914
O O9 0.063177 0.632016 0.655470
O O10 0.913004 0.624125 0.912595
O O11 0.000000 0.500000 0.500000
O O12 0.783510 0.649887 0.114972
O O13 0.500000 0.500000 0.000000
O O14 0.500000 0.000000 0.000000
#
# Coordination Sequence:
#
# PCOD9063498 Si02
#       6
#     2   2   2   2   2   2
#     4  11  26  43  68 107 138 179 230 277 342 410
#     4  11  24  45  68  98 142 178 229 280 342 409
#     4  11  26  44  70 101 140 180 226 287 345 399
#     4  11  24  48  67  97 138 176 229 291 336 403
#     4  11  26  45  68 103 133 184 232 277 347 407
#     4  11  24  44  69  98 140 182 225 279 341 406
#
# _framework density 23.081285999999999
#
# number of rings (size 3 to 8) (size 9 to 14) (size 15 to 20)
#    0.000    1.000    5.000    0.000    4.667    5.333 
#    0.000    0.000    0.000    0.000    0.000    0.000 
#    0.000    0.000    0.000    0.000    0.000    0.000 
#
# Total GULP energy -66807.637747 kJ/mol
# GULP energy per Si atom -5567.303146 kJ/mol
# Density = 2.302875 g / cm^3
# Si number density = 23.081286 Si / 1000 Ang^3
#
#
#
# Elastic Constant Matrix: (Units=GPa)
#
#
# Indices 1 2 3 4 5 6 
#
# 1 31.6406 22.2261 15.3416 12.3559 -12.8463 1.8974
# 2 22.2261 129.3588 50.2924 21.7412 -14.6919 -16.1715
# 3 15.3416 50.2924 165.5331 22.5110 -4.9784 -15.5964
# 4 12.3559 21.7412 22.5110 52.3934 -1.3985 -10.9944
# 5 -12.8463 -14.6919 -4.9784 -1.3985 39.2036 3.2508
# 6 1.8974 -16.1715 -15.5964 -10.9944 3.2508 25.7565
#
#
#
# Elastic Compliance Matrix: (Units=1/GPa)
#
#
# Indices 1 2 3 4 5 6 
#
# 1 0.047369 -0.005779 -0.002165 -0.010554 0.013923 -0.014691
# 2 -0.005779 0.010459 -0.001976 -0.001001 0.001308 0.005203
# 3 -0.002165 -0.001976 0.007254 -0.001199 -0.000812 0.002902
# 4 -0.010554 -0.001001 -0.001199 0.024586 -0.003973 0.010419
# 5 0.013923 0.001308 -0.000812 -0.003973 0.030837 -0.006284
# 6 -0.014691 0.005203 0.002902 0.010419 -0.006284 0.050172
#
#
# Mechanical properties :
#
#
# Convention : Reuss Voigt Hill
#
# Bulk Modulus (GPa) = 22.10283 55.80586 38.95435
# Shear Modulus (GPa) = 24.31930 39.38219 31.85075
#
# Velocity S-wave (km/s) = 3.24950 4.13515 3.71878
# Velocity P-wave (km/s) = 4.86579 6.85782 5.94582
#
# Compressibility (1/GPa) = 0.04524307
#
# Stress axis : x y z
#
# Youngs Moduli (GPa) = 21.11074 95.61144 137.85127
#
# Poissons Ratio (x) = 0.55251 0.29840
# Poissons Ratio (y) = 0.12199 0.27244
# Poissons Ratio (z) = 0.04570 0.18896
#
# Static dielectric constant tensor:
#      x y z
#    x 1.496970 -0.633990 -0.320570 
#    y -0.633990 1.019850 -0.527110 
#    z -0.320570 -0.527110 1.606490 
# 
# From -- ./inp_files/4442.got.cif
#   From: 2010.05.17/outbox.cif.g08.bks.cpg/sg2_3_cif.got.tgz:4442.got - 2010.06.03 11:33:40.
