data_PCOD9063026
_publ_section_title
;
Structure prediction by ZEFSAII (Michael W. Deem and Ramdas Pophale) SiO2 
 PCOD9063026
Probable space group: P -1
;
_chemical_formula_sum "Si O2"
_cell_formula_units_Z 12
_cell_length_a 23.286172
_cell_length_b 26.265902
_cell_length_c 29.492452
_cell_angle_alpha 9.918235
_cell_angle_beta 168.606021
_cell_angle_gamma 169.760333
_cell_volume 515.954716
_symmetry_space_group_name_H-M "P -1"
_symmetry_group_IT_number 2
_symmetry_cell_setting 'triclinic'
loop_
_space_group_symop_operation_xyz
x,y,z
-x,-y,-z
loop_
_atom_site_type_symbol
_atom_site_label
_atom_site_fract_x
_atom_site_fract_y
_atom_site_fract_z
Si Si1 0.318899 0.229003 0.512613
Si Si2 0.823912 0.957021 0.290608
Si Si3 0.772208 0.900267 0.614809
Si Si4 0.758409 0.925022 0.088787
Si Si5 0.143126 0.866327 0.189128
Si Si6 0.874360 0.081337 0.705570
O O1 0.610577 0.535808 0.501333
O O2 0.000000 0.000000 0.500000
O O3 0.109481 0.244601 0.293415
O O4 0.513791 0.070655 0.777124
O O5 0.013833 0.979887 0.370827
O O6 0.500000 0.000000 0.000000
O O7 0.501054 0.487595 0.758932
O O8 0.542918 0.053063 0.319597
O O9 0.038248 0.991342 0.780724
O O10 0.043582 0.070782 0.141776
O O11 0.058596 0.495169 0.470962
O O12 0.000000 0.000000 0.000000
O O13 0.978842 0.923728 0.966360
O O14 0.500000 0.000000 0.500000
#
# Coordination Sequence:
#
# PCOD9063026 Si02
#       6
#     2   2   2   2   2   2
#     4  12  24  41  65  95 132 178 228 288 348 416
#     4  12  24  41  65  95 132 178 228 288 348 416
#     4  11  24  44  67  98 134 177 228 288 348 415
#     4  11  24  44  67  98 134 177 228 288 348 415
#     4  11  24  43  69 103 141 185 234 290 350 417
#     4  11  24  43  69 103 141 185 234 290 350 417
#
# _framework density 23.257854999999999
#
# number of rings (size 3 to 8) (size 9 to 14) (size 15 to 20)
#    0.000    0.667    0.000    8.000    0.000    6.667 
#    0.000    0.000    0.000    0.000    0.000    0.000 
#    0.000    0.000    0.000    0.000    0.000    0.000 
#
# Total GULP energy -66849.889630 kJ/mol
# GULP energy per Si atom -5570.824136 kJ/mol
# Density = 2.320492 g / cm^3
# Si number density = 23.257855 Si / 1000 Ang^3
#
#
#
# Elastic Constant Matrix: (Units=GPa)
#
#
# Indices 1 2 3 4 5 6 
#
# 1 174.3439 24.1508 15.8353 16.2081 14.3801 18.5357
# 2 24.1508 87.7970 16.6259 10.8783 2.0953 0.7608
# 3 15.8353 16.6259 81.2100 29.4944 36.1865 2.3102
# 4 16.2081 10.8783 29.4944 52.7198 -0.0163 8.7301
# 5 14.3801 2.0953 36.1865 -0.0163 58.5547 20.1743
# 6 18.5357 0.7608 2.3102 8.7301 20.1743 48.7186
#
#
#
# Elastic Compliance Matrix: (Units=1/GPa)
#
#
# Indices 1 2 3 4 5 6 
#
# 1 0.006336 -0.001543 0.000026 -0.001351 -0.000907 -0.001770
# 2 -0.001543 0.012367 -0.002810 -0.000490 0.001704 -0.000090
# 3 0.000026 -0.002810 0.027889 -0.016739 -0.020686 0.010277
# 4 -0.001351 -0.000490 -0.016739 0.030512 0.014152 -0.010012
# 5 -0.000907 0.001704 -0.020686 0.014152 0.035522 -0.015946
# 6 -0.001770 -0.000090 0.010277 -0.010012 -0.015946 0.029111
#
#
# Mechanical properties :
#
#
# Convention : Reuss Voigt Hill
#
# Bulk Modulus (GPa) = 26.35918 50.73055 38.54487
# Shear Modulus (GPa) = 30.66804 51.11456 40.89130
#
# Velocity S-wave (km/s) = 3.63521 4.69308 4.19760
# Velocity P-wave (km/s) = 5.38309 7.15726 6.33261
#
# Compressibility (1/GPa) = 0.03793745
#
# Stress axis : x y z
#
# Youngs Moduli (GPa) = 157.83232 80.85811 35.85704
#
# Poissons Ratio (x) = 0.12479 -0.00093
# Poissons Ratio (y) = 0.24359 0.10075
# Poissons Ratio (z) = -0.00408 0.22718
#
# Static dielectric constant tensor:
#      x y z
#    x 2.427430 -0.255730 0.348690 
#    y -0.255730 2.137220 -0.251960 
#    z 0.348690 -0.251960 2.261290 
# 
# From -- ./inp_files/4312.got.cif
#   From: 2010.05.17/outbox.cif.g08.bks.cpg/sg2_3_cif.got.tgz:4312.got - 2010.06.03 11:33:40.
