data_PCOD9063777
_publ_section_title
;
Structure prediction by ZEFSAII (Michael W. Deem and Ramdas Pophale) SiO2 
 PCOD9063777
Probable space group: P -1
;
_chemical_formula_sum "Si O2"
_cell_formula_units_Z 12
_cell_length_a 11.872647
_cell_length_b 8.675551
_cell_length_c 9.795541
_cell_angle_alpha 105.897392
_cell_angle_beta 84.095340
_cell_angle_gamma 37.896387
_cell_volume 501.645688
_symmetry_space_group_name_H-M "P -1"
_symmetry_group_IT_number 2
_symmetry_cell_setting 'triclinic'
loop_
_space_group_symop_operation_xyz
x,y,z
-x,-y,-z
loop_
_atom_site_type_symbol
_atom_site_label
_atom_site_fract_x
_atom_site_fract_y
_atom_site_fract_z
Si Si1 0.972773 0.481435 0.342385
Si Si2 0.650209 0.464324 0.735098
Si Si3 0.912947 0.902497 0.423354
Si Si4 0.800073 0.095819 0.187368
Si Si5 0.529933 0.113566 0.921065
Si Si6 0.222868 0.521350 0.823852
O O1 0.000000 0.500000 0.500000
O O2 0.884212 0.753031 0.355228
O O3 0.823660 0.518236 0.318757
O O4 0.217298 0.153308 0.182913
O O5 0.418808 0.744197 0.756962
O O6 0.836316 0.362268 0.636555
O O7 0.760893 0.158143 0.621825
O O8 0.598430 0.580913 0.923104
O O9 0.857159 0.060835 0.328737
O O10 0.750727 0.323490 0.174731
O O11 0.007991 0.766741 0.006768
O O12 0.424216 0.211720 0.810985
O O13 0.500000 0.000000 0.000000
#
# Coordination Sequence:
#
# PCOD9063777 Si02
#       6
#     2   2   2   2   2   2
#     4  12  29  47  71 104 147 184 233 299 352 413
#     4  11  24  44  74 100 140 185 241 278 353 418
#     4  11  26  45  72 104 138 188 236 287 348 420
#     4  11  24  45  72 105 138 187 232 294 341 420
#     4  12  25  47  74 104 141 192 230 290 356 419
#     4  11  27  43  72 107 140 179 244 286 350 419
#
# _framework density 23.921265999999999
#
# number of rings (size 3 to 8) (size 9 to 14) (size 15 to 20)
#    0.000    0.667    5.000    0.500    9.333    2.667 
#    0.000    0.000    0.000    0.000    0.000    0.000 
#    0.000    0.000    0.000    0.000    0.000    0.000 
#
# Total GULP energy -67156.938740 kJ/mol
# GULP energy per Si atom -5596.411562 kJ/mol
# Density = 2.386682 g / cm^3
# Si number density = 23.921266 Si / 1000 Ang^3
#
#
#
# Elastic Constant Matrix: (Units=GPa)
#
#
# Indices 1 2 3 4 5 6 
#
# 1 51.7681 16.0170 5.6867 -6.0847 15.1123 -23.6049
# 2 16.0170 79.5971 10.1800 -21.2569 2.2745 -7.7335
# 3 5.6867 10.1800 98.8100 4.4183 18.4966 -8.4293
# 4 -6.0847 -21.2569 4.4183 43.3928 -2.8742 6.8605
# 5 15.1123 2.2745 18.4966 -2.8742 29.8582 -6.9517
# 6 -23.6049 -7.7335 -8.4293 6.8605 -6.9517 30.2416
#
#
#
# Elastic Compliance Matrix: (Units=1/GPa)
#
#
# Indices 1 2 3 4 5 6 
#
# 1 0.035873 -0.005623 0.003459 -0.002964 -0.014360 0.024899
# 2 -0.005623 0.015784 -0.002465 0.007740 0.003450 -0.002003
# 3 0.003459 -0.002465 0.012270 -0.003208 -0.008479 0.004269
# 4 -0.002964 0.007740 -0.003208 0.028070 0.004048 -0.006666
# 5 -0.014360 0.003450 -0.008479 0.004048 0.045401 -0.003172
# 6 0.024899 -0.002003 0.004269 -0.006666 -0.003172 0.053962
#
#
# Mechanical properties :
#
#
# Convention : Reuss Voigt Hill
#
# Bulk Modulus (GPa) = 18.29180 32.66028 25.47604
# Shear Modulus (GPa) = 22.84758 33.91797 28.38277
#
# Velocity S-wave (km/s) = 3.09385 3.76959 3.44831
# Velocity P-wave (km/s) = 4.51949 5.71220 5.15049
#
# Compressibility (1/GPa) = 0.05466930
#
# Stress axis : x y z
#
# Youngs Moduli (GPa) = 27.87584 63.35577 81.49829
#
# Poissons Ratio (x) = 0.35627 -0.28194
# Poissons Ratio (y) = 0.15675 0.20091
# Poissons Ratio (z) = -0.09643 0.15619
#
# Static dielectric constant tensor:
#      x y z
#    x 1.925430 0.067570 -0.001180 
#    y 0.067570 1.963660 -0.003820 
#    z -0.001180 -0.003820 1.927670 
# 
# From -- ./inp_files/151890.got.cif
#   From: 2010.05.17/outbox.cif.g08.bks.cpg/sg2_76_cif.got.tgz:151890.got - 2010.06.03 11:33:40.
