data_PCOD9063002
_publ_section_title
;
Structure prediction by ZEFSAII (Michael W. Deem and Ramdas Pophale) SiO2 
 PCOD9063002
Probable space group: P -1
;
_chemical_formula_sum "Si O2"
_cell_formula_units_Z 10
_cell_length_a 9.928860
_cell_length_b 9.411142
_cell_length_c 9.666198
_cell_angle_alpha 95.781753
_cell_angle_beta 40.092646
_cell_angle_gamma 76.219499
_cell_volume 503.840111
_symmetry_space_group_name_H-M "P -1"
_symmetry_group_IT_number 2
_symmetry_cell_setting 'triclinic'
loop_
_space_group_symop_operation_xyz
x,y,z
-x,-y,-z
loop_
_atom_site_type_symbol
_atom_site_label
_atom_site_fract_x
_atom_site_fract_y
_atom_site_fract_z
Si Si1 0.898724 0.224674 0.297649
Si Si2 0.455543 0.085329 0.896558
Si Si3 0.867198 0.395979 0.063482
Si Si4 0.466550 0.605557 0.173214
Si Si5 0.737433 0.951210 0.397275
O O1 0.789432 0.314008 0.538563
O O2 0.186149 0.141059 0.063513
O O3 0.820011 0.087006 0.327312
O O4 0.798792 0.349221 0.259663
O O5 0.484641 0.246415 0.890381
O O6 0.500000 0.000000 0.000000
O O7 0.053792 0.224494 0.829520
O O8 0.653503 0.496525 0.134700
O O9 0.000000 0.500000 0.000000
O O10 0.652614 0.961178 0.622244
O O11 0.500000 0.500000 0.000000
O O12 0.500000 0.000000 0.500000
#
# Coordination Sequence:
#
# PCOD9063002 Si02
#       5
#     2   2   2   2   2
#     4  11  24  46  68  94 135 179 220 270 331 395
#     4  11  26  44  66  96 135 176 221 269 330 398
#     4  12  23  45  69  98 135 171 221 278 327 392
#     4  11  27  43  66 102 133 173 223 274 334 386
#     4  11  24  43  69 100 127 174 230 264 326 401
#
# _framework density 19.847566
#
# number of rings (size 3 to 8) (size 9 to 14) (size 15 to 20)
#    0.000    0.800    4.000    2.400    5.600    4.000 
#    0.000    0.000    0.000    0.000    0.000    0.000 
#    0.000    0.000    0.000    0.000    0.000    0.000 
#
# Total GULP energy -55938.922373 kJ/mol
# GULP energy per Si atom -5593.892237 kJ/mol
# Density = 1.980239 g / cm^3
# Si number density = 19.847566 Si / 1000 Ang^3
#
#
#
# Elastic Constant Matrix: (Units=GPa)
#
#
# Indices 1 2 3 4 5 6 
#
# 1 99.5481 47.1302 29.9777 -18.8500 26.7391 -0.7181
# 2 47.1302 121.9419 42.3931 -20.1272 24.8152 -20.0196
# 3 29.9777 42.3931 89.8096 -17.9558 23.4787 9.9583
# 4 -18.8500 -20.1272 -17.9558 33.9002 -4.7768 3.8641
# 5 26.7391 24.8152 23.4787 -4.7768 37.4954 7.3378
# 6 -0.7181 -20.0196 9.9583 3.8641 7.3378 42.9096
#
#
#
# Elastic Compliance Matrix: (Units=1/GPa)
#
#
# Indices 1 2 3 4 5 6 
#
# 1 0.014614 -0.003268 -0.000383 0.004998 -0.007306 -0.000392
# 2 -0.003268 0.013822 -0.004480 0.002342 -0.005305 0.008130
# 3 -0.000383 -0.004480 0.016529 0.005769 -0.005292 -0.005547
# 4 0.004998 0.002342 0.005769 0.036554 -0.003511 -0.002854
# 5 -0.007306 -0.005305 -0.005292 -0.003511 0.039794 -0.007858
# 6 -0.000392 0.008130 -0.005547 -0.002854 -0.007858 0.029979
#
#
# Mechanical properties :
#
#
# Convention : Reuss Voigt Hill
#
# Bulk Modulus (GPa) = 34.83905 61.14463 47.99184
# Shear Modulus (GPa) = 28.22923 35.64763 31.93843
#
# Velocity S-wave (km/s) = 3.77543 4.24261 4.01582
# Velocity P-wave (km/s) = 6.04951 7.40767 6.76277
#
# Compressibility (1/GPa) = 0.02870342
#
# Stress axis : x y z
#
# Youngs Moduli (GPa) = 68.42893 72.34913 60.49978
#
# Poissons Ratio (x) = 0.23642 0.02316
# Poissons Ratio (y) = 0.22361 0.27104
# Poissons Ratio (z) = 0.02619 0.32413
#
# Static dielectric constant tensor:
#      x y z
#    x 1.677960 -0.029600 0.011150 
#    y -0.029600 1.604380 -0.006110 
#    z 0.011150 -0.006110 1.706350 
# 
# From -- ./inp_files/35557.got.cif
#   From: 2010.05.17/outbox.cif.g08.bks.cpg/sg2_18_cif.got.tgz:35557.got - 2010.06.03 11:33:40.
