data_PCOD9063117
_publ_section_title
;
Structure prediction by ZEFSAII (Michael W. Deem and Ramdas Pophale) SiO2 
 PCOD9063117
Probable space group: P -1
;
_chemical_formula_sum "Si O2"
_cell_formula_units_Z 13
_cell_length_a 9.414034
_cell_length_b 10.281413
_cell_length_c 15.769771
_cell_angle_alpha 134.347742
_cell_angle_beta 146.903421
_cell_angle_gamma 42.168450
_cell_volume 546.672612
_symmetry_space_group_name_H-M "P -1"
_symmetry_group_IT_number 2
_symmetry_cell_setting 'triclinic'
loop_
_space_group_symop_operation_xyz
x,y,z
-x,-y,-z
loop_
_atom_site_type_symbol
_atom_site_label
_atom_site_fract_x
_atom_site_fract_y
_atom_site_fract_z
Si Si1 0.893976 0.833565 0.257618
Si Si2 0.466929 0.314691 0.478755
Si Si3 0.421912 0.733079 0.062477
Si Si4 0.771325 0.718526 0.968017
Si Si5 0.934989 0.038289 0.854597
Si Si6 0.333241 0.732247 0.626856
Si Si7 0.500000 0.000000 0.500000
O O1 0.698767 0.772033 0.194503
O O2 0.742657 0.836630 0.094228
O O3 0.219650 0.684962 0.350005
O O4 0.898296 0.045298 0.380312
O O5 0.253789 0.542928 0.491098
O O6 0.481891 0.266222 0.363846
O O7 0.437738 0.160332 0.460252
O O8 0.300013 0.849906 0.141586
O O9 0.500000 0.500000 0.000000
O O10 0.165262 0.832082 0.911466
O O11 0.889607 0.825692 0.007667
O O12 0.496419 0.705324 0.784783
O O13 0.000000 0.500000 0.000000
O O14 0.775641 0.040301 0.688142
#
# Coordination Sequence:
#
# PCOD9063117 Si02
#       7
#     2   2   2   2   2   2   1
#     4  12  23  44  70 102 134 178 238 288 334 422
#     4  11  26  44  70 102 143 184 229 288 352 423
#     4  11  26  43  71 104 137 183 235 290 352 416
#     4  12  22  43  72  99 135 177 233 287 345 413
#     4  11  25  46  67  99 144 181 223 294 352 419
#     4  11  24  43  71 101 137 186 230 284 352 411
#     4  12  24  48  68 102 146 188 222 294 366 404
#
# _framework density 23.780231000000001
#
# number of rings (size 3 to 8) (size 9 to 14) (size 15 to 20)
#    0.000    0.615    4.615    2.769    2.154    1.231 
#    0.000    1.538    0.000    0.000    0.000    0.000 
#    0.000    0.000    0.000    0.000    0.000    0.000 
#
# Total GULP energy -72463.942254 kJ/mol
# GULP energy per Si atom -5574.149404 kJ/mol
# Density = 2.372611 g / cm^3
# Si number density = 23.780231 Si / 1000 Ang^3
#
#
#
# Elastic Constant Matrix: (Units=GPa)
#
#
# Indices 1 2 3 4 5 6 
#
# 1 82.6380 23.0352 -2.4075 14.2717 3.5238 18.4172
# 2 23.0352 159.6293 25.3156 7.7684 -15.0559 16.2909
# 3 -2.4075 25.3156 76.9887 -14.7228 -25.3191 -9.8884
# 4 14.2717 7.7684 -14.7228 41.2983 7.3895 -0.3344
# 5 3.5238 -15.0559 -25.3191 7.3895 36.9532 -2.9760
# 6 18.4172 16.2909 -9.8884 -0.3344 -2.9760 35.6532
#
#
#
# Elastic Compliance Matrix: (Units=1/GPa)
#
#
# Indices 1 2 3 4 5 6 
#
# 1 0.015242 -0.001004 -0.002299 -0.005424 -0.003026 -0.008356
# 2 -0.001004 0.007495 -0.003003 -0.002392 0.001276 -0.003655
# 3 -0.002299 -0.003003 0.020440 0.006494 0.012453 0.009329
# 4 -0.005424 -0.002392 0.006494 0.029145 -0.001365 0.005855
# 5 -0.003026 0.001276 0.012453 -0.001365 0.037282 0.007533
# 6 -0.008356 -0.003655 0.009329 0.005855 0.007533 0.037306
#
#
# Mechanical properties :
#
#
# Convention : Reuss Voigt Hill
#
# Bulk Modulus (GPa) = 32.71662 45.68252 39.19957
# Shear Modulus (GPa) = 29.46201 41.00177 35.23189
#
# Velocity S-wave (km/s) = 3.52366 4.15685 3.85328
# Velocity P-wave (km/s) = 5.50842 6.50317 6.02635
#
# Compressibility (1/GPa) = 0.03056550
#
# Stress axis : x y z
#
# Youngs Moduli (GPa) = 65.60929 133.41531 48.92327
#
# Poissons Ratio (x) = 0.13388 0.11247
# Poissons Ratio (y) = 0.06584 0.14694
# Poissons Ratio (z) = 0.15084 0.40070
#
# Static dielectric constant tensor:
#      x y z
#    x 1.904650 -0.003230 -0.043890 
#    y -0.003230 1.903660 0.016500 
#    z -0.043890 0.016500 2.004310 
# 
# From -- ./inp_files/204660.got.cif
#   From: 2010.05.17/outbox.cif.g08.bks.cpg/sg2_103_cif.got.tgz:204660.got - 2010.06.03 11:33:40.
