data_PCOD9063948
_publ_section_title
;
Structure prediction by ZEFSAII (Michael W. Deem and Ramdas Pophale) SiO2 
 PCOD9063948
Probable space group: P -1
;
_chemical_formula_sum "Si O2"
_cell_formula_units_Z 16
_cell_length_a 5.729545
_cell_length_b 9.243824
_cell_length_c 25.060437
_cell_angle_alpha 46.124507
_cell_angle_beta 109.572792
_cell_angle_gamma 128.848003
_cell_volume 733.283736
_symmetry_space_group_name_H-M "P -1"
_symmetry_group_IT_number 2
_symmetry_cell_setting 'triclinic'
loop_
_space_group_symop_operation_xyz
x,y,z
-x,-y,-z
loop_
_atom_site_type_symbol
_atom_site_label
_atom_site_fract_x
_atom_site_fract_y
_atom_site_fract_z
Si Si1 0.805234 0.894038 0.458144
Si Si2 0.102358 0.026062 0.852531
Si Si3 0.511395 0.558759 0.923144
Si Si4 0.829078 0.618853 0.439429
Si Si5 0.557837 0.135522 0.024742
Si Si6 0.948418 0.384774 0.316760
Si Si7 0.660517 0.607201 0.312461
Si Si8 0.053575 0.324911 0.855999
O O1 0.943406 0.846117 0.429715
O O2 0.520262 0.617700 0.519810
O O3 0.739968 0.089597 0.383979
O O4 0.000000 0.000000 0.500000
O O5 0.262514 0.162453 0.775838
O O6 0.211783 0.232652 0.853574
O O7 0.176724 0.842975 0.927395
O O8 0.742364 0.850730 0.859513
O O9 0.213290 0.453913 0.891156
O O10 0.500000 0.500000 0.000000
O O11 0.615805 0.392901 0.951184
O O12 0.841223 0.686751 0.361528
O O13 0.000000 0.500000 0.500000
O O14 0.255645 0.938194 0.085634
O O15 0.500000 0.000000 0.000000
O O16 0.802177 0.485173 0.319945
O O17 0.965441 0.494569 0.231363
O O18 0.295208 0.460522 0.332808
#
# Coordination Sequence:
#
# PCOD9063948 Si02
#       8
#     2   2   2   2   2   2   2   2
#     4  11  24  46  74 105 146 191 237 286 354 425
#     4  11  24  45  67  97 138 184 230 295 358 421
#     4  12  24  42  68  99 130 184 235 293 354 423
#     4  11  26  44  74 111 147 187 238 297 348 419
#     4  12  22  42  68  92 135 178 231 292 353 414
#     4  11  25  47  76 102 143 197 235 289 364 428
#     4  11  25  48  73 105 148 186 239 297 357 421
#     4  11  24  46  65  96 142 177 231 294 358 415
#
# _framework density 21.819656999999999
#
# number of rings (size 3 to 8) (size 9 to 14) (size 15 to 20)
#    0.000    0.750    5.000    2.250    3.500    2.000 
#    9.000    0.000    0.000    0.000    0.000    0.000 
#    0.000    0.000    0.000    0.000    0.000    0.000 
#
# Total GULP energy -89175.337575 kJ/mol
# GULP energy per Si atom -5573.458598 kJ/mol
# Density = 2.176999 g / cm^3
# Si number density = 21.819657 Si / 1000 Ang^3
#
#
#
# Elastic Constant Matrix: (Units=GPa)
#
#
# Indices 1 2 3 4 5 6 
#
# 1 64.9118 26.8782 14.0019 18.8833 5.8543 -9.1657
# 2 26.8782 127.3152 29.7392 24.2344 0.9234 -9.0929
# 3 14.0019 29.7392 107.2235 19.0229 3.9917 -11.1604
# 4 18.8833 24.2344 19.0229 39.5427 1.8794 -1.0547
# 5 5.8543 0.9234 3.9917 1.8794 35.9199 -3.9883
# 6 -9.1657 -9.0929 -11.1604 -1.0547 -3.9883 33.6171
#
#
#
# Elastic Compliance Matrix: (Units=1/GPa)
#
#
# Indices 1 2 3 4 5 6 
#
# 1 0.019370 -0.002326 -0.000022 -0.007597 -0.002237 0.004141
# 2 -0.002326 0.009558 -0.001514 -0.004013 0.000667 0.001402
# 3 -0.000022 -0.001514 0.010819 -0.004158 -0.000612 0.002973
# 4 -0.007597 -0.004013 -0.004158 0.033298 -0.000331 -0.003532
# 5 -0.002237 0.000667 -0.000612 -0.000331 0.028578 0.002747
# 6 0.004141 0.001402 0.002973 -0.003532 0.002747 0.032457
#
#
# Mechanical properties :
#
#
# Convention : Reuss Voigt Hill
#
# Bulk Modulus (GPa) = 31.22821 48.96546 40.09684
# Shear Modulus (GPa) = 32.79129 37.07138 34.93133
#
# Velocity S-wave (km/s) = 3.88084 4.12635 4.00548
# Velocity P-wave (km/s) = 5.86722 6.72251 6.30937
#
# Compressibility (1/GPa) = 0.03202233
#
# Stress axis : x y z
#
# Youngs Moduli (GPa) = 51.62639 104.61912 92.42918
#
# Poissons Ratio (x) = 0.24335 0.00205
# Poissons Ratio (y) = 0.12009 0.13997
# Poissons Ratio (z) = 0.00115 0.15843
#
# Static dielectric constant tensor:
#      x y z
#    x 1.959000 0.042110 -0.050590 
#    y 0.042110 1.834220 -0.021850 
#    z -0.050590 -0.021850 1.786870 
# 
# From -- ./inp_files/14490.got.cif
#   From: 2010.05.17/outbox.cif.g08.bks.cpg/sg2_8_cif.got.tgz:14490.got - 2010.06.03 11:33:40.
