data_PCOD9063673
_publ_section_title
;
Structure prediction by ZEFSAII (Michael W. Deem and Ramdas Pophale) SiO2 
 PCOD9063673
Probable space group: P -1
;
_chemical_formula_sum "Si O2"
_cell_formula_units_Z 16
_cell_length_a 14.347830
_cell_length_b 8.471628
_cell_length_c 10.266239
_cell_angle_alpha 95.958138
_cell_angle_beta 145.318157
_cell_angle_gamma 74.510845
_cell_volume 668.832188
_symmetry_space_group_name_H-M "P -1"
_symmetry_group_IT_number 2
_symmetry_cell_setting 'triclinic'
loop_
_space_group_symop_operation_xyz
x,y,z
-x,-y,-z
loop_
_atom_site_type_symbol
_atom_site_label
_atom_site_fract_x
_atom_site_fract_y
_atom_site_fract_z
Si Si1 0.969513 0.042471 0.621507
Si Si2 0.283770 0.465882 0.844549
Si Si3 0.599408 0.223089 0.304183
Si Si4 0.015276 0.596814 0.334397
Si Si5 0.723095 0.243722 0.944815
Si Si6 0.467490 0.038469 0.618239
Si Si7 0.868522 0.678217 0.778281
Si Si8 0.763729 0.387874 0.728447
O O1 0.767421 0.091788 0.423416
O O2 0.017404 0.210529 0.720963
O O3 0.000000 0.000000 0.500000
O O4 0.085599 0.888768 0.827795
O O5 0.198460 0.532464 0.615129
O O6 0.301155 0.618313 0.961675
O O7 0.139323 0.407254 0.749100
O O8 0.467425 0.324323 0.052132
O O9 0.668246 0.338323 0.492220
O O10 0.503533 0.126016 0.277349
O O11 0.039576 0.458083 0.238502
O O12 0.591566 0.142501 0.808390
O O13 0.697112 0.333299 0.781615
O O14 0.268992 0.154459 0.415525
O O15 0.500000 0.000000 0.500000
O O16 0.760734 0.580197 0.729039
O O17 0.028585 0.708451 0.039166
#
# Coordination Sequence:
#
# PCOD9063673 Si02
#       8
#     2   2   2   2   2   2   2   2
#     4  12  27  49  75 105 144 191 243 301 364 426
#     4  11  26  46  78 104 142 193 245 302 358 431
#     4  12  27  46  73 110 147 190 242 303 361 433
#     4  11  24  50  74 103 141 190 247 300 361 431
#     4  12  25  45  73 107 148 191 238 297 368 432
#     4  12  28  43  69 107 153 190 241 292 359 430
#     4  11  25  45  70 107 145 197 239 298 360 436
#     4  11  24  44  72 104 146 191 235 294 365 437
#
# _framework density 23.922294000000001
#
# number of rings (size 3 to 8) (size 9 to 14) (size 15 to 20)
#    0.000    0.500    5.000    2.250    3.500    3.500 
#    0.000    1.875    0.000    0.000    0.000    0.000 
#    0.000    0.000    0.000    0.000    0.000    0.000 
#
# Total GULP energy -89665.514154 kJ/mol
# GULP energy per Si atom -5604.094635 kJ/mol
# Density = 2.386785 g / cm^3
# Si number density = 23.922294 Si / 1000 Ang^3
#
#
#
# Elastic Constant Matrix: (Units=GPa)
#
#
# Indices 1 2 3 4 5 6 
#
# 1 68.8484 8.5773 -0.6884 10.2260 -2.7186 0.9249
# 2 8.5773 45.7071 -2.9050 -4.2976 2.9860 9.6776
# 3 -0.6884 -2.9050 99.1668 -8.8868 5.8718 -1.8985
# 4 10.2260 -4.2976 -8.8868 49.1052 2.4790 6.7452
# 5 -2.7186 2.9860 5.8718 2.4790 38.4586 6.5231
# 6 0.9249 9.6776 -1.8985 6.7452 6.5231 36.1035
#
#
#
# Elastic Compliance Matrix: (Units=1/GPa)
#
#
# Indices 1 2 3 4 5 6 
#
# 1 0.015591 -0.003625 -0.000415 -0.003853 0.001527 0.000994
# 2 -0.003625 0.024575 0.001014 0.004115 -0.001404 -0.006956
# 3 -0.000415 0.001014 0.010416 0.002123 -0.001874 0.000229
# 4 -0.003853 0.004115 0.002123 0.022655 -0.001555 -0.004845
# 5 0.001527 -0.001404 -0.001874 -0.001555 0.027354 -0.004413
# 6 0.000994 -0.006956 0.000229 -0.004845 -0.004413 0.031252
#
#
# Mechanical properties :
#
#
# Convention : Reuss Voigt Hill
#
# Bulk Modulus (GPa) = 22.45634 24.85446 23.65540
# Shear Modulus (GPa) = 32.73578 38.64937 35.69258
#
# Velocity S-wave (km/s) = 3.70323 4.02384 3.86686
# Velocity P-wave (km/s) = 5.26240 5.65691 5.46321
#
# Compressibility (1/GPa) = 0.04453086
#
# Stress axis : x y z
#
# Youngs Moduli (GPa) = 64.13853 40.69235 96.00197
#
# Poissons Ratio (x) = 0.14750 0.03980
# Poissons Ratio (y) = 0.23248 -0.09730
# Poissons Ratio (z) = 0.02659 -0.04124
#
# Static dielectric constant tensor:
#      x y z
#    x 1.940390 0.021490 0.025400 
#    y 0.021490 1.866750 0.007450 
#    z 0.025400 0.007450 1.918390 
# 
# From -- ./inp_files/447692.got.cif
#   From: 2010.05.17/outbox.cif.g08.bks.cpg/sg2_224_cif.got.tgz:447692.got - 2010.06.03 11:33:40.
