data_PCOD9063618
_publ_section_title
;
Structure prediction by ZEFSAII (Michael W. Deem and Ramdas Pophale) SiO2 
 PCOD9063618
Probable space group: P -1
;
_chemical_formula_sum "Si O2"
_cell_formula_units_Z 13
_cell_length_a 12.674308
_cell_length_b 9.991982
_cell_length_c 9.820510
_cell_angle_alpha 43.312679
_cell_angle_beta 64.647791
_cell_angle_gamma 45.412642
_cell_volume 598.842534
_symmetry_space_group_name_H-M "P -1"
_symmetry_group_IT_number 2
_symmetry_cell_setting 'triclinic'
loop_
_space_group_symop_operation_xyz
x,y,z
-x,-y,-z
loop_
_atom_site_type_symbol
_atom_site_label
_atom_site_fract_x
_atom_site_fract_y
_atom_site_fract_z
Si Si1 0.605059 0.774963 0.502144
Si Si2 0.443231 0.575478 0.820326
Si Si3 0.000000 0.000000 0.500000
Si Si4 0.915056 0.398980 0.758281
Si Si5 0.891551 0.040033 0.226456
Si Si6 0.885394 0.694043 0.803805
Si Si7 0.447227 0.121923 0.085547
O O1 0.548453 0.611311 0.653398
O O2 0.771265 0.599130 0.598291
O O3 0.500000 0.000000 0.500000
O O4 0.571556 0.913583 0.276519
O O5 0.275882 0.835845 0.726101
O O6 0.500000 0.500000 0.000000
O O7 0.436679 0.366160 0.918888
O O8 0.988045 0.987058 0.346054
O O9 0.103192 0.086557 0.362834
O O10 0.943276 0.545197 0.738531
O O11 0.880051 0.249478 0.986103
O O12 0.042723 0.193195 0.737023
O O13 0.716730 0.792512 0.849075
O O14 0.000000 0.500000 0.000000
O O15 0.500000 0.000000 0.000000
#
# Coordination Sequence:
#
# PCOD9063618 Si02
#       7
#     2   2   1   2   2   2   2
#     4  12  23  46  75 103 141 188 239 294 360 423
#     4  12  22  45  75 102 142 188 232 299 356 422
#     4  12  26  42  74 100 146 190 226 302 362 422
#     4  11  24  45  73 103 140 187 240 296 347 432
#     4  11  24  44  71 106 138 185 240 289 358 425
#     4  12  24  48  69 105 149 185 235 300 363 418
#     4  12  28  46  74 109 145 188 241 301 360 430
#
# _framework density 21.708546999999999
#
# number of rings (size 3 to 8) (size 9 to 14) (size 15 to 20)
#    0.000    0.308    7.692    0.923    0.000    6.154 
#    0.000    0.000    0.000    0.000    0.000    0.000 
#    0.000    0.000    0.000    0.000    0.000    0.000 
#
# Total GULP energy -72532.204570 kJ/mol
# GULP energy per Si atom -5579.400352 kJ/mol
# Density = 2.165914 g / cm^3
# Si number density = 21.708547 Si / 1000 Ang^3
#
#
#
# Elastic Constant Matrix: (Units=GPa)
#
#
# Indices 1 2 3 4 5 6 
#
# 1 129.7506 57.9676 31.4855 -9.9234 0.9039 28.8933
# 2 57.9676 118.4460 29.5010 1.8363 20.3415 31.6578
# 3 31.4855 29.5010 87.8657 8.7412 13.6173 2.0326
# 4 -9.9234 1.8363 8.7412 26.2500 14.4909 10.7457
# 5 0.9039 20.3415 13.6173 14.4909 55.2606 -0.8067
# 6 28.8933 31.6578 2.0326 10.7457 -0.8067 24.9649
#
#
#
# Elastic Compliance Matrix: (Units=1/GPa)
#
#
# Indices 1 2 3 4 5 6 
#
# 1 0.020372 0.005777 -0.010128 0.034542 -0.009682 -0.045259
# 2 0.005777 0.024045 -0.009809 0.033711 -0.016118 -0.051409
# 3 -0.010128 -0.009809 0.019186 -0.027430 0.006747 0.034624
# 4 0.034542 0.033711 -0.027430 0.141468 -0.045397 -0.142851
# 5 -0.009682 -0.016118 0.006747 -0.045397 0.035185 0.051773
# 6 -0.045259 -0.051409 0.034624 -0.142851 0.051773 0.217969
#
#
# Mechanical properties :
#
#
# Convention : Reuss Voigt Hill
#
# Bulk Modulus (GPa) = 28.34448 63.77452 46.05950
# Shear Modulus (GPa) = 10.03399 35.76899 22.90149
#
# Velocity S-wave (km/s) = 2.15225 4.06358 3.25153
# Velocity P-wave (km/s) = 4.38878 7.17344 5.94642
#
# Compressibility (1/GPa) = 0.03528024
#
# Stress axis : x y z
#
# Youngs Moduli (GPa) = 49.08768 41.58944 52.12134
#
# Poissons Ratio (x) = -0.24024 0.52790
# Poissons Ratio (y) = -0.28356 0.51127
# Poissons Ratio (z) = 0.49717 0.40796
#
# Static dielectric constant tensor:
#      x y z
#    x 1.794540 -0.012860 -0.009760 
#    y -0.012860 1.774170 -0.037860 
#    z -0.009760 -0.037860 1.827760 
# 
# From -- ./inp_files/174640.got.cif
#   From: 2010.05.17/outbox.cif.g08.bks.cpg/sg2_88_cif.got.tgz:174640.got - 2010.06.03 11:33:40.
