data_PCOD9063503
_publ_section_title
;
Structure prediction by ZEFSAII (Michael W. Deem and Ramdas Pophale) SiO2 
 PCOD9063503
Probable space group: P -1
;
_chemical_formula_sum "Si O2"
_cell_formula_units_Z 14
_cell_length_a 20.435706
_cell_length_b 19.658101
_cell_length_c 8.963623
_cell_angle_alpha 148.550929
_cell_angle_beta 32.531084
_cell_angle_gamma 158.704466
_cell_volume 659.834485
_symmetry_space_group_name_H-M "P -1"
_symmetry_group_IT_number 2
_symmetry_cell_setting 'triclinic'
loop_
_space_group_symop_operation_xyz
x,y,z
-x,-y,-z
loop_
_atom_site_type_symbol
_atom_site_label
_atom_site_fract_x
_atom_site_fract_y
_atom_site_fract_z
Si Si1 0.995347 0.849065 0.663026
Si Si2 0.579720 0.191726 0.400880
Si Si3 0.072282 0.584423 0.684075
Si Si4 0.040979 0.863885 0.263441
Si Si5 0.702640 0.691581 0.400798
Si Si6 0.222100 0.786054 0.218781
Si Si7 0.379971 0.489354 0.101475
O O1 0.975058 0.852816 0.533102
O O2 0.154507 0.871961 0.442689
O O3 0.812077 0.633893 0.678330
O O4 0.000000 0.000000 0.000000
O O5 0.720697 0.299112 0.467992
O O6 0.517182 0.290679 0.704183
O O7 0.397098 0.955311 0.307131
O O8 0.699135 0.238752 0.114744
O O9 0.000000 0.500000 0.500000
O O10 0.936827 0.412519 0.748939
O O11 0.084640 0.749093 0.982350
O O12 0.873444 0.748842 0.252903
O O13 0.221403 0.100066 0.327790
O O14 0.500000 0.500000 0.500000
O O15 0.675091 0.630976 0.167980
O O16 0.500000 0.500000 0.000000
#
# Coordination Sequence:
#
# PCOD9063503 Si02
#       7
#     2   2   2   2   2   2   2
#     4  12  22  42  72  99 138 177 234 289 345 404
#     4  11  24  44  69  99 138 179 237 283 343 410
#     4  12  25  43  70  99 140 186 226 280 350 414
#     4  11  25  44  69  99 135 187 227 284 351 406
#     4  11  26  46  66 100 144 178 228 289 351 417
#     4  11  25  44  69 101 140 182 230 293 338 410
#     4  12  24  41  71 104 134 182 238 287 344 412
#
# _framework density 21.217441999999998
#
# number of rings (size 3 to 8) (size 9 to 14) (size 15 to 20)
#    0.000    0.571    4.286    3.857    0.000    2.857 
#    0.000    0.000    0.000    0.000    0.000    0.000 
#    0.000    0.000    0.000    0.000    0.000    0.000 
#
# Total GULP energy -78216.605332 kJ/mol
# GULP energy per Si atom -5586.900381 kJ/mol
# Density = 2.116915 g / cm^3
# Si number density = 21.217442 Si / 1000 Ang^3
#
#
#
# Elastic Constant Matrix: (Units=GPa)
#
#
# Indices 1 2 3 4 5 6 
#
# 1 132.4887 39.4079 39.3730 11.7973 -4.8641 24.7781
# 2 39.4079 133.9178 11.9522 11.9680 -1.7026 11.7273
# 3 39.3730 11.9522 78.1600 20.6793 -18.7097 8.7699
# 4 11.7973 11.9680 20.6793 29.1071 -6.3264 -2.3800
# 5 -4.8641 -1.7026 -18.7097 -6.3264 37.5943 9.9043
# 6 24.7781 11.7273 8.7699 -2.3800 9.9043 34.6864
#
#
#
# Elastic Compliance Matrix: (Units=1/GPa)
#
#
# Indices 1 2 3 4 5 6 
#
# 1 0.010605 -0.002135 -0.003862 -0.001005 0.000812 -0.006178
# 2 -0.002135 0.008490 0.001043 -0.003404 0.000584 -0.002009
# 3 -0.003862 0.001043 0.020777 -0.012074 0.009542 -0.006400
# 4 -0.001005 -0.003404 -0.012074 0.045230 -0.000861 0.008271
# 5 0.000812 0.000584 0.009542 -0.000861 0.034810 -0.013188
# 6 -0.006178 -0.002009 -0.006400 0.008271 -0.013188 0.039874
#
#
# Mechanical properties :
#
#
# Convention : Reuss Voigt Hill
#
# Bulk Modulus (GPa) = 33.37353 58.44809 45.91081
# Shear Modulus (GPa) = 27.82671 37.19978 32.51325
#
# Velocity S-wave (km/s) = 3.62540 4.19174 3.91881
# Velocity P-wave (km/s) = 5.76958 7.14385 6.49318
#
# Compressibility (1/GPa) = 0.02996386
#
# Stress axis : x y z
#
# Youngs Moduli (GPa) = 94.29086 117.78545 48.12970
#
# Poissons Ratio (x) = 0.25146 0.18590
# Poissons Ratio (y) = 0.20130 -0.05020
# Poissons Ratio (z) = 0.36420 -0.12285
#
# Static dielectric constant tensor:
#      x y z
#    x 1.828540 -0.039110 -0.047240 
#    y -0.039110 1.822860 0.070840 
#    z -0.047240 0.070840 1.846170 
# 
# From -- ./inp_files/270424.got.cif
#   From: 2010.05.17/outbox.cif.g08.bks.cpg/sg2_136_cif.got.tgz:270424.got - 2010.06.03 11:33:40.
