data_PCOD9063201
_publ_section_title
;
Structure prediction by ZEFSAII (Michael W. Deem and Ramdas Pophale) SiO2 
 PCOD9063201
Probable space group: P -1
;
_chemical_formula_sum "Si O2"
_cell_formula_units_Z 15
_cell_length_a 11.618814
_cell_length_b 8.342005
_cell_length_c 8.200524
_cell_angle_alpha 125.782018
_cell_angle_beta 84.174481
_cell_angle_gamma 82.570382
_cell_volume 623.701180
_symmetry_space_group_name_H-M "P -1"
_symmetry_group_IT_number 2
_symmetry_cell_setting 'triclinic'
loop_
_space_group_symop_operation_xyz
x,y,z
-x,-y,-z
loop_
_atom_site_type_symbol
_atom_site_label
_atom_site_fract_x
_atom_site_fract_y
_atom_site_fract_z
Si Si1 0.262852 0.792459 0.112084
Si Si2 0.043704 0.656657 0.203091
Si Si3 0.427065 0.211535 0.706188
Si Si4 0.371377 0.994355 0.940607
Si Si5 0.584270 0.346933 0.518853
Si Si6 0.798635 0.787457 0.461459
Si Si7 0.500000 0.500000 0.000000
Si Si8 0.210890 0.424649 0.322767
O O1 0.132501 0.756312 0.143946
O O2 0.356576 0.602138 0.052568
O O3 0.266977 0.993521 0.332172
O O4 0.304739 0.840996 0.956375
O O5 0.110029 0.539548 0.282215
O O6 0.921571 0.801643 0.370124
O O7 0.000000 0.500000 0.000000
O O8 0.505048 0.367992 0.708652
O O9 0.295514 0.264354 0.684609
O O10 0.500000 0.000000 0.500000
O O11 0.461180 0.271342 0.913920
O O12 0.388732 0.881095 0.694564
O O13 0.500000 0.000000 0.000000
O O14 0.278847 0.210307 0.106293
O O15 0.500000 0.500000 0.500000
O O16 0.700530 0.426675 0.578108
O O17 0.821526 0.636793 0.525060
#
# Coordination Sequence:
#
# PCOD9063201 Si02
#       8
#     2   2   2   2   2   2   1   2
#     4  11  25  45  71 107 143 187 240 302 358 429
#     4  12  28  49  74 103 144 196 252 300 359 433
#     4  12  25  41  69 110 144 186 238 302 366 424
#     4  11  24  43  72 106 151 182 233 298 366 438
#     4  12  22  40  71 106 143 186 230 293 370 429
#     4  11  24  50  71 101 150 192 243 298 359 440
#     4  12  24  40  72 106 148 178 234 296 370 418
#     4  11  26  48  71 107 141 194 242 298 366 429
#
# _framework density 24.049979
#
# number of rings (size 3 to 8) (size 9 to 14) (size 15 to 20)
#    0.000    0.533    4.000    4.000    3.733    1.067 
#    2.400    1.333    0.000    0.000    0.000    0.000 
#    0.000    0.000    0.000    0.000    0.000    0.000 
#
# Total GULP energy -83787.125617 kJ/mol
# GULP energy per Si atom -5585.808374 kJ/mol
# Density = 2.399524 g / cm^3
# Si number density = 24.049979 Si / 1000 Ang^3
#
#
#
# Elastic Constant Matrix: (Units=GPa)
#
#
# Indices 1 2 3 4 5 6 
#
# 1 163.1387 37.6218 42.7007 -18.9221 6.9967 8.5629
# 2 37.6218 66.0389 19.2099 -21.8726 -2.5920 4.0106
# 3 42.7007 19.2099 113.6024 6.3584 6.9275 -0.5710
# 4 -18.9221 -21.8726 6.3584 49.5571 9.5535 -11.6282
# 5 6.9967 -2.5920 6.9275 9.5535 59.6901 -4.8425
# 6 8.5629 4.0106 -0.5710 -11.6282 -4.8425 45.9118
#
#
#
# Elastic Compliance Matrix: (Units=1/GPa)
#
#
# Indices 1 2 3 4 5 6 
#
# 1 0.007803 -0.003075 -0.002457 0.001961 -0.001145 -0.000841
# 2 -0.003075 0.020426 -0.002780 0.008350 0.000307 0.000902
# 3 -0.002457 -0.002780 0.010418 -0.003426 -0.000501 -0.000090
# 4 0.001961 0.008350 -0.003426 0.026950 -0.003350 0.005335
# 5 -0.001145 0.000307 -0.000501 -0.003350 0.017591 0.001187
# 6 -0.000841 0.000902 -0.000090 0.005335 0.001187 0.023334
#
#
# Mechanical properties :
#
#
# Convention : Reuss Voigt Hill
#
# Bulk Modulus (GPa) = 45.40638 60.20499 52.80568
# Shear Modulus (GPa) = 38.31812 47.24833 42.78322
#
# Velocity S-wave (km/s) = 3.99591 4.43718 4.22231
# Velocity P-wave (km/s) = 6.34119 7.16512 6.76571
#
# Compressibility (1/GPa) = 0.02202334
#
# Stress axis : x y z
#
# Youngs Moduli (GPa) = 128.16147 48.95758 95.98699
#
# Poissons Ratio (x) = 0.15054 0.23584
# Poissons Ratio (y) = 0.39408 0.26682
# Poissons Ratio (z) = 0.31490 0.13609
#
# Static dielectric constant tensor:
#      x y z
#    x 1.892240 0.113490 0.032130 
#    y 0.113490 2.125650 0.091370 
#    z 0.032130 0.091370 2.560940 
# 
# From -- ./inp_files/227678.got.cif
#   From: 2010.05.17/outbox.cif.g08.bks.cpg/sg2_114_cif.got.tgz:227678.got - 2010.06.03 11:33:40.
