data_PCOD9063482
_publ_section_title
;
Structure prediction by ZEFSAII (Michael W. Deem and Ramdas Pophale) SiO2 
 PCOD9063482
Probable space group: P -1
;
_chemical_formula_sum "Si O2"
_cell_formula_units_Z 14
_cell_length_a 9.902837
_cell_length_b 12.598444
_cell_length_c 16.239962
_cell_angle_alpha 151.449771
_cell_angle_beta 57.087690
_cell_angle_gamma 135.426933
_cell_volume 658.779701
_symmetry_space_group_name_H-M "P -1"
_symmetry_group_IT_number 2
_symmetry_cell_setting 'triclinic'
loop_
_space_group_symop_operation_xyz
x,y,z
-x,-y,-z
loop_
_atom_site_type_symbol
_atom_site_label
_atom_site_fract_x
_atom_site_fract_y
_atom_site_fract_z
Si Si1 0.953699 0.393696 0.070610
Si Si2 0.582147 0.244964 0.990845
Si Si3 0.479912 0.690086 0.575812
Si Si4 0.193242 0.011171 0.463140
Si Si5 0.177715 0.197510 0.775150
Si Si6 0.064034 0.325549 0.399255
Si Si7 0.852807 0.969745 0.956528
O O1 0.756893 0.365144 0.084254
O O2 0.124757 0.710251 0.251296
O O3 0.006635 0.250131 0.884730
O O4 0.928643 0.232763 0.053009
O O5 0.640457 0.483807 0.068893
O O6 0.364858 0.134903 0.016366
O O7 0.566194 0.985953 0.784898
O O8 0.500000 0.500000 0.500000
O O9 0.610613 0.761373 0.498020
O O10 0.242465 0.524669 0.536865
O O11 0.210234 0.080479 0.601595
O O12 0.000000 0.000000 0.500000
O O13 0.118693 0.963883 0.701519
O O14 0.166020 0.252906 0.249191
O O15 0.000000 0.500000 0.500000
O O16 0.000000 0.000000 0.000000
#
# Coordination Sequence:
#
# PCOD9063482 Si02
#       7
#     2   2   2   2   2   2   2
#     4  11  24  44  69 106 141 179 229 292 341 412
#     4  12  23  44  72 102 140 179 229 290 346 413
#     4  12  26  43  72 108 141 183 232 285 350 412
#     4  12  23  39  71 103 144 179 229 283 352 404
#     4  11  24  45  69 104 143 179 231 290 347 409
#     4  11  26  49  68 100 140 184 234 291 342 419
#     4  11  26  46  68 100 139 186 232 281 357 410
#
# _framework density 21.251415000000001
#
# number of rings (size 3 to 8) (size 9 to 14) (size 15 to 20)
#    0.000    0.571    2.857    6.000    6.000    0.000 
#    2.571    3.571    0.000    0.000    0.000    0.000 
#    0.000    0.000    0.000    0.000    0.000    0.000 
#
# Total GULP energy -78039.118111 kJ/mol
# GULP energy per Si atom -5574.222722 kJ/mol
# Density = 2.120305 g / cm^3
# Si number density = 21.251415 Si / 1000 Ang^3
#
#
#
# Elastic Constant Matrix: (Units=GPa)
#
#
# Indices 1 2 3 4 5 6 
#
# 1 79.7277 61.7571 23.4514 14.7699 -17.3820 -16.7283
# 2 61.7571 162.1768 59.4201 7.9633 -25.0775 -3.0625
# 3 23.4514 59.4201 126.9061 17.2737 -16.4999 -11.5217
# 4 14.7699 7.9633 17.2737 47.0511 -1.2053 -9.6016
# 5 -17.3820 -25.0775 -16.4999 -1.2053 33.5612 3.5778
# 6 -16.7283 -3.0625 -11.5217 -9.6016 3.5778 14.7932
#
#
#
# Elastic Compliance Matrix: (Units=1/GPa)
#
#
# Indices 1 2 3 4 5 6 
#
# 1 0.026598 -0.009911 0.003175 -0.001993 0.004871 0.028026
# 2 -0.009911 0.011776 -0.004510 0.000231 0.002823 -0.012816
# 3 0.003175 -0.004510 0.010873 -0.002324 0.002577 0.008993
# 4 -0.001993 0.000231 -0.002324 0.025281 -0.002479 0.012992
# 5 0.004871 0.002823 0.002577 -0.002479 0.035839 -0.002177
# 6 0.028026 -0.012816 0.008993 0.012992 -0.002177 0.112602
#
#
# Mechanical properties :
#
#
# Convention : Reuss Voigt Hill
#
# Bulk Modulus (GPa) = 37.37879 73.11865 55.24872
# Shear Modulus (GPa) = 19.65569 34.02658 26.84113
#
# Velocity S-wave (km/s) = 3.04454 4.00577 3.55777
# Velocity P-wave (km/s) = 5.47594 7.47503 6.55218
#
# Compressibility (1/GPa) = 0.02675314
#
# Stress axis : x y z
#
# Youngs Moduli (GPa) = 37.59705 84.91830 91.97255
#
# Poissons Ratio (x) = 0.84165 -0.29199
# Poissons Ratio (y) = 0.37264 0.41481
# Poissons Ratio (z) = -0.11936 0.38300
#
# Static dielectric constant tensor:
#      x y z
#    x 1.262830 -0.211780 0.008330 
#    y -0.211780 1.747200 -0.062660 
#    z 0.008330 -0.062660 1.821390 
# 
# From -- ./inp_files/462416.got.cif
#   From: 2010.05.17/outbox.cif.g08.bks.cpg/sg2_232_cif.got.tgz:462416.got - 2010.06.03 11:33:40.
