data_PCOD9063289
_publ_section_title
;
Structure prediction by ZEFSAII (Michael W. Deem and Ramdas Pophale) SiO2 
 PCOD9063289
Probable space group: P -1
;
_chemical_formula_sum "Si O2"
_cell_formula_units_Z 16
_cell_length_a 12.056256
_cell_length_b 14.261447
_cell_length_c 14.462709
_cell_angle_alpha 43.393311
_cell_angle_beta 117.507697
_cell_angle_gamma 151.584156
_cell_volume 683.122235
_symmetry_space_group_name_H-M "P -1"
_symmetry_group_IT_number 2
_symmetry_cell_setting 'triclinic'
loop_
_space_group_symop_operation_xyz
x,y,z
-x,-y,-z
loop_
_atom_site_type_symbol
_atom_site_label
_atom_site_fract_x
_atom_site_fract_y
_atom_site_fract_z
Si Si1 0.909977 0.658341 0.047686
Si Si2 0.190025 0.401057 0.615208
Si Si3 0.268528 0.855181 0.914960
Si Si4 0.882977 0.524255 0.650678
Si Si5 0.914724 0.619391 0.791919
Si Si6 0.253085 0.659884 0.616093
Si Si7 0.584676 0.653319 0.203555
Si Si8 0.392628 0.280132 0.046644
O O1 0.780406 0.497576 0.212167
O O2 0.653924 0.433384 0.041942
O O3 0.076135 0.693644 0.044870
O O4 0.146714 0.004578 0.897241
O O5 0.139432 0.381147 0.502615
O O6 0.270283 0.612582 0.555108
O O7 0.407004 0.489497 0.649029
O O8 0.892541 0.063583 0.783626
O O9 0.162393 0.853533 0.794217
O O10 0.580127 0.198538 0.806275
O O11 0.247837 0.673617 0.021510
O O12 0.038656 0.717344 0.666294
O O13 0.991029 0.500775 0.650429
O O14 0.699033 0.535197 0.762484
O O15 0.500000 0.000000 0.500000
O O16 0.640879 0.696596 0.085147
O O17 0.500000 0.500000 0.000000
#
# Coordination Sequence:
#
# PCOD9063289 Si02
#       8
#     2   2   2   2   2   2   2   2
#     4  12  22  44  77 104 138 184 247 296 354 416
#     4  12  28  46  69 105 154 189 231 292 354 438
#     4  11  24  44  71 105 133 186 242 302 347 414
#     4  12  26  45  70 103 144 188 234 292 361 416
#     4  11  24  43  75 101 139 183 244 301 347 415
#     4  12  27  47  73 106 147 190 233 295 360 425
#     4  12  24  46  71 107 140 186 242 296 353 417
#     4  12  24  44  72 104 142 190 235 288 352 425
#
# _framework density 23.421869999999998
#
# number of rings (size 3 to 8) (size 9 to 14) (size 15 to 20)
#    0.000    0.250    6.250    3.375    1.750    0.500 
#    0.000    0.625    0.000    0.000    0.000    0.000 
#    0.000    0.000    0.000    0.000    0.000    0.000 
#
# Total GULP energy -89460.985542 kJ/mol
# GULP energy per Si atom -5591.311596 kJ/mol
# Density = 2.336856 g / cm^3
# Si number density = 23.421870 Si / 1000 Ang^3
#
#
#
# Elastic Constant Matrix: (Units=GPa)
#
#
# Indices 1 2 3 4 5 6 
#
# 1 113.7128 36.0360 18.7305 3.6580 7.0541 10.5435
# 2 36.0360 105.1670 17.1660 16.2650 4.7601 7.1087
# 3 18.7305 17.1660 48.1595 23.7686 2.3044 -0.0778
# 4 3.6580 16.2650 23.7686 48.3438 -1.6397 3.0822
# 5 7.0541 4.7601 2.3044 -1.6397 22.3451 7.2724
# 6 10.5435 7.1087 -0.0778 3.0822 7.2724 45.6990
#
#
#
# Elastic Compliance Matrix: (Units=1/GPa)
#
#
# Indices 1 2 3 4 5 6 
#
# 1 0.010662 -0.003149 -0.004115 0.002347 -0.001480 -0.001900
# 2 -0.003149 0.011359 -0.001311 -0.002942 -0.001299 -0.000637
# 3 -0.004115 -0.001311 0.030071 -0.014323 -0.003460 0.002721
# 4 0.002347 -0.002942 -0.014323 0.028863 0.004376 -0.002751
# 5 -0.001480 -0.001299 -0.003460 0.004376 0.048613 -0.007494
# 6 -0.001900 -0.000637 0.002721 -0.002751 -0.007494 0.023803
#
#
# Mechanical properties :
#
#
# Convention : Reuss Voigt Hill
#
# Bulk Modulus (GPa) = 28.61861 45.65606 37.13734
# Shear Modulus (GPa) = 27.44719 36.28468 31.86594
#
# Velocity S-wave (km/s) = 3.42696 3.94023 3.69253
# Velocity P-wave (km/s) = 5.28243 6.34317 5.83694
#
# Compressibility (1/GPa) = 0.03494230
#
# Stress axis : x y z
#
# Youngs Moduli (GPa) = 93.78740 88.03827 33.25497
#
# Poissons Ratio (x) = 0.27727 0.13684
# Poissons Ratio (y) = 0.29538 0.04358
# Poissons Ratio (z) = 0.38592 0.11538
#
# Static dielectric constant tensor:
#      x y z
#    x 2.004730 0.022990 0.004140 
#    y 0.022990 1.927650 0.037100 
#    z 0.004140 0.037100 1.897780 
# 
# From -- ./inp_files/522286.got.cif
#   From: 2010.05.17/outbox.cif.g08.bks.cpg/sg2_262_cif.got.tgz:522286.got - 2010.06.03 11:33:40.
