data_PCOD9063055
_publ_section_title
;
Structure prediction by ZEFSAII (Michael W. Deem and Ramdas Pophale) SiO2 
 PCOD9063055
Probable space group: P -1
;
_chemical_formula_sum "Si O2"
_cell_formula_units_Z 16
_cell_length_a 13.251560
_cell_length_b 22.643670
_cell_length_c 22.737351
_cell_angle_alpha 12.421133
_cell_angle_beta 149.641362
_cell_angle_gamma 149.557420
_cell_volume 729.727582
_symmetry_space_group_name_H-M "P -1"
_symmetry_group_IT_number 2
_symmetry_cell_setting 'triclinic'
loop_
_space_group_symop_operation_xyz
x,y,z
-x,-y,-z
loop_
_atom_site_type_symbol
_atom_site_label
_atom_site_fract_x
_atom_site_fract_y
_atom_site_fract_z
Si Si1 0.653394 0.411794 0.614916
Si Si2 0.282120 0.692232 0.838688
Si Si3 0.246738 0.204282 0.039741
Si Si4 0.810112 0.365581 0.496666
Si Si5 0.952324 0.887743 0.740271
Si Si6 0.366033 0.087986 0.686740
Si Si7 0.060546 0.017657 0.797014
Si Si8 0.592121 0.456104 0.827075
O O1 0.500000 0.500000 0.500000
O O2 0.526859 0.267149 0.636918
O O3 0.810043 0.685724 0.408504
O O4 0.781302 0.195702 0.917241
O O5 0.511647 0.728865 0.894726
O O6 0.199890 0.974382 0.510824
O O7 0.135105 0.438423 0.980639
O O8 0.288448 0.609962 0.990498
O O9 0.206818 0.960676 0.207213
O O10 0.179692 0.476865 0.713884
O O11 0.116147 0.096532 0.135246
O O12 0.608285 0.433816 0.359335
O O13 0.000000 0.500000 0.500000
O O14 0.170956 0.946631 0.762821
O O15 0.971572 0.030258 0.674973
O O16 0.301894 0.300489 0.399692
O O17 0.455786 0.837192 0.945913
#
# Coordination Sequence:
#
# PCOD9063055 Si02
#       8
#     2   2   2   2   2   2   2   2
#     4  12  26  46  70  99 149 179 216 293 338 402
#     4  11  25  47  69  95 143 177 230 292 331 387
#     4  11  25  46  68 102 137 178 226 285 339 401
#     4  11  24  43  69  98 140 180 227 276 338 407
#     4  12  26  44  72  99 133 186 232 282 336 402
#     4  12  26  42  71 104 137 180 230 271 350 412
#     4  12  27  45  72 106 136 180 233 274 348 412
#     4  11  25  44  68 102 139 179 226 282 339 408
#
# _framework density 21.925989999999999
#
# number of rings (size 3 to 8) (size 9 to 14) (size 15 to 20)
#    0.000    0.500    1.250    7.500    7.000    4.000 
#    0.000    0.000    0.000    0.000    0.000    0.000 
#    0.000    0.000    0.000    0.000    0.000    0.000 
#
# Total GULP energy -89649.249844 kJ/mol
# GULP energy per Si atom -5603.078115 kJ/mol
# Density = 2.187609 g / cm^3
# Si number density = 21.925990 Si / 1000 Ang^3
#
#
#
# Elastic Constant Matrix: (Units=GPa)
#
#
# Indices 1 2 3 4 5 6 
#
# 1 95.3106 34.5223 -1.5409 -6.8552 -3.2301 8.6145
# 2 34.5223 78.6010 -2.5758 -18.1756 -9.0108 -1.6185
# 3 -1.5409 -2.5758 71.7111 -16.2722 -0.8504 1.2161
# 4 -6.8552 -18.1756 -16.2722 18.4445 -14.0443 -28.0371
# 5 -3.2301 -9.0108 -0.8504 -14.0443 23.2318 -29.7743
# 6 8.6145 -1.6185 1.2161 -28.0371 -29.7743 -8.8539
#
#
#
# Elastic Compliance Matrix: (Units=1/GPa)
#
#
# Indices 1 2 3 4 5 6 
#
# 1 0.012398 -0.004709 0.000621 0.002244 0.001665 0.000303
# 2 -0.004709 0.014926 0.000997 0.002088 -0.002115 -0.006670
# 3 0.000621 0.000997 0.015188 0.005010 -0.002460 -0.005085
# 4 0.002244 0.002088 0.005010 0.020655 -0.012588 -0.020583
# 5 0.001665 -0.002115 -0.002460 -0.012588 0.016570 -0.014190
# 6 0.000303 -0.006670 -0.005085 -0.020583 -0.014190 0.000768
#
#
# Mechanical properties :
#
#
# Convention : Reuss Voigt Hill
#
# Bulk Modulus (GPa) = 27.52553 34.04823 30.78688
# Shear Modulus (GPa) = 50.60879 20.91228 35.76054
#
# Velocity S-wave (km/s) = 4.80955 3.09166 4.04290
# Velocity P-wave (km/s) = 6.58965 5.32042 5.98875
#
# Compressibility (1/GPa) = 0.03632991
#
# Stress axis : x y z
#
# Youngs Moduli (GPa) = 80.65731 66.99603 65.84217
#
# Poissons Ratio (x) = 0.31548 -0.04089
# Poissons Ratio (y) = 0.37981 -0.06563
# Poissons Ratio (z) = -0.05010 -0.06678
#
# Static dielectric constant tensor:
#      x y z
#    x 1.815340 0.195130 -0.016330 
#    y 0.195130 3.812900 -0.037860 
#    z -0.016330 -0.037860 1.769500 
# 
# From -- ./inp_files/612391.got.cif
#   From: 2010.05.17/outbox.cif.g08.bks.cpg/sg2_307_cif.got.tgz:612391.got - 2010.06.03 11:33:40.
