data_PCOD9063976
_publ_section_title
;
Structure prediction by ZEFSAII (Michael W. Deem and Ramdas Pophale) SiO2 
 PCOD9063976
Probable space group: P -1
;
_chemical_formula_sum "Si O2"
_cell_formula_units_Z 16
_cell_length_a 11.207993
_cell_length_b 11.805131
_cell_length_c 5.449197
_cell_angle_alpha 74.135214
_cell_angle_beta 110.255843
_cell_angle_gamma 102.978937
_cell_volume 643.858315
_symmetry_space_group_name_H-M "P -1"
_symmetry_group_IT_number 2
_symmetry_cell_setting 'triclinic'
loop_
_space_group_symop_operation_xyz
x,y,z
-x,-y,-z
loop_
_atom_site_type_symbol
_atom_site_label
_atom_site_fract_x
_atom_site_fract_y
_atom_site_fract_z
Si Si1 0.729530 0.195874 0.044238
Si Si2 0.326948 0.454677 0.688864
Si Si3 0.938031 0.628798 0.182692
Si Si4 0.838331 0.445004 0.809964
Si Si5 0.495980 0.878912 0.414941
Si Si6 0.891130 0.888481 0.947463
Si Si7 0.477841 0.688765 0.892920
Si Si8 0.755627 0.939934 0.313919
O O1 0.820906 0.320217 0.012579
O O2 0.649705 0.159142 0.760076
O O3 0.616210 0.225928 0.119206
O O4 0.791045 0.083439 0.242642
O O5 0.184985 0.400724 0.712062
O O6 0.299909 0.519763 0.379731
O O7 0.391479 0.565007 0.831748
O O8 0.416220 0.352770 0.827401
O O9 0.076731 0.586288 0.345933
O O10 0.898824 0.556199 0.947900
O O11 0.953999 0.768714 0.073113
O O12 0.536435 0.765840 0.657376
O O13 0.602472 0.911319 0.260492
O O14 0.500000 0.000000 0.500000
O O15 0.822458 0.896550 0.630618
O O16 0.797542 0.890221 0.114971
O O17 0.000000 0.000000 0.000000
#
# Coordination Sequence:
#
# PCOD9063976 Si02
#       8
#     2   2   2   2   2   2   2   2
#     4  12  25  45  73 106 150 197 249 309 381 456
#     4  11  24  45  68 107 143 195 243 313 378 453
#     4  11  26  47  75 105 146 192 262 312 378 455
#     4  11  25  48  74 107 141 200 252 317 381 446
#     4  12  25  45  70 109 150 199 251 308 377 460
#     4  12  29  53  77 115 154 203 253 321 383 452
#     4  11  25  42  71 106 152 190 245 306 382 453
#     4  12  28  48  80 111 155 203 258 311 381 461
#
# _framework density 24.850189
#
# number of rings (size 3 to 8) (size 9 to 14) (size 15 to 20)
#    0.000    0.500    3.750    3.375    5.250    2.500 
#    2.250    0.000    0.000    0.000    0.000    0.000 
#    0.000    0.000    0.000    0.000    0.000    0.000 
#
# Total GULP energy -89538.367400 kJ/mol
# GULP energy per Si atom -5596.147962 kJ/mol
# Density = 2.479363 g / cm^3
# Si number density = 24.850189 Si / 1000 Ang^3
#
#
#
# Elastic Constant Matrix: (Units=GPa)
#
#
# Indices 1 2 3 4 5 6 
#
# 1 68.9837 15.2514 14.6839 -8.7753 -15.1702 0.0749
# 2 15.2514 148.6255 19.2263 -20.3911 -3.9588 1.2341
# 3 14.6839 19.2263 77.3840 -11.8442 3.0502 -14.9816
# 4 -8.7753 -20.3911 -11.8442 40.4224 -0.4669 0.4916
# 5 -15.1702 -3.9588 3.0502 -0.4669 38.2018 -2.4406
# 6 0.0749 1.2341 -14.9816 0.4916 -2.4406 47.4600
#
#
#
# Elastic Compliance Matrix: (Units=1/GPa)
#
#
# Indices 1 2 3 4 5 6 
#
# 1 0.017186 -0.000832 -0.003071 0.002500 0.006973 -0.000642
# 2 -0.000832 0.007446 -0.001345 0.003195 0.000548 -0.000622
# 3 -0.003071 -0.001345 0.015311 0.003058 -0.002242 0.004726
# 4 0.002500 0.003195 0.003058 0.027798 0.001462 0.000665
# 5 0.006973 0.000548 -0.002242 0.001462 0.029248 0.000756
# 6 -0.000642 -0.000622 0.004726 0.000665 0.000756 0.022611
#
#
# Mechanical properties :
#
#
# Convention : Reuss Voigt Hill
#
# Bulk Modulus (GPa) = 33.96014 43.70185 38.83099
# Shear Modulus (GPa) = 35.73689 41.60560 38.67124
#
# Velocity S-wave (km/s) = 3.79633 4.09621 3.94912
# Velocity P-wave (km/s) = 5.73688 6.32425 6.03771
#
# Compressibility (1/GPa) = 0.02944629
#
# Stress axis : x y z
#
# Youngs Moduli (GPa) = 58.18689 134.30327 65.31354
#
# Poissons Ratio (x) = 0.11178 0.20057
# Poissons Ratio (y) = 0.04843 0.08784
# Poissons Ratio (z) = 0.17869 0.18063
#
# Static dielectric constant tensor:
#      x y z
#    x 2.089380 0.048600 -0.043330 
#    y 0.048600 1.909510 0.020970 
#    z -0.043330 0.020970 2.074960 
# 
# From -- ./inp_files/69356.got.cif
#   From: 2010.05.17/outbox.cif.g08.bks.cpg/sg2_35_cif.got.tgz:69356.got - 2010.06.03 11:33:40.
