data_PCOD9063518
_publ_section_title
;
Structure prediction by ZEFSAII (Michael W. Deem and Ramdas Pophale) SiO2 
 PCOD9063518
Probable space group: P -1
;
_chemical_formula_sum "Si O2"
_cell_formula_units_Z 16
_cell_length_a 8.807322
_cell_length_b 12.613707
_cell_length_c 15.992994
_cell_angle_alpha 67.300001
_cell_angle_beta 132.967295
_cell_angle_gamma 75.427595
_cell_volume 776.207511
_symmetry_space_group_name_H-M "P -1"
_symmetry_group_IT_number 2
_symmetry_cell_setting 'triclinic'
loop_
_space_group_symop_operation_xyz
x,y,z
-x,-y,-z
loop_
_atom_site_type_symbol
_atom_site_label
_atom_site_fract_x
_atom_site_fract_y
_atom_site_fract_z
Si Si1 0.592651 0.064973 0.427400
Si Si2 0.343509 0.351041 0.127505
Si Si3 0.717387 0.756610 0.573071
Si Si4 0.374435 0.352348 0.705457
Si Si5 0.591346 0.495064 0.172276
Si Si6 0.318355 0.960794 0.965488
Si Si7 0.587886 0.331490 0.608809
Si Si8 0.296069 0.790150 0.857344
O O1 0.531900 0.163922 0.292785
O O2 0.348049 0.215179 0.360836
O O3 0.536022 0.953624 0.422694
O O4 0.953819 0.932495 0.638496
O O5 0.522686 0.394237 0.201179
O O6 0.403617 0.319697 0.059675
O O7 0.000000 0.500000 0.000000
O O8 0.595287 0.689482 0.507523
O O9 0.069850 0.629247 0.708081
O O10 0.419348 0.426111 0.772459
O O11 0.523690 0.332115 0.681490
O O12 0.000000 0.500000 0.500000
O O13 0.523752 0.173544 0.856035
O O14 0.334310 0.653624 0.962092
O O15 0.315427 0.877792 0.909516
O O16 0.958311 0.150015 0.789522
O O17 0.500000 0.000000 0.000000
O O18 0.500000 0.500000 0.500000
#
# Coordination Sequence:
#
# PCOD9063518 Si02
#       8
#     2   2   2   2   2   2   2   2
#     4  11  25  43  72 101 134 180 227 281 344 404
#     4  12  27  42  68 105 138 176 230 280 337 412
#     4  11  24  44  72  96 138 176 227 276 352 401
#     4  11  24  44  70 101 136 181 234 282 351 411
#     4  11  25  43  69  97 140 178 219 283 345 406
#     4  11  26  45  69 100 141 183 230 292 344 417
#     4  12  26  45  72 101 137 183 235 292 348 411
#     4  11  24  45  67  99 137 182 224 275 351 404
#
# _framework density 20.613043000000001
#
# number of rings (size 3 to 8) (size 9 to 14) (size 15 to 20)
#    0.000    0.750    3.750    2.625    7.000    3.000 
#    0.000    0.000    0.000    0.000    0.000    0.000 
#    0.000    0.000    0.000    0.000    0.000    0.000 
#
# Total GULP energy -89408.622444 kJ/mol
# GULP energy per Si atom -5588.038903 kJ/mol
# Density = 2.056613 g / cm^3
# Si number density = 20.613043 Si / 1000 Ang^3
#
#
#
# Elastic Constant Matrix: (Units=GPa)
#
#
# Indices 1 2 3 4 5 6 
#
# 1 136.5232 69.0749 33.3701 -2.3992 0.6407 4.1735
# 2 69.0749 138.1346 39.9615 -7.8098 -10.7789 3.0192
# 3 33.3701 39.9615 74.6359 -4.4658 -3.9126 13.0107
# 4 -2.3992 -7.8098 -4.4658 21.0831 -0.8077 -0.2465
# 5 0.6407 -10.7789 -3.9126 -0.8077 54.4316 -10.6276
# 6 4.1735 3.0192 13.0107 -0.2465 -10.6276 47.2260
#
#
#
# Elastic Compliance Matrix: (Units=1/GPa)
#
#
# Indices 1 2 3 4 5 6 
#
# 1 0.010187 -0.004622 -0.002157 -0.001062 -0.001265 -0.000301
# 2 -0.004622 0.010934 -0.003719 0.002837 0.002239 0.001253
# 3 -0.002157 -0.003719 0.017218 0.001961 -0.000298 -0.004372
# 4 -0.001062 0.002837 0.001961 0.048831 0.001430 -0.000051
# 5 -0.001265 0.002239 -0.000298 0.001430 0.019707 0.004493
# 6 -0.000301 0.001253 -0.004372 -0.000051 0.004493 0.023337
#
#
# Mechanical properties :
#
#
# Convention : Reuss Voigt Hill
#
# Bulk Modulus (GPa) = 57.66255 70.45632 64.05943
# Shear Modulus (GPa) = 31.84869 38.34060 35.09464
#
# Velocity S-wave (km/s) = 3.93501 4.31747 4.13067
# Velocity P-wave (km/s) = 6.97712 7.68822 7.34129
#
# Compressibility (1/GPa) = 0.01734228
#
# Stress axis : x y z
#
# Youngs Moduli (GPa) = 98.16252 91.45521 58.07849
#
# Poissons Ratio (x) = 0.42272 0.12530
# Poissons Ratio (y) = 0.45373 0.21600
# Poissons Ratio (z) = 0.21177 0.34013
#
# Static dielectric constant tensor:
#      x y z
#    x 1.614440 -0.001270 -0.039020 
#    y -0.001270 1.726300 -0.010990 
#    z -0.039020 -0.010990 1.748530 
# 
# From -- ./inp_files/299552.got.cif
#   From: 2010.05.17/outbox.cif.g08.bks.cpg/sg2_150_cif.got.tgz:299552.got - 2010.06.03 11:33:40.
