data_PCOD9063978
_publ_section_title
;
Structure prediction by ZEFSAII (Michael W. Deem and Ramdas Pophale) SiO2 
 PCOD9063978
Probable space group: P -1
;
_chemical_formula_sum "Si O2"
_cell_formula_units_Z 12
_cell_length_a 4.772234
_cell_length_b 11.798582
_cell_length_c 14.425673
_cell_angle_alpha 143.309761
_cell_angle_beta 101.129803
_cell_angle_gamma 86.657562
_cell_volume 469.686990
_symmetry_space_group_name_H-M "P -1"
_symmetry_group_IT_number 2
_symmetry_cell_setting 'triclinic'
loop_
_space_group_symop_operation_xyz
x,y,z
-x,-y,-z
loop_
_atom_site_type_symbol
_atom_site_label
_atom_site_fract_x
_atom_site_fract_y
_atom_site_fract_z
Si Si1 0.771661 0.316595 0.907303
Si Si2 0.275232 0.076751 0.266847
Si Si3 0.699883 0.855441 0.381957
Si Si4 0.725212 0.986027 0.086083
Si Si5 0.054075 0.620154 0.837780
Si Si6 0.564745 0.587672 0.364387
O O1 0.853127 0.099296 0.785331
O O2 0.472700 0.260405 0.792599
O O3 0.000000 0.500000 0.000000
O O4 0.762675 0.376187 0.053236
O O5 0.397743 0.270471 0.454612
O O6 0.525491 0.999935 0.173337
O O7 0.018883 0.131230 0.222320
O O8 0.714704 0.703843 0.363501
O O9 0.500000 0.000000 0.500000
O O10 0.000000 0.000000 0.500000
O O11 0.891366 0.805777 0.956019
O O12 0.500000 0.000000 0.000000
O O13 0.770992 0.460814 0.711215
O O14 0.266318 0.594381 0.748990
#
# Coordination Sequence:
#
# PCOD9063978 Si02
#       6
#     2   2   2   2   2   2
#     4  11  24  45  68 108 149 202 245 289 348 432
#     4  11  25  44  75 104 143 191 241 297 368 436
#     4  12  26  42  67 101 151 204 246 284 350 433
#     4  11  25  51  75 102 137 187 244 308 371 440
#     4  11  25  44  71 104 143 190 242 302 354 428
#     4  12  24  44  66 107 150 185 238 301 357 425
#
# _framework density 25.548931
#
# number of rings (size 3 to 8) (size 9 to 14) (size 15 to 20)
#    0.000    0.667    3.333    4.500    2.333    2.000 
#    0.000    5.000    0.000    0.000    0.000    0.000 
#    0.000    0.000    0.000    0.000    0.000    0.000 
#
# Total GULP energy -66907.151635 kJ/mol
# GULP energy per Si atom -5575.595970 kJ/mol
# Density = 2.549078 g / cm^3
# Si number density = 25.548931 Si / 1000 Ang^3
#
#
#
# Elastic Constant Matrix: (Units=GPa)
#
#
# Indices 1 2 3 4 5 6 
#
# 1 196.8198 27.4837 90.0724 -6.6557 5.5982 -17.8403
# 2 27.4837 60.2126 48.4953 -11.4657 -5.8548 -27.5937
# 3 90.0724 48.4953 218.9558 -18.7902 16.2438 1.8212
# 4 -6.6557 -11.4657 -18.7902 28.7220 -10.1098 5.4211
# 5 5.5982 -5.8548 16.2438 -10.1098 65.7148 4.5482
# 6 -17.8403 -27.5937 1.8212 5.4211 4.5482 38.4569
#
#
#
# Elastic Compliance Matrix: (Units=1/GPa)
#
#
# Indices 1 2 3 4 5 6 
#
# 1 0.006705 0.001267 -0.003139 -0.000844 -0.000110 0.004300
# 2 0.001267 0.036235 -0.008583 0.005838 0.004364 0.025654
# 3 -0.003139 -0.008583 0.008129 0.002125 -0.001619 -0.008107
# 4 -0.000844 0.005838 0.002125 0.041214 0.006608 -0.002895
# 5 -0.000110 0.004364 -0.001619 0.006608 0.017017 0.000213
# 6 0.004300 0.025654 -0.008107 -0.002895 0.000213 0.047172
#
#
# Mechanical properties :
#
#
# Convention : Reuss Voigt Hill
#
# Bulk Modulus (GPa) = 33.15763 89.78788 61.47275
# Shear Modulus (GPa) = 26.67601 47.24120 36.95860
#
# Velocity S-wave (km/s) = 3.23478 4.30472 3.80752
# Velocity P-wave (km/s) = 5.19211 7.74127 6.59110
#
# Compressibility (1/GPa) = 0.03015897
#
# Stress axis : x y z
#
# Youngs Moduli (GPa) = 149.15049 27.59781 123.01426
#
# Poissons Ratio (x) = -0.03496 0.38611
# Poissons Ratio (y) = -0.18892 1.05579
# Poissons Ratio (z) = 0.46814 0.23686
#
# Static dielectric constant tensor:
#      x y z
#    x 2.260820 -0.068200 0.006290 
#    y -0.068200 2.250550 0.112580 
#    z 0.006290 0.112580 2.147290 
# 
# From -- ./inp_files/483136.got.cif
#   From: 2010.05.17/outbox.cif.g08.bks.cpg/sg2_242_cif.got.tgz:483136.got - 2010.06.03 11:33:40.
