data_PCOD9063115
_publ_section_title
;
Structure prediction by ZEFSAII (Michael W. Deem and Ramdas Pophale) SiO2 
 PCOD9063115
Probable space group: P -1
;
_chemical_formula_sum "Si O2"
_cell_formula_units_Z 14
_cell_length_a 20.141644
_cell_length_b 8.619925
_cell_length_c 5.559128
_cell_angle_alpha 71.184867
_cell_angle_beta 73.989138
_cell_angle_gamma 42.265550
_cell_volume 613.409569
_symmetry_space_group_name_H-M "P -1"
_symmetry_group_IT_number 2
_symmetry_cell_setting 'triclinic'
loop_
_space_group_symop_operation_xyz
x,y,z
-x,-y,-z
loop_
_atom_site_type_symbol
_atom_site_label
_atom_site_fract_x
_atom_site_fract_y
_atom_site_fract_z
Si Si1 0.265205 0.878164 0.383147
Si Si2 0.917222 0.357739 0.267028
Si Si3 0.875049 0.114513 0.720404
Si Si4 0.417275 0.357605 0.541261
Si Si5 0.234897 0.121616 0.791688
Si Si6 0.750035 0.499850 0.019849
Si Si7 0.624993 0.885325 0.584941
O O1 0.182212 0.876077 0.444303
O O2 0.372387 0.609038 0.394798
O O3 0.253001 0.986805 0.597568
O O4 0.247080 0.013016 0.090395
O O5 0.909426 0.239391 0.551468
O O6 0.872273 0.609236 0.251727
O O7 0.841313 0.415451 0.119431
O O8 0.029946 0.153421 0.171916
O O9 0.794297 0.280291 0.921590
O O10 0.341379 0.415400 0.782914
O O11 0.409369 0.239526 0.390672
O O12 0.530026 0.153092 0.615231
O O13 0.317930 0.123568 0.684974
O O14 0.705890 0.719179 0.790194
#
# Coordination Sequence:
#
# PCOD9063115 Si02
#       7
#     2   2   2   2   2   2   2
#     4  12  26  46  69 101 152 190 222 286 354 424
#     4  11  24  43  71 101 132 183 241 292 344 411
#     4  11  24  43  71 101 132 183 241 292 344 411
#     4  11  24  43  71 101 132 183 241 292 344 411
#     4  12  26  46  69 101 152 190 222 286 354 424
#     4  12  18  44  72 102 132 174 232 310 338 404
#     4  11  24  43  71 101 132 183 241 292 344 411
#
# _framework density 22.823248
#
# number of rings (size 3 to 8) (size 9 to 14) (size 15 to 20)
#    0.000    0.571    5.714    2.571    0.000    2.286 
#    0.000    0.000    0.000    0.000    0.000    0.000 
#    0.000    0.000    0.000    0.000    0.000    0.000 
#
# Total GULP energy -78279.362594 kJ/mol
# GULP energy per Si atom -5591.383042 kJ/mol
# Density = 2.277130 g / cm^3
# Si number density = 22.823248 Si / 1000 Ang^3
#
#
#
# Elastic Constant Matrix: (Units=GPa)
#
#
# Indices 1 2 3 4 5 6 
#
# 1 42.3664 40.1798 7.5155 3.2163 11.6192 2.0745
# 2 40.1798 226.9964 62.8749 -32.8156 23.2781 -18.6166
# 3 7.5155 62.8749 106.6990 -12.6957 -1.0931 2.5132
# 4 3.2163 -32.8156 -12.6957 23.2921 8.7774 3.7051
# 5 11.6192 23.2781 -1.0931 8.7774 25.6263 3.0428
# 6 2.0745 -18.6166 2.5132 3.7051 3.0428 44.9149
#
#
#
# Elastic Compliance Matrix: (Units=1/GPa)
#
#
# Indices 1 2 3 4 5 6 
#
# 1 0.033146 -0.008279 0.000899 -0.014370 -0.002110 -0.003685
# 2 -0.008279 0.011939 -0.004287 0.020449 -0.014859 0.004891
# 3 0.000899 -0.004287 0.011822 -0.001049 0.004671 -0.002710
# 4 -0.014370 0.020449 -0.001049 0.088604 -0.043023 0.004804
# 5 -0.002110 -0.014859 0.004671 -0.043023 0.069299 -0.007468
# 6 -0.003685 0.004891 -0.002710 0.004804 -0.007468 0.024723
#
#
# Mechanical properties :
#
#
# Convention : Reuss Voigt Hill
#
# Bulk Modulus (GPa) = 29.78488 66.35582 48.07035
# Shear Modulus (GPa) = 18.24439 36.46609 27.35524
#
# Velocity S-wave (km/s) = 2.83039 4.00154 3.46579
# Velocity P-wave (km/s) = 4.87443 7.10539 6.09289
#
# Compressibility (1/GPa) = 0.03357408
#
# Stress axis : x y z
#
# Youngs Moduli (GPa) = 30.16933 83.75755 84.59079
#
# Poissons Ratio (x) = 0.69346 -0.07609
# Poissons Ratio (y) = 0.24978 0.36260
# Poissons Ratio (z) = -0.02714 0.35903
#
# Static dielectric constant tensor:
#      x y z
#    x 1.903470 0.052560 -0.028380 
#    y 0.052560 1.869630 -0.018460 
#    z -0.028380 -0.018460 1.884570 
# 
# From -- ./inp_files/44921.got.cif
#   From: 2010.05.17/outbox.cif.g08.bks.cpg/sg2_23_cif.got.tgz:44921.got - 2010.06.03 11:33:40.
