data_PCOD9063736
_publ_section_title
;
Structure prediction by ZEFSAII (Michael W. Deem and Ramdas Pophale) SiO2 
 PCOD9063736
Probable space group: P -1
;
_chemical_formula_sum "Si O2"
_cell_formula_units_Z 14
_cell_length_a 8.764310
_cell_length_b 15.137974
_cell_length_c 8.742457
_cell_angle_alpha 33.538019
_cell_angle_beta 72.004757
_cell_angle_gamma 68.937912
_cell_volume 597.918985
_symmetry_space_group_name_H-M "P -1"
_symmetry_group_IT_number 2
_symmetry_cell_setting 'triclinic'
loop_
_space_group_symop_operation_xyz
x,y,z
-x,-y,-z
loop_
_atom_site_type_symbol
_atom_site_label
_atom_site_fract_x
_atom_site_fract_y
_atom_site_fract_z
Si Si1 0.866597 0.105902 0.553610
Si Si2 0.477411 0.833871 0.905907
Si Si3 0.765507 0.627855 0.647206
Si Si4 0.237592 0.158362 0.392810
Si Si5 0.236193 0.721612 0.965501
Si Si6 0.012758 0.151400 0.891645
Si Si7 0.539305 0.184427 0.716023
O O1 0.713276 0.197134 0.569159
O O2 0.046653 0.148269 0.458648
O O3 0.820653 0.138285 0.344786
O O4 0.883776 0.927640 0.879788
O O5 0.660386 0.850083 0.782752
O O6 0.349202 0.008197 0.672194
O O7 0.421599 0.721705 0.953321
O O8 0.467214 0.768277 0.172883
O O9 0.756313 0.676195 0.756969
O O10 0.800032 0.439386 0.867627
O O11 0.902243 0.720489 0.404346
O O12 0.598881 0.707813 0.498384
O O13 0.149590 0.759803 0.101234
O O14 0.000000 0.000000 0.000000
O O15 0.500000 0.000000 0.000000
#
# Coordination Sequence:
#
# PCOD9063736 Si02
#       7
#     2   2   2   2   2   2   2
#     4  12  25  44  78 106 142 188 250 284 360 426
#     4  11  25  44  71 106 145 186 248 292 359 427
#     4  12  26  47  72 106 151 186 238 300 370 416
#     4  11  24  44  73 105 142 192 239 301 346 438
#     4  12  28  45  71 111 149 187 233 305 367 424
#     4  12  23  47  75 106 142 190 242 293 350 432
#     4  12  25  44  75 106 136 197 246 295 349 433
#
# _framework density 23.414542999999998
#
# number of rings (size 3 to 8) (size 9 to 14) (size 15 to 20)
#    0.000    0.286    5.714    2.571    4.000    3.429 
#    0.000    0.000    0.000    0.000    0.000    0.000 
#    0.000    0.000    0.000    0.000    0.000    0.000 
#
# Total GULP energy -78277.542042 kJ/mol
# GULP energy per Si atom -5591.253003 kJ/mol
# Density = 2.336125 g / cm^3
# Si number density = 23.414543 Si / 1000 Ang^3
#
#
#
# Elastic Constant Matrix: (Units=GPa)
#
#
# Indices 1 2 3 4 5 6 
#
# 1 123.1179 57.9978 39.8232 28.5358 -22.3081 -2.8969
# 2 57.9978 126.9935 44.2547 10.1512 -31.4895 3.0792
# 3 39.8232 44.2547 54.2614 4.5285 -18.4642 0.4554
# 4 28.5358 10.1512 4.5285 48.1671 6.5900 -14.1918
# 5 -22.3081 -31.4895 -18.4642 6.5900 34.5123 9.5906
# 6 -2.8969 3.0792 0.4554 -14.1918 9.5906 44.4122
#
#
#
# Elastic Compliance Matrix: (Units=1/GPa)
#
#
# Indices 1 2 3 4 5 6 
#
# 1 0.014300 -0.001912 -0.005626 -0.009572 0.007292 -0.003510
# 2 -0.001912 0.013766 -0.006037 -0.003885 0.010068 -0.004433
# 3 -0.005626 -0.006037 0.029965 0.000271 0.007322 -0.001750
# 4 -0.009572 -0.003885 0.000271 0.034440 -0.020342 0.015040
# 5 0.007292 0.010068 0.007322 -0.020342 0.055921 -0.018874
# 6 -0.003510 -0.004433 -0.001750 0.015040 -0.018874 0.031494
#
#
# Mechanical properties :
#
#
# Convention : Reuss Voigt Hill
#
# Bulk Modulus (GPa) = 32.38114 65.39158 48.88636
# Shear Modulus (GPa) = 23.00660 36.23810 29.62235
#
# Velocity S-wave (km/s) = 3.13801 3.93832 3.56072
# Velocity P-wave (km/s) = 5.19509 6.97631 6.15052
#
# Compressibility (1/GPa) = 0.03088217
#
# Stress axis : x y z
#
# Youngs Moduli (GPa) = 69.93074 72.64444 33.37198
#
# Poissons Ratio (x) = 0.13888 0.18775
# Poissons Ratio (y) = 0.13369 0.20145
# Poissons Ratio (z) = 0.39343 0.43852
#
# Static dielectric constant tensor:
#      x y z
#    x 1.951570 -0.012990 -0.042120 
#    y -0.012990 1.960550 -0.018390 
#    z -0.042120 -0.018390 1.871570 
# 
# From -- ./inp_files/205007.got.cif
#   From: 2010.05.17/outbox.cif.g08.bks.cpg/sg2_103_cif.got.tgz:205007.got - 2010.06.03 11:33:40.
