data_PCOD9063809
_publ_section_title
;
Structure prediction by ZEFSAII (Michael W. Deem and Ramdas Pophale) SiO2 
 PCOD9063809
Probable space group: P -1
;
_chemical_formula_sum "Si O2"
_cell_formula_units_Z 16
_cell_length_a 11.950948
_cell_length_b 12.175744
_cell_length_c 11.793350
_cell_angle_alpha 68.413296
_cell_angle_beta 25.505727
_cell_angle_gamma 60.353297
_cell_volume 627.908426
_symmetry_space_group_name_H-M "P -1"
_symmetry_group_IT_number 2
_symmetry_cell_setting 'triclinic'
loop_
_space_group_symop_operation_xyz
x,y,z
-x,-y,-z
loop_
_atom_site_type_symbol
_atom_site_label
_atom_site_fract_x
_atom_site_fract_y
_atom_site_fract_z
Si Si1 0.668223 0.898555 0.601109
Si Si2 0.323046 0.705984 0.264706
Si Si3 0.424873 0.439492 0.701491
Si Si4 0.041499 0.622538 0.370548
Si Si5 0.029900 0.673589 0.097737
Si Si6 0.639291 0.818261 0.202415
Si Si7 0.131957 0.879716 0.003872
Si Si8 0.736434 0.853364 0.859772
O O1 0.797982 0.756034 0.588288
O O2 0.878138 0.875398 0.312279
O O3 0.622340 0.042258 0.624116
O O4 0.355219 0.910580 0.859222
O O5 0.381739 0.595272 0.348834
O O6 0.303853 0.642712 0.184832
O O7 0.022898 0.819417 0.537493
O O8 0.565166 0.762172 0.026401
O O9 0.500000 0.500000 0.500000
O O10 0.433435 0.302457 0.710727
O O11 0.130783 0.548754 0.973693
O O12 0.018896 0.624648 0.253893
O O13 0.000000 0.500000 0.500000
O O14 0.253136 0.742479 0.880513
O O15 0.779290 0.785434 0.212102
O O16 0.828190 0.826064 0.919093
O O17 0.000000 0.000000 0.000000
O O18 0.500000 0.000000 0.000000
#
# Coordination Sequence:
#
# PCOD9063809 Si02
#       8
#     2   2   2   2   2   2   2   2
#     4  11  26  47  71 114 146 197 255 313 384 454
#     4  11  27  49  72 112 150 200 267 306 388 462
#     4  11  27  45  76 112 156 205 255 318 390 460
#     4  11  29  48  79 108 159 208 257 325 390 463
#     4  11  26  46  74 114 152 202 262 316 387 465
#     4  11  25  46  78 112 154 197 257 321 384 461
#     4  11  24  44  74 107 153 192 247 318 382 451
#     4  11  25  49  79 110 153 202 254 322 385 463
#
# _framework density 25.481422999999999
#
# number of rings (size 3 to 8) (size 9 to 14) (size 15 to 20)
#    0.000    1.000    1.250    2.625   10.500    7.500 
#    0.000    0.000    0.000    0.000    0.000    0.000 
#    0.000    0.000    0.000    0.000    0.000    0.000 
#
# Total GULP energy -89274.211868 kJ/mol
# GULP energy per Si atom -5579.638242 kJ/mol
# Density = 2.542343 g / cm^3
# Si number density = 25.481423 Si / 1000 Ang^3
#
#
#
# Elastic Constant Matrix: (Units=GPa)
#
#
# Indices 1 2 3 4 5 6 
#
# 1 141.3415 42.6095 27.1417 -11.1282 41.0103 -12.6131
# 2 42.6095 218.4472 21.5792 -1.9623 17.5317 -2.5005
# 3 27.1417 21.5792 83.3677 -13.5193 -0.5323 -7.3515
# 4 -11.1282 -1.9623 -13.5193 37.3237 -2.3260 0.9276
# 5 41.0103 17.5317 -0.5323 -2.3260 49.6957 -3.3283
# 6 -12.6131 -2.5005 -7.3515 0.9276 -3.3283 52.2872
#
#
#
# Elastic Compliance Matrix: (Units=1/GPa)
#
#
# Indices 1 2 3 4 5 6 
#
# 1 0.010589 -0.001096 -0.002832 0.001524 -0.008207 0.001554
# 2 -0.001096 0.004958 -0.001031 -0.000490 -0.000894 -0.000220
# 3 -0.002832 -0.001031 0.014029 0.004345 0.003146 0.001363
# 4 0.001524 -0.000490 0.004345 0.028805 0.000341 0.000466
# 5 -0.008207 -0.000894 0.003146 0.000341 0.027270 0.000150
# 6 0.001554 -0.000220 0.001363 0.000466 0.000150 0.019682
#
#
# Mechanical properties :
#
#
# Convention : Reuss Voigt Hill
#
# Bulk Modulus (GPa) = 50.86916 69.53523 60.20219
# Shear Modulus (GPa) = 41.04955 51.31638 46.18296
#
# Velocity S-wave (km/s) = 4.01803 4.49249 4.26187
# Velocity P-wave (km/s) = 6.44458 7.36599 6.92064
#
# Compressibility (1/GPa) = 0.01965828
#
# Stress axis : x y z
#
# Youngs Moduli (GPa) = 94.43695 201.68837 71.28122
#
# Poissons Ratio (x) = 0.22096 0.20188
# Poissons Ratio (y) = 0.10346 0.07351
# Poissons Ratio (z) = 0.26746 0.20799
#
# Static dielectric constant tensor:
#      x y z
#    x -1.973260 1.708600 0.804480 
#    y 1.708600 1.318770 -0.224380 
#    z 0.804480 -0.224380 1.891300 
# 
# From -- ./inp_files/410459.got.cif
#   From: 2010.05.17/outbox.cif.g08.bks.cpg/sg2_206_cif.got.tgz:410459.got - 2010.06.03 11:33:40.
