data_PCOD9063382
_publ_section_title
;
Structure prediction by ZEFSAII (Michael W. Deem and Ramdas Pophale) SiO2 
 PCOD9063382
Probable space group: P -1
;
_chemical_formula_sum "Si O2"
_cell_formula_units_Z 16
_cell_length_a 5.448363
_cell_length_b 18.490766
_cell_length_c 18.317613
_cell_angle_alpha 155.748503
_cell_angle_beta 94.317900
_cell_angle_gamma 73.217598
_cell_volume 637.431260
_symmetry_space_group_name_H-M "P -1"
_symmetry_group_IT_number 2
_symmetry_cell_setting 'triclinic'
loop_
_space_group_symop_operation_xyz
x,y,z
-x,-y,-z
loop_
_atom_site_type_symbol
_atom_site_label
_atom_site_fract_x
_atom_site_fract_y
_atom_site_fract_z
Si Si1 0.604193 0.342490 0.659744
Si Si2 0.188277 0.719843 0.915145
Si Si3 0.330618 0.126147 0.042319
Si Si4 0.743705 0.589282 0.997128
Si Si5 0.235109 0.060149 0.757847
Si Si6 0.727429 0.904207 0.725753
Si Si7 0.390752 0.238604 0.707429
Si Si8 0.772673 0.482231 0.533730
O O1 0.475272 0.289885 0.679114
O O2 0.844583 0.108866 0.422680
O O3 0.408884 0.476417 0.709864
O O4 0.658780 0.513417 0.853669
O O5 0.958873 0.793557 0.045426
O O6 0.291797 0.878110 0.071644
O O7 0.010405 0.773959 0.885927
O O8 0.350595 0.328833 0.236986
O O9 0.500000 0.000000 0.000000
O O10 0.485453 0.948199 0.820863
O O11 0.791318 0.775825 0.150504
O O12 0.521579 0.682102 0.145770
O O13 0.041405 0.377889 0.830529
O O14 0.576389 0.910532 0.652152
O O15 0.030231 0.722485 0.599387
O O16 0.500000 0.000000 0.500000
O O17 0.500000 0.500000 0.500000
O O18 0.000000 0.500000 0.500000
#
# Coordination Sequence:
#
# PCOD9063382 Si02
#       8
#     2   2   2   2   2   2   2   2
#     4  12  24  43  71  98 140 182 228 290 358 420
#     4  11  25  43  69 102 138 185 235 291 356 433
#     4  11  24  45  72  99 140 185 238 294 364 425
#     4  11  24  44  67 101 135 176 235 287 348 426
#     4  11  24  44  67 101 138 181 239 288 352 433
#     4  11  25  45  71  99 140 186 236 297 361 437
#     4  11  24  44  70  98 136 180 229 286 352 427
#     4  12  27  45  71 107 144 187 245 305 371 446
#
# _framework density 25.100743999999999
#
# number of rings (size 3 to 8) (size 9 to 14) (size 15 to 20)
#    0.000    0.750    5.000    1.875    3.500    4.500 
#    0.000    0.000    0.000    0.000    0.000    0.000 
#    0.000    0.000    0.000    0.000    0.000    0.000 
#
# Total GULP energy -89273.020623 kJ/mol
# GULP energy per Si atom -5579.563789 kJ/mol
# Density = 2.504361 g / cm^3
# Si number density = 25.100744 Si / 1000 Ang^3
#
#
#
# Elastic Constant Matrix: (Units=GPa)
#
#
# Indices 1 2 3 4 5 6 
#
# 1 48.7003 2.9875 9.7086 7.6708 1.0009 -6.1079
# 2 2.9875 91.6693 29.0285 35.3577 -11.9271 -6.7496
# 3 9.7086 29.0285 155.4605 39.2324 7.9732 -9.3934
# 4 7.6708 35.3577 39.2324 54.6048 0.9685 1.5972
# 5 1.0009 -11.9271 7.9732 0.9685 28.8313 -1.7372
# 6 -6.1079 -6.7496 -9.3934 1.5972 -1.7372 31.4811
#
#
#
# Elastic Compliance Matrix: (Units=1/GPa)
#
#
# Indices 1 2 3 4 5 6 
#
# 1 0.021683 0.001205 -0.000387 -0.003686 0.000251 0.004551
# 2 0.001205 0.016505 -0.000565 -0.010718 0.007577 0.004566
# 3 -0.000387 -0.000565 0.008209 -0.005510 -0.002160 0.002414
# 4 -0.003686 -0.010718 -0.005510 0.029992 -0.004176 -0.006410
# 5 0.000251 0.007577 -0.002160 -0.004176 0.038752 0.003379
# 6 0.004551 0.004566 0.002414 -0.006410 0.003379 0.034859
#
#
# Mechanical properties :
#
#
# Convention : Reuss Voigt Hill
#
# Bulk Modulus (GPa) = 21.32000 42.14217 31.73109
# Shear Modulus (GPa) = 30.27960 39.92380 35.10170
#
# Velocity S-wave (km/s) = 3.47698 3.99249 3.74362
# Velocity P-wave (km/s) = 4.96301 6.17081 5.59957
#
# Compressibility (1/GPa) = 0.04690431
#
# Stress axis : x y z
#
# Youngs Moduli (GPa) = 46.11878 60.58891 121.81161
#
# Poissons Ratio (x) = -0.07303 0.04712
# Poissons Ratio (y) = -0.05559 0.06881
# Poissons Ratio (z) = 0.01784 0.03423
#
# Static dielectric constant tensor:
#      x y z
#    x 2.133320 -0.005940 -0.012410 
#    y -0.005940 2.179870 -0.122610 
#    z -0.012410 -0.122610 1.996310 
# 
# From -- ./inp_files/584267.got.cif
#   From: 2010.05.17/outbox.cif.g08.bks.cpg/sg2_293_cif.got.tgz:584267.got - 2010.06.03 11:33:40.
