data_PCOD9063538
_publ_section_title
;
Structure prediction by ZEFSAII (Michael W. Deem and Ramdas Pophale) SiO2 
 PCOD9063538
Probable space group: P -1
;
_chemical_formula_sum "Si O2"
_cell_formula_units_Z 16
_cell_length_a 28.029387
_cell_length_b 6.034426
_cell_length_c 5.464465
_cell_angle_alpha 107.695270
_cell_angle_beta 103.975050
_cell_angle_gamma 50.134860
_cell_volume 674.482367
_symmetry_space_group_name_H-M "P -1"
_symmetry_group_IT_number 2
_symmetry_cell_setting 'triclinic'
loop_
_space_group_symop_operation_xyz
x,y,z
-x,-y,-z
loop_
_atom_site_type_symbol
_atom_site_label
_atom_site_fract_x
_atom_site_fract_y
_atom_site_fract_z
Si Si1 0.772396 0.855552 0.384619
Si Si2 0.028959 0.678974 0.056021
Si Si3 0.319426 0.506051 0.459320
Si Si4 0.506962 0.621042 0.800495
Si Si5 0.606485 0.704890 0.014265
Si Si6 0.854247 0.922215 0.175304
Si Si7 0.206403 0.610781 0.126544
Si Si8 0.882695 0.297938 0.585780
O O1 0.810707 0.954579 0.343750
O O2 0.819508 0.618042 0.560055
O O3 0.708170 0.151865 0.492241
O O4 0.769513 0.663924 0.111708
O O5 0.058573 0.704022 0.347170
O O6 0.092906 0.421680 0.912245
O O7 0.000000 0.500000 0.000000
O O8 0.000000 0.000000 0.000000
O O9 0.346910 0.420865 0.738620
O O10 0.261256 0.501956 0.348317
O O11 0.364097 0.319045 0.221723
O O12 0.500000 0.500000 0.500000
O O13 0.450420 0.967535 0.861827
O O14 0.500000 0.500000 0.000000
O O15 0.573702 0.552353 0.876697
O O16 0.887855 0.066875 0.332902
O O17 0.807713 0.121237 0.964929
O O18 0.138037 0.756440 0.201851
#
# Coordination Sequence:
#
# PCOD9063538 Si02
#       8
#     2   2   2   2   2   2   2   2
#     4  11  25  42  73 100 137 198 239 299 382 470
#     4  12  28  46  72 107 143 190 259 332 389 465
#     4  12  25  44  70 109 154 182 248 316 371 450
#     4  11  24  49  76  99 144 208 249 299 389 439
#     4  11  27  45  69 112 150 189 251 321 362 451
#     4  11  24  47  71  98 142 191 249 306 393 465
#     4  11  24  44  70 102 143 196 240 296 386 466
#     4  11  25  45  73  97 141 193 242 305 382 477
#
# _framework density 23.721897999999999
#
# number of rings (size 3 to 8) (size 9 to 14) (size 15 to 20)
#    0.000    0.750    2.500    3.750    7.000    6.000 
#    0.000    0.000    0.000    0.000    0.000    0.000 
#    0.000    0.000    0.000    0.000    0.000    0.000 
#
# Total GULP energy -89309.048193 kJ/mol
# GULP energy per Si atom -5581.815512 kJ/mol
# Density = 2.366791 g / cm^3
# Si number density = 23.721898 Si / 1000 Ang^3
#
#
#
# Elastic Constant Matrix: (Units=GPa)
#
#
# Indices 1 2 3 4 5 6 
#
# 1 120.4446 10.9683 45.4837 -5.5648 22.9036 8.5245
# 2 10.9683 86.0172 27.7223 6.4868 22.9415 4.2613
# 3 45.4837 27.7223 131.2065 9.6882 24.8858 3.4489
# 4 -5.5648 6.4868 9.6882 43.6933 3.3223 -6.0489
# 5 22.9036 22.9415 24.8858 3.3223 51.0559 6.0163
# 6 8.5245 4.2613 3.4489 -6.0489 6.0163 32.2549
#
#
#
# Elastic Compliance Matrix: (Units=1/GPa)
#
#
# Indices 1 2 3 4 5 6 
#
# 1 0.010260 0.000497 -0.003154 0.001976 -0.003245 -0.001464
# 2 0.000497 0.013737 -0.001960 -0.001282 -0.005239 -0.001000
# 3 -0.003154 -0.001960 0.009719 -0.002076 -0.002318 0.000096
# 4 0.001976 -0.001282 -0.002076 0.024557 -0.001456 0.004746
# 5 -0.003245 -0.005239 -0.002318 -0.001456 0.024990 -0.003137
# 6 -0.001464 -0.001000 0.000096 0.004746 -0.003137 0.032987
#
#
# Mechanical properties :
#
#
# Convention : Reuss Voigt Hill
#
# Bulk Modulus (GPa) = 40.84431 56.22410 48.53420
# Shear Modulus (GPa) = 37.41214 42.30042 39.85628
#
# Velocity S-wave (km/s) = 3.97560 4.22735 4.10341
# Velocity P-wave (km/s) = 6.19106 6.89784 6.55398
#
# Compressibility (1/GPa) = 0.02448321
#
# Stress axis : x y z
#
# Youngs Moduli (GPa) = 97.46337 72.79373 102.88608
#
# Poissons Ratio (x) = -0.03618 0.32448
# Poissons Ratio (y) = -0.04844 0.20168
# Poissons Ratio (z) = 0.30738 0.14269
#
# Static dielectric constant tensor:
#      x y z
#    x 1.975990 0.054700 0.033170 
#    y 0.054700 1.941450 0.019610 
#    z 0.033170 0.019610 1.956650 
# 
# From -- ./inp_files/125881.got.cif
#   From: 2010.05.17/outbox.cif.g08.bks.cpg/sg2_63_cif.got.tgz:125881.got - 2010.06.03 11:33:40.
