data_PCOD9063106
_publ_section_title
;
Structure prediction by ZEFSAII (Michael W. Deem and Ramdas Pophale) SiO2 
 PCOD9063106
Probable space group: P -1
;
_chemical_formula_sum "Si O2"
_cell_formula_units_Z 16
_cell_length_a 9.424154
_cell_length_b 17.278217
_cell_length_c 11.390397
_cell_angle_alpha 124.924115
_cell_angle_beta 65.518294
_cell_angle_gamma 148.774526
_cell_volume 775.927175
_symmetry_space_group_name_H-M "P -1"
_symmetry_group_IT_number 2
_symmetry_cell_setting 'triclinic'
loop_
_space_group_symop_operation_xyz
x,y,z
-x,-y,-z
loop_
_atom_site_type_symbol
_atom_site_label
_atom_site_fract_x
_atom_site_fract_y
_atom_site_fract_z
Si Si1 0.956440 0.454714 0.111471
Si Si2 0.679828 0.812053 0.439462
Si Si3 0.196486 0.687676 0.570370
Si Si4 0.236060 0.249390 0.412388
Si Si5 0.836514 0.582571 0.405777
Si Si6 0.965931 0.955508 0.109106
Si Si7 0.478884 0.877894 0.886231
Si Si8 0.509184 0.617626 0.103420
O O1 0.947228 0.549966 0.265343
O O2 0.685479 0.259946 0.074356
O O3 0.206557 0.512203 0.113681
O O4 0.000000 0.500000 0.000000
O O5 0.458622 0.786104 0.486343
O O6 0.623640 0.737104 0.518766
O O7 0.642414 0.720153 0.267923
O O8 0.000000 0.000000 0.500000
O O9 0.319379 0.781458 0.734202
O O10 0.000000 0.500000 0.500000
O O11 0.997375 0.658035 0.541032
O O12 0.501111 0.402236 0.370796
O O13 0.118922 0.288081 0.537847
O O14 0.004940 0.070768 0.271868
O O15 0.217028 0.015855 0.122183
O O16 0.687736 0.757763 0.061278
O O17 0.000000 0.000000 0.000000
O O18 0.500000 0.000000 0.000000
O O19 0.500000 0.500000 0.000000
#
# Coordination Sequence:
#
# PCOD9063106 Si02
#       8
#     2   2   2   2   2   2   2   2
#     4  12  25  46  66 100 142 176 220 283 341 403
#     4  12  22  43  68  94 135 171 221 287 329 387
#     4  12  20  44  71  93 128 174 231 276 324 397
#     4  11  24  43  71 100 133 177 230 279 342 402
#     4  11  24  43  71 102 129 181 228 280 339 408
#     4  12  25  46  65  98 140 180 225 278 338 408
#     4  12  25  45  69  99 132 181 228 277 334 403
#     4  12  27  43  69 103 135 182 225 277 345 402
#
# _framework density 20.620491000000001
#
# number of rings (size 3 to 8) (size 9 to 14) (size 15 to 20)
#    0.000    0.250    7.500    1.500    3.500    1.000 
#    0.000    1.250    0.000    0.000    0.000    0.000 
#    0.000    0.000    0.000    0.000    0.000    0.000 
#
# Total GULP energy -89399.069184 kJ/mol
# GULP energy per Si atom -5587.441824 kJ/mol
# Density = 2.057356 g / cm^3
# Si number density = 20.620491 Si / 1000 Ang^3
#
#
#
# Elastic Constant Matrix: (Units=GPa)
#
#
# Indices 1 2 3 4 5 6 
#
# 1 62.7973 -3.0142 28.8183 10.6903 -26.4768 4.5863
# 2 -3.0142 77.1377 14.5484 2.8035 -25.0381 8.5300
# 3 28.8183 14.5484 122.1707 6.7384 -18.6422 -14.2063
# 4 10.6903 2.8035 6.7384 25.0258 -4.7237 5.0423
# 5 -26.4768 -25.0381 -18.6422 -4.7237 43.3103 -1.6078
# 6 4.5863 8.5300 -14.2063 5.0423 -1.6078 35.9177
#
#
#
# Elastic Compliance Matrix: (Units=1/GPa)
#
#
# Indices 1 2 3 4 5 6 
#
# 1 0.028767 0.009475 -0.005215 -0.006969 0.019832 -0.006120
# 2 0.009475 0.019643 -0.002839 -0.001315 0.015555 -0.006117
# 3 -0.005215 -0.002839 0.010450 -0.001463 -0.000281 0.005666
# 4 -0.006969 -0.001315 -0.001463 0.044425 -0.001015 -0.005658
# 5 0.019832 0.015555 -0.000281 -0.001015 0.043817 -0.004234
# 6 -0.006120 -0.006117 0.005666 -0.005658 -0.004234 0.032922
#
#
# Mechanical properties :
#
#
# Convention : Reuss Voigt Hill
#
# Bulk Modulus (GPa) = 16.20712 38.09006 27.14859
# Shear Modulus (GPa) = 25.28439 35.63434 30.45937
#
# Velocity S-wave (km/s) = 3.50548 4.16156 3.84753
# Velocity P-wave (km/s) = 4.92558 6.45007 5.73867
#
# Compressibility (1/GPa) = 0.06170126
#
# Stress axis : x y z
#
# Youngs Moduli (GPa) = 34.76186 50.90898 95.69099
#
# Poissons Ratio (x) = -0.48236 0.49905
# Poissons Ratio (y) = -0.32936 0.27169
# Poissons Ratio (z) = 0.18129 0.14454
#
# Static dielectric constant tensor:
#      x y z
#    x 1.721880 -0.009630 0.022600 
#    y -0.009630 1.780180 -0.014290 
#    z 0.022600 -0.014290 1.759610 
# 
# From -- ./inp_files/262961.got.cif
#   From: 2010.05.17/outbox.cif.g08.bks.cpg/sg2_132_cif.got.tgz:262961.got - 2010.06.03 11:33:40.
