data_PCOD9063761
_publ_section_title
;
Structure prediction by ZEFSAII (Michael W. Deem and Ramdas Pophale) SiO2 
 PCOD9063761
Probable space group: P -1
;
_chemical_formula_sum "Si O2"
_cell_formula_units_Z 13
_cell_length_a 11.496075
_cell_length_b 15.310194
_cell_length_c 7.874072
_cell_angle_alpha 42.204742
_cell_angle_beta 44.218641
_cell_angle_gamma 34.376671
_cell_volume 505.014379
_symmetry_space_group_name_H-M "P -1"
_symmetry_group_IT_number 2
_symmetry_cell_setting 'triclinic'
loop_
_space_group_symop_operation_xyz
x,y,z
-x,-y,-z
loop_
_atom_site_type_symbol
_atom_site_label
_atom_site_fract_x
_atom_site_fract_y
_atom_site_fract_z
Si Si1 0.980303 0.797161 0.746378
Si Si2 0.811195 0.845993 0.312712
Si Si3 0.485170 0.353187 0.185632
Si Si4 0.614850 0.569027 0.203369
Si Si5 0.000000 0.500000 0.500000
Si Si6 0.952787 0.053679 0.209503
Si Si7 0.382336 0.146014 0.146515
O O1 0.141984 0.596069 0.856377
O O2 0.999032 0.875378 0.781014
O O3 0.741621 0.865839 0.856240
O O4 0.041208 0.870007 0.429750
O O5 0.962690 0.671882 0.310266
O O6 0.765485 0.799916 0.607290
O O7 0.600278 0.979482 0.231386
O O8 0.930991 0.924234 0.092896
O O9 0.696381 0.178921 0.283695
O O10 0.264113 0.393663 0.411095
O O11 0.500000 0.500000 0.000000
O O12 0.489558 0.342893 0.992576
O O13 0.500000 0.500000 0.500000
O O14 0.603326 0.707673 0.121371
#
# Coordination Sequence:
#
# PCOD9063761 Si02
#       7
#     2   2   2   2   1   2   2
#     4  11  25  46  70 106 151 193 247 307 373 438
#     4  11  24  44  73 109 142 201 249 306 365 442
#     4  12  24  47  75 108 143 197 254 298 365 449
#     4  12  26  47  69 108 148 192 245 309 383 436
#     4  12  22  44  78 106 148 188 256 304 356 450
#     4  11  25  47  74 108 148 197 255 303 369 448
#     4  11  26  47  70 110 153 189 251 309 380 444
#
# _framework density 25.74184
#
# number of rings (size 3 to 8) (size 9 to 14) (size 15 to 20)
#    0.000    0.615    4.615    2.308    4.308    1.231 
#    5.538    0.000    0.000    0.000    0.000    0.000 
#    0.000    0.000    0.000    0.000    0.000    0.000 
#
# Total GULP energy -72629.823711 kJ/mol
# GULP energy per Si atom -5586.909516 kJ/mol
# Density = 2.568325 g / cm^3
# Si number density = 25.741840 Si / 1000 Ang^3
#
#
#
# Elastic Constant Matrix: (Units=GPa)
#
#
# Indices 1 2 3 4 5 6 
#
# 1 125.3751 30.0084 25.7316 -4.9690 -18.2769 -33.3175
# 2 30.0084 106.6894 6.9772 -21.3221 -11.2447 -16.5727
# 3 25.7316 6.9772 99.6029 -8.4258 -21.4553 -0.9478
# 4 -4.9690 -21.3221 -8.4258 41.7986 -2.6921 -19.2504
# 5 -18.2769 -11.2447 -21.4553 -2.6921 37.8198 0.1481
# 6 -33.3175 -16.5727 -0.9478 -19.2504 0.1481 35.0642
#
#
#
# Elastic Compliance Matrix: (Units=1/GPa)
#
#
# Indices 1 2 3 4 5 6 
#
# 1 0.016222 0.003852 -0.000748 0.016425 0.009627 0.026191
# 2 0.003852 0.016798 0.001769 0.020509 0.009230 0.022868
# 3 -0.000748 0.001769 0.012191 0.005280 0.007443 0.003322
# 4 0.016425 0.020509 0.005280 0.067549 0.021595 0.062436
# 5 0.009627 0.009230 0.007443 0.021595 0.039498 0.025400
# 6 0.026191 0.022868 0.003322 0.062436 0.025400 0.098474
#
#
# Mechanical properties :
#
#
# Convention : Reuss Voigt Hill
#
# Bulk Modulus (GPa) = 18.19657 50.78907 34.49282
# Shear Modulus (GPa) = 19.28227 40.86653 30.07440
#
# Velocity S-wave (km/s) = 2.73987 3.98873 3.42176
# Velocity P-wave (km/s) = 4.13442 6.40206 5.38886
#
# Compressibility (1/GPa) = 0.05495540
#
# Stress axis : x y z
#
# Youngs Moduli (GPa) = 61.64424 59.53176 82.02874
#
# Poissons Ratio (x) = -0.22930 0.06138
# Poissons Ratio (y) = -0.23743 -0.14511
# Poissons Ratio (z) = 0.04613 -0.10531
#
# Static dielectric constant tensor:
#      x y z
#    x 2.093070 0.056310 0.043070 
#    y 0.056310 1.982750 0.093830 
#    z 0.043070 0.093830 2.079660 
# 
# From -- ./inp_files/209322.got.cif
#   From: 2010.05.17/outbox.cif.g08.bks.cpg/sg2_105_cif.got.tgz:209322.got - 2010.06.03 11:33:40.
