data_PCOD9063283
_publ_section_title
;
Structure prediction by ZEFSAII (Michael W. Deem and Ramdas Pophale) SiO2 
 PCOD9063283
Probable space group: P -1
;
_chemical_formula_sum "Si O2"
_cell_formula_units_Z 14
_cell_length_a 17.692269
_cell_length_b 8.906037
_cell_length_c 17.579630
_cell_angle_alpha 40.324156
_cell_angle_beta 19.247921
_cell_angle_gamma 38.389650
_cell_volume 563.662079
_symmetry_space_group_name_H-M "P -1"
_symmetry_group_IT_number 2
_symmetry_cell_setting 'triclinic'
loop_
_space_group_symop_operation_xyz
x,y,z
-x,-y,-z
loop_
_atom_site_type_symbol
_atom_site_label
_atom_site_fract_x
_atom_site_fract_y
_atom_site_fract_z
Si Si1 0.351950 0.675009 0.452665
Si Si2 0.673740 0.501535 0.907015
Si Si3 0.136747 0.038112 0.634615
Si Si4 0.150393 0.580231 0.890659
Si Si5 0.517883 0.776309 0.683842
Si Si6 0.732756 0.987686 0.730631
Si Si7 0.803337 0.759389 0.271577
O O1 0.606476 0.635736 0.262864
O O2 0.338096 0.403744 0.573226
O O3 0.145985 0.873143 0.615601
O O4 0.351769 0.770203 0.332451
O O5 0.746586 0.748291 0.757730
O O6 0.913262 0.276591 0.754051
O O7 0.500000 0.500000 0.000000
O O8 0.558190 0.436467 0.120634
O O9 0.382161 0.105774 0.385736
O O10 0.140170 0.850994 0.771362
O O11 0.000000 0.500000 0.000000
O O12 0.064755 0.620091 0.044365
O O13 0.739483 0.729229 0.431223
O O14 0.304615 0.970214 0.764528
O O15 0.000000 0.000000 0.500000
O O16 0.500000 0.000000 0.000000
#
# Coordination Sequence:
#
# PCOD9063283 Si02
#       7
#     2   2   2   2   2   2   2
#     4  12  27  47  78 111 154 213 271 332 419 493
#     4  12  30  52  82 115 160 220 281 341 416 504
#     4  12  26  46  77 110 159 201 273 337 414 490
#     4  12  24  43  76 117 156 205 265 339 418 497
#     4  11  25  46  71 117 154 205 258 342 412 492
#     4  12  33  57  83 118 170 226 284 346 419 509
#     4  11  24  43  74 111 158 194 260 329 423 478
#
# _framework density 24.837577
#
# number of rings (size 3 to 8) (size 9 to 14) (size 15 to 20)
#    0.000    0.286    4.286    3.000   10.000    2.857 
#    0.000    0.000    0.000    0.000    0.000    0.000 
#    0.000    0.000    0.000    0.000    0.000    0.000 
#
# Total GULP energy -78150.956146 kJ/mol
# GULP energy per Si atom -5582.211153 kJ/mol
# Density = 2.478105 g / cm^3
# Si number density = 24.837577 Si / 1000 Ang^3
#
#
#
# Elastic Constant Matrix: (Units=GPa)
#
#
# Indices 1 2 3 4 5 6 
#
# 1 103.5534 46.5207 42.9471 -2.9586 -11.7300 0.2822
# 2 46.5207 125.4244 41.0097 9.6638 -12.4936 7.4782
# 3 42.9471 41.0097 87.2971 -9.5090 2.4116 3.6669
# 4 -2.9586 9.6638 -9.5090 36.9274 2.4316 2.7799
# 5 -11.7300 -12.4936 2.4116 2.4316 59.3984 4.5913
# 6 0.2822 7.4782 3.6669 2.7799 4.5913 47.2625
#
#
#
# Elastic Compliance Matrix: (Units=1/GPa)
#
#
# Indices 1 2 3 4 5 6 
#
# 1 0.013479 -0.003152 -0.005193 0.000382 0.002149 0.000590
# 2 -0.003152 0.011123 -0.004142 -0.004269 0.002167 -0.001379
# 3 -0.005193 -0.004142 0.016622 0.005176 -0.002734 -0.000642
# 4 0.000382 -0.004269 0.005176 0.029798 -0.002154 -0.001272
# 5 0.002149 0.002167 -0.002734 -0.002154 0.018052 -0.001770
# 6 0.000590 -0.001379 -0.000642 -0.001272 -0.001770 0.021670
#
#
# Mechanical properties :
#
#
# Convention : Reuss Voigt Hill
#
# Bulk Modulus (GPa) = 61.53537 64.13665 62.83601
# Shear Modulus (GPa) = 35.42714 41.10415 38.26564
#
# Velocity S-wave (km/s) = 3.78081 4.07248 3.92935
# Velocity P-wave (km/s) = 6.62482 6.92762 6.77791
#
# Compressibility (1/GPa) = 0.01625082
#
# Stress axis : x y z
#
# Youngs Moduli (GPa) = 74.18732 89.90231 60.16164
#
# Poissons Ratio (x) = 0.28339 0.31243
# Poissons Ratio (y) = 0.23385 0.24916
# Poissons Ratio (z) = 0.38527 0.37233
#
# Static dielectric constant tensor:
#      x y z
#    x 1.965290 0.076610 0.017860 
#    y 0.076610 1.925260 -0.011690 
#    z 0.017860 -0.011690 2.175180 
# 
# From -- ./inp_files/465009.got.cif
#   From: 2010.05.17/outbox.cif.g08.bks.cpg/sg2_233_cif.got.tgz:465009.got - 2010.06.03 11:33:40.
