data_PCOD9063016
_publ_section_title
;
Structure prediction by ZEFSAII (Michael W. Deem and Ramdas Pophale) SiO2 
 PCOD9063016
Probable space group: P -1
;
_chemical_formula_sum "Si O2"
_cell_formula_units_Z 16
_cell_length_a 8.596693
_cell_length_b 19.032572
_cell_length_c 13.490214
_cell_angle_alpha 146.276955
_cell_angle_beta 49.936538
_cell_angle_gamma 106.469342
_cell_volume 755.372176
_symmetry_space_group_name_H-M "P -1"
_symmetry_group_IT_number 2
_symmetry_cell_setting 'triclinic'
loop_
_space_group_symop_operation_xyz
x,y,z
-x,-y,-z
loop_
_atom_site_type_symbol
_atom_site_label
_atom_site_fract_x
_atom_site_fract_y
_atom_site_fract_z
Si Si1 0.924923 0.197345 0.303299
Si Si2 0.583918 0.824958 0.229983
Si Si3 0.973658 0.663360 0.200501
Si Si4 0.420923 0.848766 0.715880
Si Si5 0.117542 0.653282 0.907568
Si Si6 0.302285 0.676285 0.247462
Si Si7 0.487965 0.708912 0.734491
Si Si8 0.800771 0.681345 0.764911
O O1 0.007479 0.281100 0.300317
O O2 0.662136 0.246169 0.421307
O O3 0.880754 0.237970 0.483994
O O4 0.178009 0.020423 0.990366
O O5 0.419418 0.769613 0.277720
O O6 0.500000 0.000000 0.500000
O O7 0.618193 0.790100 0.057362
O O8 0.866632 0.705109 0.014765
O O9 0.156260 0.664142 0.203646
O O10 0.685127 0.799115 0.507661
O O11 0.043439 0.688872 0.093948
O O12 0.000000 0.500000 0.000000
O O13 0.440657 0.818341 0.789676
O O14 0.232303 0.737891 0.912306
O O15 0.331436 0.467864 0.590123
O O16 0.500000 0.500000 0.000000
O O17 0.633944 0.710645 0.771190
O O18 0.000000 0.500000 0.500000
#
# Coordination Sequence:
#
# PCOD9063016 Si02
#       8
#     2   2   2   2   2   2   2   2
#     4  11  27  45  73 105 141 187 243 298 368 440
#     4  12  28  48  73 109 151 193 238 308 375 432
#     4  12  24  44  72 105 143 189 242 301 362 432
#     4  11  25  46  71 101 144 188 237 304 368 424
#     4  11  24  43  69 101 141 187 242 293 367 431
#     4  12  27  47  75 105 144 194 247 297 364 450
#     4  11  24  43  73 103 138 190 243 300 354 438
#     4  12  25  46  72 105 144 189 245 296 361 445
#
# _framework density 21.181611
#
# number of rings (size 3 to 8) (size 9 to 14) (size 15 to 20)
#    0.000    0.500    2.500    5.250    8.750    2.000 
#    0.000    1.250    0.000    0.000    0.000    0.000 
#    0.000    0.000    0.000    0.000    0.000    0.000 
#
# Total GULP energy -89439.758949 kJ/mol
# GULP energy per Si atom -5589.984934 kJ/mol
# Density = 2.113340 g / cm^3
# Si number density = 21.181611 Si / 1000 Ang^3
#
#
#
# Elastic Constant Matrix: (Units=GPa)
#
#
# Indices 1 2 3 4 5 6 
#
# 1 197.1493 70.3826 22.4577 -37.0887 -4.4432 6.9646
# 2 70.3826 137.4472 54.5908 -34.6894 4.9391 9.7770
# 3 22.4577 54.5908 97.5691 -18.2899 -3.4928 2.9737
# 4 -37.0887 -34.6894 -18.2899 52.2670 -6.0430 -4.3576
# 5 -4.4432 4.9391 -3.4928 -6.0430 35.6474 -6.6103
# 6 6.9646 9.7770 2.9737 -4.3576 -6.6103 47.0521
#
#
#
# Elastic Compliance Matrix: (Units=1/GPa)
#
#
# Indices 1 2 3 4 5 6 
#
# 1 0.006710 -0.003013 0.000821 0.003284 0.001920 0.000155
# 2 -0.003013 0.012079 -0.005425 0.003572 -0.002293 -0.001712
# 3 0.000821 -0.005425 0.013562 0.002097 0.002671 0.000718
# 4 0.003284 0.003572 0.002097 0.025248 0.004704 0.001638
# 5 0.001920 -0.002293 0.002671 0.004704 0.030550 0.004751
# 6 0.000155 -0.001712 0.000718 0.001638 0.004751 0.022360
#
#
# Mechanical properties :
#
#
# Convention : Reuss Voigt Hill
#
# Bulk Modulus (GPa) = 58.42192 80.78085 69.60138
# Shear Modulus (GPa) = 38.03772 45.97560 42.00666
#
# Velocity S-wave (km/s) = 4.24227 4.66396 4.45811
# Velocity P-wave (km/s) = 7.18590 8.19899 7.70911
#
# Compressibility (1/GPa) = 0.01711686
#
# Stress axis : x y z
#
# Youngs Moduli (GPa) = 149.02918 82.78807 73.73401
#
# Poissons Ratio (x) = 0.24947 -0.06054
# Poissons Ratio (y) = 0.44909 0.40000
# Poissons Ratio (z) = -0.12237 0.44912
#
# Static dielectric constant tensor:
#      x y z
#    x 1.725280 -0.019160 -0.015220 
#    y -0.019160 1.713460 -0.038070 
#    z -0.015220 -0.038070 1.673430 
# 
# From -- ./inp_files/403335.got.cif
#   From: 2010.05.17/outbox.cif.g08.bks.cpg/sg2_202_cif.got.tgz:403335.got - 2010.06.03 11:33:40.
