data_PCOD9063612
_publ_section_title
;
Structure prediction by ZEFSAII (Michael W. Deem and Ramdas Pophale) SiO2 
 PCOD9063612
Probable space group: P -1
;
_chemical_formula_sum "Si O2"
_cell_formula_units_Z 16
_cell_length_a 12.349359
_cell_length_b 13.035386
_cell_length_c 5.206445
_cell_angle_alpha 88.182862
_cell_angle_beta 82.591653
_cell_angle_gamma 134.550019
_cell_volume 583.378005
_symmetry_space_group_name_H-M "P -1"
_symmetry_group_IT_number 2
_symmetry_cell_setting 'triclinic'
loop_
_space_group_symop_operation_xyz
x,y,z
-x,-y,-z
loop_
_atom_site_type_symbol
_atom_site_label
_atom_site_fract_x
_atom_site_fract_y
_atom_site_fract_z
Si Si1 0.557484 0.885674 0.554231
Si Si2 0.022325 0.432130 0.224366
Si Si3 0.909437 0.788757 0.466544
Si Si4 0.170866 0.056955 0.721899
Si Si5 0.867776 0.166319 0.964249
Si Si6 0.604208 0.475717 0.554299
Si Si7 0.625313 0.364580 0.020031
Si Si8 0.283703 0.801802 0.362933
O O1 0.463970 0.796583 0.846608
O O2 0.423609 0.820168 0.393364
O O3 0.674123 0.867718 0.488488
O O4 0.665595 0.058719 0.514963
O O5 0.883194 0.355523 0.481365
O O6 0.209040 0.549735 0.168907
O O7 0.000000 0.500000 0.000000
O O8 0.968069 0.285387 0.143421
O O9 0.755369 0.631148 0.617293
O O10 0.016122 0.914931 0.633112
O O11 0.012965 0.770982 0.307602
O O12 0.855979 0.839658 0.268953
O O13 0.188418 0.987093 0.952749
O O14 0.742378 0.165779 0.911303
O O15 0.500000 0.500000 0.500000
O O16 0.643511 0.437942 0.283205
O O17 0.535661 0.366617 0.825066
#
# Coordination Sequence:
#
# PCOD9063612 Si02
#       8
#     2   2   2   2   2   2   2   2
#     4  11  24  47  67 107 144 190 243 309 373 446
#     4  12  25  47  72 103 143 195 250 306 372 456
#     4  11  24  45  72 104 142 196 250 306 372 451
#     4  11  24  44  71 105 145 189 250 305 376 447
#     4  12  22  44  73 102 139 192 248 310 365 456
#     4  12  27  49  74 109 151 199 248 313 377 445
#     4  12  27  48  77 106 154 196 250 309 377 452
#     4  11  25  45  70 101 146 187 247 305 380 437
#
# _framework density 27.426469999999998
#
# number of rings (size 3 to 8) (size 9 to 14) (size 15 to 20)
#    0.000    0.500    5.000    3.000    0.000    4.000 
#    2.250    0.000    0.000    0.000    0.000    0.000 
#    0.000    0.000    0.000    0.000    0.000    0.000 
#
# Total GULP energy -89572.591828 kJ/mol
# GULP energy per Si atom -5598.286989 kJ/mol
# Density = 2.736405 g / cm^3
# Si number density = 27.426470 Si / 1000 Ang^3
#
#
#
# Elastic Constant Matrix: (Units=GPa)
#
#
# Indices 1 2 3 4 5 6 
#
# 1 164.8669 32.1217 58.7356 -14.4977 26.7872 -6.2915
# 2 32.1217 115.2189 33.8505 -27.7664 -5.3975 28.1549
# 3 58.7356 33.8505 135.3833 -16.8971 21.6484 12.7448
# 4 -14.4977 -27.7664 -16.8971 45.3411 -8.4563 -0.2497
# 5 26.7872 -5.3975 21.6484 -8.4563 53.9546 2.3231
# 6 -6.2915 28.1549 12.7448 -0.2497 2.3231 36.4981
#
#
#
# Elastic Compliance Matrix: (Units=1/GPa)
#
#
# Indices 1 2 3 4 5 6 
#
# 1 0.008419 -0.003168 -0.002871 -0.000983 -0.003720 0.005128
# 2 -0.003168 0.015256 -0.001049 0.008886 0.005439 -0.012234
# 3 -0.002871 -0.001049 0.009726 0.001638 -0.002199 -0.002931
# 4 -0.000983 0.008886 0.001638 0.028788 0.005566 -0.007753
# 5 -0.003720 0.005439 -0.002199 0.005566 0.022916 -0.005490
# 6 0.005128 -0.012234 -0.002931 -0.007753 -0.005490 0.039040
#
#
# Mechanical properties :
#
#
# Convention : Reuss Voigt Hill
#
# Bulk Modulus (GPa) = 52.01527 73.87606 62.94567
# Shear Modulus (GPa) = 34.54692 46.54284 40.54488
#
# Velocity S-wave (km/s) = 3.55296 4.12394 3.84905
# Velocity P-wave (km/s) = 5.98648 7.04772 6.53867
#
# Compressibility (1/GPa) = 0.01922512
#
# Stress axis : x y z
#
# Youngs Moduli (GPa) = 118.77653 65.54686 102.81280
#
# Poissons Ratio (x) = 0.20764 0.29520
# Poissons Ratio (y) = 0.37627 0.10788
# Poissons Ratio (z) = 0.34103 0.06878
#
# Static dielectric constant tensor:
#      x y z
#    x 2.193000 0.001090 -0.010040 
#    y 0.001090 2.186450 0.029940 
#    z -0.010040 0.029940 2.224340 
# 
# From -- ./inp_files/77425.got.cif
#   From: 2010.05.17/outbox.cif.g08.bks.cpg/sg2_39_cif.got.tgz:77425.got - 2010.06.03 11:33:40.
