data_PCOD9063428
_publ_section_title
;
Structure prediction by ZEFSAII (Michael W. Deem and Ramdas Pophale) SiO2 
 PCOD9063428
Probable space group: P -1
;
_chemical_formula_sum "Si O2"
_cell_formula_units_Z 15
_cell_length_a 17.180818
_cell_length_b 5.765791
_cell_length_c 9.276455
_cell_angle_alpha 128.441233
_cell_angle_beta 55.575280
_cell_angle_gamma 125.893639
_cell_volume 553.101449
_symmetry_space_group_name_H-M "P -1"
_symmetry_group_IT_number 2
_symmetry_cell_setting 'triclinic'
loop_
_space_group_symop_operation_xyz
x,y,z
-x,-y,-z
loop_
_atom_site_type_symbol
_atom_site_label
_atom_site_fract_x
_atom_site_fract_y
_atom_site_fract_z
Si Si1 0.405987 0.407727 0.453349
Si Si2 0.950335 0.161776 0.294955
Si Si3 0.732586 0.255000 0.233786
Si Si4 0.679102 0.284645 0.868567
Si Si5 0.874145 0.506390 0.953880
Si Si6 0.000000 0.000000 0.500000
Si Si7 0.200904 0.520682 0.440377
Si Si8 0.543698 0.625220 0.156543
O O1 0.500000 0.500000 0.500000
O O2 0.309683 0.463025 0.642754
O O3 0.455686 0.641135 0.357578
O O4 0.365346 0.064158 0.287870
O O5 0.865099 0.289823 0.485639
O O6 0.000828 0.063863 0.341541
O O7 0.904692 0.865903 0.120278
O O8 0.027574 0.464596 0.235239
O O9 0.836208 0.300546 0.058877
O O10 0.750557 0.274070 0.391801
O O11 0.638401 0.947938 0.173107
O O12 0.721509 0.504069 0.767973
O O13 0.774379 0.376274 0.910266
O O14 0.590702 0.371546 0.068297
O O15 0.122838 0.187728 0.448164
O O16 0.500000 0.500000 0.000000
#
# Coordination Sequence:
#
# PCOD9063428 Si02
#       8
#     2   2   2   2   2   1   2   2
#     4  12  25  46  73 100 143 193 236 298 365 425
#     4  11  25  48  69 102 152 187 240 292 357 426
#     4  12  25  45  73 105 144 189 245 292 357 435
#     4  12  25  43  71 102 143 186 242 297 352 433
#     4  11  24  44  68 105 144 189 233 296 352 418
#     4  12  24  46  72 102 142 190 242 288 360 424
#     4  12  26  44  71 105 142 194 238 293 353 430
#     4  12  25  45  68 104 139 182 241 303 363 419
#
# _framework density 27.119800000000001
#
# number of rings (size 3 to 8) (size 9 to 14) (size 15 to 20)
#    0.000    0.267    2.667    6.800    0.000    1.600 
#    0.000    0.000    0.000    0.000    0.000    0.000 
#    0.000    0.000    0.000    0.000    0.000    0.000 
#
# Total GULP energy -83865.154741 kJ/mol
# GULP energy per Si atom -5591.010316 kJ/mol
# Density = 2.705807 g / cm^3
# Si number density = 27.119800 Si / 1000 Ang^3
#
#
#
# Elastic Constant Matrix: (Units=GPa)
#
#
# Indices 1 2 3 4 5 6 
#
# 1 115.8438 -0.2036 39.5173 11.3728 17.6718 9.9450
# 2 -0.2036 134.3335 29.4335 -1.2883 1.1895 38.4957
# 3 39.5173 29.4335 131.7125 -14.1128 6.4174 12.9273
# 4 11.3728 -1.2883 -14.1128 60.8883 9.9274 8.2268
# 5 17.6718 1.1895 6.4174 9.9274 54.3810 -0.0167
# 6 9.9450 38.4957 12.9273 8.2268 -0.0167 38.3659
#
#
#
# Elastic Compliance Matrix: (Units=1/GPa)
#
#
# Indices 1 2 3 4 5 6 
#
# 1 0.010613 0.001547 -0.003327 -0.001898 -0.002744 -0.002776
# 2 0.001547 0.011028 -0.001668 0.001191 -0.000768 -0.011160
# 3 -0.003327 -0.001668 0.009443 0.003040 -0.000552 -0.001298
# 4 -0.001898 0.001191 0.003040 0.018809 -0.003203 -0.005762
# 5 -0.002744 -0.000768 -0.000552 -0.003203 0.019948 0.002363
# 6 -0.002776 -0.011160 -0.001298 -0.005762 0.002363 0.039656
#
#
# Mechanical properties :
#
#
# Convention : Reuss Voigt Hill
#
# Bulk Modulus (GPa) = 41.34285 57.70935 49.52610
# Shear Modulus (GPa) = 40.17416 51.60322 45.88869
#
# Velocity S-wave (km/s) = 3.85302 4.36683 4.11794
# Velocity P-wave (km/s) = 5.92216 6.83748 6.39622
#
# Compressibility (1/GPa) = 0.02418798
#
# Stress axis : x y z
#
# Youngs Moduli (GPa) = 94.22086 90.67487 105.89457
#
# Poissons Ratio (x) = -0.14025 0.35233
# Poissons Ratio (y) = -0.14574 0.17665
# Poissons Ratio (z) = 0.31349 0.15126
#
# Static dielectric constant tensor:
#      x y z
#    x 2.012080 0.214270 0.158190 
#    y 0.214270 1.534020 -0.339510 
#    z 0.158190 -0.339510 1.866830 
# 
# From -- ./inp_files/324100.got.cif
#   From: 2010.05.17/outbox.cif.g08.bks.cpg/sg2_163_cif.got.tgz:324100.got - 2010.06.03 11:33:40.
