data_PCOD9063341
_publ_section_title
;
Structure prediction by ZEFSAII (Michael W. Deem and Ramdas Pophale) SiO2 
 PCOD9063341
Probable space group: P -1
;
_chemical_formula_sum "Si O2"
_cell_formula_units_Z 13
_cell_length_a 19.293146
_cell_length_b 10.450178
_cell_length_c 6.672389
_cell_angle_alpha 59.629766
_cell_angle_beta 132.276703
_cell_angle_gamma 147.814598
_cell_volume 523.211655
_symmetry_space_group_name_H-M "P -1"
_symmetry_group_IT_number 2
_symmetry_cell_setting 'triclinic'
loop_
_space_group_symop_operation_xyz
x,y,z
-x,-y,-z
loop_
_atom_site_type_symbol
_atom_site_label
_atom_site_fract_x
_atom_site_fract_y
_atom_site_fract_z
Si Si1 0.500000 0.500000 0.500000
Si Si2 0.705972 0.543016 0.147846
Si Si3 0.367755 0.054697 0.223430
Si Si4 0.036753 0.320159 0.658408
Si Si5 0.284908 0.213880 0.690058
Si Si6 0.922685 0.336196 0.782088
Si Si7 0.516594 0.998520 0.799322
O O1 0.369330 0.359098 0.534933
O O2 0.588373 0.486928 0.825692
O O3 0.845043 0.658033 0.191170
O O4 0.757892 0.706944 0.307013
O O5 0.620627 0.291572 0.272800
O O6 0.339963 0.903333 0.105711
O O7 0.238271 0.924884 0.239837
O O8 0.490779 0.121225 0.542574
O O9 0.390707 0.236129 0.012093
O O10 0.097797 0.549940 0.496000
O O11 0.010851 0.321534 0.841194
O O12 0.870036 0.071810 0.439189
O O13 0.000000 0.500000 0.000000
O O14 0.500000 0.000000 0.000000
#
# Coordination Sequence:
#
# PCOD9063341 Si02
#       7
#     1   2   2   2   2   2   2
#     4  12  30  48  76 104 158 202 256 308 380 454
#     4  12  28  50  74 112 154 203 256 315 380 466
#     4  11  25  46  75 110 145 194 255 315 374 443
#     4  11  27  48  75 114 149 201 254 312 391 452
#     4  12  28  48  78 109 156 203 253 315 387 455
#     4  11  24  43  79 108 149 187 250 319 379 450
#     4  11  27  44  78 110 150 197 256 319 378 446
#
# _framework density 24.846540999999998
#
# number of rings (size 3 to 8) (size 9 to 14) (size 15 to 20)
#    0.000    0.615    4.615    0.923    8.615    3.077 
#    0.000    0.000    0.000    0.000    0.000    0.000 
#    0.000    0.000    0.000    0.000    0.000    0.000 
#
# Total GULP energy -72498.008707 kJ/mol
# GULP energy per Si atom -5576.769901 kJ/mol
# Density = 2.478999 g / cm^3
# Si number density = 24.846541 Si / 1000 Ang^3
#
#
#
# Elastic Constant Matrix: (Units=GPa)
#
#
# Indices 1 2 3 4 5 6 
#
# 1 236.1880 46.4656 56.7409 -11.9187 -29.6110 31.7010
# 2 46.4656 83.4206 42.4956 -24.9997 -16.4238 6.9447
# 3 56.7409 42.4956 89.4268 -27.6262 -16.0511 12.5888
# 4 -11.9187 -24.9997 -27.6262 34.6447 12.8391 -16.0449
# 5 -29.6110 -16.4238 -16.0511 12.8391 46.5946 -3.4936
# 6 31.7010 6.9447 12.5888 -16.0449 -3.4936 42.0475
#
#
#
# Elastic Compliance Matrix: (Units=1/GPa)
#
#
# Indices 1 2 3 4 5 6 
#
# 1 0.006371 -0.002564 -0.003343 -0.006035 0.003250 -0.005412
# 2 -0.002564 0.018685 -0.004376 0.010837 0.000790 0.004358
# 3 -0.003343 -0.004376 0.018626 0.011615 -0.000296 0.002074
# 4 -0.006035 0.010837 0.011615 0.057001 -0.010207 0.020186
# 5 0.003250 0.000790 -0.000296 -0.010207 0.026201 -0.004211
# 6 -0.005412 0.004358 0.002074 0.020186 -0.004211 0.033875
#
#
# Mechanical properties :
#
#
# Convention : Reuss Voigt Hill
#
# Bulk Modulus (GPa) = 43.26024 77.82662 60.54343
# Shear Modulus (GPa) = 26.45077 42.21291 34.33184
#
# Velocity S-wave (km/s) = 3.26631 4.12630 3.72123
# Velocity P-wave (km/s) = 5.62795 7.35477 6.54853
#
# Compressibility (1/GPa) = 0.02311592
#
# Stress axis : x y z
#
# Youngs Moduli (GPa) = 156.96895 53.51825 53.68765
#
# Poissons Ratio (x) = 0.13720 0.17948
# Poissons Ratio (y) = 0.40240 0.23496
# Poissons Ratio (z) = 0.52475 0.23422
#
# Static dielectric constant tensor:
#      x y z
#    x 2.035130 0.014850 -0.022530 
#    y 0.014850 2.066460 0.083510 
#    z -0.022530 0.083510 1.947840 
# 
# From -- ./inp_files/118090.got.cif
#   From: 2010.05.17/outbox.cif.g08.bks.cpg/sg2_60_cif.got.tgz:118090.got - 2010.06.03 11:33:40.
