data_PCOD9063608
_publ_section_title
;
Structure prediction by ZEFSAII (Michael W. Deem and Ramdas Pophale) SiO2 
 PCOD9063608
Probable space group: P -1
;
_chemical_formula_sum "Si O2"
_cell_formula_units_Z 16
_cell_length_a 18.197392
_cell_length_b 9.585433
_cell_length_c 13.862688
_cell_angle_alpha 31.993189
_cell_angle_beta 36.981542
_cell_angle_gamma 35.165015
_cell_volume 692.344283
_symmetry_space_group_name_H-M "P -1"
_symmetry_group_IT_number 2
_symmetry_cell_setting 'triclinic'
loop_
_space_group_symop_operation_xyz
x,y,z
-x,-y,-z
loop_
_atom_site_type_symbol
_atom_site_label
_atom_site_fract_x
_atom_site_fract_y
_atom_site_fract_z
Si Si1 0.542331 0.846837 0.650759
Si Si2 0.241599 0.210789 0.815657
Si Si3 0.770531 0.226756 0.410374
Si Si4 0.610050 0.128674 0.790670
Si Si5 0.947834 0.269810 0.655659
Si Si6 0.251212 0.803337 0.209575
Si Si7 0.856279 0.095033 0.043033
Si Si8 0.361238 0.706126 0.682163
O O1 0.612824 0.496408 0.780325
O O2 0.500000 0.000000 0.500000
O O3 0.400986 0.989325 0.771235
O O4 0.641859 0.975908 0.513282
O O5 0.218608 0.537702 0.667278
O O6 0.199598 0.079508 0.029283
O O7 0.170859 0.169480 0.817365
O O8 0.699561 0.052441 0.644212
O O9 0.677125 0.390644 0.321404
O O10 0.915084 0.025655 0.330430
O O11 0.714353 0.081020 0.795871
O O12 0.512798 0.475406 0.682475
O O13 0.500000 0.000000 0.000000
O O14 0.864068 0.309685 0.621243
O O15 0.856637 0.263062 0.845999
O O16 0.000000 0.500000 0.500000
O O17 0.739139 0.271892 0.138596
O O18 0.000000 0.000000 0.000000
#
# Coordination Sequence:
#
# PCOD9063608 Si02
#       8
#     2   2   2   2   2   2   2   2
#     4  12  21  42  72 103 139 182 237 287 355 425
#     4  11  24  44  71 105 142 184 238 299 355 417
#     4  12  26  48  73 102 145 190 237 295 362 423
#     4  12  27  44  67 106 143 184 236 296 364 415
#     4  11  27  49  72 104 143 190 241 292 355 431
#     4  11  25  44  69 105 145 187 235 294 352 426
#     4  11  24  45  71 102 135 187 238 285 343 428
#     4  12  24  44  73 102 138 185 235 292 354 426
#
# _framework density 23.109888000000002
#
# number of rings (size 3 to 8) (size 9 to 14) (size 15 to 20)
#    0.000    0.500    5.000    2.250    3.500    3.500 
#    2.250    0.000    0.000    0.000    0.000    0.000 
#    0.000    0.000    0.000    0.000    0.000    0.000 
#
# Total GULP energy -89379.095965 kJ/mol
# GULP energy per Si atom -5586.193498 kJ/mol
# Density = 2.305729 g / cm^3
# Si number density = 23.109888 Si / 1000 Ang^3
#
#
#
# Elastic Constant Matrix: (Units=GPa)
#
#
# Indices 1 2 3 4 5 6 
#
# 1 132.0369 -5.5604 26.6008 7.0872 -4.5983 8.6563
# 2 -5.5604 31.2732 4.2404 0.4618 -5.9303 1.7805
# 3 26.6008 4.2404 88.7689 8.1673 -7.6481 18.0083
# 4 7.0872 0.4618 8.1673 35.5741 3.1198 -3.7831
# 5 -4.5983 -5.9303 -7.6481 3.1198 30.5562 -1.5140
# 6 8.6563 1.7805 18.0083 -3.7831 -1.5140 32.4544
#
#
#
# Elastic Compliance Matrix: (Units=1/GPa)
#
#
# Indices 1 2 3 4 5 6 
#
# 1 0.008285 0.002080 -0.002086 -0.001441 0.001212 -0.001278
# 2 0.002080 0.033881 -0.001228 -0.001322 0.006638 -0.001576
# 3 -0.002086 -0.001228 0.014084 -0.003863 0.002996 -0.007502
# 4 -0.001441 -0.001322 -0.003863 0.030304 -0.004240 0.005935
# 5 0.001212 0.006638 0.002996 -0.004240 0.035321 -0.001196
# 6 -0.001278 -0.001576 -0.007502 0.005935 -0.001196 0.036038
#
#
# Mechanical properties :
#
#
# Convention : Reuss Voigt Hill
#
# Bulk Modulus (GPa) = 18.59394 33.62671 26.11033
# Shear Modulus (GPa) = 28.04126 34.83685 31.43905
#
# Velocity S-wave (km/s) = 3.48715 3.88679 3.69238
# Velocity P-wave (km/s) = 4.92717 5.89281 5.43149
#
# Compressibility (1/GPa) = 0.05378095
#
# Stress axis : x y z
#
# Youngs Moduli (GPa) = 120.70358 29.51542 71.00124
#
# Poissons Ratio (x) = -0.06138 0.14809
# Poissons Ratio (y) = -0.25103 0.08721
# Poissons Ratio (z) = 0.25176 0.03625
#
# Static dielectric constant tensor:
#      x y z
#    x 1.940640 0.048430 -0.049610 
#    y 0.048430 1.839050 -0.016870 
#    z -0.049610 -0.016870 1.972060 
# 
# From -- ./inp_files/190280.got.cif
#   From: 2010.05.17/outbox.cif.g08.bks.cpg/sg2_96_cif.got.tgz:190280.got - 2010.06.03 11:33:40.
