data_PCOD9063828
_publ_section_title
;
Structure prediction by ZEFSAII (Michael W. Deem and Ramdas Pophale) SiO2 
 PCOD9063828
Probable space group: P -1
;
_chemical_formula_sum "Si O2"
_cell_formula_units_Z 16
_cell_length_a 15.353015
_cell_length_b 9.182965
_cell_length_c 11.497426
_cell_angle_alpha 122.002164
_cell_angle_beta 78.325072
_cell_angle_gamma 143.063635
_cell_volume 744.153858
_symmetry_space_group_name_H-M "P -1"
_symmetry_group_IT_number 2
_symmetry_cell_setting 'triclinic'
loop_
_space_group_symop_operation_xyz
x,y,z
-x,-y,-z
loop_
_atom_site_type_symbol
_atom_site_label
_atom_site_fract_x
_atom_site_fract_y
_atom_site_fract_z
Si Si1 0.594615 0.299957 0.534468
Si Si2 0.857569 0.174181 0.562998
Si Si3 0.351110 0.127665 0.894440
Si Si4 0.996205 0.645975 0.154401
Si Si5 0.573216 0.446803 0.360933
Si Si6 0.347092 0.770774 0.864359
Si Si7 0.825864 0.370288 0.461259
Si Si8 0.698214 0.796193 0.815503
O O1 0.532954 0.309822 0.442895
O O2 0.741814 0.420004 0.497042
O O3 0.613408 0.475920 0.703083
O O4 0.500000 0.000000 0.500000
O O5 0.814035 0.282769 0.559228
O O6 0.952260 0.339411 0.727857
O O7 0.991295 0.312903 0.497348
O O8 0.703233 0.808243 0.473303
O O9 0.396271 0.007095 0.867948
O O10 0.248690 0.909578 0.715090
O O11 0.500000 0.500000 0.000000
O O12 0.267008 0.071068 0.009999
O O13 0.823032 0.454346 0.128030
O O14 0.143824 0.994741 0.213953
O O15 0.000000 0.500000 0.000000
O O16 0.664261 0.432826 0.274622
O O17 0.417015 0.256556 0.247772
O O18 0.500000 0.000000 0.000000
#
# Coordination Sequence:
#
# PCOD9063828 Si02
#       8
#     2   2   2   2   2   2   2   2
#     4  12  25  40  64 103 144 178 231 295 351 405
#     4  11  24  44  74  99 142 189 236 286 350 424
#     4  12  23  45  70  97 143 191 230 285 347 426
#     4  12  23  45  71 101 141 175 230 299 353 406
#     4  12  24  43  71 102 138 191 240 283 347 431
#     4  12  25  45  71 103 132 184 244 284 341 429
#     4  11  25  45  68 103 141 190 239 285 347 423
#     4  12  26  43  71 106 140 185 232 292 361 406
#
# _framework density 21.50093
#
# number of rings (size 3 to 8) (size 9 to 14) (size 15 to 20)
#    0.000    0.250    6.250    2.625    3.500    1.000 
#    0.000    0.000    0.000    3.000    0.000    0.000 
#    0.000    0.000    0.000    0.000    0.000    0.000 
#
# Total GULP energy -89217.440497 kJ/mol
# GULP energy per Si atom -5576.090031 kJ/mol
# Density = 2.145199 g / cm^3
# Si number density = 21.500930 Si / 1000 Ang^3
#
#
#
# Elastic Constant Matrix: (Units=GPa)
#
#
# Indices 1 2 3 4 5 6 
#
# 1 134.1804 53.3887 46.4906 1.9203 -11.0182 14.2825
# 2 53.3887 120.1971 15.1739 1.4710 10.6007 1.3501
# 3 46.4906 15.1739 85.7503 -10.2134 -5.5728 11.8662
# 4 1.9203 1.4710 -10.2134 30.1400 -2.8908 -1.4146
# 5 -11.0182 10.6007 -5.5728 -2.8908 42.5097 2.7987
# 6 14.2825 1.3501 11.8662 -1.4146 2.7987 35.3333
#
#
#
# Elastic Compliance Matrix: (Units=1/GPa)
#
#
# Indices 1 2 3 4 5 6 
#
# 1 0.011845 -0.004880 -0.005111 -0.002047 0.003692 -0.003259
# 2 -0.004880 0.010813 0.000160 -0.000470 -0.004092 0.001811
# 3 -0.005111 0.000160 0.015571 0.005572 0.001256 -0.003046
# 4 -0.002047 -0.000470 0.005572 0.035489 0.002719 0.000180
# 5 0.003692 -0.004092 0.001256 0.002719 0.026096 -0.003716
# 6 -0.003259 0.001811 -0.003046 0.000180 -0.003716 0.030875
#
#
# Mechanical properties :
#
#
# Convention : Reuss Voigt Hill
#
# Bulk Modulus (GPa) = 53.85954 63.35936 58.60945
# Shear Modulus (GPa) = 31.94075 36.60158 34.27117
#
# Velocity S-wave (km/s) = 3.85847 4.13040 3.99675
# Velocity P-wave (km/s) = 6.70482 7.23043 6.97258
#
# Compressibility (1/GPa) = 0.01856681
#
# Stress axis : x y z
#
# Youngs Moduli (GPa) = 84.42710 92.47894 64.22062
#
# Poissons Ratio (x) = 0.45128 0.32823
# Poissons Ratio (y) = 0.41199 -0.01025
# Poissons Ratio (z) = 0.43151 -0.01477
#
# Static dielectric constant tensor:
#      x y z
#    x 2.112870 0.009640 -0.266630 
#    y 0.009640 1.989310 -0.020510 
#    z -0.266630 -0.020510 2.256970 
# 
# From -- ./inp_files/446321.got.cif
#   From: 2010.05.17/outbox.cif.g08.bks.cpg/sg2_224_cif.got.tgz:446321.got - 2010.06.03 11:33:40.
