data_PCOD9063357
_publ_section_title
;
Structure prediction by ZEFSAII (Michael W. Deem and Ramdas Pophale) SiO2 
 PCOD9063357
Probable space group: P -1
;
_chemical_formula_sum "Si O2"
_cell_formula_units_Z 10
_cell_length_a 14.064747
_cell_length_b 14.817161
_cell_length_c 5.216400
_cell_angle_alpha 85.658210
_cell_angle_beta 72.672795
_cell_angle_gamma 28.546147
_cell_volume 452.858591
_symmetry_space_group_name_H-M "P -1"
_symmetry_group_IT_number 2
_symmetry_cell_setting 'triclinic'
loop_
_space_group_symop_operation_xyz
x,y,z
-x,-y,-z
loop_
_atom_site_type_symbol
_atom_site_label
_atom_site_fract_x
_atom_site_fract_y
_atom_site_fract_z
Si Si1 0.359962 0.644605 0.830730
Si Si2 0.784391 0.927541 0.723139
Si Si3 0.156382 0.005669 0.836499
Si Si4 0.622665 0.829598 0.253603
Si Si5 0.040445 0.549438 0.651688
O O1 0.500000 0.500000 0.500000
O O2 0.307848 0.794371 0.827535
O O3 0.500000 0.500000 0.000000
O O4 0.109420 0.804647 0.993191
O O5 0.011071 0.310323 0.448872
O O6 0.844608 0.696217 0.990310
O O7 0.550699 0.063053 0.844009
O O8 0.808018 0.949494 0.979776
O O9 0.212731 0.998674 0.513213
O O10 0.717061 0.666273 0.369679
O O11 0.500000 0.000000 0.500000
O O12 0.000000 0.500000 0.500000
#
# Coordination Sequence:
#
# PCOD9063357 Si02
#       5
#     2   2   2   2   2
#     4  11  24  49  76  97 139 178 214 274 360 415
#     4  12  25  44  69 101 143 174 233 288 330 399
#     4  11  27  45  68 109 135 171 227 285 336 416
#     4  11  24  44  65  93 137 190 234 284 341 389
#     4  11  25  42  66  94 136 189 237 275 336 400
#
# _framework density 22.081949000000002
#
# number of rings (size 3 to 8) (size 9 to 14) (size 15 to 20)
#    0.000    0.800    2.000    4.200    5.600    8.000 
#    0.000    0.000    0.000    0.000    0.000    0.000 
#    0.000    0.000    0.000    0.000    0.000    0.000 
#
# Total GULP energy -56001.503319 kJ/mol
# GULP energy per Si atom -5600.150332 kJ/mol
# Density = 2.203169 g / cm^3
# Si number density = 22.081949 Si / 1000 Ang^3
#
#
#
# Elastic Constant Matrix: (Units=GPa)
#
#
# Indices 1 2 3 4 5 6 
#
# 1 74.3224 38.2388 5.4168 5.1902 17.2532 8.4863
# 2 38.2388 184.1934 22.1075 -6.6977 13.6599 22.0343
# 3 5.4168 22.1075 98.5947 8.2190 11.5861 3.6211
# 4 5.1902 -6.6977 8.2190 39.7950 2.4213 2.6779
# 5 17.2532 13.6599 11.5861 2.4213 41.7331 -6.3134
# 6 8.4863 22.0343 3.6211 2.6779 -6.3134 33.8712
#
#
#
# Elastic Compliance Matrix: (Units=1/GPa)
#
#
# Indices 1 2 3 4 5 6 
#
# 1 0.016949 -0.002760 0.000796 -0.002185 -0.006745 -0.003620
# 2 -0.002760 0.006823 -0.001232 0.002127 -0.001488 -0.004061
# 3 0.000796 -0.001232 0.010953 -0.002329 -0.002974 -0.000939
# 4 -0.002185 0.002127 -0.002329 0.026516 -0.001122 -0.002892
# 5 -0.006745 -0.001488 -0.002974 -0.001122 0.029421 0.008549
# 6 -0.003620 -0.004061 -0.000939 -0.002892 0.008549 0.034995
#
#
# Mechanical properties :
#
#
# Convention : Reuss Voigt Hill
#
# Bulk Modulus (GPa) = 35.29480 54.29299 44.79389
# Shear Modulus (GPa) = 35.33709 42.50301 38.92005
#
# Velocity S-wave (km/s) = 4.00468 4.39200 4.20280
# Velocity P-wave (km/s) = 6.11568 7.09647 6.62425
#
# Compressibility (1/GPa) = 0.02833279
#
# Stress axis : x y z
#
# Youngs Moduli (GPa) = 59.00088 146.55376 91.29871
#
# Poissons Ratio (x) = 0.40452 -0.07263
# Poissons Ratio (y) = 0.16286 0.11244
# Poissons Ratio (z) = -0.04694 0.18049
#
# Static dielectric constant tensor:
#      x y z
#    x 1.819280 0.048160 -0.042490 
#    y 0.048160 1.863130 -0.027670 
#    z -0.042490 -0.027670 1.794390 
# 
# From -- ./inp_files/74735.got.cif
#   From: 2010.05.17/outbox.cif.g08.bks.cpg/sg2_38_cif.got.tgz:74735.got - 2010.06.03 11:33:40.
