data_PCOD9063401
_publ_section_title
;
Structure prediction by ZEFSAII (Michael W. Deem and Ramdas Pophale) SiO2 
 PCOD9063401
Probable space group: P -1
;
_chemical_formula_sum "Si O2"
_cell_formula_units_Z 14
_cell_length_a 7.026123
_cell_length_b 25.596101
_cell_length_c 15.726784
_cell_angle_alpha 161.094317
_cell_angle_beta 51.829622
_cell_angle_gamma 130.227502
_cell_volume 699.384328
_symmetry_space_group_name_H-M "P -1"
_symmetry_group_IT_number 2
_symmetry_cell_setting 'triclinic'
loop_
_space_group_symop_operation_xyz
x,y,z
-x,-y,-z
loop_
_atom_site_type_symbol
_atom_site_label
_atom_site_fract_x
_atom_site_fract_y
_atom_site_fract_z
Si Si1 0.188735 0.127693 0.436491
Si Si2 0.484167 0.473653 0.862051
Si Si3 0.297741 0.723490 0.193366
Si Si4 0.003343 0.252017 0.139004
Si Si5 0.286149 0.022697 0.432100
Si Si6 0.954945 0.522832 0.689792
Si Si7 0.587392 0.323396 0.102772
O O1 0.382189 0.278452 0.570321
O O2 0.308557 0.103557 0.457488
O O3 0.940722 0.198029 0.623299
O O4 0.108995 0.945276 0.136035
O O5 0.747808 0.537204 0.838757
O O6 0.500000 0.500000 0.000000
O O7 0.296597 0.576702 0.034337
O O8 0.534405 0.866070 0.377722
O O9 0.347498 0.660359 0.989728
O O10 0.000729 0.329978 0.165602
O O11 0.294599 0.300653 0.158161
O O12 0.873935 0.354634 0.398047
O O13 0.000000 0.000000 0.500000
O O14 0.353230 0.846951 0.144378
O O15 0.217004 0.534825 0.683186
#
# Coordination Sequence:
#
# PCOD9063401 Si02
#       7
#     2   2   2   2   2   2   2
#     4  12  24  40  65  94 137 170 211 264 325 394
#     4  12  25  44  66  96 135 173 210 269 331 386
#     4  12  23  39  64  98 132 171 212 263 332 387
#     4  11  24  44  67  95 127 178 220 266 318 377
#     4  12  21  35  61 100 132 165 210 271 328 375
#     4  11  25  44  67  94 131 171 225 267 314 385
#     4  12  21  39  69  97 129 165 221 274 322 375
#
# _framework density 20.017607999999999
#
# number of rings (size 3 to 8) (size 9 to 14) (size 15 to 20)
#    0.000    0.286    7.143    3.857    0.000    0.571 
#    0.000    0.000    0.000    2.571    0.000    0.000 
#    0.000    0.000    0.000    0.000    0.000    0.000 
#
# Total GULP energy -78261.301196 kJ/mol
# GULP energy per Si atom -5590.092943 kJ/mol
# Density = 1.997205 g / cm^3
# Si number density = 20.017608 Si / 1000 Ang^3
#
#
#
# Elastic Constant Matrix: (Units=GPa)
#
#
# Indices 1 2 3 4 5 6 
#
# 1 108.1835 28.5019 15.7959 -4.9778 9.2215 -16.6731
# 2 28.5019 61.6888 34.2619 -0.1122 8.6840 -15.1709
# 3 15.7959 34.2619 98.1532 6.5549 16.5130 -20.7301
# 4 -4.9778 -0.1122 6.5549 29.2503 3.2325 -3.0010
# 5 9.2215 8.6840 16.5130 3.2325 37.1153 9.8735
# 6 -16.6731 -15.1709 -20.7301 -3.0010 9.8735 31.7030
#
#
#
# Elastic Compliance Matrix: (Units=1/GPa)
#
#
# Indices 1 2 3 4 5 6 
#
# 1 0.011666 -0.003831 0.001590 0.002882 -0.004856 0.007126
# 2 -0.003831 0.023329 -0.005479 0.001838 -0.004095 0.007015
# 3 0.001590 -0.005479 0.015825 -0.001140 -0.009054 0.011274
# 4 0.002882 0.001838 -0.001140 0.036262 -0.005614 0.006831
# 5 -0.004856 -0.004095 -0.009054 -0.005614 0.039843 -0.023373
# 6 0.007126 0.007015 0.011274 0.006831 -0.023373 0.053945
#
#
# Mechanical properties :
#
#
# Convention : Reuss Voigt Hill
#
# Bulk Modulus (GPa) = 28.26594 47.23835 37.75214
# Shear Modulus (GPa) = 24.02658 32.24478 28.13568
#
# Velocity S-wave (km/s) = 3.46825 4.01786 3.75313
# Velocity P-wave (km/s) = 5.49450 6.72115 6.13854
#
# Compressibility (1/GPa) = 0.03537827
#
# Stress axis : x y z
#
# Youngs Moduli (GPa) = 85.72159 42.86599 63.19087
#
# Poissons Ratio (x) = 0.16423 -0.10045
# Poissons Ratio (y) = 0.32843 0.34620
# Poissons Ratio (z) = -0.13626 0.23485
#
# Static dielectric constant tensor:
#      x y z
#    x 1.661600 -0.015630 0.030260 
#    y -0.015630 1.697570 0.017140 
#    z 0.030260 0.017140 1.722460 
# 
# From -- ./inp_files/28370.got.cif
#   From: 2010.05.17/outbox.cif.g08.bks.cpg/sg2_15_cif.got.tgz:28370.got - 2010.06.03 11:33:40.
