data_PCOD9063046
_publ_section_title
;
Structure prediction by ZEFSAII (Michael W. Deem and Ramdas Pophale) SiO2 
 PCOD9063046
Probable space group: P -1
;
_chemical_formula_sum "Si O2"
_cell_formula_units_Z 14
_cell_length_a 11.876736
_cell_length_b 12.921579
_cell_length_c 11.119998
_cell_angle_alpha 43.815730
_cell_angle_beta 32.082815
_cell_angle_gamma 44.646138
_cell_volume 603.861473
_symmetry_space_group_name_H-M "P -1"
_symmetry_group_IT_number 2
_symmetry_cell_setting 'triclinic'
loop_
_space_group_symop_operation_xyz
x,y,z
-x,-y,-z
loop_
_atom_site_type_symbol
_atom_site_label
_atom_site_fract_x
_atom_site_fract_y
_atom_site_fract_z
Si Si1 0.111411 0.675019 0.311927
Si Si2 0.773876 0.929512 0.281638
Si Si3 0.003955 0.666442 0.911027
Si Si4 0.596678 0.315197 0.571899
Si Si5 0.495380 0.775596 0.005206
Si Si6 0.382258 0.127049 0.782109
Si Si7 0.133437 0.519541 0.172482
O O1 0.274129 0.762408 0.149946
O O2 0.193649 0.603929 0.165662
O O3 0.875925 0.797346 0.396780
O O4 0.077012 0.538510 0.544080
O O5 0.747872 0.858439 0.235849
O O6 0.500000 0.000000 0.500000
O O7 0.000000 0.000000 0.000000
O O8 0.143546 0.725280 0.636690
O O9 0.099241 0.619967 0.997883
O O10 0.000000 0.500000 0.000000
O O11 0.791361 0.806004 0.011686
O O12 0.500000 0.500000 0.500000
O O13 0.524792 0.255643 0.809940
O O14 0.533604 0.241343 0.568665
O O15 0.683900 0.636597 0.896586
O O16 0.513427 0.948846 0.827235
#
# Coordination Sequence:
#
# PCOD9063046 Si02
#       7
#     2   2   2   2   2   2   2
#     4  11  25  43  74 109 147 204 254 323 388 470
#     4  12  27  50  77 116 162 205 259 324 400 473
#     4  12  24  45  71 104 147 197 260 321 388 468
#     4  12  26  45  75 106 143 205 256 323 389 472
#     4  12  25  47  72 108 153 192 262 320 394 462
#     4  12  27  45  74 108 155 200 256 324 397 459
#     4  11  24  43  69 107 147 196 259 317 388 469
#
# _framework density 23.184125000000002
#
# number of rings (size 3 to 8) (size 9 to 14) (size 15 to 20)
#    0.000    0.286    5.714    2.571    2.000    1.714 
#    0.000    0.000    0.000    0.000    0.000    0.000 
#    0.000    0.000    0.000    0.000    0.000    0.000 
#
# Total GULP energy -78026.866091 kJ/mol
# GULP energy per Si atom -5573.347578 kJ/mol
# Density = 2.313136 g / cm^3
# Si number density = 23.184125 Si / 1000 Ang^3
#
#
#
# Elastic Constant Matrix: (Units=GPa)
#
#
# Indices 1 2 3 4 5 6 
#
# 1 117.1703 44.2876 33.2403 -3.1730 5.5778 25.4029
# 2 44.2876 128.8363 25.1378 15.4038 -12.7807 6.7173
# 3 33.2403 25.1378 75.2331 11.2474 5.5404 15.3034
# 4 -3.1730 15.4038 11.2474 49.2879 1.9612 -2.0674
# 5 5.5778 -12.7807 5.5404 1.9612 30.5802 -10.4597
# 6 25.4029 6.7173 15.3034 -2.0674 -10.4597 43.4410
#
#
#
# Elastic Compliance Matrix: (Units=1/GPa)
#
#
# Indices 1 2 3 4 5 6 
#
# 1 0.012994 -0.004542 -0.002663 0.002812 -0.006493 -0.007387
# 2 -0.004542 0.010682 -0.002278 -0.003251 0.007061 0.003352
# 3 -0.002663 -0.002278 0.017274 -0.003426 -0.005297 -0.005614
# 4 0.002812 -0.003251 -0.003426 0.022390 -0.002507 0.000527
# 5 -0.006493 0.007061 -0.005297 -0.002507 0.043022 0.014811
# 6 -0.007387 0.003352 -0.005614 0.000527 0.014811 0.032390
#
#
# Mechanical properties :
#
#
# Convention : Reuss Voigt Hill
#
# Bulk Modulus (GPa) = 45.48896 58.50790 51.99843
# Shear Modulus (GPa) = 30.29447 39.23344 34.76396
#
# Velocity S-wave (km/s) = 3.61874 4.11816 3.87650
# Velocity P-wave (km/s) = 6.09292 6.92122 6.52024
#
# Compressibility (1/GPa) = 0.02198336
#
# Stress axis : x y z
#
# Youngs Moduli (GPa) = 76.95997 93.61484 57.89034
#
# Poissons Ratio (x) = 0.42522 0.15416
# Poissons Ratio (y) = 0.34957 0.13188
# Poissons Ratio (z) = 0.20494 0.21327
#
# Static dielectric constant tensor:
#      x y z
#    x 1.890900 -0.031480 -0.072390 
#    y -0.031480 1.876550 0.018010 
#    z -0.072390 0.018010 1.945440 
# 
# From -- ./inp_files/427491.got.cif
#   From: 2010.05.17/outbox.cif.g08.bks.cpg/sg2_214_cif.got.tgz:427491.got - 2010.06.03 11:33:40.
