data_PCOD9063681
_publ_section_title
;
Structure prediction by ZEFSAII (Michael W. Deem and Ramdas Pophale) SiO2 
 PCOD9063681
Probable space group: P -1
;
_chemical_formula_sum "Si O2"
_cell_formula_units_Z 11
_cell_length_a 11.089524
_cell_length_b 14.872268
_cell_length_c 5.092159
_cell_angle_alpha 114.310176
_cell_angle_beta 92.587429
_cell_angle_gamma 139.757157
_cell_volume 391.640578
_symmetry_space_group_name_H-M "P -1"
_symmetry_group_IT_number 2
_symmetry_cell_setting 'triclinic'
loop_
_space_group_symop_operation_xyz
x,y,z
-x,-y,-z
loop_
_atom_site_type_symbol
_atom_site_label
_atom_site_fract_x
_atom_site_fract_y
_atom_site_fract_z
Si Si1 0.356700 0.308518 0.641769
Si Si2 0.243098 0.018069 0.474641
Si Si3 0.700766 0.447682 0.449196
Si Si4 0.000000 0.000000 0.500000
Si Si5 0.987064 0.321621 0.727441
Si Si6 0.600421 0.177028 0.289032
O O1 0.492609 0.360482 0.470748
O O2 0.077180 0.120512 0.386235
O O3 0.315605 0.188338 0.725111
O O4 0.500000 0.500000 0.000000
O O5 0.193994 0.895671 0.519778
O O6 0.990542 0.881181 0.190471
O O7 0.426472 0.106033 0.392639
O O8 0.633130 0.284763 0.204344
O O9 0.817341 0.565739 0.335540
O O10 0.898518 0.584007 0.862678
O O11 0.847991 0.319925 0.614240
O O12 0.500000 0.000000 0.000000
#
# Coordination Sequence:
#
# PCOD9063681 Si02
#       6
#     2   2   2   1   2   2
#     4   9  19  41  73 100 144 189 244 298 359 432
#     4   9  21  39  69 103 143 188 243 294 366 426
#     4  11  26  45  72 107 147 188 250 293 371 439
#     4   8  18  40  70  94 146 178 248 286 366 404
#     4  12  24  45  72 109 148 192 237 306 365 438
#     4  11  24  44  72 106 150 192 243 300 368 442
#
# _framework density 28.086977000000001
#
# number of rings (size 3 to 8) (size 9 to 14) (size 15 to 20)
#    1.091    0.727    0.000    3.818    0.000    4.364 
#    0.000    4.545    0.000    0.000    0.000    0.000 
#    0.000    0.000    0.000    0.000    0.000    0.000 
#
# Total GULP energy -61254.935674 kJ/mol
# GULP energy per Si atom -5568.630516 kJ/mol
# Density = 2.802305 g / cm^3
# Si number density = 28.086977 Si / 1000 Ang^3
#
#
#
# Elastic Constant Matrix: (Units=GPa)
#
#
# Indices 1 2 3 4 5 6 
#
# 1 156.5678 50.0840 5.7012 -13.5559 -32.7586 13.9459
# 2 50.0840 222.2916 45.5071 11.1837 -25.2356 -12.1174
# 3 5.7012 45.5071 112.4462 7.9695 -30.9928 -8.6991
# 4 -13.5559 11.1837 7.9695 34.4264 -10.6049 2.8914
# 5 -32.7586 -25.2356 -30.9928 -10.6049 33.9190 9.3579
# 6 13.9459 -12.1174 -8.6991 2.8914 9.3579 57.2096
#
#
#
# Elastic Compliance Matrix: (Units=1/GPa)
#
#
# Indices 1 2 3 4 5 6 
#
# 1 0.012910 -0.002504 0.004613 0.011686 0.020378 -0.006900
# 2 -0.002504 0.005576 -0.002267 -0.002985 -0.001796 0.001891
# 3 0.004613 -0.002267 0.013919 0.005035 0.017793 -0.002653
# 4 0.011686 -0.002985 0.005035 0.043512 0.029979 -0.009818
# 5 0.020378 -0.001796 0.017793 0.029979 0.078131 -0.016938
# 6 -0.006900 0.001891 -0.002653 -0.009818 -0.016938 0.022425
#
#
# Mechanical properties :
#
#
# Convention : Reuss Voigt Hill
#
# Bulk Modulus (GPa) = 31.16183 77.09891 54.13037
# Shear Modulus (GPa) = 26.66876 51.11186 38.89031
#
# Velocity S-wave (km/s) = 3.08475 4.27051 3.72511
# Velocity P-wave (km/s) = 4.87918 7.19902 6.14949
#
# Compressibility (1/GPa) = 0.03209055
#
# Stress axis : x y z
#
# Youngs Moduli (GPa) = 77.45936 179.33418 71.84544
#
# Poissons Ratio (x) = 0.44902 -0.33145
# Poissons Ratio (y) = 0.19394 0.16286
# Poissons Ratio (z) = -0.35735 0.40652
#
# Static dielectric constant tensor:
#      x y z
#    x 2.290690 -0.021980 0.086690 
#    y -0.021980 2.301330 -0.119590 
#    z 0.086690 -0.119590 2.601370 
# 
# From -- ./inp_files/73507.got.cif
#   From: 2010.05.17/outbox.cif.g08.bks.cpg/sg2_37_cif.got.tgz:73507.got - 2010.06.03 11:33:40.
