data_PCOD9063635
_publ_section_title
;
Structure prediction by ZEFSAII (Michael W. Deem and Ramdas Pophale) SiO2 
 PCOD9063635
Probable space group: P -1
;
_chemical_formula_sum "Si O2"
_cell_formula_units_Z 16
_cell_length_a 5.510329
_cell_length_b 11.559069
_cell_length_c 10.895503
_cell_angle_alpha 92.726558
_cell_angle_beta 115.692624
_cell_angle_gamma 92.642075
_cell_volume 622.942816
_symmetry_space_group_name_H-M "P -1"
_symmetry_group_IT_number 2
_symmetry_cell_setting 'triclinic'
loop_
_space_group_symop_operation_xyz
x,y,z
-x,-y,-z
loop_
_atom_site_type_symbol
_atom_site_label
_atom_site_fract_x
_atom_site_fract_y
_atom_site_fract_z
Si Si1 0.459372 0.138593 0.256065
Si Si2 0.113322 0.522717 0.662394
Si Si3 0.224198 0.675367 0.048254
Si Si4 0.031681 0.865885 0.471511
Si Si5 0.785522 0.310993 0.670896
Si Si6 0.707585 0.051167 0.944630
Si Si7 0.267375 0.282028 0.423689
Si Si8 0.407354 0.357592 0.098417
O O1 0.744624 0.167113 0.382757
O O2 0.259573 0.178729 0.318169
O O3 0.424930 0.223364 0.138566
O O4 0.428962 0.003712 0.211048
O O5 0.421224 0.567576 0.757723
O O6 0.000000 0.500000 0.500000
O O7 0.035823 0.405319 0.712048
O O8 0.933463 0.627952 0.665700
O O9 0.302418 0.674855 0.208358
O O10 0.241644 0.812466 0.028682
O O11 0.426191 0.624436 0.991430
O O12 0.910441 0.625060 0.970483
O O13 0.125096 0.816591 0.358523
O O14 0.785153 0.781914 0.460729
O O15 0.000000 0.000000 0.500000
O O16 0.561917 0.342113 0.522668
O O17 0.500000 0.000000 0.000000
O O18 0.000000 0.000000 0.000000
#
# Coordination Sequence:
#
# PCOD9063635 Si02
#       8
#     2   2   2   2   2   2   2   2
#     4  11  24  44  71 110 143 199 250 311 376 443
#     4  12  24  50  81 109 142 196 265 319 376 448
#     4  12  28  48  71 113 155 201 250 308 379 463
#     4  11  26  44  73 109 149 191 245 320 382 443
#     4  11  28  47  72 112 150 203 252 311 388 447
#     4  12  25  43  72 105 150 201 251 299 362 461
#     4  11  24  46  77 105 149 193 253 322 376 448
#     4  12  26  48  76 108 152 194 257 309 377 450
#
# _framework density 25.684536999999999
#
# number of rings (size 3 to 8) (size 9 to 14) (size 15 to 20)
#    0.000    0.500    5.000    1.875    7.000    3.000 
#    0.000    0.000    0.000    0.000    0.000    0.000 
#    0.000    0.000    0.000    0.000    0.000    0.000 
#
# Total GULP energy -89514.353858 kJ/mol
# GULP energy per Si atom -5594.647116 kJ/mol
# Density = 2.562608 g / cm^3
# Si number density = 25.684537 Si / 1000 Ang^3
#
#
#
# Elastic Constant Matrix: (Units=GPa)
#
#
# Indices 1 2 3 4 5 6 
#
# 1 146.8211 52.6566 63.8740 9.1591 -12.5083 8.3177
# 2 52.6566 119.2223 22.5612 9.9444 4.9446 -14.2286
# 3 63.8740 22.5612 133.0371 18.1776 -4.9879 5.5308
# 4 9.1591 9.9444 18.1776 32.3920 10.2186 4.0683
# 5 -12.5083 4.9446 -4.9879 10.2186 50.3015 10.6059
# 6 8.3177 -14.2286 5.5308 4.0683 10.6059 38.2406
#
#
#
# Elastic Compliance Matrix: (Units=1/GPa)
#
#
# Indices 1 2 3 4 5 6 
#
# 1 0.010855 -0.004725 -0.004093 0.000083 0.003703 -0.004563
# 2 -0.004725 0.011504 0.000220 -0.002112 -0.003202 0.006389
# 3 -0.004093 0.000220 0.010163 -0.004903 0.001019 -0.000259
# 4 0.000083 -0.002112 -0.004903 0.036805 -0.007317 -0.001981
# 5 0.003703 -0.003202 0.001019 -0.007317 0.024419 -0.008138
# 6 -0.004563 0.006389 -0.000259 -0.001981 -0.008138 0.032025
#
#
# Mechanical properties :
#
#
# Convention : Reuss Voigt Hill
#
# Bulk Modulus (GPa) = 65.24300 75.25156 70.24728
# Shear Modulus (GPa) = 33.76629 41.51941 37.64285
#
# Velocity S-wave (km/s) = 3.62975 4.02495 3.83245
# Velocity P-wave (km/s) = 6.55924 7.13879 6.85514
#
# Compressibility (1/GPa) = 0.01532732
#
# Stress axis : x y z
#
# Youngs Moduli (GPa) = 92.12231 86.92448 98.39191
#
# Poissons Ratio (x) = 0.41070 0.40275
# Poissons Ratio (y) = 0.43526 -0.02169
# Poissons Ratio (z) = 0.37709 -0.01916
#
# Static dielectric constant tensor:
#      x y z
#    x 2.739610 -0.065100 0.097690 
#    y -0.065100 2.051630 -0.002580 
#    z 0.097690 -0.002580 2.054930 
# 
# From -- ./inp_files/364877.got.cif
#   From: 2010.05.17/outbox.cif.g08.bks.cpg/sg2_183_cif.got.tgz:364877.got - 2010.06.03 11:33:40.
