data_PCOD9063320
_publ_section_title
;
Structure prediction by ZEFSAII (Michael W. Deem and Ramdas Pophale) SiO2 
 PCOD9063320
Probable space group: P -1
;
_chemical_formula_sum "Si O2"
_cell_formula_units_Z 16
_cell_length_a 11.302268
_cell_length_b 9.757930
_cell_length_c 22.108725
_cell_angle_alpha 26.022467
_cell_angle_beta 43.641561
_cell_angle_gamma 51.174091
_cell_volume 736.076069
_symmetry_space_group_name_H-M "P -1"
_symmetry_group_IT_number 2
_symmetry_cell_setting 'triclinic'
loop_
_space_group_symop_operation_xyz
x,y,z
-x,-y,-z
loop_
_atom_site_type_symbol
_atom_site_label
_atom_site_fract_x
_atom_site_fract_y
_atom_site_fract_z
Si Si1 0.992009 0.918183 0.106226
Si Si2 0.595426 0.438123 0.795291
Si Si3 0.850972 0.729028 0.671170
Si Si4 0.655399 0.954020 0.870062
Si Si5 0.429362 0.157225 0.181417
Si Si6 0.635074 0.101940 0.356687
Si Si7 0.625735 0.803997 0.345971
Si Si8 0.999139 0.402901 0.108846
O O1 0.812976 0.783605 0.256358
O O2 0.107111 0.632043 0.191954
O O3 0.000000 0.000000 0.000000
O O4 0.027059 0.264946 0.982614
O O5 0.721532 0.711064 0.669117
O O6 0.433486 0.571590 0.769488
O O7 0.694433 0.237834 0.789834
O O8 0.507548 0.234828 0.962802
O O9 0.755417 0.826657 0.727642
O O10 0.000000 0.000000 0.500000
O O11 0.591450 0.048614 0.789868
O O12 0.820414 0.748192 0.884414
O O13 0.549350 0.060905 0.229284
O O14 0.500000 0.500000 0.000000
O O15 0.833230 0.163941 0.278609
O O16 0.500000 0.000000 0.500000
O O17 0.629755 0.892328 0.380376
O O18 0.500000 0.500000 0.500000
O O19 0.000000 0.500000 0.000000
#
# Coordination Sequence:
#
# PCOD9063320 Si02
#       8
#     2   2   2   2   2   2   2   2
#     4  12  27  43  75 110 137 191 244 295 359 428
#     4  11  24  44  70 106 142 184 242 291 365 417
#     4  12  26  46  69 101 152 187 228 299 362 431
#     4  11  24  43  76 107 136 185 241 307 347 421
#     4  12  23  46  74 100 138 186 245 287 352 427
#     4  12  28  47  73 104 150 195 234 298 371 437
#     4  12  27  48  70 105 151 189 237 302 365 430
#     4  12  23  48  72 104 147 181 246 305 354 422
#
# _framework density 21.736882000000001
#
# number of rings (size 3 to 8) (size 9 to 14) (size 15 to 20)
#    0.000    0.250    5.000    3.750    5.250    1.000 
#    0.000    1.250    0.000    0.000    0.000    0.000 
#    0.000    0.000    0.000    0.000    0.000    0.000 
#
# Total GULP energy -89384.082423 kJ/mol
# GULP energy per Si atom -5586.505151 kJ/mol
# Density = 2.168741 g / cm^3
# Si number density = 21.736882 Si / 1000 Ang^3
#
#
#
# Elastic Constant Matrix: (Units=GPa)
#
#
# Indices 1 2 3 4 5 6 
#
# 1 63.9660 12.6483 2.1335 13.1607 -10.5545 13.8318
# 2 12.6483 47.8757 -22.0463 26.6600 6.1054 22.0709
# 3 2.1335 -22.0463 61.1303 31.5445 -19.4976 14.9434
# 4 13.1607 26.6600 31.5445 43.8459 0.1629 3.3865
# 5 -10.5545 6.1054 -19.4976 0.1629 35.6546 -1.8660
# 6 13.8318 22.0709 14.9434 3.3865 -1.8660 49.5086
#
#
#
# Elastic Compliance Matrix: (Units=1/GPa)
#
#
# Indices 1 2 3 4 5 6 
#
# 1 0.017579 -0.009030 -0.004147 0.003156 0.004485 0.000319
# 2 -0.009030 -0.015095 -0.031595 0.033456 -0.016688 0.015871
# 3 -0.004147 -0.031595 -0.016605 0.031029 -0.004098 0.017979
# 4 0.003156 0.033456 0.031029 -0.019036 0.011033 -0.023444
# 5 0.004485 -0.016688 -0.004098 0.011033 0.030349 0.007813
# 6 0.000319 0.015871 0.017979 -0.023444 0.007813 0.009505
#
#
# Mechanical properties :
#
#
# Convention : Reuss Voigt Hill
#
# Bulk Modulus (GPa) = -9.64640 17.60476 3.97918
# Shear Modulus (GPa) = 81.05518 37.81759 59.43638
#
# Velocity S-wave (km/s) = 6.11312 4.17560 5.23478
# Velocity P-wave (km/s) = 6.73643 5.60037 6.19450
#
# Compressibility (1/GPa) = -0.10366561
#
# Stress axis : x y z
#
# Youngs Moduli (GPa) = 56.88675 -66.24727 -60.22265
#
# Poissons Ratio (x) = -0.59824 -0.24972
# Poissons Ratio (y) = 0.51371 -1.90275
# Poissons Ratio (z) = 0.23589 -2.09310
#
# Static dielectric constant tensor:
#      x y z
#    x 1.794220 -0.052960 -0.040190 
#    y -0.052960 1.711030 -0.041630 
#    z -0.040190 -0.041630 1.647700 
# 
# From -- ./inp_files/593899.got.cif
#   From: 2010.05.17/outbox.cif.g08.bks.cpg/sg2_297_cif.got.tgz:593899.got - 2010.06.03 11:33:40.
