data_PCOD9063448
_publ_section_title
;
Structure prediction by ZEFSAII (Michael W. Deem and Ramdas Pophale) SiO2 
 PCOD9063448
Probable space group: P -1
;
_chemical_formula_sum "Si O2"
_cell_formula_units_Z 16
_cell_length_a 19.672919
_cell_length_b 5.664591
_cell_length_c 7.761506
_cell_angle_alpha 136.662759
_cell_angle_beta 95.995432
_cell_angle_gamma 86.103363
_cell_volume 590.309648
_symmetry_space_group_name_H-M "P -1"
_symmetry_group_IT_number 2
_symmetry_cell_setting 'triclinic'
loop_
_space_group_symop_operation_xyz
x,y,z
-x,-y,-z
loop_
_atom_site_type_symbol
_atom_site_label
_atom_site_fract_x
_atom_site_fract_y
_atom_site_fract_z
Si Si1 0.977013 0.362510 0.606996
Si Si2 0.896027 0.382266 0.092964
Si Si3 0.476288 0.377352 0.742617
Si Si4 0.651181 0.298742 0.235455
Si Si5 0.727159 0.412893 0.860651
Si Si6 0.775138 0.676551 0.379408
Si Si7 0.604348 0.569957 0.721269
Si Si8 0.149557 0.354980 0.159014
O O1 0.895539 0.382196 0.603536
O O2 0.000000 0.500000 0.500000
O O3 0.022326 0.619109 0.874484
O O4 0.000000 0.000000 0.500000
O O5 0.855596 0.625999 0.347566
O O6 0.876539 0.539449 0.984973
O O7 0.869165 0.009744 0.953314
O O8 0.396079 0.416269 0.715675
O O9 0.523966 0.601816 0.745783
O O10 0.500000 0.000000 0.500000
O O11 0.500000 0.500000 0.000000
O O12 0.731394 0.380211 0.304756
O O13 0.623052 0.331351 0.438891
O O14 0.634436 0.956332 0.942547
O O15 0.646869 0.407499 0.803717
O O16 0.769863 0.589807 0.809648
O O17 0.755882 0.028088 0.653468
O O18 0.745041 0.622274 0.148930
#
# Coordination Sequence:
#
# PCOD9063448 Si02
#       8
#     2   2   2   2   2   2   2   2
#     4  12  24  40  66 100 138 184 235 292 353 420
#     4  11  24  44  68  98 138 186 235 290 352 421
#     4  12  24  42  64  90 128 174 224 282 346 420
#     4  12  24  41  65  96 131 172 223 283 346 418
#     4  11  24  44  68  99 135 179 226 280 345 419
#     4  11  24  44  68  99 135 179 226 280 345 419
#     4  12  24  41  65  96 131 172 223 283 346 418
#     4  11  24  44  68  98 138 186 235 290 352 421
#
# _framework density 27.104417999999999
#
# number of rings (size 3 to 8) (size 9 to 14) (size 15 to 20)
#    0.000    0.500    0.000    9.000    0.000    5.000 
#    0.000    0.000    0.000    0.000    0.000    0.000 
#    0.000    0.000    0.000    0.000    0.000    0.000 
#
# Total GULP energy -89498.460502 kJ/mol
# GULP energy per Si atom -5593.653781 kJ/mol
# Density = 2.704273 g / cm^3
# Si number density = 27.104418 Si / 1000 Ang^3
#
#
#
# Elastic Constant Matrix: (Units=GPa)
#
#
# Indices 1 2 3 4 5 6 
#
# 1 103.7686 18.9248 20.2179 -11.1619 -13.1444 15.1207
# 2 18.9248 134.3126 50.3229 -5.6479 -1.5329 3.5937
# 3 20.2179 50.3229 82.7325 10.7178 -2.0419 -13.9503
# 4 -11.1619 -5.6479 10.7178 67.9906 -2.9670 3.6065
# 5 -13.1444 -1.5329 -2.0419 -2.9670 48.1222 0.2219
# 6 15.1207 3.5937 -13.9503 3.6065 0.2219 51.7400
#
#
#
# Elastic Compliance Matrix: (Units=1/GPa)
#
#
# Indices 1 2 3 4 5 6 
#
# 1 0.011847 0.000165 -0.004114 0.003005 0.003274 -0.004806
# 2 0.000165 0.010209 -0.006992 0.002135 0.000218 -0.002792
# 3 -0.004114 -0.006992 0.019143 -0.004692 -0.000857 0.007180
# 4 0.003005 0.002135 -0.004692 0.016376 0.001715 -0.003440
# 5 0.003274 0.000218 -0.000857 0.001715 0.021758 -0.001416
# 6 -0.004806 -0.002792 0.007180 -0.003440 -0.001416 0.023108
#
#
# Mechanical properties :
#
#
# Convention : Reuss Voigt Hill
#
# Bulk Modulus (GPa) = 51.77163 55.52724 53.64943
# Shear Modulus (GPa) = 38.23809 48.99378 43.61594
#
# Velocity S-wave (km/s) = 3.76010 4.25619 4.01581
# Velocity P-wave (km/s) = 6.16388 6.68464 6.42953
#
# Compressibility (1/GPa) = 0.01931560
#
# Stress axis : x y z
#
# Youngs Moduli (GPa) = 84.41203 97.95583 52.23935
#
# Poissons Ratio (x) = -0.01611 0.21491
# Poissons Ratio (y) = -0.01389 0.36524
# Poissons Ratio (z) = 0.34727 0.68488
#
# Static dielectric constant tensor:
#      x y z
#    x 2.119440 0.032330 0.012880 
#    y 0.032330 2.191910 0.008270 
#    z 0.012880 0.008270 2.145550 
# 
# From -- ./inp_files/12724.got.cif
#   From: 2010.05.17/outbox.cif.g08.bks.cpg/sg2_7_cif.got.tgz:12724.got - 2010.06.03 11:33:40.
