data_PCOD9063749
_publ_section_title
;
Structure prediction by ZEFSAII (Michael W. Deem and Ramdas Pophale) SiO2 
 PCOD9063749
Probable space group: P -1
;
_chemical_formula_sum "Si O2"
_cell_formula_units_Z 15
_cell_length_a 13.217617
_cell_length_b 9.114813
_cell_length_c 9.794899
_cell_angle_alpha 58.426537
_cell_angle_beta 139.796579
_cell_angle_gamma 123.504219
_cell_volume 623.653672
_symmetry_space_group_name_H-M "P -1"
_symmetry_group_IT_number 2
_symmetry_cell_setting 'triclinic'
loop_
_space_group_symop_operation_xyz
x,y,z
-x,-y,-z
loop_
_atom_site_type_symbol
_atom_site_label
_atom_site_fract_x
_atom_site_fract_y
_atom_site_fract_z
Si Si1 0.265808 0.590362 0.251747
Si Si2 0.934553 0.020391 0.773571
Si Si3 0.828170 0.602235 0.208224
Si Si4 0.500000 0.500000 0.000000
Si Si5 0.880943 0.128202 0.187014
Si Si6 0.420075 0.162419 0.874816
Si Si7 0.941267 0.566578 0.623209
Si Si8 0.370895 0.253913 0.468815
O O1 0.143951 0.534641 0.281103
O O2 0.282725 0.411359 0.280657
O O3 0.450315 0.688216 0.439730
O O4 0.207068 0.726136 0.029209
O O5 0.741551 0.936357 0.604962
O O6 0.007609 0.904475 0.802627
O O7 0.018855 0.222884 0.719700
O O8 0.000000 0.000000 0.000000
O O9 0.813597 0.525184 0.386448
O O10 0.896252 0.480347 0.236610
O O11 0.649891 0.624476 0.997226
O O12 0.499471 0.321661 0.985398
O O13 0.997853 0.224428 0.381587
O O14 0.750454 0.949169 0.182643
O O15 0.395300 0.245453 0.662011
O O16 0.500000 0.000000 0.000000
#
# Coordination Sequence:
#
# PCOD9063749 Si02
#       8
#     2   2   2   1   2   2   2   2
#     4  11  24  44  73 107 140 196 246 299 369 452
#     4  12  27  45  70 107 148 190 245 310 372 444
#     4  11  26  45  70 108 143 190 243 315 367 439
#     4  12  26  44  76 116 148 188 254 312 366 446
#     4  12  24  46  75 103 144 197 243 301 376 446
#     4  12  25  49  78 110 150 195 252 309 371 444
#     4  11  24  46  72 101 147 192 247 298 377 450
#     4  11  26  46  76 106 147 199 249 303 376 449
#
# _framework density 24.051812000000002
#
# number of rings (size 3 to 8) (size 9 to 14) (size 15 to 20)
#    0.000    0.533    4.000    3.600    1.867    4.267 
#    0.000    2.667    0.000    0.000    0.000    0.000 
#    0.000    0.000    0.000    0.000    0.000    0.000 
#
# Total GULP energy -83684.189678 kJ/mol
# GULP energy per Si atom -5578.945979 kJ/mol
# Density = 2.399707 g / cm^3
# Si number density = 24.051812 Si / 1000 Ang^3
#
#
#
# Elastic Constant Matrix: (Units=GPa)
#
#
# Indices 1 2 3 4 5 6 
#
# 1 101.6787 32.2851 8.6762 22.7462 6.2628 0.3646
# 2 32.2851 134.4694 17.8255 27.0942 3.6599 -0.3990
# 3 8.6762 17.8255 44.0690 -4.1472 -15.2756 -11.4655
# 4 22.7462 27.0942 -4.1472 44.4412 -6.4990 5.0274
# 5 6.2628 3.6599 -15.2756 -6.4990 33.3956 6.3912
# 6 0.3646 -0.3990 -11.4655 5.0274 6.3912 58.5895
#
#
#
# Elastic Compliance Matrix: (Units=1/GPa)
#
#
# Indices 1 2 3 4 5 6 
#
# 1 0.012474 -0.000720 -0.004849 -0.007295 -0.005945 0.000243
# 2 -0.000720 0.010041 -0.006423 -0.007127 -0.005291 0.000005
# 3 -0.004849 -0.006423 0.035024 0.012066 0.019273 0.003703
# 4 -0.007295 -0.007127 0.012066 0.034105 0.014721 -0.002174
# 5 -0.005945 -0.005291 0.019273 0.014721 0.043753 -0.002263
# 6 0.000243 0.000005 0.003703 -0.002174 -0.002263 0.018224
#
#
# Mechanical properties :
#
#
# Convention : Reuss Voigt Hill
#
# Bulk Modulus (GPa) = 29.80131 44.19898 37.00015
# Shear Modulus (GPa) = 26.48436 42.04727 34.26582
#
# Velocity S-wave (km/s) = 3.32194 4.18568 3.77857
# Velocity P-wave (km/s) = 5.20875 6.46346 5.86973
#
# Compressibility (1/GPa) = 0.03355557
#
# Stress axis : x y z
#
# Youngs Moduli (GPa) = 80.16378 99.59157 28.55197
#
# Poissons Ratio (x) = 0.07169 0.13844
# Poissons Ratio (y) = 0.05771 0.18340
# Poissons Ratio (z) = 0.38868 0.63972
#
# Static dielectric constant tensor:
#      x y z
#    x 1.958840 0.027920 0.084870 
#    y 0.027920 1.970810 0.031670 
#    z 0.084870 0.031670 2.013260 
# 
# From -- ./inp_files/243248.got.cif
#   From: 2010.05.17/outbox.cif.g08.bks.cpg/sg2_122_cif.got.tgz:243248.got - 2010.06.03 11:33:40.
