data_PCOD9063526
_publ_section_title
;
Structure prediction by ZEFSAII (Michael W. Deem and Ramdas Pophale) SiO2 
 PCOD9063526
Probable space group: P -1
;
_chemical_formula_sum "Si O2"
_cell_formula_units_Z 16
_cell_length_a 16.667634
_cell_length_b 10.248362
_cell_length_c 9.639925
_cell_angle_alpha 63.960016
_cell_angle_beta 107.061035
_cell_angle_gamma 146.634408
_cell_volume 804.703247
_symmetry_space_group_name_H-M "P -1"
_symmetry_group_IT_number 2
_symmetry_cell_setting 'triclinic'
loop_
_space_group_symop_operation_xyz
x,y,z
-x,-y,-z
loop_
_atom_site_type_symbol
_atom_site_label
_atom_site_fract_x
_atom_site_fract_y
_atom_site_fract_z
Si Si1 0.542925 0.693247 0.332254
Si Si2 0.573636 0.476198 0.959758
Si Si3 0.585902 0.948639 0.717788
Si Si4 0.403947 0.691817 0.477323
Si Si5 0.924252 0.017635 0.862876
Si Si6 0.126476 0.840220 0.799298
Si Si7 0.106698 0.714577 0.161804
Si Si8 0.077181 0.107305 0.636914
O O1 0.500000 0.500000 0.500000
O O2 0.488070 0.601834 0.190086
O O3 0.463827 0.716283 0.352126
O O4 0.718741 0.950605 0.297368
O O5 0.748854 0.745901 0.916211
O O6 0.500000 0.500000 0.000000
O O7 0.522205 0.258088 0.116870
O O8 0.513982 0.797042 0.606729
O O9 0.599151 0.139807 0.617980
O O10 0.746597 0.114587 0.757702
O O11 0.243019 0.402738 0.568754
O O12 0.959171 0.230188 0.834305
O O13 0.984304 0.071006 0.714731
O O14 0.000000 0.000000 0.000000
O O15 0.006026 0.580089 0.770957
O O16 0.084219 0.947355 0.754768
O O17 0.146466 0.800605 0.980813
O O18 0.000000 0.000000 0.500000
#
# Coordination Sequence:
#
# PCOD9063526 Si02
#       8
#     2   2   2   2   2   2   2   2
#     4  12  24  43  72 102 135 180 232 279 346 419
#     4  12  24  44  74  99 135 185 233 282 346 415
#     4  11  24  46  70  98 141 181 232 292 347 406
#     4  11  26  44  69 102 139 182 232 293 344 414
#     4  12  25  42  72 105 134 182 234 283 344 422
#     4  11  24  44  70 101 142 182 226 293 351 411
#     4  11  24  45  70 103 139 181 233 290 352 413
#     4  12  25  45  67 100 144 180 228 288 353 412
#
# _framework density 19.883106999999999
#
# number of rings (size 3 to 8) (size 9 to 14) (size 15 to 20)
#    0.000    0.500    5.000    3.000    0.000    3.500 
#    0.000    1.875    0.000    0.000    0.000    0.000 
#    0.000    0.000    0.000    0.000    0.000    0.000 
#
# Total GULP energy -89478.733434 kJ/mol
# GULP energy per Si atom -5592.420840 kJ/mol
# Density = 1.983785 g / cm^3
# Si number density = 19.883107 Si / 1000 Ang^3
#
#
#
# Elastic Constant Matrix: (Units=GPa)
#
#
# Indices 1 2 3 4 5 6 
#
# 1 117.8736 64.1139 36.5925 -0.4810 -23.4718 0.3856
# 2 64.1139 151.2523 60.4934 -3.4334 -10.9776 5.3947
# 3 36.5925 60.4934 113.6090 11.7200 -10.9615 -0.7254
# 4 -0.4810 -3.4334 11.7200 42.8865 -0.5153 2.2671
# 5 -23.4718 -10.9776 -10.9615 -0.5153 44.2570 -0.9883
# 6 0.3856 5.3947 -0.7254 2.2671 -0.9883 37.4307
#
#
#
# Elastic Compliance Matrix: (Units=1/GPa)
#
#
# Indices 1 2 3 4 5 6 
#
# 1 0.012239 -0.004386 -0.001119 0.000121 0.005141 0.000613
# 2 -0.004386 0.010254 -0.004352 0.002038 -0.000874 -0.001664
# 3 -0.001119 -0.004352 0.011990 -0.003682 0.001279 0.001128
# 4 0.000121 0.002038 -0.003682 0.024585 -0.000097 -0.001858
# 5 0.005141 -0.000874 0.001279 -0.000097 0.025438 0.000775
# 6 0.000613 -0.001664 0.001128 -0.001858 0.000775 0.027104
#
#
# Mechanical properties :
#
#
# Convention : Reuss Voigt Hill
#
# Bulk Modulus (GPa) = 67.71482 78.34829 73.03155
# Shear Modulus (GPa) = 36.69765 39.68386 38.19075
#
# Velocity S-wave (km/s) = 4.30079 4.47235 4.38741
# Velocity P-wave (km/s) = 7.66764 8.13383 7.90417
#
# Compressibility (1/GPa) = 0.01476782
#
# Stress axis : x y z
#
# Youngs Moduli (GPa) = 81.70526 97.52653 83.39992
#
# Poissons Ratio (x) = 0.42779 0.09333
# Poissons Ratio (y) = 0.35839 0.36297
# Poissons Ratio (z) = 0.09143 0.42445
#
# Static dielectric constant tensor:
#      x y z
#    x 1.682830 -0.063720 0.079830 
#    y -0.063720 1.848210 -0.178610 
#    z 0.079830 -0.178610 1.900060 
# 
# From -- ./inp_files/297945.got.cif
#   From: 2010.05.17/outbox.cif.g08.bks.cpg/sg2_149_cif.got.tgz:297945.got - 2010.06.03 11:33:40.
