data_PCOD9063335
_publ_section_title
;
Structure prediction by ZEFSAII (Michael W. Deem and Ramdas Pophale) SiO2 
 PCOD9063335
Probable space group: P -1
;
_chemical_formula_sum "Si O2"
_cell_formula_units_Z 15
_cell_length_a 12.680802
_cell_length_b 9.742644
_cell_length_c 9.033637
_cell_angle_alpha 105.598430
_cell_angle_beta 53.445305
_cell_angle_gamma 129.386357
_cell_volume 682.133586
_symmetry_space_group_name_H-M "P -1"
_symmetry_group_IT_number 2
_symmetry_cell_setting 'triclinic'
loop_
_space_group_symop_operation_xyz
x,y,z
-x,-y,-z
loop_
_atom_site_type_symbol
_atom_site_label
_atom_site_fract_x
_atom_site_fract_y
_atom_site_fract_z
Si Si1 0.000000 0.500000 0.000000
Si Si2 0.213768 0.472664 0.045334
Si Si3 0.352492 0.056575 0.520342
Si Si4 0.080184 0.404527 0.447680
Si Si5 0.453248 0.130271 0.117159
Si Si6 0.287896 0.706143 0.583479
Si Si7 0.085475 0.930426 0.313663
Si Si8 0.881392 0.842763 0.169509
O O1 0.817538 0.376256 0.201808
O O2 0.088648 0.501381 0.080751
O O3 0.141391 0.374437 0.235857
O O4 0.390223 0.663843 0.981287
O O5 0.216914 0.344554 0.890218
O O6 0.412355 0.097949 0.314911
O O7 0.516761 0.178657 0.517627
O O8 0.235654 0.113633 0.656188
O O9 0.264956 0.849443 0.576061
O O10 0.229537 0.545121 0.473244
O O11 0.000000 0.500000 0.500000
O O12 0.949861 0.227683 0.598736
O O13 0.282870 0.071474 0.166175
O O14 0.500000 0.000000 0.000000
O O15 0.991360 0.849475 0.212428
O O16 0.000000 0.000000 0.500000
O O17 0.000000 0.000000 0.000000
#
# Coordination Sequence:
#
# PCOD9063335 Si02
#       8
#     1   2   2   2   2   2   2   2
#     4  12  22  42  70 114 134 194 254 306 376 456
#     4  12  27  45  75 106 153 193 254 312 381 456
#     4  11  25  48  72 108 151 197 250 320 383 449
#     4  12  25  46  75 108 149 200 258 313 377 456
#     4  12  27  47  74 114 152 199 255 321 376 457
#     4  11  24  43  78 106 148 194 255 312 379 455
#     4  12  27  49  79 112 155 205 254 313 392 456
#     4  12  28  49  79 110 155 201 258 313 390 465
#
# _framework density 21.989827999999999
#
# number of rings (size 3 to 8) (size 9 to 14) (size 15 to 20)
#    0.000    0.267    4.000    4.800    1.867    4.800 
#    0.000    2.000    0.000    0.000    0.000    0.000 
#    0.000    0.000    0.000    0.000    0.000    0.000 
#
# Total GULP energy -83770.091956 kJ/mol
# GULP energy per Si atom -5584.672797 kJ/mol
# Density = 2.193978 g / cm^3
# Si number density = 21.989828 Si / 1000 Ang^3
#
#
#
# Elastic Constant Matrix: (Units=GPa)
#
#
# Indices 1 2 3 4 5 6 
#
# 1 86.6981 20.5139 15.4179 -9.2201 -11.2494 11.6052
# 2 20.5139 73.0019 6.2161 -6.5385 -15.1575 17.4292
# 3 15.4179 6.2161 92.5223 -3.1547 2.7809 2.4290
# 4 -9.2201 -6.5385 -3.1547 41.2019 -4.7075 0.7161
# 5 -11.2494 -15.1575 2.7809 -4.7075 44.6982 -4.9467
# 6 11.6052 17.4292 2.4290 0.7161 -4.9467 38.2959
#
#
#
# Elastic Compliance Matrix: (Units=1/GPa)
#
#
# Indices 1 2 3 4 5 6 
#
# 1 0.013419 -0.002127 -0.002009 0.002877 0.002789 -0.002665
# 2 -0.002127 0.017198 -0.000679 0.002877 0.004916 -0.006558
# 3 -0.002009 -0.000679 0.011235 0.000141 -0.001418 0.000019
# 4 0.002877 0.002877 0.000141 0.025897 0.004182 -0.002134
# 5 0.002789 0.004916 -0.001418 0.004182 0.025292 0.000196
# 6 -0.002665 -0.006558 0.000019 -0.002134 0.000196 0.029969
#
#
# Mechanical properties :
#
#
# Convention : Reuss Voigt Hill
#
# Bulk Modulus (GPa) = 31.03297 37.39090 34.21194
# Shear Modulus (GPa) = 34.87235 38.84415 36.85825
#
# Velocity S-wave (km/s) = 3.98658 4.20749 4.09852
# Velocity P-wave (km/s) = 5.94420 6.37531 6.16352
#
# Compressibility (1/GPa) = 0.03222379
#
# Stress axis : x y z
#
# Youngs Moduli (GPa) = 74.51944 58.14659 89.00367
#
# Poissons Ratio (x) = 0.12367 0.17882
# Poissons Ratio (y) = 0.15849 0.06039
# Poissons Ratio (z) = 0.14972 0.03945
#
# Static dielectric constant tensor:
#      x y z
#    x 1.820780 0.009430 0.004370 
#    y 0.009430 1.844880 0.018380 
#    z 0.004370 0.018380 1.766800 
# 
# From -- ./inp_files/207968.got.cif
#   From: 2010.05.17/outbox.cif.g08.bks.cpg/sg2_104_cif.got.tgz:207968.got - 2010.06.03 11:33:40.
