data_PCOD9063979
_publ_section_title
;
Structure prediction by ZEFSAII (Michael W. Deem and Ramdas Pophale) SiO2 
 PCOD9063979
Probable space group: P -1
;
_chemical_formula_sum "Si O2"
_cell_formula_units_Z 15
_cell_length_a 7.012951
_cell_length_b 11.661660
_cell_length_c 8.246043
_cell_angle_alpha 90.085843
_cell_angle_beta 83.380893
_cell_angle_gamma 119.374643
_cell_volume 582.579830
_symmetry_space_group_name_H-M "P -1"
_symmetry_group_IT_number 2
_symmetry_cell_setting 'triclinic'
loop_
_space_group_symop_operation_xyz
x,y,z
-x,-y,-z
loop_
_atom_site_type_symbol
_atom_site_label
_atom_site_fract_x
_atom_site_fract_y
_atom_site_fract_z
Si Si1 0.379705 0.110026 0.935170
Si Si2 0.565146 0.640872 0.565386
Si Si3 0.625278 0.362138 0.091185
Si Si4 0.990903 0.157245 0.055935
Si Si5 0.096679 0.436267 0.163318
Si Si6 0.978053 0.121839 0.440449
Si Si7 0.000000 0.500000 0.500000
Si Si8 0.691930 0.233399 0.599131
O O1 0.521008 0.154484 0.757413
O O2 0.248079 0.954090 0.986109
O O3 0.528868 0.208769 0.062183
O O4 0.179342 0.143535 0.943143
O O5 0.500000 0.500000 0.500000
O O6 0.532062 0.627619 0.762168
O O7 0.806418 0.755397 0.505347
O O8 0.401192 0.693620 0.513842
O O9 0.866662 0.432494 0.145267
O O10 0.675624 0.440708 0.918888
O O11 0.056704 0.308372 0.064334
O O12 0.988165 0.119529 0.245021
O O13 0.080606 0.426080 0.358508
O O14 0.768588 0.137432 0.510520
O O15 0.000000 0.000000 0.500000
O O16 0.094304 0.630335 0.367384
#
# Coordination Sequence:
#
# PCOD9063979 Si02
#       8
#     2   2   2   2   2   2   1   2
#     4  11  26  47  73 103 149 199 244 307 387 438
#     4  12  27  45  76 114 150 196 256 306 382 456
#     4  11  24  45  68 111 143 195 249 307 373 454
#     4  11  25  49  70 106 147 197 250 309 372 456
#     4  11  25  43  76 105 150 194 249 310 380 451
#     4  12  27  49  77 108 148 199 260 307 374 461
#     4  12  20  44  74 108 148 200 240 310 388 440
#     4  12  26  49  75 109 156 198 243 321 379 440
#
# _framework density 25.747544000000001
#
# number of rings (size 3 to 8) (size 9 to 14) (size 15 to 20)
#    0.000    0.533    5.333    1.600    1.867    4.267 
#    4.800    0.000    0.000    0.000    0.000    0.000 
#    0.000    0.000    0.000    0.000    0.000    0.000 
#
# Total GULP energy -83731.744084 kJ/mol
# GULP energy per Si atom -5582.116272 kJ/mol
# Density = 2.568894 g / cm^3
# Si number density = 25.747544 Si / 1000 Ang^3
#
#
#
# Elastic Constant Matrix: (Units=GPa)
#
#
# Indices 1 2 3 4 5 6 
#
# 1 96.9694 53.3184 43.9647 6.9818 -20.7082 -13.3309
# 2 53.3184 163.3036 30.5398 15.2561 -26.4276 6.9265
# 3 43.9647 30.5398 127.3470 6.6685 -48.8080 -2.3400
# 4 6.9818 15.2561 6.6685 33.2374 3.2604 3.6617
# 5 -20.7082 -26.4276 -48.8080 3.2604 52.3542 5.9357
# 6 -13.3309 6.9265 -2.3400 3.6617 5.9357 47.3547
#
#
#
# Elastic Compliance Matrix: (Units=1/GPa)
#
#
# Indices 1 2 3 4 5 6 
#
# 1 0.015305 -0.004441 -0.004392 -0.000758 -0.000791 0.004899
# 2 -0.004441 0.008439 0.001225 -0.003298 0.004156 -0.002690
# 3 -0.004392 0.001225 0.013938 -0.003423 0.012315 -0.002006
# 4 -0.000758 -0.003298 -0.003423 0.033313 -0.007050 -0.001592
# 5 -0.000791 0.004156 0.012315 -0.007050 0.033242 -0.003844
# 6 0.004899 -0.002690 -0.002006 -0.001592 -0.003844 0.023395
#
#
# Mechanical properties :
#
#
# Convention : Reuss Voigt Hill
#
# Bulk Modulus (GPa) = 44.51047 71.47397 57.99222
# Shear Modulus (GPa) = 33.25901 43.90906 38.58403
#
# Velocity S-wave (km/s) = 3.59797 4.13409 3.87531
# Velocity P-wave (km/s) = 5.88093 7.11389 6.52659
#
# Compressibility (1/GPa) = 0.02246662
#
# Stress axis : x y z
#
# Youngs Moduli (GPa) = 65.33984 118.49714 71.74882
#
# Poissons Ratio (x) = 0.52619 0.31513
# Poissons Ratio (y) = 0.29014 -0.08793
# Poissons Ratio (z) = 0.28699 -0.14521
#
# Static dielectric constant tensor:
#      x y z
#    x 5.698630 2.401160 -0.325870 
#    y 2.401160 3.757450 -0.245040 
#    z -0.325870 -0.245040 2.056550 
# 
# From -- ./inp_files/180124.got.cif
#   From: 2010.05.17/outbox.cif.g08.bks.cpg/sg2_91_cif.got.tgz:180124.got - 2010.06.03 11:33:40.
