data_PCOD9063724
_publ_section_title
;
Structure prediction by ZEFSAII (Michael W. Deem and Ramdas Pophale) SiO2 
 PCOD9063724
Probable space group: P -1
;
_chemical_formula_sum "Si O2"
_cell_formula_units_Z 16
_cell_length_a 13.183089
_cell_length_b 5.723557
_cell_length_c 26.659818
_cell_angle_alpha 61.602838
_cell_angle_beta 155.859642
_cell_angle_gamma 123.658813
_cell_volume 682.067811
_symmetry_space_group_name_H-M "P -1"
_symmetry_group_IT_number 2
_symmetry_cell_setting 'triclinic'
loop_
_space_group_symop_operation_xyz
x,y,z
-x,-y,-z
loop_
_atom_site_type_symbol
_atom_site_label
_atom_site_fract_x
_atom_site_fract_y
_atom_site_fract_z
Si Si1 0.291606 0.246067 0.999374
Si Si2 0.934539 0.439822 0.535841
Si Si3 0.543948 0.970541 0.582274
Si Si4 0.532116 0.722704 0.320298
Si Si5 0.469256 0.741877 0.786276
Si Si6 0.797226 0.496027 0.715634
Si Si7 0.696578 0.231338 0.100054
Si Si8 0.137703 0.306923 0.110415
O O1 0.162446 0.482513 0.900059
O O2 0.428042 0.297641 0.108909
O O3 0.522281 0.277551 0.060869
O O4 0.082287 0.939348 0.935103
O O5 0.792661 0.668195 0.462413
O O6 0.000000 0.500000 0.500000
O O7 0.214290 0.483053 0.683312
O O8 0.719434 0.156815 0.489109
O O9 0.707336 0.270421 0.651142
O O10 0.500000 0.000000 0.500000
O O11 0.677068 0.724471 0.665762
O O12 0.338603 0.739200 0.276284
O O13 0.362116 0.477129 0.231706
O O14 0.610892 0.988936 0.291071
O O15 0.722428 0.796744 0.860282
O O16 0.022712 0.767739 0.758780
O O17 0.500000 0.000000 0.000000
O O18 0.000000 0.500000 0.000000
#
# Coordination Sequence:
#
# PCOD9063724 Si02
#       8
#     2   2   2   2   2   2   2   2
#     4  11  27  43  69 105 142 189 249 303 373 448
#     4  11  24  46  72 107 145 190 249 301 381 439
#     4  11  27  50  74 108 144 197 253 314 372 454
#     4  11  24  44  73 103 146 195 235 303 378 447
#     4  12  25  43  71 105 144 188 243 308 365 453
#     4  11  26  46  77 102 148 194 248 303 387 445
#     4  11  27  46  71 100 146 195 249 309 377 445
#     4  12  25  44  68 107 145 187 239 301 377 445
#
# _framework density 23.458081
#
# number of rings (size 3 to 8) (size 9 to 14) (size 15 to 20)
#    0.000    0.750    2.500    3.375   14.000    1.000 
#    2.250    0.000    0.000    0.000    0.000    0.000 
#    0.000    0.000    0.000    0.000    0.000    0.000 
#
# Total GULP energy -89079.924050 kJ/mol
# GULP energy per Si atom -5567.495253 kJ/mol
# Density = 2.340469 g / cm^3
# Si number density = 23.458081 Si / 1000 Ang^3
#
#
#
# Elastic Constant Matrix: (Units=GPa)
#
#
# Indices 1 2 3 4 5 6 
#
# 1 40.0225 -44.7952 -124.4641 70.3825 -18.9687 -36.0395
# 2 -44.7952 42.3061 -65.1479 47.3140 -9.2312 -10.6274
# 3 -124.4641 -65.1479 -144.1736 91.0405 -28.5752 -60.3664
# 4 70.3825 47.3140 91.0405 24.2396 14.2628 28.3349
# 5 -18.9687 -9.2312 -28.5752 14.2628 50.2390 0.0288
# 6 -36.0395 -10.6274 -60.3664 28.3349 0.0288 8.4116
#
#
#
# Elastic Compliance Matrix: (Units=1/GPa)
#
#
# Indices 1 2 3 4 5 6 
#
# 1 0.007174 -0.000463 -0.004449 0.000387 -0.000015 -0.003077
# 2 -0.000463 0.016189 -0.004853 -0.002278 0.000691 -0.008688
# 3 -0.004449 -0.004853 0.006000 0.006936 -0.001125 -0.005493
# 4 0.000387 -0.002278 0.006936 0.013012 -0.000024 0.004729
# 5 -0.000015 0.000691 -0.001125 -0.000024 0.019398 -0.007247
# 6 -0.003077 -0.008688 -0.005493 0.004729 -0.007247 0.039401
#
#
# Mechanical properties :
#
#
# Convention : Reuss Voigt Hill
#
# Bulk Modulus (GPa) = 101.69073 -58.96216 21.36429
# Shear Modulus (GPa) = 40.32832 28.08219 34.20526
#
# Velocity S-wave (km/s) = 4.15078 3.46370 3.82271
# Velocity P-wave (km/s) = 8.14960 3.03206 5.34896
#
# Compressibility (1/GPa) = 0.00983374
#
# Stress axis : x y z
#
# Youngs Moduli (GPa) = 139.38442 61.76941 166.65568
#
# Poissons Ratio (x) = 0.02861 0.74143
# Poissons Ratio (y) = 0.06455 0.80881
# Poissons Ratio (z) = 0.62010 0.29978
#
# Static dielectric constant tensor:
#      x y z
#    x 2.077280 -0.208500 0.263570 
#    y -0.208500 1.943680 -0.533250 
#    z 0.263570 -0.533250 2.223900 
# 
# From -- ./inp_files/609171.got.cif
#   From: 2010.05.17/outbox.cif.g08.bks.cpg/sg2_305_cif.got.tgz:609171.got - 2010.06.03 11:33:40.
