data_PCOD9063222
_publ_section_title
;
Structure prediction by ZEFSAII (Michael W. Deem and Ramdas Pophale) SiO2 
 PCOD9063222
Probable space group: P -1
;
_chemical_formula_sum "Si O2"
_cell_formula_units_Z 16
_cell_length_a 8.441539
_cell_length_b 20.523066
_cell_length_c 8.460281
_cell_angle_alpha 66.842865
_cell_angle_beta 64.422797
_cell_angle_gamma 32.318932
_cell_volume 705.597575
_symmetry_space_group_name_H-M "P -1"
_symmetry_group_IT_number 2
_symmetry_cell_setting 'triclinic'
loop_
_space_group_symop_operation_xyz
x,y,z
-x,-y,-z
loop_
_atom_site_type_symbol
_atom_site_label
_atom_site_fract_x
_atom_site_fract_y
_atom_site_fract_z
Si Si1 0.721225 0.797126 0.708585
Si Si2 0.723981 0.645324 0.970173
Si Si3 0.333759 0.921659 0.442161
Si Si4 0.285717 0.551340 0.191903
Si Si5 0.452721 0.001727 0.834568
Si Si6 0.792727 0.272322 0.844951
Si Si7 0.638080 0.348259 0.490797
Si Si8 0.649885 0.702612 0.301667
O O1 0.488989 0.864652 0.600477
O O2 0.008018 0.751668 0.587603
O O3 0.561761 0.889926 0.833434
O O4 0.828753 0.682228 0.806386
O O5 0.437389 0.696395 0.976380
O O6 0.588641 0.717363 0.127179
O O7 0.000000 0.500000 0.000000
O O8 0.354927 0.998196 0.326342
O O9 0.522119 0.813305 0.338327
O O10 0.000000 0.000000 0.500000
O O11 0.124327 0.679624 0.164980
O O12 0.469617 0.462010 0.348903
O O13 0.014970 0.584331 0.257118
O O14 0.500000 0.500000 0.000000
O O15 0.100799 0.129000 0.819577
O O16 0.500000 0.000000 0.000000
O O17 0.609171 0.355445 0.686570
O O18 0.504385 0.315274 0.534035
#
# Coordination Sequence:
#
# PCOD9063222 Si02
#       8
#     2   2   2   2   2   2   2   2
#     4  12  26  47  74 105 144 192 240 298 365 428
#     4  11  26  47  71 104 147 187 244 294 361 432
#     4  12  27  46  74 108 144 189 247 298 360 432
#     4  12  24  42  72 104 144 187 241 299 359 426
#     4  12  27  47  74 101 144 189 244 299 364 430
#     4  11  25  45  68  99 140 189 237 291 366 427
#     4  11  24  43  72  99 145 190 233 291 362 427
#     4  11  24  45  69 108 146 186 244 293 359 425
#
# _framework density 22.675815
#
# number of rings (size 3 to 8) (size 9 to 14) (size 15 to 20)
#    0.000    0.500    2.500    4.875    7.000    5.500 
#    0.000    0.000    0.000    0.000    0.000    0.000 
#    0.000    0.000    0.000    0.000    0.000    0.000 
#
# Total GULP energy -89377.650788 kJ/mol
# GULP energy per Si atom -5586.103174 kJ/mol
# Density = 2.262420 g / cm^3
# Si number density = 22.675815 Si / 1000 Ang^3
#
#
#
# Elastic Constant Matrix: (Units=GPa)
#
#
# Indices 1 2 3 4 5 6 
#
# 1 128.5980 49.1019 34.7880 0.5116 -32.6732 -11.7178
# 2 49.1019 81.2028 26.8999 -1.7782 -23.6579 0.5947
# 3 34.7880 26.8999 80.8503 -7.9475 -15.9228 1.5884
# 4 0.5116 -1.7782 -7.9475 29.6775 -2.7273 -10.0053
# 5 -32.6732 -23.6579 -15.9228 -2.7273 44.6721 10.7002
# 6 -11.7178 0.5947 1.5884 -10.0053 10.7002 50.5710
#
#
#
# Elastic Compliance Matrix: (Units=1/GPa)
#
#
# Indices 1 2 3 4 5 6 
#
# 1 0.011665 -0.004893 -0.002537 -0.000131 0.004586 0.001844
# 2 -0.004893 0.017770 -0.002672 0.000130 0.005459 -0.002388
# 3 -0.002537 -0.002672 0.015265 0.003939 0.002604 -0.000808
# 4 -0.000131 0.000130 0.003939 0.037233 0.002026 0.006782
# 5 0.004586 0.005459 0.002604 0.002026 0.030935 -0.005228
# 6 0.001844 -0.002388 -0.000808 0.006782 -0.005228 0.022703
#
#
# Mechanical properties :
#
#
# Convention : Reuss Voigt Hill
#
# Bulk Modulus (GPa) = 40.82378 56.91451 48.86914
# Shear Modulus (GPa) = 30.49910 36.97486 33.73698
#
# Velocity S-wave (km/s) = 3.67141 4.04243 3.86138
# Velocity P-wave (km/s) = 6.00122 6.85143 6.44037
#
# Compressibility (1/GPa) = 0.02449553
#
# Stress axis : x y z
#
# Youngs Moduli (GPa) = 85.73010 56.27566 65.50937
#
# Poissons Ratio (x) = 0.27537 0.16618
# Poissons Ratio (y) = 0.41949 0.17503
# Poissons Ratio (z) = 0.21748 0.15036
#
# Static dielectric constant tensor:
#      x y z
#    x 1.943310 -0.003810 -0.055230 
#    y -0.003810 1.666860 0.118380 
#    z -0.055230 0.118380 1.882050 
# 
# From -- ./inp_files/216571.got.cif
#   From: 2010.05.17/outbox.cif.g08.bks.cpg/sg2_109_cif.got.tgz:216571.got - 2010.06.03 11:33:40.
