data_PCOD9063435
_publ_section_title
;
Structure prediction by ZEFSAII (Michael W. Deem and Ramdas Pophale) SiO2 
 PCOD9063435
Probable space group: P -1
;
_chemical_formula_sum "Si O2"
_cell_formula_units_Z 14
_cell_length_a 8.999921
_cell_length_b 10.746102
_cell_length_c 8.717349
_cell_angle_alpha 73.958851
_cell_angle_beta 133.619860
_cell_angle_gamma 103.670051
_cell_volume 585.309401
_symmetry_space_group_name_H-M "P -1"
_symmetry_group_IT_number 2
_symmetry_cell_setting 'triclinic'
loop_
_space_group_symop_operation_xyz
x,y,z
-x,-y,-z
loop_
_atom_site_type_symbol
_atom_site_label
_atom_site_fract_x
_atom_site_fract_y
_atom_site_fract_z
Si Si1 0.479456 0.982400 0.307028
Si Si2 0.467849 0.650183 0.926185
Si Si3 0.907393 0.633119 0.691669
Si Si4 0.043672 0.637341 0.123176
Si Si5 0.150147 0.821418 0.586734
Si Si6 0.859476 0.843237 0.098496
Si Si7 0.470249 0.695176 0.266793
O O1 0.666193 0.066433 0.324950
O O2 0.500000 0.000000 0.500000
O O3 0.494955 0.837029 0.310787
O O4 0.260264 0.036038 0.085035
O O5 0.679430 0.728348 0.006338
O O6 0.427657 0.697168 0.054889
O O7 0.500000 0.500000 0.000000
O O8 0.281283 0.697728 0.673751
O O9 0.008685 0.496269 0.776357
O O10 0.681816 0.628970 0.462604
O O11 0.029347 0.762000 0.668413
O O12 0.905858 0.641360 0.871359
O O13 0.275221 0.625081 0.233955
O O14 0.030612 0.775995 0.144931
O O15 0.970853 0.863058 0.333099
#
# Coordination Sequence:
#
# PCOD9063435 Si02
#       7
#     2   2   2   2   2   2   2
#     4  11  27  49  72 106 147 186 246 296 356 433
#     4  11  25  44  70 106 147 183 242 294 356 428
#     4  11  24  44  68 108 140 188 238 295 358 428
#     4  11  25  43  71 104 148 184 241 294 361 425
#     4  11  24  46  72 105 140 189 242 295 351 427
#     4  11  25  45  74 102 140 195 236 301 359 419
#     4  12  25  46  71 105 145 193 233 294 361 421
#
# _framework density 23.918972
#
# number of rings (size 3 to 8) (size 9 to 14) (size 15 to 20)
#    0.000    0.857    2.857    3.000    4.000    8.571 
#    0.000    0.000    0.000    0.000    0.000    0.000 
#    0.000    0.000    0.000    0.000    0.000    0.000 
#
# Total GULP energy -78269.213355 kJ/mol
# GULP energy per Si atom -5590.658097 kJ/mol
# Density = 2.386453 g / cm^3
# Si number density = 23.918972 Si / 1000 Ang^3
#
#
#
# Elastic Constant Matrix: (Units=GPa)
#
#
# Indices 1 2 3 4 5 6 
#
# 1 58.8506 -13.6684 15.9693 -3.9891 0.5448 23.0562
# 2 -13.6684 36.0005 7.5523 -19.9160 -18.5687 31.8464
# 3 15.9693 7.5523 166.0361 -13.1901 16.9174 -1.1213
# 4 -3.9891 -19.9160 -13.1901 23.3676 1.4175 2.8491
# 5 0.5448 -18.5687 16.9174 1.4175 25.8529 -3.1216
# 6 23.0562 31.8464 -1.1213 2.8491 -3.1216 27.0263
#
#
#
# Elastic Compliance Matrix: (Units=1/GPa)
#
#
# Indices 1 2 3 4 5 6 
#
# 1 0.009845 -0.014093 -0.000249 -0.010972 -0.008555 0.008366
# 2 -0.014093 -0.011110 0.001403 -0.013981 -0.004682 0.026105
# 3 -0.000249 0.001403 0.006815 0.005513 -0.004015 -0.002203
# 4 -0.010972 -0.013981 0.005513 0.030262 -0.012489 0.021431
# 5 -0.008555 -0.004682 -0.004015 -0.012489 0.041068 0.018709
# 6 0.008366 0.026105 -0.002203 0.021431 0.018709 -0.001086
#
#
# Mechanical properties :
#
#
# Convention : Reuss Voigt Hill
#
# Bulk Modulus (GPa) = -49.19620 31.17707 -9.00957
# Shear Modulus (GPa) = 52.68931 31.98494 42.33712
#
# Velocity S-wave (km/s) = 4.69852 3.66077 4.21173
# Velocity P-wave (km/s) = 2.97023 5.56157 4.45832
#
# Compressibility (1/GPa) = -0.02032677
#
# Stress axis : x y z
#
# Youngs Moduli (GPa) = 101.57672 -90.01247 146.73489
#
# Poissons Ratio (x) = -1.26851 0.03659
# Poissons Ratio (y) = 1.43148 -0.20594
# Poissons Ratio (z) = 0.02533 0.12633
#
# Static dielectric constant tensor:
#      x y z
#    x 2.130140 -0.005450 -0.109720 
#    y -0.005450 1.908690 0.019000 
#    z -0.109720 0.019000 1.973160 
# 
# From -- ./inp_files/185522.got.cif
#   From: 2010.05.17/outbox.cif.g08.bks.cpg/sg2_93_cif.got.tgz:185522.got - 2010.06.03 11:33:40.
