data_PCOD9063595
_publ_section_title
;
Structure prediction by ZEFSAII (Michael W. Deem and Ramdas Pophale) SiO2 
 PCOD9063595
Probable space group: P -1
;
_chemical_formula_sum "Si O2"
_cell_formula_units_Z 14
_cell_length_a 23.725014
_cell_length_b 15.082308
_cell_length_c 14.825433
_cell_angle_alpha 150.521605
_cell_angle_beta 18.720355
_cell_angle_gamma 158.682482
_cell_volume 615.815444
_symmetry_space_group_name_H-M "P -1"
_symmetry_group_IT_number 2
_symmetry_cell_setting 'triclinic'
loop_
_space_group_symop_operation_xyz
x,y,z
-x,-y,-z
loop_
_atom_site_type_symbol
_atom_site_label
_atom_site_fract_x
_atom_site_fract_y
_atom_site_fract_z
Si Si1 0.264527 0.863389 0.602769
Si Si2 0.425957 0.449574 0.462636
Si Si3 0.267087 0.695731 0.811765
Si Si4 0.716933 0.526093 0.801859
Si Si5 0.764967 0.943758 0.828934
Si Si6 0.907009 0.009691 0.864670
Si Si7 0.916074 0.737459 0.874913
O O1 0.276915 0.659709 0.424284
O O2 0.110651 0.757576 0.650641
O O3 0.514848 0.136317 0.442267
O O4 0.132352 0.886137 0.899152
O O5 0.500000 0.500000 0.500000
O O6 0.338281 0.581080 0.668926
O O7 0.186704 0.164588 0.565611
O O8 0.655925 0.541430 0.141106
O O9 0.000000 0.500000 0.000000
O O10 0.275307 0.900533 0.026331
O O11 0.902345 0.682660 0.741919
O O12 0.760497 0.725707 0.849719
O O13 0.461958 0.342788 0.076409
O O14 0.809432 0.034232 0.944988
O O15 0.000000 0.000000 0.500000
O O16 0.000000 0.000000 0.000000
#
# Coordination Sequence:
#
# PCOD9063595 Si02
#       7
#     2   2   2   2   2   2   2
#     4  11  25  44  73 105 141 193 239 293 360 432
#     4  12  23  42  73 105 138 185 241 292 360 425
#     4  11  24  44  71 103 139 190 240 288 357 433
#     4  11  25  43  69 106 140 187 242 293 357 435
#     4  11  26  46  70 100 145 193 238 297 359 429
#     4  12  24  45  70 103 146 187 231 301 359 420
#     4  12  21  45  75  97 145 190 234 296 368 423
#
# _framework density 22.734083999999999
#
# number of rings (size 3 to 8) (size 9 to 14) (size 15 to 20)
#    0.000    0.571    5.714    1.714    2.000    3.429 
#    0.000    0.714    0.000    0.000    0.000    0.000 
#    0.000    0.000    0.000    0.000    0.000    0.000 
#
# Total GULP energy -78234.438214 kJ/mol
# GULP energy per Si atom -5588.174158 kJ/mol
# Density = 2.268234 g / cm^3
# Si number density = 22.734084 Si / 1000 Ang^3
#
#
#
# Elastic Constant Matrix: (Units=GPa)
#
#
# Indices 1 2 3 4 5 6 
#
# 1 87.8876 13.7382 -5.7447 -1.4754 -14.5905 1.7488
# 2 13.7382 141.1676 32.4562 -12.8532 -5.4120 -20.8495
# 3 -5.7447 32.4562 70.8057 -20.5398 -13.4023 -13.8716
# 4 -1.4754 -12.8532 -20.5398 38.5458 3.0252 -14.2179
# 5 -14.5905 -5.4120 -13.4023 3.0252 31.9494 1.3433
# 6 1.7488 -20.8495 -13.8716 -14.2179 1.3433 38.7661
#
#
#
# Elastic Compliance Matrix: (Units=1/GPa)
#
#
# Indices 1 2 3 4 5 6 
#
# 1 0.013066 -0.001704 0.003532 0.001251 0.007043 -0.000027
# 2 -0.001704 0.008881 -0.002162 0.003839 -0.000776 0.005515
# 3 0.003532 -0.002162 0.024638 0.016706 0.009441 0.013294
# 4 0.001251 0.003839 0.016706 0.044928 0.002951 0.024362
# 5 0.007043 -0.000776 0.009441 0.002951 0.037964 0.002410
# 6 -0.000027 0.005515 0.013294 0.024362 0.002410 0.042371
#
#
# Mechanical properties :
#
#
# Convention : Reuss Voigt Hill
#
# Bulk Modulus (GPa) = 21.77809 42.30668 32.04238
# Shear Modulus (GPa) = 26.62099 39.14633 32.88366
#
# Velocity S-wave (km/s) = 3.42566 4.15411 3.80735
# Velocity P-wave (km/s) = 5.02465 6.45434 5.78384
#
# Compressibility (1/GPa) = 0.04591771
#
# Stress axis : x y z
#
# Youngs Moduli (GPa) = 76.53438 112.60129 40.58700
#
# Poissons Ratio (x) = 0.19183 -0.14334
# Poissons Ratio (y) = 0.13039 0.08775
# Poissons Ratio (z) = -0.27030 0.24343
#
# Static dielectric constant tensor:
#      x y z
#    x 1.176300 0.486830 0.152980 
#    y 0.486830 1.541780 -0.123460 
#    z 0.152980 -0.123460 1.837930 
# 
# From -- ./inp_files/281556.got.cif
#   From: 2010.05.17/outbox.cif.g08.bks.cpg/sg2_141_cif.got.tgz:281556.got - 2010.06.03 11:33:40.
