data_PCOD9063025
_publ_section_title
;
Structure prediction by ZEFSAII (Michael W. Deem and Ramdas Pophale) SiO2 
 PCOD9063025
Probable space group: P -1
;
_chemical_formula_sum "Si O2"
_cell_formula_units_Z 10
_cell_length_a 12.403518
_cell_length_b 11.857847
_cell_length_c 5.018379
_cell_angle_alpha 99.052236
_cell_angle_beta 105.581256
_cell_angle_gamma 143.342569
_cell_volume 323.196202
_symmetry_space_group_name_H-M "P -1"
_symmetry_group_IT_number 2
_symmetry_cell_setting 'triclinic'
loop_
_space_group_symop_operation_xyz
x,y,z
-x,-y,-z
loop_
_atom_site_type_symbol
_atom_site_label
_atom_site_fract_x
_atom_site_fract_y
_atom_site_fract_z
Si Si1 0.917783 0.570771 0.190103
Si Si2 0.299460 0.751167 0.573583
Si Si3 0.261648 0.222859 0.608777
Si Si4 0.798835 0.634988 0.739290
Si Si5 0.330450 0.079519 0.237571
O O1 0.194676 0.784164 0.513554
O O2 0.761713 0.360895 0.224473
O O3 0.860077 0.461453 0.825281
O O4 0.836491 0.623687 0.064083
O O5 0.565720 0.954880 0.727771
O O6 0.233726 0.263711 0.321119
O O7 0.306857 0.131888 0.516917
O O8 0.500000 0.500000 0.000000
O O9 0.000000 0.000000 0.500000
O O10 0.555774 0.353962 0.364603
O O11 0.058819 0.838550 0.853960
#
# Coordination Sequence:
#
# PCOD9063025 Si02
#       5
#     2   2   2   2   2
#     4   9  20  41  69 104 145 188 235 291 356 426
#     4   9  20  41  69 104 145 188 235 291 356 426
#     4  12  26  46  73 104 143 188 241 302 365 428
#     4  11  24  43  69 103 140 188 239 292 355 428
#     4  11  24  43  69 103 140 188 239 292 355 428
#
# _framework density 30.940954999999999
#
# number of rings (size 3 to 8) (size 9 to 14) (size 15 to 20)
#    0.000    1.600    0.000    3.600    0.000   13.600 
#    0.000    1.000    0.000   22.800    0.000    0.000 
#    0.000    0.000    0.000    0.000    0.000    0.000 
#
# Total GULP energy -55859.265586 kJ/mol
# GULP energy per Si atom -5585.926559 kJ/mol
# Density = 3.087053 g / cm^3
# Si number density = 30.940955 Si / 1000 Ang^3
#
#
#
# Elastic Constant Matrix: (Units=GPa)
#
#
# Indices 1 2 3 4 5 6 
#
# 1 188.3821 72.1356 54.8716 -2.0594 33.6596 32.9625
# 2 72.1356 203.6966 93.6336 -1.2723 25.7413 13.0238
# 3 54.8716 93.6336 147.4372 8.6453 13.0075 12.3898
# 4 -2.0594 -1.2723 8.6453 89.7863 -0.6749 26.4650
# 5 33.6596 25.7413 13.0075 -0.6749 65.9143 10.3067
# 6 32.9625 13.0238 12.3898 26.4650 10.3067 32.6274
#
#
#
# Elastic Compliance Matrix: (Units=1/GPa)
#
#
# Indices 1 2 3 4 5 6 
#
# 1 0.008205 -0.001431 -0.001394 0.002927 -0.001926 -0.008955
# 2 -0.001431 0.007487 -0.004135 0.000425 -0.001392 0.000122
# 3 -0.001394 -0.004135 0.009957 -0.001053 0.000348 0.000023
# 4 0.002927 0.000425 -0.001053 0.016087 0.001240 -0.016167
# 5 -0.001926 -0.001392 0.000348 0.001240 0.017283 -0.004096
# 6 -0.008955 0.000122 0.000023 -0.016167 -0.004096 0.054046
#
#
# Mechanical properties :
#
#
# Convention : Reuss Voigt Hill
#
# Bulk Modulus (GPa) = 85.25512 108.97749 97.11631
# Shear Modulus (GPa) = 38.19848 58.92396 48.56122
#
# Velocity S-wave (km/s) = 3.51744 4.36868 3.96596
# Velocity P-wave (km/s) = 6.64157 7.79389 7.24069
#
# Compressibility (1/GPa) = 0.01172950
#
# Stress axis : x y z
#
# Youngs Moduli (GPa) = 121.87082 133.55760 100.43479
#
# Poissons Ratio (x) = 0.19106 0.14005
# Poissons Ratio (y) = 0.17434 0.41530
# Poissons Ratio (z) = 0.16995 0.55226
#
# Static dielectric constant tensor:
#      x y z
#    x 2.655120 -0.019810 0.041030 
#    y -0.019810 2.352500 0.000210 
#    z 0.041030 0.000210 2.408190 
# 
# From -- ./inp_files/95998.got.cif
#   From: 2010.05.17/outbox.cif.g08.bks.cpg/sg2_48_cif.got.tgz:95998.got - 2010.06.03 11:33:40.
