data_PCOD9063562
_publ_section_title
;
Structure prediction by ZEFSAII (Michael W. Deem and Ramdas Pophale) SiO2 
 PCOD9063562
Probable space group: P -1
;
_chemical_formula_sum "Si O2"
_cell_formula_units_Z 13
_cell_length_a 8.184446
_cell_length_b 9.003190
_cell_length_c 19.485506
_cell_angle_alpha 136.943281
_cell_angle_beta 135.540683
_cell_angle_gamma 34.462264
_cell_volume 531.172870
_symmetry_space_group_name_H-M "P -1"
_symmetry_group_IT_number 2
_symmetry_cell_setting 'triclinic'
loop_
_space_group_symop_operation_xyz
x,y,z
-x,-y,-z
loop_
_atom_site_type_symbol
_atom_site_label
_atom_site_fract_x
_atom_site_fract_y
_atom_site_fract_z
Si Si1 0.464747 0.433656 0.890884
Si Si2 0.151327 0.031028 0.939967
Si Si3 0.402633 0.328062 0.449596
Si Si4 0.104940 0.827876 0.302948
Si Si5 0.492294 0.188574 0.163993
Si Si6 0.500000 0.000000 0.500000
Si Si7 0.902650 0.719160 0.332868
O O1 0.259222 0.346933 0.790384
O O2 0.799185 0.204165 0.886280
O O3 0.306629 0.715712 0.897501
O O4 0.500000 0.500000 0.000000
O O5 0.293565 0.005118 0.900998
O O6 0.238228 0.150590 0.066820
O O7 0.500000 0.500000 0.500000
O O8 0.084731 0.485752 0.367676
O O9 0.375866 0.279352 0.505185
O O10 0.650803 0.009026 0.391965
O O11 0.304383 0.524686 0.221899
O O12 0.247912 0.979752 0.387038
O O13 0.105070 0.754521 0.357975
O O14 0.746267 0.044143 0.250168
#
# Coordination Sequence:
#
# PCOD9063562 Si02
#       7
#     2   2   2   2   2   1   2
#     4  12  25  43  72 110 151 199 254 301 378 469
#     4  11  24  44  70 108 146 202 249 315 374 461
#     4  12  28  54  77 115 153 202 265 324 393 456
#     4  12  27  48  75 111 148 203 253 319 383 461
#     4  11  25  45  73 105 155 193 255 317 385 450
#     4  12  32  50  84 112 152 208 264 326 388 468
#     4  12  27  49  80 112 159 202 250 323 389 456
#
# _framework density 24.474142000000001
#
# number of rings (size 3 to 8) (size 9 to 14) (size 15 to 20)
#    0.000    0.308    1.538    6.462    6.462    3.692 
#    0.000    0.000    0.000    0.000    0.000    0.000 
#    0.000    0.000    0.000    0.000    0.000    0.000 
#
# Total GULP energy -72437.816873 kJ/mol
# GULP energy per Si atom -5572.139759 kJ/mol
# Density = 2.441844 g / cm^3
# Si number density = 24.474142 Si / 1000 Ang^3
#
#
#
# Elastic Constant Matrix: (Units=GPa)
#
#
# Indices 1 2 3 4 5 6 
#
# 1 114.7184 -35.5390 57.9345 -19.3590 31.2215 -43.1853
# 2 -35.5390 245.7762 -19.0119 -2.8985 -3.0719 45.2616
# 3 57.9345 -19.0119 103.8622 -8.1566 42.2745 -23.4675
# 4 -19.3590 -2.8985 -8.1566 47.4148 6.4503 -6.4534
# 5 31.2215 -3.0719 42.2745 6.4503 53.7799 -3.6548
# 6 -43.1853 45.2616 -23.4675 -6.4534 -3.6548 67.7032
#
#
#
# Elastic Compliance Matrix: (Units=1/GPa)
#
#
# Indices 1 2 3 4 5 6 
#
# 1 0.018701 0.000433 -0.003794 0.009603 -0.008268 0.010793
# 2 0.000433 0.004653 0.000096 0.000133 -0.000268 -0.002803
# 3 -0.003794 0.000096 0.017606 0.003546 -0.011831 0.003317
# 4 0.009603 0.000133 0.003546 0.028419 -0.011126 0.009374
# 5 -0.008268 -0.000268 -0.011831 -0.011126 0.033439 -0.008451
# 6 0.010793 -0.002803 0.003317 0.009374 -0.008451 0.025116
#
#
# Mechanical properties :
#
#
# Convention : Reuss Voigt Hill
#
# Bulk Modulus (GPa) = 29.04452 52.34712 40.69582
# Shear Modulus (GPa) = 34.26066 64.51113 49.38589
#
# Velocity S-wave (km/s) = 3.74554 5.13966 4.49696
# Velocity P-wave (km/s) = 5.53161 7.52706 6.60512
#
# Compressibility (1/GPa) = 0.03442990
#
# Stress axis : x y z
#
# Youngs Moduli (GPa) = 53.47360 214.90482 56.79974
#
# Poissons Ratio (x) = -0.09304 0.21551
# Poissons Ratio (y) = -0.02315 -0.00547
# Poissons Ratio (z) = 0.20289 -0.02069
#
# Static dielectric constant tensor:
#      x y z
#    x 1.965640 -0.120230 0.221590 
#    y -0.120230 1.872710 -0.019190 
#    z 0.221590 -0.019190 1.958990 
# 
# From -- ./inp_files/205789.got.cif
#   From: 2010.05.17/outbox.cif.g08.bks.cpg/sg2_103_cif.got.tgz:205789.got - 2010.06.03 11:33:40.
