data_PCOD9063318
_publ_section_title
;
Structure prediction by ZEFSAII (Michael W. Deem and Ramdas Pophale) SiO2 
 PCOD9063318
Probable space group: P -1
;
_chemical_formula_sum "Si O2"
_cell_formula_units_Z 13
_cell_length_a 9.213503
_cell_length_b 8.949547
_cell_length_c 11.838624
_cell_angle_alpha 61.050626
_cell_angle_beta 50.184767
_cell_angle_gamma 48.592198
_cell_volume 559.262587
_symmetry_space_group_name_H-M "P -1"
_symmetry_group_IT_number 2
_symmetry_cell_setting 'triclinic'
loop_
_space_group_symop_operation_xyz
x,y,z
-x,-y,-z
loop_
_atom_site_type_symbol
_atom_site_label
_atom_site_fract_x
_atom_site_fract_y
_atom_site_fract_z
Si Si1 0.167380 0.567175 0.444598
Si Si2 0.208482 0.005518 0.571453
Si Si3 0.059532 0.549607 0.111423
Si Si4 0.209166 0.612980 0.789264
Si Si5 0.423410 0.387537 0.161904
Si Si6 0.500000 0.500000 0.500000
Si Si7 0.646875 0.938744 0.274378
O O1 0.359311 0.471723 0.289100
O O2 0.292465 0.502023 0.526644
O O3 0.000000 0.500000 0.500000
O O4 0.017274 0.807818 0.429521
O O5 0.260540 0.068305 0.643013
O O6 0.200961 0.806969 0.669814
O O7 0.414233 0.951013 0.406960
O O8 0.193766 0.444067 0.195314
O O9 0.001896 0.397477 0.138849
O O10 0.839798 0.758762 0.174192
O O11 0.199141 0.596289 0.934396
O O12 0.417953 0.444251 0.677187
O O13 0.584839 0.150240 0.173897
O O14 0.500000 0.500000 0.000000
#
# Coordination Sequence:
#
# PCOD9063318 Si02
#       7
#     2   2   2   2   2   1   2
#     4  12  25  47  74 110 150 195 249 307 368 440
#     4  11  24  44  73 109 142 194 250 297 371 439
#     4  11  25  49  70 105 151 193 243 305 376 441
#     4  11  26  46  70 104 149 193 239 312 367 433
#     4  12  25  44  76 109 143 192 248 304 368 446
#     4  12  26  46  74 104 154 194 244 306 370 436
#     4  11  24  43  76 106 143 189 252 300 362 447
#
# _framework density 23.244893999999999
#
# number of rings (size 3 to 8) (size 9 to 14) (size 15 to 20)
#    0.000    0.615    3.077    4.615    4.308    1.846 
#    2.769    1.538    0.000    0.000    0.000    0.000 
#    0.000    0.000    0.000    0.000    0.000    0.000 
#
# Total GULP energy -72440.988827 kJ/mol
# GULP energy per Si atom -5572.383756 kJ/mol
# Density = 2.319199 g / cm^3
# Si number density = 23.244894 Si / 1000 Ang^3
#
#
#
# Elastic Constant Matrix: (Units=GPa)
#
#
# Indices 1 2 3 4 5 6 
#
# 1 136.2222 27.7290 30.6107 -4.9655 20.0013 -3.1178
# 2 27.7290 72.8098 -0.6023 -11.1998 8.6064 -23.2285
# 3 30.6107 -0.6023 129.2271 -1.6396 5.5131 3.8739
# 4 -4.9655 -11.1998 -1.6396 35.5689 1.1158 0.2982
# 5 20.0013 8.6064 5.5131 1.1158 46.3613 -5.8198
# 6 -3.1178 -23.2285 3.8739 0.2982 -5.8198 28.9718
#
#
#
# Elastic Compliance Matrix: (Units=1/GPa)
#
#
# Indices 1 2 3 4 5 6 
#
# 1 0.008978 -0.003839 -0.001930 0.000078 -0.003248 -0.002507
# 2 -0.003839 0.021490 0.000611 0.006135 -0.000472 0.016577
# 3 -0.001930 0.000611 0.008246 0.000322 -0.000382 -0.000901
# 4 0.000078 0.006135 0.000322 0.030080 -0.001396 0.004294
# 5 -0.003248 -0.000472 -0.000382 -0.001396 0.023651 0.004088
# 6 -0.002507 0.016577 -0.000901 0.004294 0.004088 0.048435
#
#
# Mechanical properties :
#
#
# Convention : Reuss Voigt Hill
#
# Bulk Modulus (GPa) = 35.21540 50.41487 42.81514
# Shear Modulus (GPa) = 31.12133 40.88185 36.00159
#
# Velocity S-wave (km/s) = 3.66299 4.19829 3.93974
# Velocity P-wave (km/s) = 5.75088 6.72581 6.25736
#
# Compressibility (1/GPa) = 0.02839667
#
# Stress axis : x y z
#
# Youngs Moduli (GPa) = 111.37725 46.53427 121.27510
#
# Poissons Ratio (x) = 0.17865 0.23406
# Poissons Ratio (y) = 0.42760 -0.07405
# Poissons Ratio (z) = 0.21495 -0.02841
#
# Static dielectric constant tensor:
#      x y z
#    x 2.011580 0.090360 -0.060260 
#    y 0.090360 1.684760 -0.159970 
#    z -0.060260 -0.159970 1.776950 
# 
# From -- ./inp_files/377844.got.cif
#   From: 2010.05.17/outbox.cif.g08.bks.cpg/sg2_189_cif.got.tgz:377844.got - 2010.06.03 11:33:40.
