data_PCOD9063733
_publ_section_title
;
Structure prediction by ZEFSAII (Michael W. Deem and Ramdas Pophale) SiO2 
 PCOD9063733
Probable space group: P -1
;
_chemical_formula_sum "Si O2"
_cell_formula_units_Z 16
_cell_length_a 9.199641
_cell_length_b 12.932020
_cell_length_c 8.331054
_cell_angle_alpha 48.021873
_cell_angle_beta 89.469450
_cell_angle_gamma 80.564246
_cell_volume 720.005272
_symmetry_space_group_name_H-M "P -1"
_symmetry_group_IT_number 2
_symmetry_cell_setting 'triclinic'
loop_
_space_group_symop_operation_xyz
x,y,z
-x,-y,-z
loop_
_atom_site_type_symbol
_atom_site_label
_atom_site_fract_x
_atom_site_fract_y
_atom_site_fract_z
Si Si1 0.470467 0.088664 0.744667
Si Si2 0.684483 0.576172 0.022533
Si Si3 0.846637 0.877571 0.453777
Si Si4 0.275968 0.133621 0.177795
Si Si5 0.543456 0.594433 0.656072
Si Si6 0.034452 0.569571 0.679709
Si Si7 0.812158 0.405043 0.684784
Si Si8 0.984310 0.096924 0.057028
O O1 0.302846 0.095043 0.680509
O O2 0.492841 0.250358 0.584854
O O3 0.591736 0.001048 0.712640
O O4 0.500000 0.000000 0.000000
O O5 0.593332 0.468937 0.213729
O O6 0.857731 0.503754 0.105196
O O7 0.662908 0.721838 0.972206
O O8 0.632018 0.609056 0.806441
O O9 0.795895 0.872184 0.641756
O O10 0.949958 0.728014 0.557111
O O11 0.935847 0.001126 0.295560
O O12 0.142066 0.137874 0.049207
O O13 0.646976 0.482236 0.654922
O O14 0.140698 0.571333 0.521849
O O15 0.917650 0.477990 0.720499
O O16 0.857327 0.237631 0.890330
O O17 0.000000 0.000000 0.000000
#
# Coordination Sequence:
#
# PCOD9063733 Si02
#       8
#     2   2   2   2   2   2   2   2
#     4  12  28  47  74 105 155 195 240 303 369 438
#     4  11  26  47  76 107 147 191 246 302 359 431
#     4  12  26  47  72 109 149 191 248 300 364 444
#     4  12  27  48  72 105 145 199 240 304 369 432
#     4  11  27  48  74 111 147 191 249 296 361 441
#     4  11  24  44  76 105 144 189 238 306 361 429
#     4  11  24  44  73 104 147 187 242 301 362 430
#     4  12  26  46  72 109 145 192 244 303 369 437
#
# _framework density 22.222061
#
# number of rings (size 3 to 8) (size 9 to 14) (size 15 to 20)
#    0.000    0.500    5.000    1.500    7.000    3.500 
#    0.000    0.000    0.000    0.000    0.000    0.000 
#    0.000    0.000    0.000    0.000    0.000    0.000 
#
# Total GULP energy -89655.918207 kJ/mol
# GULP energy per Si atom -5603.494888 kJ/mol
# Density = 2.217148 g / cm^3
# Si number density = 22.222061 Si / 1000 Ang^3
#
#
#
# Elastic Constant Matrix: (Units=GPa)
#
#
# Indices 1 2 3 4 5 6 
#
# 1 59.1131 29.4552 20.5197 -3.7490 8.9825 -10.3969
# 2 29.4552 117.3500 46.2970 -21.1725 4.5829 -16.0790
# 3 20.5197 46.2970 112.0020 -20.9441 0.2993 3.3314
# 4 -3.7490 -21.1725 -20.9441 48.1110 -3.2128 6.0548
# 5 8.9825 4.5829 0.2993 -3.2128 39.2883 -3.4954
# 6 -10.3969 -16.0790 3.3314 6.0548 -3.4954 42.3044
#
#
#
# Elastic Compliance Matrix: (Units=1/GPa)
#
#
# Indices 1 2 3 4 5 6 
#
# 1 0.020965 -0.003862 -0.002724 -0.002012 -0.004144 0.003845
# 2 -0.003862 0.011993 -0.003816 0.002879 0.000060 0.003503
# 3 -0.002724 -0.003816 0.011809 0.003755 0.000973 -0.003507
# 4 -0.002012 0.002879 0.003755 0.024026 0.001795 -0.002986
# 5 -0.004144 0.000060 0.000973 0.001795 0.026610 0.000869
# 6 0.003845 0.003503 -0.003507 -0.002986 0.000869 0.026690
#
#
# Mechanical properties :
#
#
# Convention : Reuss Voigt Hill
#
# Bulk Modulus (GPa) = 41.73102 53.44543 47.58823
# Shear Modulus (GPa) = 33.13775 38.75361 35.94568
#
# Velocity S-wave (km/s) = 3.86581 4.18056 4.02626
# Velocity P-wave (km/s) = 6.22461 6.88518 6.56321
#
# Compressibility (1/GPa) = 0.02396299
#
# Stress axis : x y z
#
# Youngs Moduli (GPa) = 47.69834 83.37911 84.68224
#
# Poissons Ratio (x) = 0.32201 0.23069
# Poissons Ratio (y) = 0.18421 0.32315
# Poissons Ratio (z) = 0.12994 0.31817
#
# Static dielectric constant tensor:
#      x y z
#    x 1.807300 0.019560 0.001730 
#    y 0.019560 1.792860 0.029000 
#    z 0.001730 0.029000 1.826450 
# 
# From -- ./inp_files/184208.got.cif
#   From: 2010.05.17/outbox.cif.g08.bks.cpg/sg2_93_cif.got.tgz:184208.got - 2010.06.03 11:33:40.
