data_PCOD9063321
_publ_section_title
;
Structure prediction by ZEFSAII (Michael W. Deem and Ramdas Pophale) SiO2 
 PCOD9063321
Probable space group: P -1
;
_chemical_formula_sum "Si O2"
_cell_formula_units_Z 16
_cell_length_a 12.951717
_cell_length_b 10.013987
_cell_length_c 12.009429
_cell_angle_alpha 138.565312
_cell_angle_beta 123.961734
_cell_angle_gamma 40.491071
_cell_volume 669.067754
_symmetry_space_group_name_H-M "P -1"
_symmetry_group_IT_number 2
_symmetry_cell_setting 'triclinic'
loop_
_space_group_symop_operation_xyz
x,y,z
-x,-y,-z
loop_
_atom_site_type_symbol
_atom_site_label
_atom_site_fract_x
_atom_site_fract_y
_atom_site_fract_z
Si Si1 0.049365 0.345964 0.695761
Si Si2 0.445827 0.466625 0.329538
Si Si3 0.424151 0.945923 0.247615
Si Si4 0.605935 0.607696 0.352957
Si Si5 0.079311 0.129859 0.166804
Si Si6 0.865965 0.411893 0.836849
Si Si7 0.042268 0.861170 0.676935
Si Si8 0.638690 0.904702 0.162169
O O1 0.022732 0.581342 0.761815
O O2 0.953827 0.450316 0.819638
O O3 0.976480 0.240466 0.512538
O O4 0.234500 0.121954 0.693118
O O5 0.500000 0.500000 0.500000
O O6 0.487021 0.577484 0.325530
O O7 0.260875 0.605107 0.309964
O O8 0.549335 0.157420 0.190586
O O9 0.543365 0.710980 0.256042
O O10 0.510713 0.917193 0.167689
O O11 0.385432 0.192470 0.445943
O O12 0.261842 0.987619 0.155669
O O13 0.780352 0.337656 0.295033
O O14 0.071079 0.131471 0.296737
O O15 0.000000 0.000000 0.000000
O O16 0.752956 0.646695 0.998678
O O17 0.991231 0.142594 0.805403
#
# Coordination Sequence:
#
# PCOD9063321 Si02
#       8
#     2   2   2   2   2   2   2   2
#     4  12  25  46  73 106 148 196 250 299 362 441
#     4  12  23  44  71 108 142 194 248 298 367 441
#     4  11  25  47  73 109 145 189 244 301 372 430
#     4  11  24  43  76 107 145 188 247 307 353 436
#     4  12  27  47  75 109 151 190 244 305 374 439
#     4  12  27  47  72 108 151 195 245 308 370 438
#     4  12  25  47  74 109 144 196 249 300 362 439
#     4  12  26  46  74 105 154 191 241 309 375 434
#
# _framework density 23.913872000000001
#
# number of rings (size 3 to 8) (size 9 to 14) (size 15 to 20)
#    0.000    0.250    2.500    6.750    3.500    2.000 
#    0.000    3.750    0.000    0.000    0.000    0.000 
#    0.000    0.000    0.000    0.000    0.000    0.000 
#
# Total GULP energy -89756.388960 kJ/mol
# GULP energy per Si atom -5609.774310 kJ/mol
# Density = 2.385944 g / cm^3
# Si number density = 23.913872 Si / 1000 Ang^3
#
#
#
# Elastic Constant Matrix: (Units=GPa)
#
#
# Indices 1 2 3 4 5 6 
#
# 1 119.2700 12.4953 29.0358 -5.9127 9.2469 -7.4953
# 2 12.4953 130.5931 31.0662 17.6387 15.5999 -3.3388
# 3 29.0358 31.0662 79.3961 13.4919 -1.5571 3.5569
# 4 -5.9127 17.6387 13.4919 35.3541 0.0928 6.7866
# 5 9.2469 15.5999 -1.5571 0.0928 36.6996 -7.0160
# 6 -7.4953 -3.3388 3.5569 6.7866 -7.0160 53.9137
#
#
#
# Elastic Compliance Matrix: (Units=1/GPa)
#
#
# Indices 1 2 3 4 5 6 
#
# 1 0.009810 -0.000042 -0.004186 0.003087 -0.002462 0.000928
# 2 -0.000042 0.009393 -0.003155 -0.003618 -0.003969 0.000723
# 3 -0.004186 -0.003155 0.016341 -0.005213 0.002946 -0.000816
# 4 0.003087 -0.003618 -0.005213 0.033302 -0.000248 -0.003675
# 5 -0.002462 -0.003969 0.002946 -0.000248 0.030291 0.003191
# 6 0.000928 0.000723 -0.000816 -0.003675 0.003191 0.019654
#
#
# Mechanical properties :
#
#
# Convention : Reuss Voigt Hill
#
# Bulk Modulus (GPa) = 48.12911 52.71708 50.42310
# Shear Modulus (GPa) = 35.59158 42.30427 38.94793
#
# Velocity S-wave (km/s) = 3.86207 4.21054 4.04006
# Velocity P-wave (km/s) = 6.32907 6.76244 6.54934
#
# Compressibility (1/GPa) = 0.02077745
#
# Stress axis : x y z
#
# Youngs Moduli (GPa) = 101.93717 106.45980 61.19732
#
# Poissons Ratio (x) = 0.00448 0.25615
# Poissons Ratio (y) = 0.00429 0.19311
# Poissons Ratio (z) = 0.42667 0.33593
#
# Static dielectric constant tensor:
#      x y z
#    x 1.870460 -0.006050 0.030020 
#    y -0.006050 1.867510 -0.019100 
#    z 0.030020 -0.019100 2.005210 
# 
# From -- ./inp_files/420056.got.cif
#   From: 2010.05.17/outbox.cif.g08.bks.cpg/sg2_211_cif.got.tgz:420056.got - 2010.06.03 11:33:40.
