data_PCOD9063298
_publ_section_title
;
Structure prediction by ZEFSAII (Michael W. Deem and Ramdas Pophale) SiO2 
 PCOD9063298
Probable space group: P -1
;
_chemical_formula_sum "Si O2"
_cell_formula_units_Z 11
_cell_length_a 9.231436
_cell_length_b 8.889637
_cell_length_c 16.468711
_cell_angle_alpha 23.739130
_cell_angle_beta 130.512879
_cell_angle_gamma 119.017541
_cell_volume 386.218754
_symmetry_space_group_name_H-M "P -1"
_symmetry_group_IT_number 2
_symmetry_cell_setting 'triclinic'
loop_
_space_group_symop_operation_xyz
x,y,z
-x,-y,-z
loop_
_atom_site_type_symbol
_atom_site_label
_atom_site_fract_x
_atom_site_fract_y
_atom_site_fract_z
Si Si1 0.354300 0.460460 0.242187
Si Si2 0.402033 0.357271 0.612428
Si Si3 0.864230 0.364302 0.350875
Si Si4 0.575671 0.488354 0.930788
Si Si5 0.000000 0.500000 0.500000
Si Si6 0.074162 0.459110 0.879673
O O1 0.461484 0.617107 0.273912
O O2 0.126745 0.537321 0.151444
O O3 0.500000 0.000000 0.500000
O O4 0.323977 0.684006 0.034307
O O5 0.500000 0.500000 0.500000
O O6 0.167755 0.545943 0.466478
O O7 0.428333 0.895639 0.832491
O O8 0.905219 0.641632 0.158534
O O9 0.845811 0.499111 0.369962
O O10 0.660558 0.287301 0.286044
O O11 0.038971 0.931717 0.630775
O O12 0.722084 0.706777 0.910482
#
# Coordination Sequence:
#
# PCOD9063298 Si02
#       6
#     2   2   2   2   1   2
#     4  12  25  47  75 110 149 195 253 309 369 449
#     4  12  28  48  76 110 152 198 253 307 374 447
#     4  11  24  43  75 105 147 192 249 301 371 442
#     4  12  25  48  77 109 149 197 246 311 376 446
#     4  12  22  50  74 104 152 200 238 318 370 438
#     4  11  24  46  74 109 149 195 248 311 374 440
#
# _framework density 28.481269999999999
#
# number of rings (size 3 to 8) (size 9 to 14) (size 15 to 20)
#    0.000    0.364    5.455    2.727    2.545    1.455 
#    3.273    1.818    0.000    0.000    0.000    0.000 
#    0.000    0.000    0.000    0.000    0.000    0.000 
#
# Total GULP energy -61369.562641 kJ/mol
# GULP energy per Si atom -5579.051149 kJ/mol
# Density = 2.841644 g / cm^3
# Si number density = 28.481270 Si / 1000 Ang^3
#
#
#
# Elastic Constant Matrix: (Units=GPa)
#
#
# Indices 1 2 3 4 5 6 
#
# 1 279.4667 48.4774 44.4038 29.7070 -14.7997 18.3717
# 2 48.4774 117.5493 43.6097 38.4052 22.2749 7.6345
# 3 44.4038 43.6097 58.5894 12.5370 -3.1587 6.9151
# 4 29.7070 38.4052 12.5370 63.5985 -6.5245 2.3347
# 5 -14.7997 22.2749 -3.1587 -6.5245 59.5308 9.4399
# 6 18.3717 7.6345 6.9151 2.3347 9.4399 59.1926
#
#
#
# Elastic Compliance Matrix: (Units=1/GPa)
#
#
# Indices 1 2 3 4 5 6 
#
# 1 0.004324 -0.000839 -0.002253 -0.000887 0.001355 -0.001151
# 2 -0.000839 0.017311 -0.010935 -0.008803 -0.008388 0.000990
# 3 -0.002253 -0.010935 0.026811 0.003020 0.005608 -0.002036
# 4 -0.000887 -0.008803 0.003020 0.021469 0.005697 -0.000697
# 5 0.001355 -0.008388 0.005608 0.005697 0.021781 -0.003692
# 6 -0.001151 0.000990 -0.002036 -0.000697 -0.003692 0.017978
#
#
# Mechanical properties :
#
#
# Convention : Reuss Voigt Hill
#
# Bulk Modulus (GPa) = 49.04001 80.95415 64.99708
# Shear Modulus (GPa) = 34.59641 57.73869 46.16755
#
# Velocity S-wave (km/s) = 3.48905 4.50739 4.03051
# Velocity P-wave (km/s) = 5.78679 7.45480 6.67312
#
# Compressibility (1/GPa) = 0.02039151
#
# Stress axis : x y z
#
# Youngs Moduli (GPa) = 231.28940 57.76706 37.29824
#
# Poissons Ratio (x) = 0.04847 0.08405
# Poissons Ratio (y) = 0.19405 0.40784
# Poissons Ratio (z) = 0.52120 0.63165
#
# Static dielectric constant tensor:
#      x y z
#    x 2.305000 -0.102430 -0.024320 
#    y -0.102430 2.220100 -0.036600 
#    z -0.024320 -0.036600 2.477400 
# 
# From -- ./inp_files/152467.got.cif
#   From: 2010.05.17/outbox.cif.g08.bks.cpg/sg2_77_cif.got.tgz:152467.got - 2010.06.03 11:33:40.
