data_PCOD9063099
_publ_section_title
;
Structure prediction by ZEFSAII (Michael W. Deem and Ramdas Pophale) SiO2 
 PCOD9063099
Probable space group: P -1
;
_chemical_formula_sum "Si O2"
_cell_formula_units_Z 14
_cell_length_a 16.972218
_cell_length_b 20.908078
_cell_length_c 5.049123
_cell_angle_alpha 80.534748
_cell_angle_beta 100.915226
_cell_angle_gamma 159.401071
_cell_volume 618.538804
_symmetry_space_group_name_H-M "P -1"
_symmetry_group_IT_number 2
_symmetry_cell_setting 'triclinic'
loop_
_space_group_symop_operation_xyz
x,y,z
-x,-y,-z
loop_
_atom_site_type_symbol
_atom_site_label
_atom_site_fract_x
_atom_site_fract_y
_atom_site_fract_z
Si Si1 0.219432 0.627960 0.160890
Si Si2 0.945738 0.612862 0.407258
Si Si3 0.527921 0.369087 0.032003
Si Si4 0.367695 0.873990 0.252328
Si Si5 0.361503 0.105395 0.072402
Si Si6 0.401355 0.493353 0.535951
Si Si7 0.108606 0.865350 0.571616
O O1 0.147425 0.514782 0.380672
O O2 0.348406 0.782371 0.292868
O O3 0.392077 0.732703 0.976462
O O4 0.000000 0.500000 0.000000
O O5 0.749099 0.501947 0.205595
O O6 0.118459 0.714457 0.235939
O O7 0.071864 0.761428 0.566929
O O8 0.479459 0.387831 0.206910
O O9 0.358565 0.181315 0.015331
O O10 0.571004 0.434108 0.733346
O O11 0.500000 0.000000 0.500000
O O12 0.500000 0.000000 0.000000
O O13 0.188297 0.943488 0.862349
O O14 0.290126 0.029053 0.368375
O O15 0.500000 0.500000 0.500000
O O16 0.132769 0.284894 0.547404
#
# Coordination Sequence:
#
# PCOD9063099 Si02
#       7
#     2   2   2   2   2   2   2
#     4  12  26  44  67  97 136 184 232 285 334 386
#     4  11  24  45  66  94 131 181 232 273 330 410
#     4  11  24  44  71  98 133 179 218 266 331 404
#     4  12  26  43  63  95 132 175 226 290 341 378
#     4  12  24  44  66 100 136 175 226 277 328 395
#     4  11  24  47  74 104 135 172 218 268 331 412
#     4  11  24  43  70  98 130 176 220 275 336 397
#
# _framework density 22.633987999999999
#
# number of rings (size 3 to 8) (size 9 to 14) (size 15 to 20)
#    0.000    0.571    0.000    9.429    0.000    5.714 
#    0.000    4.286    0.000    0.000    0.000    0.000 
#    0.000    0.000    0.000    0.000    0.000    0.000 
#
# Total GULP energy -78505.357530 kJ/mol
# GULP energy per Si atom -5607.525538 kJ/mol
# Density = 2.258247 g / cm^3
# Si number density = 22.633988 Si / 1000 Ang^3
#
#
#
# Elastic Constant Matrix: (Units=GPa)
#
#
# Indices 1 2 3 4 5 6 
#
# 1 115.9572 41.4340 -4.3941 -17.6857 -21.7822 -2.4769
# 2 41.4340 88.3805 16.2408 -19.4364 1.6780 -18.6196
# 3 -4.3941 16.2408 77.8170 -16.5810 -7.2081 0.0185
# 4 -17.6857 -19.4364 -16.5810 48.7197 -10.6627 -8.6264
# 5 -21.7822 1.6780 -7.2081 -10.6627 40.5304 2.5282
# 6 -2.4769 -18.6196 0.0185 -8.6264 2.5282 36.8299
#
#
#
# Elastic Compliance Matrix: (Units=1/GPa)
#
#
# Indices 1 2 3 4 5 6 
#
# 1 0.013900 -0.006597 0.004339 0.005805 0.010151 -0.001740
# 2 -0.006597 0.018290 -0.003641 0.004499 -0.004400 0.010161
# 3 0.004339 -0.003641 0.016036 0.007092 0.007225 -0.000392
# 4 0.005805 0.004499 0.007092 0.031037 0.011791 0.009121
# 5 0.010151 -0.004400 0.007225 0.011791 0.034770 -0.001171
# 6 -0.001740 0.010161 -0.000392 0.009121 -0.001171 0.034389
#
#
# Mechanical properties :
#
#
# Convention : Reuss Voigt Hill
#
# Bulk Modulus (GPa) = 27.45063 43.19068 35.32065
# Shear Modulus (GPa) = 29.00868 40.47428 34.74148
#
# Velocity S-wave (km/s) = 3.58389 4.23331 3.92206
# Velocity P-wave (km/s) = 5.41110 6.55882 6.01241
#
# Compressibility (1/GPa) = 0.03642903
#
# Stress axis : x y z
#
# Youngs Moduli (GPa) = 71.94027 54.67487 62.35935
#
# Poissons Ratio (x) = 0.36068 -0.27059
# Poissons Ratio (y) = 0.47457 0.22706
# Poissons Ratio (z) = -0.31216 0.19908
#
# Static dielectric constant tensor:
#      x y z
#    x 1.839340 0.012480 -0.026000 
#    y 0.012480 1.874350 0.049020 
#    z -0.026000 0.049020 1.810810 
# 
# From -- ./inp_files/112408.got.cif
#   From: 2010.05.17/outbox.cif.g08.bks.cpg/sg2_57_cif.got.tgz:112408.got - 2010.06.03 11:33:40.
