data_PCOD9063499
_publ_section_title
;
Structure prediction by ZEFSAII (Michael W. Deem and Ramdas Pophale) SiO2 
 PCOD9063499
Probable space group: P -1
;
_chemical_formula_sum "Si O2"
_cell_formula_units_Z 16
_cell_length_a 18.846203
_cell_length_b 8.221726
_cell_length_c 16.456816
_cell_angle_alpha 47.879599
_cell_angle_beta 156.954562
_cell_angle_gamma 134.047218
_cell_volume 713.132679
_symmetry_space_group_name_H-M "P -1"
_symmetry_group_IT_number 2
_symmetry_cell_setting 'triclinic'
loop_
_space_group_symop_operation_xyz
x,y,z
-x,-y,-z
loop_
_atom_site_type_symbol
_atom_site_label
_atom_site_fract_x
_atom_site_fract_y
_atom_site_fract_z
Si Si1 0.735973 0.213916 0.588762
Si Si2 0.365445 0.074699 0.658057
Si Si3 0.025252 0.247226 0.604944
Si Si4 0.591677 0.737708 0.062576
Si Si5 0.643454 0.743181 0.592580
Si Si6 0.507563 0.455485 0.806340
Si Si7 0.110819 0.190691 0.897429
Si Si8 0.959692 0.307409 0.953197
O O1 0.617614 0.368510 0.372333
O O2 0.825236 0.323958 0.731299
O O3 0.920664 0.216564 0.729570
O O4 0.611406 0.948414 0.546512
O O5 0.320198 0.133538 0.498962
O O6 0.439567 0.307137 0.705793
O O7 0.178887 0.927485 0.556298
O O8 0.519146 0.931297 0.875709
O O9 0.183275 0.223804 0.715724
O O10 0.104508 0.201270 0.790745
O O11 0.000000 0.500000 0.500000
O O12 0.516282 0.704107 0.086250
O O13 0.500000 0.500000 0.000000
O O14 0.500000 0.500000 0.500000
O O15 0.827923 0.696612 0.843862
O O16 0.717967 0.603273 0.965051
O O17 0.131923 0.944221 0.024838
O O18 0.000000 0.500000 0.000000
#
# Coordination Sequence:
#
# PCOD9063499 Si02
#       8
#     2   2   2   2   2   2   2   2
#     4  11  25  46  71 100 146 185 231 288 356 409
#     4  12  26  45  69 107 141 180 237 287 350 423
#     4  12  23  43  74  98 138 183 232 292 350 410
#     4  12  24  44  73  99 138 185 233 285 351 412
#     4  11  25  44  71 105 140 183 234 288 346 419
#     4  12  27  44  69 106 139 182 236 287 350 425
#     4  11  24  44  69  98 140 183 232 285 350 417
#     4  11  25  45  69 103 140 184 236 286 353 418
#
# _framework density 22.436218
#
# number of rings (size 3 to 8) (size 9 to 14) (size 15 to 20)
#    0.000    0.500    5.000    4.125    5.250    2.000 
#    0.000    0.000    0.000    0.000    0.000    0.000 
#    0.000    0.000    0.000    0.000    0.000    0.000 
#
# Total GULP energy -89479.966903 kJ/mol
# GULP energy per Si atom -5592.497931 kJ/mol
# Density = 2.238515 g / cm^3
# Si number density = 22.436218 Si / 1000 Ang^3
#
#
#
# Elastic Constant Matrix: (Units=GPa)
#
#
# Indices 1 2 3 4 5 6 
#
# 1 58.3657 18.5283 7.6239 10.1458 -2.0819 -4.3489
# 2 18.5283 106.2947 29.0944 28.1481 18.6458 -4.3619
# 3 7.6239 29.0944 81.5651 11.8908 12.6404 10.0576
# 4 10.1458 28.1481 11.8908 43.5065 -5.3912 -5.1586
# 5 -2.0819 18.6458 12.6404 -5.3912 39.4072 4.2584
# 6 -4.3489 -4.3619 10.0576 -5.1586 4.2584 39.4793
#
#
#
# Elastic Compliance Matrix: (Units=1/GPa)
#
#
# Indices 1 2 3 4 5 6 
#
# 1 0.018669 -0.002837 -0.001009 -0.001784 0.002243 0.001525
# 2 -0.002837 0.014253 -0.002621 -0.008570 -0.007399 0.001608
# 3 -0.001009 -0.002621 0.014796 -0.003046 -0.003523 -0.004188
# 4 -0.001784 -0.008570 -0.003046 0.031208 0.008910 0.002749
# 5 0.002243 -0.007399 -0.003523 0.008910 0.031551 -0.001912
# 6 0.001525 0.001608 -0.004188 0.002749 -0.001912 0.027308
#
#
# Mechanical properties :
#
#
# Convention : Reuss Voigt Hill
#
# Bulk Modulus (GPa) = 28.74813 39.63540 34.19177
# Shear Modulus (GPa) = 30.80450 37.21052 34.00751
#
# Velocity S-wave (km/s) = 3.70940 4.07689 3.89748
# Velocity P-wave (km/s) = 5.58455 6.31392 5.96040
#
# Compressibility (1/GPa) = 0.03478487
#
# Stress axis : x y z
#
# Youngs Moduli (GPa) = 53.56359 70.16039 67.58629
#
# Poissons Ratio (x) = 0.19902 0.06818
# Poissons Ratio (y) = 0.15194 0.17716
# Poissons Ratio (z) = 0.05404 0.18391
#
# Static dielectric constant tensor:
#      x y z
#    x 1.805610 -0.007740 0.007700 
#    y -0.007740 1.806640 -0.005300 
#    z 0.007700 -0.005300 1.787580 
# 
# From -- ./inp_files/338211.got.cif
#   From: 2010.05.17/outbox.cif.g08.bks.cpg/sg2_170_cif.got.tgz:338211.got - 2010.06.03 11:33:40.
