data_PCOD9063385
_publ_section_title
;
Structure prediction by ZEFSAII (Michael W. Deem and Ramdas Pophale) SiO2 
 PCOD9063385
Probable space group: P -1
;
_chemical_formula_sum "Si O2"
_cell_formula_units_Z 16
_cell_length_a 16.831732
_cell_length_b 9.178693
_cell_length_c 5.744009
_cell_angle_alpha 55.140380
_cell_angle_beta 111.526884
_cell_angle_gamma 108.936772
_cell_volume 669.672382
_symmetry_space_group_name_H-M "P -1"
_symmetry_group_IT_number 2
_symmetry_cell_setting 'triclinic'
loop_
_space_group_symop_operation_xyz
x,y,z
-x,-y,-z
loop_
_atom_site_type_symbol
_atom_site_label
_atom_site_fract_x
_atom_site_fract_y
_atom_site_fract_z
Si Si1 0.294288 0.063961 0.884497
Si Si2 0.365551 0.740576 0.063574
Si Si3 0.453146 0.296413 0.615905
Si Si4 0.703829 0.407837 0.377936
Si Si5 0.963130 0.623087 0.038715
Si Si6 0.851633 0.923990 0.551062
Si Si7 0.123117 0.703965 0.480442
Si Si8 0.689380 0.778020 0.820597
O O1 0.371997 0.223967 0.756302
O O2 0.191232 0.062977 0.759014
O O3 0.312469 0.043937 0.193502
O O4 0.313387 0.905274 0.884295
O O5 0.466998 0.804541 0.148193
O O6 0.337589 0.628502 0.375416
O O7 0.346160 0.657573 0.860748
O O8 0.500000 0.500000 0.500000
O O9 0.405678 0.276354 0.335283
O O10 0.791217 0.319579 0.548291
O O11 0.718073 0.621549 0.153448
O O12 0.890558 0.478270 0.213754
O O13 0.039694 0.689796 0.239270
O O14 0.924137 0.796373 0.749713
O O15 0.000000 0.500000 0.000000
O O16 0.765235 0.818691 0.677874
O O17 0.873687 0.116501 0.524016
#
# Coordination Sequence:
#
# PCOD9063385 Si02
#       8
#     2   2   2   2   2   2   2   2
#     4  11  26  42  70 105 140 196 247 306 365 435
#     4  12  27  46  73 107 146 198 247 307 368 432
#     4  11  24  44  67 101 147 189 251 303 366 430
#     4  12  26  46  77 104 147 198 246 301 369 443
#     4  11  27  44  73 107 143 189 240 303 370 445
#     4  11  24  47  70 104 147 186 248 297 373 437
#     4  11  25  46  71 105 145 188 243 300 371 442
#     4  11  25  42  73 102 142 197 247 303 364 438
#
# _framework density 23.89228
#
# number of rings (size 3 to 8) (size 9 to 14) (size 15 to 20)
#    0.000    0.750    3.750    2.250    8.750    3.000 
#    0.000    0.000    0.000    0.000    0.000    0.000 
#    0.000    0.000    0.000    0.000    0.000    0.000 
#
# Total GULP energy -89295.110309 kJ/mol
# GULP energy per Si atom -5580.944394 kJ/mol
# Density = 2.383790 g / cm^3
# Si number density = 23.892280 Si / 1000 Ang^3
#
#
#
# Elastic Constant Matrix: (Units=GPa)
#
#
# Indices 1 2 3 4 5 6 
#
# 1 74.5993 25.6604 17.2242 -3.8017 13.9788 -2.0162
# 2 25.6604 97.9494 25.4625 9.5440 10.8945 11.1552
# 3 17.2242 25.4625 73.9104 -0.5659 16.3368 2.7830
# 4 -3.8017 9.5440 -0.5659 34.8717 -6.5461 -1.2996
# 5 13.9788 10.8945 16.3368 -6.5461 42.3424 -7.3450
# 6 -2.0162 11.1552 2.7830 -1.2996 -7.3450 31.4303
#
#
#
# Elastic Compliance Matrix: (Units=1/GPa)
#
#
# Indices 1 2 3 4 5 6 
#
# 1 0.015835 -0.003805 -0.001803 0.002274 -0.002863 0.001951
# 2 -0.003805 0.013388 -0.002939 -0.004855 -0.002774 -0.005584
# 3 -0.001803 -0.002939 0.016180 -0.000174 -0.005219 -0.001732
# 4 0.002274 -0.004855 -0.000174 0.031599 0.006258 0.004654
# 5 -0.002863 -0.002774 -0.005219 0.006258 0.029726 0.008468
# 6 0.001951 -0.005584 -0.001732 0.004654 0.008468 0.036248
#
#
# Mechanical properties :
#
#
# Convention : Reuss Voigt Hill
#
# Bulk Modulus (GPa) = 35.32416 42.57258 38.94837
# Shear Modulus (GPa) = 29.49751 33.60301 31.55026
#
# Velocity S-wave (km/s) = 3.51751 3.75432 3.63784
# Velocity P-wave (km/s) = 5.59589 6.05396 5.82943
#
# Compressibility (1/GPa) = 0.02830924
#
# Stress axis : x y z
#
# Youngs Moduli (GPa) = 63.15075 74.69444 61.80506
#
# Poissons Ratio (x) = 0.28422 0.11140
# Poissons Ratio (y) = 0.24029 0.18166
# Poissons Ratio (z) = 0.11383 0.21955
#
# Static dielectric constant tensor:
#      x y z
#    x 1.920860 -0.038580 -0.032610 
#    y -0.038580 1.954670 -0.032560 
#    z -0.032610 -0.032560 2.125640 
# 
# From -- ./inp_files/46987.got.cif
#   From: 2010.05.17/outbox.cif.g08.bks.cpg/sg2_24_cif.got.tgz:46987.got - 2010.06.03 11:33:40.
