data_PCOD9063833
_publ_section_title
;
Structure prediction by ZEFSAII (Michael W. Deem and Ramdas Pophale) SiO2 
 PCOD9063833
Probable space group: P -1
;
_chemical_formula_sum "Si O2"
_cell_formula_units_Z 14
_cell_length_a 6.271358
_cell_length_b 9.325973
_cell_length_c 16.217198
_cell_angle_alpha 41.737996
_cell_angle_beta 104.592341
_cell_angle_gamma 104.171813
_cell_volume 608.681564
_symmetry_space_group_name_H-M "P -1"
_symmetry_group_IT_number 2
_symmetry_cell_setting 'triclinic'
loop_
_space_group_symop_operation_xyz
x,y,z
-x,-y,-z
loop_
_atom_site_type_symbol
_atom_site_label
_atom_site_fract_x
_atom_site_fract_y
_atom_site_fract_z
Si Si1 0.742843 0.084711 0.444058
Si Si2 0.251066 0.428982 0.746267
Si Si3 0.981382 0.262715 0.637883
Si Si4 0.326402 0.008188 0.177531
Si Si5 0.781748 0.118550 0.244032
Si Si6 0.657612 0.202400 0.897999
Si Si7 0.085244 0.388961 0.936427
O O1 0.792063 0.325628 0.380566
O O2 0.686134 0.102787 0.334007
O O3 0.500000 0.000000 0.500000
O O4 0.000000 0.000000 0.500000
O O5 0.508651 0.394483 0.779234
O O6 0.183446 0.381366 0.855378
O O7 0.126801 0.281313 0.728058
O O8 0.000000 0.500000 0.500000
O O9 0.739452 0.166440 0.683597
O O10 0.065444 0.075492 0.670022
O O11 0.584225 0.075272 0.178732
O O12 0.247725 0.889724 0.136566
O O13 0.209258 0.229652 0.074675
O O14 0.893185 0.362060 0.141586
O O15 0.836803 0.288123 0.944178
O O16 0.500000 0.000000 0.000000
#
# Coordination Sequence:
#
# PCOD9063833 Si02
#       7
#     2   2   2   2   2   2   2
#     4  11  28  50  77 107 152 206 264 315 381 462
#     4  11  24  44  75 102 144 198 252 309 375 461
#     4  12  27  46  70 104 149 197 251 317 385 455
#     4  12  25  45  74 108 151 191 251 315 389 460
#     4  11  28  46  73 110 149 192 250 320 392 449
#     4  12  23  43  75 109 144 197 248 303 381 468
#     4  11  25  46  74 108 146 191 253 310 386 461
#
# _framework density 23.000534999999999
#
# number of rings (size 3 to 8) (size 9 to 14) (size 15 to 20)
#    0.000    0.571    4.286    2.571    8.000    3.429 
#    0.000    0.000    0.000    0.000    0.000    0.000 
#    0.000    0.000    0.000    0.000    0.000    0.000 
#
# Total GULP energy -78156.005145 kJ/mol
# GULP energy per Si atom -5582.571796 kJ/mol
# Density = 2.294818 g / cm^3
# Si number density = 23.000535 Si / 1000 Ang^3
#
#
#
# Elastic Constant Matrix: (Units=GPa)
#
#
# Indices 1 2 3 4 5 6 
#
# 1 95.1104 23.9497 54.5544 -25.1631 -10.1778 4.3993
# 2 23.9497 96.7467 30.8170 -30.1608 -11.7774 -7.8987
# 3 54.5544 30.8170 129.0498 -35.2264 -6.3501 -8.5303
# 4 -25.1631 -30.1608 -35.2264 42.1976 -6.0405 5.8865
# 5 -10.1778 -11.7774 -6.3501 -6.0405 42.7345 -0.7849
# 6 4.3993 -7.8987 -8.5303 5.8865 -0.7849 41.3507
#
#
#
# Elastic Compliance Matrix: (Units=1/GPa)
#
#
# Indices 1 2 3 4 5 6 
#
# 1 0.015544 -0.000247 -0.004925 0.005998 0.003686 -0.003501
# 2 -0.000247 0.014568 -0.000063 0.010810 0.005500 0.001361
# 3 -0.004925 -0.000063 0.011954 0.006945 0.001605 0.002020
# 4 0.005998 0.010810 0.006945 0.042859 0.011442 -0.003024
# 5 0.003686 0.005500 0.001605 0.011442 0.027648 -0.000115
# 6 -0.003501 0.001361 0.002020 -0.003024 -0.000115 0.025661
#
#
# Mechanical properties :
#
#
# Convention : Reuss Voigt Hill
#
# Bulk Modulus (GPa) = 31.64850 59.94989 45.79919
# Shear Modulus (GPa) = 31.39980 39.36228 35.38104
#
# Velocity S-wave (km/s) = 3.69884 4.14135 3.92633
# Velocity P-wave (km/s) = 5.65965 6.99920 6.36477
#
# Compressibility (1/GPa) = 0.03159707
#
# Stress axis : x y z
#
# Youngs Moduli (GPa) = 64.33212 68.64264 83.65087
#
# Poissons Ratio (x) = 0.01692 0.41200
# Poissons Ratio (y) = 0.01586 0.00528
# Poissons Ratio (z) = 0.31685 0.00434
#
# Static dielectric constant tensor:
#      x y z
#    x 1.941950 -0.042170 -0.008140 
#    y -0.042170 1.838670 0.042470 
#    z -0.008140 0.042470 1.893070 
# 
# From -- ./inp_files/48682.got.cif
#   From: 2010.05.17/outbox.cif.g08.bks.cpg/sg2_25_cif.got.tgz:48682.got - 2010.06.03 11:33:40.
