data_PCOD9063707
_publ_section_title
;
Structure prediction by ZEFSAII (Michael W. Deem and Ramdas Pophale) SiO2 
 PCOD9063707
Probable space group: P -1
;
_chemical_formula_sum "Si O2"
_cell_formula_units_Z 16
_cell_length_a 17.193195
_cell_length_b 9.913525
_cell_length_c 6.481366
_cell_angle_alpha 131.010677
_cell_angle_beta 60.497034
_cell_angle_gamma 104.704882
_cell_volume 721.459793
_symmetry_space_group_name_H-M "P -1"
_symmetry_group_IT_number 2
_symmetry_cell_setting 'triclinic'
loop_
_space_group_symop_operation_xyz
x,y,z
-x,-y,-z
loop_
_atom_site_type_symbol
_atom_site_label
_atom_site_fract_x
_atom_site_fract_y
_atom_site_fract_z
Si Si1 0.159784 0.522356 0.305781
Si Si2 0.440290 0.276710 0.308607
Si Si3 0.694324 0.809922 0.268860
Si Si4 0.771219 0.164079 0.672915
Si Si5 0.032128 0.032024 0.738991
Si Si6 0.409651 0.995799 0.743046
Si Si7 0.994548 0.454252 0.193563
Si Si8 0.375287 0.658173 0.671940
O O1 0.215021 0.693640 0.384570
O O2 0.109085 0.498249 0.560311
O O3 0.069909 0.554093 0.313259
O O4 0.222593 0.343145 0.987362
O O5 0.387501 0.270232 0.587024
O O6 0.394052 0.444744 0.404119
O O7 0.543718 0.304130 0.239109
O O8 0.428319 0.091223 0.027569
O O9 0.666996 0.875919 0.142538
O O10 0.715883 0.996444 0.530573
O O11 0.869578 0.072231 0.502778
O O12 0.719571 0.281819 0.037567
O O13 0.000000 0.000000 0.500000
O O14 0.023600 0.245393 0.975238
O O15 0.000000 0.000000 0.000000
O O16 0.500000 0.000000 0.500000
O O17 0.386590 0.793588 0.605209
O O18 0.000000 0.500000 0.000000
#
# Coordination Sequence:
#
# PCOD9063707 Si02
#       8
#     2   2   2   2   2   2   2   2
#     4  11  25  46  70 107 141 185 247 300 375 441
#     4  11  24  47  68  99 144 189 235 296 365 437
#     4  12  25  44  72 103 144 187 242 299 355 447
#     4  12  24  45  75 107 141 187 248 303 366 447
#     4  12  27  49  77 112 153 197 253 313 386 464
#     4  12  25  43  69 101 141 190 242 295 371 434
#     4  11  25  47  75 100 148 193 239 312 381 451
#     4  11  24  44  73 100 143 188 241 301 364 435
#
# _framework density 22.177257000000001
#
# number of rings (size 3 to 8) (size 9 to 14) (size 15 to 20)
#    0.000    0.500    6.250    1.875    1.750    4.500 
#    4.500    0.000    0.000    0.000    0.000    0.000 
#    0.000    0.000    0.000    0.000    0.000    0.000 
#
# Total GULP energy -89189.872420 kJ/mol
# GULP energy per Si atom -5574.367026 kJ/mol
# Density = 2.212678 g / cm^3
# Si number density = 22.177257 Si / 1000 Ang^3
#
#
#
# Elastic Constant Matrix: (Units=GPa)
#
#
# Indices 1 2 3 4 5 6 
#
# 1 44.0397 7.5052 19.8763 -4.3822 -7.7384 -0.1959
# 2 7.5052 133.2356 26.4369 -4.7337 -1.1445 -0.4316
# 3 19.8763 26.4369 91.2332 -7.8712 -23.9822 1.3482
# 4 -4.3822 -4.7337 -7.8712 50.1598 3.3729 0.0857
# 5 -7.7384 -1.1445 -23.9822 3.3729 37.0322 0.1234
# 6 -0.1959 -0.4316 1.3482 0.0857 0.1234 26.6034
#
#
#
# Elastic Compliance Matrix: (Units=1/GPa)
#
#
# Indices 1 2 3 4 5 6 
#
# 1 0.025426 -0.000423 -0.004760 0.001293 0.002098 0.000408
# 2 -0.000423 0.008052 -0.002624 0.000417 -0.001578 0.000266
# 3 -0.004760 -0.002624 0.015137 0.001133 0.008627 -0.000888
# 4 0.001293 0.000417 0.001133 0.020323 -0.000834 -0.000103
# 5 0.002098 -0.001578 0.008627 -0.000834 0.033058 -0.000598
# 6 0.000408 0.000266 -0.000888 -0.000103 -0.000598 0.037645
#
#
# Mechanical properties :
#
#
# Convention : Reuss Voigt Hill
#
# Bulk Modulus (GPa) = 30.30063 41.79392 36.04727
# Shear Modulus (GPa) = 30.07452 37.07175 33.57314
#
# Velocity S-wave (km/s) = 3.68652 4.09297 3.89505
# Velocity P-wave (km/s) = 5.64031 6.42050 6.04301
#
# Compressibility (1/GPa) = 0.03300261
#
# Stress axis : x y z
#
# Youngs Moduli (GPa) = 39.32944 124.19177 66.06401
#
# Poissons Ratio (x) = 0.05247 0.31446
# Poissons Ratio (y) = 0.01662 0.17334
# Poissons Ratio (z) = 0.18720 0.32586
#
# Static dielectric constant tensor:
#      x y z
#    x 1.865930 -0.010690 0.052740 
#    y -0.010690 1.836000 -0.054670 
#    z 0.052740 -0.054670 1.832270 
# 
# From -- ./inp_files/107480.got.cif
#   From: 2010.05.17/outbox.cif.g08.bks.cpg/sg2_54_cif.got.tgz:107480.got - 2010.06.03 11:33:40.
