data_PCOD9063847
_publ_section_title
;
Structure prediction by ZEFSAII (Michael W. Deem and Ramdas Pophale) SiO2 
 PCOD9063847
Probable space group: P -1
;
_chemical_formula_sum "Si O2"
_cell_formula_units_Z 13
_cell_length_a 8.153477
_cell_length_b 5.649191
_cell_length_c 11.213996
_cell_angle_alpha 85.286895
_cell_angle_beta 83.905329
_cell_angle_gamma 82.163479
_cell_volume 507.604146
_symmetry_space_group_name_H-M "P -1"
_symmetry_group_IT_number 2
_symmetry_cell_setting 'triclinic'
loop_
_space_group_symop_operation_xyz
x,y,z
-x,-y,-z
loop_
_atom_site_type_symbol
_atom_site_label
_atom_site_fract_x
_atom_site_fract_y
_atom_site_fract_z
Si Si1 0.164976 0.364022 0.555211
Si Si2 0.725833 0.321942 0.266504
Si Si3 0.376017 0.215702 0.323173
Si Si4 0.500000 0.500000 0.000000
Si Si5 0.688634 0.245742 0.802850
Si Si6 0.944379 0.916362 0.198536
Si Si7 0.808544 0.619807 0.033517
O O1 0.264652 0.538373 0.618031
O O2 0.284467 0.217750 0.457608
O O3 0.102441 0.207899 0.671982
O O4 0.000000 0.500000 0.500000
O O5 0.576692 0.168706 0.300435
O O6 0.698867 0.462920 0.136771
O O7 0.908998 0.190272 0.227151
O O8 0.339215 0.504386 0.281115
O O9 0.323801 0.986860 0.267772
O O10 0.569140 0.268321 0.924203
O O11 0.325234 0.369983 0.060641
O O12 0.873007 0.190139 0.842216
O O13 0.830635 0.852054 0.100502
O O14 0.000000 0.500000 0.000000
#
# Coordination Sequence:
#
# PCOD9063847 Si02
#       7
#     2   2   2   1   2   2   2
#     4  11  24  44  75 105 150 197 250 305 379 451
#     4  11  26  45  71 110 150 195 251 316 375 454
#     4  12  27  48  74 114 151 198 253 312 378 452
#     4  12  24  50  76 108 150 202 252 320 376 454
#     4  12  27  47  78 110 151 198 256 314 376 455
#     4  11  25  45  73 110 152 197 253 311 376 456
#     4  11  24  46  72 107 145 195 254 310 378 443
#
# _framework density 25.610507999999999
#
# number of rings (size 3 to 8) (size 9 to 14) (size 15 to 20)
#    0.000    0.615    4.615    2.308    6.462    3.077 
#    2.769    0.000    0.000    0.000    0.000    0.000 
#    0.000    0.000    0.000    0.000    0.000    0.000 
#
# Total GULP energy -72383.802134 kJ/mol
# GULP energy per Si atom -5567.984780 kJ/mol
# Density = 2.555222 g / cm^3
# Si number density = 25.610508 Si / 1000 Ang^3
#
#
#
# Elastic Constant Matrix: (Units=GPa)
#
#
# Indices 1 2 3 4 5 6 
#
# 1 228.7950 28.0423 28.0127 71.9179 62.3848 19.2780
# 2 28.0423 89.1461 45.3198 25.1530 11.3239 -3.4282
# 3 28.0127 45.3198 115.1808 38.2050 -17.0896 9.8522
# 4 71.9179 25.1530 38.2050 93.0100 48.1064 10.1799
# 5 62.3848 11.3239 -17.0896 48.1064 128.0585 36.6766
# 6 19.2780 -3.4282 9.8522 10.1799 36.6766 43.8650
#
#
#
# Elastic Compliance Matrix: (Units=1/GPa)
#
#
# Indices 1 2 3 4 5 6 
#
# 1 0.006044 -0.000664 -0.000114 -0.003692 -0.001303 -0.000736
# 2 -0.000664 0.015826 -0.007541 0.000824 -0.004286 0.006615
# 3 -0.000114 -0.007541 0.016489 -0.008106 0.008736 -0.009666
# 4 -0.003692 0.000824 -0.008106 0.020625 -0.008859 0.006128
# 5 -0.001303 -0.004286 0.008736 -0.008859 0.017385 -0.014204
# 6 -0.000736 0.006615 -0.009666 0.006128 -0.014204 0.036263
#
#
# Mechanical properties :
#
#
# Convention : Reuss Voigt Hill
#
# Bulk Modulus (GPa) = 46.03911 70.65241 58.34576
# Shear Modulus (GPa) = 36.62726 75.10316 55.86521
#
# Velocity S-wave (km/s) = 3.78586 5.42114 4.67555
# Velocity P-wave (km/s) = 6.09311 8.17510 7.20965
#
# Compressibility (1/GPa) = 0.02172066
#
# Stress axis : x y z
#
# Youngs Moduli (GPa) = 165.45129 63.18544 60.64802
#
# Poissons Ratio (x) = 0.04196 0.00693
# Poissons Ratio (y) = 0.10988 0.45734
# Poissons Ratio (z) = 0.01890 0.47647
#
# Static dielectric constant tensor:
#      x y z
#    x 2.096850 0.166230 0.010220 
#    y 0.166230 2.268850 0.045120 
#    z 0.010220 0.045120 1.914280 
# 
# From -- ./inp_files/24364.got.cif
#   From: 2010.05.17/outbox.cif.g08.bks.cpg/sg2_13_cif.got.tgz:24364.got - 2010.06.03 11:33:40.
