data_PCOD9063544
_publ_section_title
;
Structure prediction by ZEFSAII (Michael W. Deem and Ramdas Pophale) SiO2 
 PCOD9063544
Probable space group: P -1
;
_chemical_formula_sum "Si O2"
_cell_formula_units_Z 16
_cell_length_a 8.446163
_cell_length_b 11.405793
_cell_length_c 14.994377
_cell_angle_alpha 110.859989
_cell_angle_beta 31.620283
_cell_angle_gamma 100.245818
_cell_volume 684.130175
_symmetry_space_group_name_H-M "P -1"
_symmetry_group_IT_number 2
_symmetry_cell_setting 'triclinic'
loop_
_space_group_symop_operation_xyz
x,y,z
-x,-y,-z
loop_
_atom_site_type_symbol
_atom_site_label
_atom_site_fract_x
_atom_site_fract_y
_atom_site_fract_z
Si Si1 0.826233 0.393385 0.313461
Si Si2 0.813200 0.110979 0.309378
Si Si3 0.614020 0.767910 0.302074
Si Si4 0.000791 0.517126 0.108594
Si Si5 0.463325 0.356546 0.059375
Si Si6 0.582372 0.918577 0.679627
Si Si7 0.302951 0.799181 0.275976
Si Si8 0.747817 0.145498 0.005375
O O1 0.500000 0.500000 0.500000
O O2 0.847822 0.250313 0.298582
O O3 0.928675 0.398302 0.162875
O O4 0.103035 0.434107 0.245114
O O5 0.637378 0.126278 0.492494
O O6 0.606320 0.072542 0.319374
O O7 0.134822 0.000152 0.129255
O O8 0.458323 0.737165 0.277295
O O9 0.721637 0.648248 0.287075
O O10 0.932850 0.806655 0.136534
O O11 0.312097 0.551466 0.001969
O O12 0.000000 0.500000 0.000000
O O13 0.578241 0.281193 0.891576
O O14 0.514348 0.247558 0.082295
O O15 0.929475 0.829246 0.472869
O O16 0.614201 0.061180 0.730091
O O17 0.398999 0.864891 0.830671
#
# Coordination Sequence:
#
# PCOD9063544 Si02
#       8
#     2   2   2   2   2   2   2   2
#     4  12  27  47  73 104 144 194 244 292 356 422
#     4  12  25  45  72 102 155 189 239 297 358 430
#     4  11  24  44  70 103 143 193 239 297 360 426
#     4  11  25  49  75 102 138 195 248 295 356 430
#     4  11  27  48  75 106 145 190 235 307 360 430
#     4  11  25  41  68 109 148 187 235 296 357 442
#     4  11  25  43  69 107 148 187 235 293 374 424
#     4  11  25  42  74 106 142 187 238 296 369 419
#
# _framework density 23.387363000000001
#
# number of rings (size 3 to 8) (size 9 to 14) (size 15 to 20)
#    0.000    0.750    2.500    4.125   10.500    1.000 
#    0.000    0.625    0.000    0.000    0.000    0.000 
#    0.000    0.000    0.000    0.000    0.000    0.000 
#
# Total GULP energy -89589.067239 kJ/mol
# GULP energy per Si atom -5599.316702 kJ/mol
# Density = 2.333413 g / cm^3
# Si number density = 23.387363 Si / 1000 Ang^3
#
#
#
# Elastic Constant Matrix: (Units=GPa)
#
#
# Indices 1 2 3 4 5 6 
#
# 1 119.7351 17.1637 47.3640 -6.5505 -0.5779 -5.3957
# 2 17.1637 98.2641 22.8402 -15.8462 0.0276 -13.3678
# 3 47.3640 22.8402 97.2268 -7.3064 2.5508 -3.2094
# 4 -6.5505 -15.8462 -7.3064 34.4911 -14.8578 7.1674
# 5 -0.5779 0.0276 2.5508 -14.8578 47.1926 9.0296
# 6 -5.3957 -13.3678 -3.2094 7.1674 9.0296 38.9669
#
#
#
# Elastic Compliance Matrix: (Units=1/GPa)
#
#
# Indices 1 2 3 4 5 6 
#
# 1 0.010434 -0.000466 -0.004905 0.000837 0.000542 0.000602
# 2 -0.000466 0.011904 -0.002146 0.004846 0.001114 0.002693
# 3 -0.004905 -0.002146 0.013236 0.000760 -0.000467 -0.000357
# 4 0.000837 0.004846 0.000760 0.039375 0.014018 -0.008650
# 5 0.000542 0.001114 -0.000467 0.014018 0.027256 -0.008476
# 6 0.000602 0.002693 -0.000357 -0.008650 -0.008476 0.030196
#
#
# Mechanical properties :
#
#
# Convention : Reuss Voigt Hill
#
# Bulk Modulus (GPa) = 48.68131 54.44021 51.56076
# Shear Modulus (GPa) = 32.40800 39.32067 35.86433
#
# Velocity S-wave (km/s) = 3.72655 4.10479 3.92023
# Velocity P-wave (km/s) = 6.27508 6.76712 6.52574
#
# Compressibility (1/GPa) = 0.02054177
#
# Stress axis : x y z
#
# Youngs Moduli (GPa) = 95.83693 84.00289 75.54929
#
# Poissons Ratio (x) = 0.03913 0.37058
# Poissons Ratio (y) = 0.04464 0.16211
# Poissons Ratio (z) = 0.47009 0.18025
#
# Static dielectric constant tensor:
#      x y z
#    x 1.849730 -0.008460 -0.035410 
#    y -0.008460 1.971670 0.049490 
#    z -0.035410 0.049490 1.908920 
# 
# From -- ./inp_files/500499.got.cif
#   From: 2010.05.17/outbox.cif.g08.bks.cpg/sg2_251_cif.got.tgz:500499.got - 2010.06.03 11:33:40.
