data_PCOD9063512
_publ_section_title
;
Structure prediction by ZEFSAII (Michael W. Deem and Ramdas Pophale) SiO2 
 PCOD9063512
Probable space group: P -1
;
_chemical_formula_sum "Si O2"
_cell_formula_units_Z 14
_cell_length_a 6.113423
_cell_length_b 6.343637
_cell_length_c 19.656932
_cell_angle_alpha 58.781963
_cell_angle_beta 80.043606
_cell_angle_gamma 107.948389
_cell_volume 566.011821
_symmetry_space_group_name_H-M "P -1"
_symmetry_group_IT_number 2
_symmetry_cell_setting 'triclinic'
loop_
_space_group_symop_operation_xyz
x,y,z
-x,-y,-z
loop_
_atom_site_type_symbol
_atom_site_label
_atom_site_fract_x
_atom_site_fract_y
_atom_site_fract_z
Si Si1 0.413444 0.683616 0.926274
Si Si2 0.694829 0.276358 0.824689
Si Si3 0.396601 0.332113 0.714947
Si Si4 0.868373 0.384027 0.599221
Si Si5 0.025004 0.940399 0.696430
Si Si6 0.055431 0.742225 0.045632
Si Si7 0.696570 0.179183 0.402706
O O1 0.227692 0.518069 0.901939
O O2 0.652847 0.978325 0.845033
O O3 0.500000 0.500000 0.000000
O O4 0.228203 0.746630 0.973164
O O5 0.461459 0.277711 0.796307
O O6 0.770423 0.236418 0.903467
O O7 0.890009 0.606371 0.753664
O O8 0.383228 0.619818 0.667648
O O9 0.611607 0.369748 0.642295
O O10 0.151060 0.073536 0.739384
O O11 0.062499 0.599940 0.606337
O O12 0.000000 0.500000 0.500000
O O13 0.857242 0.083930 0.659669
O O14 0.242483 0.019595 0.614802
O O15 0.000000 0.000000 0.000000
O O16 0.500000 0.000000 0.500000
#
# Coordination Sequence:
#
# PCOD9063512 Si02
#       7
#     2   2   2   2   2   2   2
#     4  11  25  48  73 106 136 181 235 273 341 423
#     4  12  25  46  72 100 145 182 219 294 347 402
#     4  11  26  45  65 104 138 178 234 284 347 401
#     4  11  24  44  70 100 136 184 237 282 340 417
#     4  11  26  45  65 104 138 178 234 284 347 401
#     4  11  25  48  73 106 136 181 235 273 341 423
#     4  11  24  44  70 100 136 184 237 282 340 417
#
# _framework density 24.734463000000002
#
# number of rings (size 3 to 8) (size 9 to 14) (size 15 to 20)
#    0.000    0.857    2.857    3.000    4.000    5.714 
#    0.000    0.000    0.000    0.000    0.000    0.000 
#    0.000    0.000    0.000    0.000    0.000    0.000 
#
# Total GULP energy -78128.620747 kJ/mol
# GULP energy per Si atom -5580.615768 kJ/mol
# Density = 2.467817 g / cm^3
# Si number density = 24.734463 Si / 1000 Ang^3
#
#
#
# Elastic Constant Matrix: (Units=GPa)
#
#
# Indices 1 2 3 4 5 6 
#
# 1 91.7046 52.1561 29.6535 8.7755 5.6935 3.4421
# 2 52.1561 114.4440 37.4633 -3.2332 -3.2438 19.3983
# 3 29.6535 37.4633 76.0964 -5.5274 18.2544 13.5322
# 4 8.7755 -3.2332 -5.5274 46.0098 12.1101 -2.1901
# 5 5.6935 -3.2438 18.2544 12.1101 43.7572 4.7811
# 6 3.4421 19.3983 13.5322 -2.1901 4.7811 64.4237
#
#
#
# Elastic Compliance Matrix: (Units=1/GPa)
#
#
# Indices 1 2 3 4 5 6 
#
# 1 0.016123 -0.006591 -0.003574 -0.003823 -0.000230 0.001761
# 2 -0.006591 0.013932 -0.004671 0.000458 0.004056 -0.003147
# 3 -0.003574 -0.004671 0.019746 0.005106 -0.009348 -0.001683
# 4 -0.003823 0.000458 0.005106 0.025420 -0.008689 0.000503
# 5 -0.000230 0.004056 -0.009348 -0.008689 0.029679 -0.001743
# 6 0.001761 -0.003147 -0.001683 0.000503 -0.001743 0.016876
#
#
# Mechanical properties :
#
#
# Convention : Reuss Voigt Hill
#
# Bulk Modulus (GPa) = 49.67677 57.86565 53.77121
# Shear Modulus (GPa) = 31.61449 41.70294 36.65872
#
# Velocity S-wave (km/s) = 3.57901 4.11058 3.85397
# Velocity P-wave (km/s) = 6.09973 6.78046 6.44908
#
# Compressibility (1/GPa) = 0.02013013
#
# Stress axis : x y z
#
# Youngs Moduli (GPa) = 62.02450 71.77813 50.64365
#
# Poissons Ratio (x) = 0.47307 0.18099
# Poissons Ratio (y) = 0.40879 0.23654
# Poissons Ratio (z) = 0.22166 0.33525
#
# Static dielectric constant tensor:
#      x y z
#    x 1.933760 0.012910 0.011880 
#    y 0.012910 1.942210 -0.006320 
#    z 0.011880 -0.006320 1.940800 
# 
# From -- ./inp_files/102956.got.cif
#   From: 2010.05.17/outbox.cif.g08.bks.cpg/sg2_52_cif.got.tgz:102956.got - 2010.06.03 11:33:40.
