data_PCOD9063971
_publ_section_title
;
Structure prediction by ZEFSAII (Michael W. Deem and Ramdas Pophale) SiO2 
 PCOD9063971
Probable space group: P -1
;
_chemical_formula_sum "Si O2"
_cell_formula_units_Z 16
_cell_length_a 13.913227
_cell_length_b 5.034505
_cell_length_c 10.855639
_cell_angle_alpha 110.190621
_cell_angle_beta 65.932976
_cell_angle_gamma 93.754008
_cell_volume 649.110639
_symmetry_space_group_name_H-M "P -1"
_symmetry_group_IT_number 2
_symmetry_cell_setting 'triclinic'
loop_
_space_group_symop_operation_xyz
x,y,z
-x,-y,-z
loop_
_atom_site_type_symbol
_atom_site_label
_atom_site_fract_x
_atom_site_fract_y
_atom_site_fract_z
Si Si1 0.427915 0.540561 0.427118
Si Si2 0.484510 0.915567 0.238896
Si Si3 0.907276 0.861001 0.601363
Si Si4 0.127119 0.694371 0.942204
Si Si5 0.791739 0.373262 0.481169
Si Si6 0.265139 0.225977 0.941754
Si Si7 0.967908 0.099436 0.228073
Si Si8 0.286531 0.683133 0.211585
O O1 0.500000 0.500000 0.500000
O O2 0.450436 0.808053 0.374428
O O3 0.308077 0.563644 0.542489
O O4 0.453625 0.249755 0.291313
O O5 0.610118 0.844819 0.158783
O O6 0.407334 0.766424 0.160262
O O7 0.867534 0.620185 0.497183
O O8 0.955578 0.763697 0.692593
O O9 0.803892 0.063971 0.724551
O O10 0.000000 0.000000 0.500000
O O11 0.193935 0.410451 0.907454
O O12 0.072418 0.716529 0.839867
O O13 0.208335 0.939925 0.943545
O O14 0.031336 0.811581 0.101868
O O15 0.738289 0.372802 0.642228
O O16 0.859990 0.089297 0.359933
O O17 0.265614 0.426484 0.093383
#
# Coordination Sequence:
#
# PCOD9063971 Si02
#       8
#     2   2   2   2   2   2   2   2
#     4  11  25  47  72 106 145 184 232 292 349 429
#     4  11  25  46  72 105 141 183 237 288 358 412
#     4  12  23  42  70 100 139 186 235 293 356 408
#     4  11  28  47  68 106 139 191 235 286 348 431
#     4  11  25  43  71 104 141 183 238 293 360 414
#     4  12  26  47  75  99 144 186 239 286 357 416
#     4  11  25  45  68 100 144 185 235 292 350 419
#     4  11  24  45  68 106 138 183 236 300 344 422
#
# _framework density 24.649111000000001
#
# number of rings (size 3 to 8) (size 9 to 14) (size 15 to 20)
#    0.000    0.750    3.750    2.625    5.250    3.000 
#    0.000    3.125    0.000    0.000    0.000    0.000 
#    0.000    0.000    0.000    0.000    0.000    0.000 
#
# Total GULP energy -89508.255703 kJ/mol
# GULP energy per Si atom -5594.265981 kJ/mol
# Density = 2.459301 g / cm^3
# Si number density = 24.649111 Si / 1000 Ang^3
#
#
#
# Elastic Constant Matrix: (Units=GPa)
#
#
# Indices 1 2 3 4 5 6 
#
# 1 203.1680 31.7177 47.4163 2.8039 -16.5221 -11.3177
# 2 31.7177 66.4633 16.4958 10.9044 -13.3297 2.9542
# 3 47.4163 16.4958 70.0580 4.2395 -14.2032 3.6597
# 4 2.8039 10.9044 4.2395 14.5051 -15.7008 -0.5482
# 5 -16.5221 -13.3297 -14.2032 -15.7008 47.5991 12.1962
# 6 -11.3177 2.9542 3.6597 -0.5482 12.1962 36.0439
#
#
#
# Elastic Compliance Matrix: (Units=1/GPa)
#
#
# Indices 1 2 3 4 5 6 
#
# 1 0.006362 -0.002472 -0.003892 0.002430 0.000527 0.002454
# 2 -0.002472 0.018983 -0.001836 -0.013136 0.000195 -0.002411
# 3 -0.003892 -0.001836 0.018620 0.002898 0.005906 -0.004917
# 4 0.002430 -0.013136 0.002898 0.121079 0.040622 -0.010358
# 5 0.000527 0.000195 0.005906 0.040622 0.039817 -0.013305
# 6 0.002454 -0.002411 -0.004917 -0.010358 -0.013305 0.033556
#
#
# Mechanical properties :
#
#
# Convention : Reuss Voigt Hill
#
# Bulk Modulus (GPa) = 36.27990 58.99433 47.63711
# Shear Modulus (GPa) = 18.93894 35.90026 27.41960
#
# Velocity S-wave (km/s) = 2.77491 3.82049 3.33888
# Velocity P-wave (km/s) = 5.00173 6.59144 5.85083
#
# Compressibility (1/GPa) = 0.02756347
#
# Stress axis : x y z
#
# Youngs Moduli (GPa) = 157.17126 52.67901 53.70695
#
# Poissons Ratio (x) = 0.13023 0.20905
# Poissons Ratio (y) = 0.38856 0.09861
# Poissons Ratio (z) = 0.61178 0.09672
#
# Static dielectric constant tensor:
#      x y z
#    x 2.108170 -0.051130 0.013530 
#    y -0.051130 1.987310 -0.016010 
#    z 0.013530 -0.016010 2.026170 
# 
# From -- ./inp_files/442262.got.cif
#   From: 2010.05.17/outbox.cif.g08.bks.cpg/sg2_222_cif.got.tgz:442262.got - 2010.06.03 11:33:40.
