data_PCOD9063554
_publ_section_title
;
Structure prediction by ZEFSAII (Michael W. Deem and Ramdas Pophale) SiO2 
 PCOD9063554
Probable space group: P -1
;
_chemical_formula_sum "Si O2"
_cell_formula_units_Z 16
_cell_length_a 9.535197
_cell_length_b 8.644011
_cell_length_c 14.192681
_cell_angle_alpha 38.014014
_cell_angle_beta 114.759535
_cell_angle_gamma 98.382972
_cell_volume 617.701993
_symmetry_space_group_name_H-M "P -1"
_symmetry_group_IT_number 2
_symmetry_cell_setting 'triclinic'
loop_
_space_group_symop_operation_xyz
x,y,z
-x,-y,-z
loop_
_atom_site_type_symbol
_atom_site_label
_atom_site_fract_x
_atom_site_fract_y
_atom_site_fract_z
Si Si1 0.774916 0.111468 0.644096
Si Si2 0.756323 0.216391 0.088898
Si Si3 0.836094 0.026970 0.498414
Si Si4 0.615104 0.644330 0.145439
Si Si5 0.398793 0.298330 0.475758
Si Si6 0.708870 0.692846 0.358365
Si Si7 0.186931 0.339640 0.975537
Si Si8 0.885714 0.255908 0.900369
O O1 0.577747 0.213054 0.522065
O O2 0.817591 0.380930 0.545362
O O3 0.866736 0.967870 0.646502
O O4 0.799385 0.901454 0.834350
O O5 0.791577 0.920421 0.282131
O O6 0.566725 0.319426 0.954499
O O7 0.772834 0.431049 0.065472
O O8 0.853449 0.204463 0.024614
O O9 0.708310 0.886671 0.493530
O O10 0.729666 0.339493 0.318615
O O11 0.000000 0.000000 0.500000
O O12 0.629983 0.737542 0.210823
O O13 0.696727 0.771397 0.027207
O O14 0.412548 0.279101 0.601664
O O15 0.285441 0.589098 0.270979
O O16 0.999620 0.443067 0.839385
O O17 0.000000 0.000000 0.000000
#
# Coordination Sequence:
#
# PCOD9063554 Si02
#       8
#     2   2   2   2   2   2   2   2
#     4  11  25  47  74 105 140 190 244 296 355 432
#     4  12  25  46  75 106 142 190 243 299 360 433
#     4  11  24  44  70 105 146 188 236 299 367 430
#     4  11  24  46  72 105 143 189 241 300 360 429
#     4  12  24  46  74 104 142 193 244 296 356 434
#     4  11  25  42  71 107 141 184 242 300 356 420
#     4  12  25  47  75 109 144 187 243 303 359 427
#     4  12  27  46  70 107 150 191 235 297 368 433
#
# _framework density 25.902456999999998
#
# number of rings (size 3 to 8) (size 9 to 14) (size 15 to 20)
#    0.000    0.500    0.000    8.625    0.000    5.000 
#    0.000    8.125    0.000    0.000    0.000    0.000 
#    0.000    0.000    0.000    0.000    0.000    0.000 
#
# Total GULP energy -89769.110364 kJ/mol
# GULP energy per Si atom -5610.569398 kJ/mol
# Density = 2.584350 g / cm^3
# Si number density = 25.902457 Si / 1000 Ang^3
#
#
#
# Elastic Constant Matrix: (Units=GPa)
#
#
# Indices 1 2 3 4 5 6 
#
# 1 174.9785 46.8500 32.1293 10.6632 -10.4448 -20.1565
# 2 46.8500 139.6555 47.2492 -4.7197 -20.2460 -7.0417
# 3 32.1293 47.2492 105.3211 4.9991 -18.2809 -1.4227
# 4 10.6632 -4.7197 4.9991 41.1642 -8.6282 -13.5959
# 5 -10.4448 -20.2460 -18.2809 -8.6282 57.5150 10.9000
# 6 -20.1565 -7.0417 -1.4227 -13.5959 10.9000 49.9987
#
#
#
# Elastic Compliance Matrix: (Units=1/GPa)
#
#
# Indices 1 2 3 4 5 6 
#
# 1 0.006728 -0.001833 -0.001215 -0.001166 -0.000399 0.002190
# 2 -0.001833 0.009357 -0.003382 0.002651 0.002144 0.000736
# 3 -0.001215 -0.003382 0.011855 -0.001524 0.002426 -0.001572
# 4 -0.001166 0.002651 -0.001524 0.027985 0.003150 0.006783
# 5 -0.000399 0.002144 0.002426 0.003150 0.019934 -0.003279
# 6 0.002190 0.000736 -0.001572 0.006783 -0.003279 0.023502
#
#
# Mechanical properties :
#
#
# Convention : Reuss Voigt Hill
#
# Bulk Modulus (GPa) = 66.31137 74.71246 70.51192
# Shear Modulus (GPa) = 42.64479 49.31735 45.98107
#
# Velocity S-wave (km/s) = 4.06194 4.36818 4.21784
# Velocity P-wave (km/s) = 6.90327 7.37209 7.14153
#
# Compressibility (1/GPa) = 0.01508037
#
# Stress axis : x y z
#
# Youngs Moduli (GPa) = 148.62668 106.86821 84.35334
#
# Poissons Ratio (x) = 0.19590 0.10245
# Poissons Ratio (y) = 0.27245 0.28532
# Poissons Ratio (z) = 0.18051 0.36147
#
# Static dielectric constant tensor:
#      x y z
#    x 1.988290 0.024340 0.003260 
#    y 0.024340 2.055720 -0.019660 
#    z 0.003260 -0.019660 2.123020 
# 
# From -- ./inp_files/494322.got.cif
#   From: 2010.05.17/outbox.cif.g08.bks.cpg/sg2_248_cif.got.tgz:494322.got - 2010.06.03 11:33:40.
