data_PCOD9063069
_publ_section_title
;
Structure prediction by ZEFSAII (Michael W. Deem and Ramdas Pophale) SiO2 
 PCOD9063069
Probable space group: P -1
;
_chemical_formula_sum "Si O2"
_cell_formula_units_Z 14
_cell_length_a 5.176489
_cell_length_b 4.901510
_cell_length_c 22.014243
_cell_angle_alpha 79.454190
_cell_angle_beta 97.834317
_cell_angle_gamma 91.540527
_cell_volume 543.997786
_symmetry_space_group_name_H-M "P -1"
_symmetry_group_IT_number 2
_symmetry_cell_setting 'triclinic'
loop_
_space_group_symop_operation_xyz
x,y,z
-x,-y,-z
loop_
_atom_site_type_symbol
_atom_site_label
_atom_site_fract_x
_atom_site_fract_y
_atom_site_fract_z
Si Si1 0.068645 0.955609 0.288286
Si Si2 0.055056 0.713170 0.546212
Si Si3 0.707565 0.685645 0.830120
Si Si4 0.299974 0.550031 0.732078
Si Si5 0.903016 0.116978 0.901535
Si Si6 0.309361 0.762003 0.983744
Si Si7 0.611173 0.723549 0.628696
O O1 0.182169 0.107711 0.226168
O O2 0.467814 0.474525 0.308929
O O3 0.286284 0.993829 0.346321
O O4 0.834725 0.155194 0.295215
O O5 0.849084 0.647524 0.595620
O O6 0.000000 0.500000 0.500000
O O7 0.347834 0.727776 0.580946
O O8 0.000000 0.000000 0.500000
O O9 0.433463 0.567484 0.801425
O O10 0.878702 0.405307 0.852833
O O11 0.690464 0.892160 0.879069
O O12 0.081499 0.321131 0.723645
O O13 0.883529 0.248181 0.963569
O O14 0.145411 0.903085 0.918585
O O15 0.500000 0.500000 0.000000
O O16 0.500000 0.000000 0.000000
#
# Coordination Sequence:
#
# PCOD9063069 Si02
#       7
#     2   2   2   2   2   2   2
#     4  11  25  45  74 106 146 197 249 305 389 459
#     4  12  28  48  76 112 154 200 258 315 380 445
#     4  11  24  43  70 105 146 191 242 321 386 459
#     4  11  25  45  74 106 146 197 249 305 389 459
#     4  11  24  44  68 105 152 186 252 319 376 465
#     4  11  24  43  70 102 139 201 249 305 390 453
#     4  11  26  50  76 110 154 202 252 322 380 460
#
# _framework density 25.735398
#
# number of rings (size 3 to 8) (size 9 to 14) (size 15 to 20)
#    0.000    0.857    1.429    4.286    2.000   12.571 
#    0.000    0.000    0.000    0.000    0.000    0.000 
#    0.000    0.000    0.000    0.000    0.000    0.000 
#
# Total GULP energy -78248.590355 kJ/mol
# GULP energy per Si atom -5589.185025 kJ/mol
# Density = 2.567682 g / cm^3
# Si number density = 25.735398 Si / 1000 Ang^3
#
#
#
# Elastic Constant Matrix: (Units=GPa)
#
#
# Indices 1 2 3 4 5 6 
#
# 1 148.3108 42.5619 49.7786 6.9281 33.0677 2.1981
# 2 42.5619 190.5803 61.0401 14.1196 25.6469 14.5132
# 3 49.7786 61.0401 115.1415 13.1856 37.2717 4.9555
# 4 6.9281 14.1196 13.1856 42.7794 4.2928 -2.2176
# 5 33.0677 25.6469 37.2717 4.2928 47.7201 10.4122
# 6 2.1981 14.5132 4.9555 -2.2176 10.4122 46.1761
#
#
#
# Elastic Compliance Matrix: (Units=1/GPa)
#
#
# Indices 1 2 3 4 5 6 
#
# 1 0.008547 -0.000790 -0.001960 -0.000048 -0.004178 0.000992
# 2 -0.000790 0.006597 -0.002847 -0.001232 -0.000287 -0.001725
# 3 -0.001960 -0.002847 0.013816 -0.002139 -0.007971 0.001200
# 4 -0.000048 -0.001232 -0.002139 0.024571 -0.000249 0.001855
# 5 -0.004178 -0.000287 -0.007971 -0.000249 0.031559 -0.005984
# 6 0.000992 -0.001725 0.001200 0.001855 -0.005984 0.023461
#
#
# Mechanical properties :
#
#
# Convention : Reuss Voigt Hill
#
# Bulk Modulus (GPa) = 56.29814 84.53266 70.41540
# Shear Modulus (GPa) = 39.78776 47.37859 43.58317
#
# Velocity S-wave (km/s) = 3.93623 4.29533 4.11969
# Velocity P-wave (km/s) = 6.52547 7.58406 7.07459
#
# Compressibility (1/GPa) = 0.01776257
#
# Stress axis : x y z
#
# Youngs Moduli (GPa) = 117.00512 151.58787 72.38191
#
# Poissons Ratio (x) = 0.11982 0.14190
# Poissons Ratio (y) = 0.09249 0.20610
# Poissons Ratio (z) = 0.22939 0.43162
#
# Static dielectric constant tensor:
#      x y z
#    x 2.056550 -0.043690 -0.100840 
#    y -0.043690 2.010830 0.005060 
#    z -0.100840 0.005060 2.190020 
# 
# From -- ./inp_files/602622.got.cif
#   From: 2010.05.17/outbox.cif.g08.bks.cpg/sg2_302_cif.got.tgz:602622.got - 2010.06.03 11:33:40.
