data_PCOD9063427
_publ_section_title
;
Structure prediction by ZEFSAII (Michael W. Deem and Ramdas Pophale) SiO2 
 PCOD9063427
Probable space group: P -1
;
_chemical_formula_sum "Si O2"
_cell_formula_units_Z 16
_cell_length_a 17.611635
_cell_length_b 5.017427
_cell_length_c 7.259471
_cell_angle_alpha 93.627800
_cell_angle_beta 83.145503
_cell_angle_gamma 109.100857
_cell_volume 601.633115
_symmetry_space_group_name_H-M "P -1"
_symmetry_group_IT_number 2
_symmetry_cell_setting 'triclinic'
loop_
_space_group_symop_operation_xyz
x,y,z
-x,-y,-z
loop_
_atom_site_type_symbol
_atom_site_label
_atom_site_fract_x
_atom_site_fract_y
_atom_site_fract_z
Si Si1 0.005997 0.245342 0.364510
Si Si2 0.715752 0.880443 0.596011
Si Si3 0.832882 0.821037 0.789956
Si Si4 0.575237 0.882824 0.477307
Si Si5 0.734157 0.461765 0.288445
Si Si6 0.323588 0.724307 0.097204
Si Si7 0.474523 0.579020 0.203587
Si Si8 0.153560 0.909739 0.829977
O O1 0.092384 0.292676 0.247380
O O2 0.000000 0.500000 0.500000
O O3 0.934210 0.160571 0.234520
O O4 0.000000 0.000000 0.500000
O O5 0.810478 0.946725 0.610772
O O6 0.669909 0.041915 0.482567
O O7 0.558555 0.663622 0.643285
O O8 0.691197 0.993259 0.806587
O O9 0.751983 0.547412 0.830554
O O10 0.850629 0.065287 0.947137
O O11 0.695141 0.581975 0.478547
O O12 0.560087 0.747807 0.276815
O O13 0.500000 0.000000 0.500000
O O14 0.802571 0.307245 0.264538
O O15 0.788277 0.775865 0.216186
O O16 0.675319 0.313133 0.126232
O O17 0.405529 0.715728 0.175234
O O18 0.500000 0.500000 0.000000
#
# Coordination Sequence:
#
# PCOD9063427 Si02
#       8
#     2   2   2   2   2   2   2   2
#     4  12  27  45  71 107 143 189 245 295 368 447
#     4  12  23  44  71  99 145 191 240 311 370 432
#     4  11  25  44  74  97 148 189 235 305 369 429
#     4  11  24  44  68 105 140 194 252 306 377 460
#     4  11  26  43  74 106 145 190 248 301 367 444
#     4  11  24  46  68 107 143 190 247 304 371 450
#     4  11  24  45  71 103 149 192 251 314 382 450
#     4  11  24  48  66 109 141 185 247 294 363 448
#
# _framework density 26.594279
#
# number of rings (size 3 to 8) (size 9 to 14) (size 15 to 20)
#    0.000    0.750    3.750    3.375    5.250    0.500 
#    2.250    3.125    0.000    0.000    0.000    0.000 
#    0.000    0.000    0.000    0.000    0.000    0.000 
#
# Total GULP energy -89332.760680 kJ/mol
# GULP energy per Si atom -5583.297542 kJ/mol
# Density = 2.653375 g / cm^3
# Si number density = 26.594279 Si / 1000 Ang^3
#
#
#
# Elastic Constant Matrix: (Units=GPa)
#
#
# Indices 1 2 3 4 5 6 
#
# 1 212.3334 61.9413 90.9101 14.3825 23.4648 -41.9447
# 2 61.9413 115.6775 37.2569 35.2723 -4.2548 -29.8166
# 3 90.9101 37.2569 221.3596 39.4717 27.3792 -19.7890
# 4 14.3825 35.2723 39.4717 40.1915 -4.7826 -7.3809
# 5 23.4648 -4.2548 27.3792 -4.7826 69.7394 5.4871
# 6 -41.9447 -29.8166 -19.7890 -7.3809 5.4871 46.7257
#
#
#
# Elastic Compliance Matrix: (Units=1/GPa)
#
#
# Indices 1 2 3 4 5 6 
#
# 1 0.007567 -0.003100 -0.002498 0.003060 -0.001896 0.004463
# 2 -0.003100 0.015065 0.001443 -0.012515 0.000108 0.005452
# 3 -0.002498 0.001443 0.006975 -0.007368 -0.002374 0.000747
# 4 0.003060 -0.012515 -0.007368 0.042096 0.004159 -0.002198
# 5 -0.001896 0.000108 -0.002374 0.004159 0.016509 -0.003920
# 6 0.004463 0.005452 0.000747 -0.002198 -0.003920 0.029316
#
#
# Mechanical properties :
#
#
# Convention : Reuss Voigt Hill
#
# Bulk Modulus (GPa) = 46.95418 103.28744 75.12081
# Shear Modulus (GPa) = 37.61151 55.28214 46.44682
#
# Velocity S-wave (km/s) = 3.76476 4.56425 4.18364
# Velocity P-wave (km/s) = 6.04913 8.16695 7.18648
#
# Compressibility (1/GPa) = 0.02129736
#
# Stress axis : x y z
#
# Youngs Moduli (GPa) = 132.14731 66.37789 143.37323
#
# Poissons Ratio (x) = 0.20576 0.35819
# Poissons Ratio (y) = 0.40964 -0.20691
# Poissons Ratio (z) = 0.33014 -0.09579
#
# Static dielectric constant tensor:
#      x y z
#    x 2.079560 0.019130 -0.114850 
#    y 0.019130 2.350180 -0.108430 
#    z -0.114850 -0.108430 2.210590 
# 
# From -- ./inp_files/289193.got.cif
#   From: 2010.05.17/outbox.cif.g08.bks.cpg/sg2_145_cif.got.tgz:289193.got - 2010.06.03 11:33:40.
