data_PCOD9063513
_publ_section_title
;
Structure prediction by ZEFSAII (Michael W. Deem and Ramdas Pophale) SiO2 
 PCOD9063513
Probable space group: P -1
;
_chemical_formula_sum "Si O2"
_cell_formula_units_Z 16
_cell_length_a 8.548421
_cell_length_b 11.785695
_cell_length_c 8.562458
_cell_angle_alpha 114.745737
_cell_angle_beta 105.314267
_cell_angle_gamma 60.522048
_cell_volume 680.178681
_symmetry_space_group_name_H-M "P -1"
_symmetry_group_IT_number 2
_symmetry_cell_setting 'triclinic'
loop_
_space_group_symop_operation_xyz
x,y,z
-x,-y,-z
loop_
_atom_site_type_symbol
_atom_site_label
_atom_site_fract_x
_atom_site_fract_y
_atom_site_fract_z
Si Si1 0.322091 0.815400 0.388283
Si Si2 0.999788 0.407770 0.799497
Si Si3 0.193593 0.704399 0.861419
Si Si4 0.711421 0.397787 0.511306
Si Si5 0.493461 0.802732 0.972905
Si Si6 0.969805 0.859772 0.161803
Si Si7 0.569931 0.046004 0.252752
Si Si8 0.348586 0.404525 0.845984
O O1 0.278447 0.738546 0.477253
O O2 0.137641 0.888056 0.282412
O O3 0.476115 0.694037 0.260512
O O4 0.406114 0.910457 0.542379
O O5 0.820042 0.459195 0.680323
O O6 0.029060 0.261241 0.795121
O O7 0.169577 0.393959 0.733328
O O8 0.000000 0.500000 0.000000
O O9 0.193313 0.645761 0.656194
O O10 0.303385 0.565672 0.914425
O O11 0.305573 0.793665 0.925333
O O12 0.015553 0.796778 0.963750
O O13 0.500000 0.500000 0.500000
O O14 0.499013 0.929185 0.146246
O O15 0.621645 0.661181 0.011535
O O16 0.538701 0.828114 0.822821
O O17 0.772457 0.980127 0.197167
#
# Coordination Sequence:
#
# PCOD9063513 Si02
#       8
#     2   2   2   2   2   2   2   2
#     4  11  24  44  70 100 138 190 233 289 358 419
#     4  11  25  44  69 105 147 185 232 293 353 420
#     4  12  24  45  71 106 138 179 236 293 360 418
#     4  11  25  44  69 105 147 185 232 293 353 420
#     4  11  25  44  70  99 137 190 238 286 357 410
#     4  11  24  44  70 100 138 190 233 289 358 419
#     4  11  25  48  66 100 141 189 240 290 341 432
#     4  12  24  45  71 106 138 179 236 293 360 418
#
# _framework density 23.523230000000002
#
# number of rings (size 3 to 8) (size 9 to 14) (size 15 to 20)
#    0.000    0.750    6.250    0.750    1.750    1.500 
#    4.500    0.000    0.000    0.000    0.000    0.000 
#    0.000    0.000    0.000    0.000    0.000    0.000 
#
# Total GULP energy -89489.449941 kJ/mol
# GULP energy per Si atom -5593.090621 kJ/mol
# Density = 2.346969 g / cm^3
# Si number density = 23.523230 Si / 1000 Ang^3
#
#
#
# Elastic Constant Matrix: (Units=GPa)
#
#
# Indices 1 2 3 4 5 6 
#
# 1 82.2589 23.6583 37.9388 6.8876 13.7444 4.7074
# 2 23.6583 77.8607 31.1438 -9.1704 2.8147 9.8498
# 3 37.9388 31.1438 148.9999 6.3055 11.5155 -1.2257
# 4 6.8876 -9.1704 6.3055 28.7906 2.4326 0.8883
# 5 13.7444 2.8147 11.5155 2.4326 46.3442 7.7484
# 6 4.7074 9.8498 -1.2257 0.8883 7.7484 37.3553
#
#
#
# Elastic Compliance Matrix: (Units=1/GPa)
#
#
# Indices 1 2 3 4 5 6 
#
# 1 0.015453 -0.003961 -0.002670 -0.004078 -0.003435 -0.000181
# 2 -0.003961 0.016509 -0.002866 0.006862 0.001255 -0.004371
# 3 -0.002670 -0.002866 0.008185 -0.002013 -0.001241 0.001666
# 4 -0.004078 0.006862 -0.002013 0.038434 -0.000357 -0.002202
# 5 -0.003435 0.001255 -0.001241 -0.000357 0.023656 -0.004837
# 6 -0.000181 -0.004371 0.001666 -0.002202 -0.004837 0.029056
#
#
# Mechanical properties :
#
#
# Convention : Reuss Voigt Hill
#
# Bulk Modulus (GPa) = 47.27190 54.95569 51.11380
# Shear Modulus (GPa) = 31.77893 36.92327 34.35110
#
# Velocity S-wave (km/s) = 3.67953 3.96618 3.82554
# Velocity P-wave (km/s) = 6.17992 6.66237 6.42567
#
# Compressibility (1/GPa) = 0.02115421
#
# Stress axis : x y z
#
# Youngs Moduli (GPa) = 64.71191 60.57302 122.17326
#
# Poissons Ratio (x) = 0.23990 0.32625
# Poissons Ratio (y) = 0.25629 0.35010
# Poissons Ratio (z) = 0.17281 0.17358
#
# Static dielectric constant tensor:
#      x y z
#    x 1.923100 -0.002930 0.019740 
#    y -0.002930 1.894230 -0.045980 
#    z 0.019740 -0.045980 1.927360 
# 
# From -- ./inp_files/190255.got.cif
#   From: 2010.05.17/outbox.cif.g08.bks.cpg/sg2_96_cif.got.tgz:190255.got - 2010.06.03 11:33:40.
