data_PCOD9063134
_publ_section_title
;
Structure prediction by ZEFSAII (Michael W. Deem and Ramdas Pophale) SiO2 
 PCOD9063134
Probable space group: P -1
;
_chemical_formula_sum "Si O2"
_cell_formula_units_Z 14
_cell_length_a 7.628156
_cell_length_b 10.719420
_cell_length_c 11.526576
_cell_angle_alpha 43.715703
_cell_angle_beta 113.992832
_cell_angle_gamma 117.788244
_cell_volume 572.488762
_symmetry_space_group_name_H-M "P -1"
_symmetry_group_IT_number 2
_symmetry_cell_setting 'triclinic'
loop_
_space_group_symop_operation_xyz
x,y,z
-x,-y,-z
loop_
_atom_site_type_symbol
_atom_site_label
_atom_site_fract_x
_atom_site_fract_y
_atom_site_fract_z
Si Si1 0.249012 0.225199 0.583773
Si Si2 0.186835 0.940605 0.368371
Si Si3 0.777794 0.450379 0.114111
Si Si4 0.493018 0.207773 0.880219
Si Si5 0.384873 0.970964 0.639828
Si Si6 0.151111 0.177885 0.989127
Si Si7 0.213870 0.448042 0.202160
O O1 0.393501 0.283505 0.692671
O O2 0.292462 0.338922 0.398601
O O3 0.023225 0.214429 0.568270
O O4 0.277133 0.023586 0.687688
O O5 0.263196 0.009155 0.470068
O O6 0.384675 0.904959 0.387013
O O7 0.138158 0.093622 0.170211
O O8 0.621860 0.248266 0.229437
O O9 0.841563 0.603684 0.130837
O O10 0.976359 0.387207 0.179433
O O11 0.715642 0.541727 0.919124
O O12 0.354555 0.201547 0.958211
O O13 0.709949 0.338374 0.877029
O O14 0.500000 0.000000 0.000000
O O15 0.000000 0.000000 0.000000
#
# Coordination Sequence:
#
# PCOD9063134 Si02
#       7
#     2   2   2   2   2   2   2
#     4  12  24  47  74 101 147 190 231 294 358 418
#     4  11  24  43  71 104 139 185 235 288 355 417
#     4  11  25  44  71 104 142 180 237 298 344 423
#     4  12  26  47  74 101 140 190 239 291 355 425
#     4  11  25  45  73 107 141 183 239 295 349 424
#     4  12  25  45  69  99 141 184 233 294 352 416
#     4  11  25  44  71 107 139 186 238 285 359 422
#
# _framework density 24.454626999999999
#
# number of rings (size 3 to 8) (size 9 to 14) (size 15 to 20)
#    0.000    0.571    2.857    5.143    4.000    4.571 
#    0.000    4.286    0.000    0.000    0.000    0.000 
#    0.000    0.000    0.000    0.000    0.000    0.000 
#
# Total GULP energy -78158.892525 kJ/mol
# GULP energy per Si atom -5582.778037 kJ/mol
# Density = 2.439897 g / cm^3
# Si number density = 24.454627 Si / 1000 Ang^3
#
#
#
# Elastic Constant Matrix: (Units=GPa)
#
#
# Indices 1 2 3 4 5 6 
#
# 1 77.9014 30.3256 -2.4943 -3.6679 -7.0215 3.0020
# 2 30.3256 136.5878 38.2626 -3.3123 3.3537 2.2615
# 3 -2.4943 38.2626 111.7344 12.9886 -16.4687 -7.5775
# 4 -3.6679 -3.3123 12.9886 31.1154 -2.2041 10.0711
# 5 -7.0215 3.3537 -16.4687 -2.2041 22.0275 4.1042
# 6 3.0020 2.2615 -7.5775 10.0711 4.1042 37.7679
#
#
#
# Elastic Compliance Matrix: (Units=1/GPa)
#
#
# Indices 1 2 3 4 5 6 
#
# 1 0.015474 -0.004350 0.002765 0.001313 0.008099 -0.001645
# 2 -0.004350 0.009831 -0.004706 0.002466 -0.005931 -0.001200
# 3 0.002765 -0.004706 0.013020 -0.005909 0.010154 0.003147
# 4 0.001313 0.002466 -0.005909 0.039046 0.001776 -0.012043
# 5 0.008099 -0.005931 0.010154 0.001776 0.057580 -0.004982
# 6 -0.001645 -0.001200 0.003147 -0.012043 -0.004982 0.031064
#
#
# Mechanical properties :
#
#
# Convention : Reuss Voigt Hill
#
# Bulk Modulus (GPa) = 38.84662 50.93461 44.89061
# Shear Modulus (GPa) = 26.71256 35.52414 31.11835
#
# Velocity S-wave (km/s) = 3.30863 3.81551 3.57107
# Velocity P-wave (km/s) = 5.52410 6.34698 5.94979
#
# Compressibility (1/GPa) = 0.02574227
#
# Stress axis : x y z
#
# Youngs Moduli (GPa) = 64.62542 101.72315 76.80515
#
# Poissons Ratio (x) = 0.44247 -0.21233
# Poissons Ratio (y) = 0.28110 0.36143
# Poissons Ratio (z) = -0.17866 0.47869
#
# Static dielectric constant tensor:
#      x y z
#    x 1.932990 -0.000500 0.014580 
#    y -0.000500 1.931950 -0.035460 
#    z 0.014580 -0.035460 2.010560 
# 
# From -- ./inp_files/391864.got.cif
#   From: 2010.05.17/outbox.cif.g08.bks.cpg/sg2_196_cif.got.tgz:391864.got - 2010.06.03 11:33:40.
