data_PCOD9063963
_publ_section_title
;
Structure prediction by ZEFSAII (Michael W. Deem and Ramdas Pophale) SiO2 
 PCOD9063963
Probable space group: P -1
;
_chemical_formula_sum "Si O2"
_cell_formula_units_Z 16
_cell_length_a 11.409267
_cell_length_b 11.663708
_cell_length_c 11.730079
_cell_angle_alpha 102.618333
_cell_angle_beta 117.414686
_cell_angle_gamma 130.301071
_cell_volume 683.651851
_symmetry_space_group_name_H-M "P -1"
_symmetry_group_IT_number 2
_symmetry_cell_setting 'triclinic'
loop_
_space_group_symop_operation_xyz
x,y,z
-x,-y,-z
loop_
_atom_site_type_symbol
_atom_site_label
_atom_site_fract_x
_atom_site_fract_y
_atom_site_fract_z
Si Si1 0.804698 0.914266 0.526136
Si Si2 0.924912 0.081621 0.854287
Si Si3 0.676884 0.062151 0.007795
Si Si4 0.340261 0.204808 0.094664
Si Si5 0.945899 0.456359 0.775803
Si Si6 0.207184 0.742967 0.579209
Si Si7 0.088451 0.254605 0.533940
Si Si8 0.260868 0.569637 0.115980
O O1 0.876239 0.831783 0.549269
O O2 0.542256 0.727906 0.293646
O O3 0.766700 0.946374 0.637492
O O4 0.031232 0.153588 0.609860
O O5 0.763547 0.907003 0.849811
O O6 0.173862 0.186832 0.973890
O O7 0.042093 0.300309 0.975234
O O8 0.706286 0.949985 0.029145
O O9 0.498027 0.930223 0.785296
O O10 0.947009 0.337034 0.176780
O O11 0.500000 0.000000 0.000000
O O12 0.642434 0.468209 0.287366
O O13 0.829591 0.299934 0.582114
O O14 0.769957 0.353991 0.783759
O O15 0.191386 0.574391 0.964917
O O16 0.000000 0.500000 0.500000
O O17 0.135905 0.820853 0.600591
#
# Coordination Sequence:
#
# PCOD9063963 Si02
#       8
#     2   2   2   2   2   2   2   2
#     4  11  26  45  73  96 134 185 227 281 339 409
#     4  11  25  45  71 101 137 177 229 286 338 404
#     4  12  24  42  67 100 141 179 219 278 341 407
#     4  11  24  45  68 103 138 176 227 283 342 403
#     4  11  25  43  70  99 135 178 226 282 337 409
#     4  12  24  41  66 101 138 177 222 276 340 406
#     4  11  24  47  64 102 135 175 230 276 337 408
#     4  11  24  47  70 100 135 178 232 281 340 403
#
# _framework density 23.403725000000001
#
# number of rings (size 3 to 8) (size 9 to 14) (size 15 to 20)
#    0.000    0.750    5.000    1.500    3.500    1.000 
#    4.500    3.125    0.000    0.000    0.000    0.000 
#    0.000    0.000    0.000    0.000    0.000    0.000 
#
# Total GULP energy -89554.583502 kJ/mol
# GULP energy per Si atom -5597.161469 kJ/mol
# Density = 2.335046 g / cm^3
# Si number density = 23.403725 Si / 1000 Ang^3
#
#
#
# Elastic Constant Matrix: (Units=GPa)
#
#
# Indices 1 2 3 4 5 6 
#
# 1 110.6049 2.9612 31.6052 -14.5915 -4.6654 -22.0192
# 2 2.9612 68.7864 12.9215 13.9258 -10.8989 -14.4127
# 3 31.6052 12.9215 89.2439 -13.0415 -7.2327 -2.0772
# 4 -14.5915 13.9258 -13.0415 34.2202 4.9817 -2.5742
# 5 -4.6654 -10.8989 -7.2327 4.9817 40.5109 -11.6675
# 6 -22.0192 -14.4127 -2.0772 -2.5742 -11.6675 31.4751
#
#
#
# Elastic Compliance Matrix: (Units=1/GPa)
#
#
# Indices 1 2 3 4 5 6 
#
# 1 0.013146 0.002840 -0.003935 0.003186 0.004710 0.012244
# 2 0.002840 0.022207 -0.004428 -0.009990 0.011106 0.015163
# 3 -0.003935 -0.004428 0.013846 0.005249 -0.000904 -0.003772
# 4 0.003186 -0.009990 0.005249 0.037476 -0.006365 -0.001294
# 5 0.004710 0.011106 -0.000904 -0.006365 0.034798 0.020700
# 6 0.012244 0.015163 -0.003772 -0.001294 0.020700 0.054599
#
#
# Mechanical properties :
#
#
# Convention : Reuss Voigt Hill
#
# Bulk Modulus (GPa) = 26.20989 40.40120 33.30555
# Shear Modulus (GPa) = 25.02089 35.98439 30.50264
#
# Velocity S-wave (km/s) = 3.27325 3.92541 3.61407
# Velocity P-wave (km/s) = 5.05064 6.15186 5.62825
#
# Compressibility (1/GPa) = 0.03815354
#
# Stress axis : x y z
#
# Youngs Moduli (GPa) = 76.06945 45.03175 72.22482
#
# Poissons Ratio (x) = -0.12789 0.28417
# Poissons Ratio (y) = -0.21604 0.31980
# Poissons Ratio (z) = 0.29930 0.19939
#
# Static dielectric constant tensor:
#      x y z
#    x 1.894220 0.004530 -0.010980 
#    y 0.004530 1.885680 -0.023760 
#    z -0.010980 -0.023760 1.870790 
# 
# From -- ./inp_files/428429.got.cif
#   From: 2010.05.17/outbox.cif.g08.bks.cpg/sg2_215_cif.got.tgz:428429.got - 2010.06.03 11:33:40.
