data_PCOD9063432
_publ_section_title
;
Structure prediction by ZEFSAII (Michael W. Deem and Ramdas Pophale) SiO2 
 PCOD9063432
Probable space group: P -1
;
_chemical_formula_sum "Si O2"
_cell_formula_units_Z 15
_cell_length_a 17.944519
_cell_length_b 20.912875
_cell_length_c 11.555841
_cell_angle_alpha 153.812772
_cell_angle_beta 152.555329
_cell_angle_gamma 19.334947
_cell_volume 608.533220
_symmetry_space_group_name_H-M "P -1"
_symmetry_group_IT_number 2
_symmetry_cell_setting 'triclinic'
loop_
_space_group_symop_operation_xyz
x,y,z
-x,-y,-z
loop_
_atom_site_type_symbol
_atom_site_label
_atom_site_fract_x
_atom_site_fract_y
_atom_site_fract_z
Si Si1 0.000000 0.000000 0.500000
Si Si2 0.514589 0.381987 0.076413
Si Si3 0.213775 0.258511 0.084605
Si Si4 0.713560 0.634919 0.068744
Si Si5 0.027600 0.170293 0.479297
Si Si6 0.089491 0.819910 0.093269
Si Si7 0.509861 0.188414 0.193382
Si Si8 0.734515 0.934208 0.605336
O O1 0.939622 0.951096 0.216521
O O2 0.257915 0.867153 0.584064
O O3 0.390471 0.428493 0.103895
O O4 0.582712 0.179256 0.792935
O O5 0.751093 0.318201 0.322141
O O6 0.327287 0.581752 0.062506
O O7 0.100305 0.227282 0.777973
O O8 0.392755 0.040420 0.046309
O O9 0.355848 0.288261 0.259894
O O10 0.994391 0.450948 0.169065
O O11 0.618261 0.852947 0.329140
O O12 0.647402 0.667361 0.896671
O O13 0.134270 0.157939 0.487415
O O14 0.128817 0.946321 0.286595
O O15 0.926203 0.833507 0.805413
#
# Coordination Sequence:
#
# PCOD9063432 Si02
#       8
#     1   2   2   2   2   2   2   2
#     4  12  24  42  74 104 142 182 234 298 352 424
#     4  11  26  43  72 102 139 198 232 292 368 416
#     4  11  25  44  70 110 142 195 237 294 369 414
#     4  12  26  45  74 106 147 190 240 300 358 432
#     4  11  24  47  70 105 148 183 248 295 348 436
#     4  11  25  46  71 104 143 187 239 297 356 424
#     4  11  24  44  68 107 146 182 238 297 356 425
#     4  11  26  48  69 103 148 187 245 294 353 438
#
# _framework density 24.649435
#
# number of rings (size 3 to 8) (size 9 to 14) (size 15 to 20)
#    0.000    0.800    2.667    4.800    1.867    4.267 
#    0.000    0.000    0.000    0.000    0.000    0.000 
#    0.000    0.000    0.000    0.000    0.000    0.000 
#
# Total GULP energy -83818.576710 kJ/mol
# GULP energy per Si atom -5587.905114 kJ/mol
# Density = 2.459333 g / cm^3
# Si number density = 24.649435 Si / 1000 Ang^3
#
#
#
# Elastic Constant Matrix: (Units=GPa)
#
#
# Indices 1 2 3 4 5 6 
#
# 1 81.9157 36.8475 5.7105 -4.6282 18.3800 3.1460
# 2 36.8475 151.0356 11.4865 -5.0553 15.6901 15.5585
# 3 5.7105 11.4865 82.3949 0.2708 12.4483 12.3310
# 4 -4.6282 -5.0553 0.2708 30.4261 -4.9747 1.2324
# 5 18.3800 15.6901 12.4483 -4.9747 41.5351 -7.7236
# 6 3.1460 15.5585 12.3310 1.2324 -7.7236 46.1521
#
#
#
# Elastic Compliance Matrix: (Units=1/GPa)
#
#
# Indices 1 2 3 4 5 6 
#
# 1 0.014864 -0.002921 0.000401 0.000886 -0.005695 -0.001112
# 2 -0.002921 0.007868 -0.000169 0.000639 -0.002068 -0.002771
# 3 0.000401 -0.000169 0.013567 -0.000741 -0.005092 -0.004427
# 4 0.000886 0.000639 -0.000741 0.033711 0.003555 -0.000383
# 5 -0.005695 -0.002068 -0.005092 0.003555 0.030722 0.007492
# 6 -0.001112 -0.002771 -0.004427 -0.000383 0.007492 0.025124
#
#
# Mechanical properties :
#
#
# Convention : Reuss Voigt Hill
#
# Bulk Modulus (GPa) = 32.34111 47.04836 39.69473
# Shear Modulus (GPa) = 35.32515 41.04277 38.18396
#
# Velocity S-wave (km/s) = 3.78974 4.08494 3.94011
# Velocity P-wave (km/s) = 5.68317 6.43253 6.06942
#
# Compressibility (1/GPa) = 0.03092040
#
# Stress axis : x y z
#
# Youngs Moduli (GPa) = 67.27520 127.09562 73.70961
#
# Poissons Ratio (x) = 0.37124 -0.02956
# Poissons Ratio (y) = 0.19651 0.01249
# Poissons Ratio (z) = -0.02698 0.02153
#
# Static dielectric constant tensor:
#      x y z
#    x 1.932320 -0.006540 -0.022920 
#    y -0.006540 1.965350 0.037210 
#    z -0.022920 0.037210 1.970310 
# 
# From -- ./inp_files/467201.got.cif
#   From: 2010.05.17/outbox.cif.g08.bks.cpg/sg2_234_cif.got.tgz:467201.got - 2010.06.03 11:33:40.
