data_PCOD9063899
_publ_section_title
;
Structure prediction by ZEFSAII (Michael W. Deem and Ramdas Pophale) SiO2 
 PCOD9063899
Probable space group: P -1
;
_chemical_formula_sum "Si O2"
_cell_formula_units_Z 12
_cell_length_a 9.074609
_cell_length_b 22.586027
_cell_length_c 5.733451
_cell_angle_alpha 124.688152
_cell_angle_beta 70.703232
_cell_angle_gamma 148.843351
_cell_volume 464.840315
_symmetry_space_group_name_H-M "P -1"
_symmetry_group_IT_number 2
_symmetry_cell_setting 'triclinic'
loop_
_space_group_symop_operation_xyz
x,y,z
-x,-y,-z
loop_
_atom_site_type_symbol
_atom_site_label
_atom_site_fract_x
_atom_site_fract_y
_atom_site_fract_z
Si Si1 0.154295 0.016449 0.247841
Si Si2 0.701834 0.017026 0.526889
Si Si3 0.913120 0.526206 0.910313
Si Si4 0.764425 0.757391 0.563228
Si Si5 0.337591 0.760583 0.843365
Si Si6 0.162614 0.363439 0.481148
O O1 0.318774 0.011333 0.258961
O O2 0.436462 0.171518 0.334349
O O3 0.000000 0.000000 0.500000
O O4 0.897326 0.878426 0.909462
O O5 0.500000 0.000000 0.500000
O O6 0.568352 0.896171 0.188143
O O7 0.048334 0.168374 0.610044
O O8 0.590449 0.385353 0.634993
O O9 0.165544 0.636640 0.823164
O O10 0.880850 0.589826 0.203189
O O11 0.000000 0.500000 0.000000
O O12 0.858299 0.722346 0.576567
O O13 0.082651 0.713072 0.761498
O O14 0.500000 0.500000 0.500000
#
# Coordination Sequence:
#
# PCOD9063899 Si02
#       6
#     2   2   2   2   2   2
#     4  11  27  51  78 116 158 209 266 330 396 471
#     4  11  24  44  77 113 151 199 261 328 390 471
#     4  12  29  51  79 118 163 210 267 331 398 472
#     4  11  26  48  82 114 158 209 265 323 399 469
#     4  11  25  49  79 112 161 203 266 325 399 465
#     4  12  26  49  81 118 159 209 262 323 394 481
#
# _framework density 25.815317
#
# number of rings (size 3 to 8) (size 9 to 14) (size 15 to 20)
#    0.000    0.667    1.667    4.500    4.667   10.000 
#    3.000    3.333    0.000    0.000    0.000    0.000 
#    0.000    0.000    0.000    0.000    0.000    0.000 
#
# Total GULP energy -67283.398461 kJ/mol
# GULP energy per Si atom -5606.949872 kJ/mol
# Density = 2.575656 g / cm^3
# Si number density = 25.815317 Si / 1000 Ang^3
#
#
#
# Elastic Constant Matrix: (Units=GPa)
#
#
# Indices 1 2 3 4 5 6 
#
# 1 183.0275 83.2705 49.2627 -5.1731 11.3867 -22.8761
# 2 83.2705 235.6115 38.4792 6.0425 3.4131 2.3139
# 3 49.2627 38.4792 94.4628 15.2506 1.5392 9.1620
# 4 -5.1731 6.0425 15.2506 34.5668 -3.8028 1.0996
# 5 11.3867 3.4131 1.5392 -3.8028 51.5243 -2.6944
# 6 -22.8761 2.3139 9.1620 1.0996 -2.6944 58.2867
#
#
#
# Elastic Compliance Matrix: (Units=1/GPa)
#
#
# Indices 1 2 3 4 5 6 
#
# 1 0.008343 -0.002356 -0.004288 0.003305 -0.001110 0.003928
# 2 -0.002356 0.005216 -0.000648 -0.000938 0.000072 -0.001009
# 3 -0.004288 -0.000648 0.014565 -0.006849 -0.000150 -0.003824
# 4 0.003305 -0.000938 -0.006849 0.032776 0.002054 0.001888
# 5 -0.001110 0.000072 -0.000150 0.002054 0.019829 0.000463
# 6 0.003928 -0.001009 -0.003824 0.001888 0.000463 0.019325
#
#
# Mechanical properties :
#
#
# Convention : Reuss Voigt Hill
#
# Bulk Modulus (GPa) = 73.84876 95.01407 84.43142
# Shear Modulus (GPa) = 41.96368 51.68153 46.82261
#
# Velocity S-wave (km/s) = 4.03617 4.47919 4.26344
# Velocity P-wave (km/s) = 7.09856 7.97722 7.55068
#
# Compressibility (1/GPa) = 0.01354119
#
# Stress axis : x y z
#
# Youngs Moduli (GPa) = 119.86257 191.73522 68.65575
#
# Poissons Ratio (x) = 0.45164 0.29438
# Poissons Ratio (y) = 0.28234 0.04449
# Poissons Ratio (z) = 0.51395 0.12424
#
# Static dielectric constant tensor:
#      x y z
#    x 2.085590 -0.059380 -0.034220 
#    y -0.059380 2.031090 -0.046060 
#    z -0.034220 -0.046060 2.056280 
# 
# From -- ./inp_files/41893.got.cif
#   From: 2010.05.17/outbox.cif.g08.bks.cpg/sg2_21_cif.got.tgz:41893.got - 2010.06.03 11:33:40.
