data_PCOD9063891
_publ_section_title
;
Structure prediction by ZEFSAII (Michael W. Deem and Ramdas Pophale) SiO2 
 PCOD9063891
Probable space group: P -1
;
_chemical_formula_sum "Si O2"
_cell_formula_units_Z 14
_cell_length_a 9.834339
_cell_length_b 20.035544
_cell_length_c 13.136576
_cell_angle_alpha 155.194725
_cell_angle_beta 42.661711
_cell_angle_gamma 145.302871
_cell_volume 617.496470
_symmetry_space_group_name_H-M "P -1"
_symmetry_group_IT_number 2
_symmetry_cell_setting 'triclinic'
loop_
_space_group_symop_operation_xyz
x,y,z
-x,-y,-z
loop_
_atom_site_type_symbol
_atom_site_label
_atom_site_fract_x
_atom_site_fract_y
_atom_site_fract_z
Si Si1 0.700820 0.296663 0.665692
Si Si2 0.889793 0.537119 0.709517
Si Si3 0.336476 0.860258 0.986294
Si Si4 0.604448 0.649657 0.559956
Si Si5 0.497679 0.408488 0.087734
Si Si6 0.787793 0.996910 0.552568
Si Si7 0.145205 0.951666 0.648349
O O1 0.874055 0.406443 0.629593
O O2 0.731199 0.139699 0.484625
O O3 0.437732 0.206598 0.638218
O O4 0.712989 0.433011 0.935535
O O5 0.641856 0.510803 0.780727
O O6 0.000000 0.500000 0.500000
O O7 0.066359 0.752277 0.945544
O O8 0.423495 0.717600 0.744225
O O9 0.330095 0.933720 0.203715
O O10 0.500000 0.000000 0.000000
O O11 0.500000 0.500000 0.500000
O O12 0.595536 0.528267 0.301187
O O13 0.872331 0.837011 0.680210
O O14 0.307022 0.180211 0.892648
O O15 0.867546 0.089294 0.523615
O O16 0.000000 0.000000 0.500000
#
# Coordination Sequence:
#
# PCOD9063891 Si02
#       7
#     2   2   2   2   2   2   2
#     4  11  26  47  73 104 143 188 237 299 359 422
#     4  12  24  44  69 105 142 183 236 297 360 421
#     4  12  25  45  71 104 142 185 237 294 356 428
#     4  12  28  45  70 106 145 188 238 295 360 424
#     4  11  25  47  72 102 144 185 244 292 357 432
#     4  11  24  44  77 104 137 187 238 294 355 428
#     4  11  27  49  73 105 144 191 239 296 362 422
#
# _framework density 22.672194999999999
#
# number of rings (size 3 to 8) (size 9 to 14) (size 15 to 20)
#    0.000    0.571    1.429    7.286    8.000    1.143 
#    0.000    0.000    0.000    0.000    0.000    0.000 
#    0.000    0.000    0.000    0.000    0.000    0.000 
#
# Total GULP energy -78255.553407 kJ/mol
# GULP energy per Si atom -5589.682386 kJ/mol
# Density = 2.262059 g / cm^3
# Si number density = 22.672195 Si / 1000 Ang^3
#
#
#
# Elastic Constant Matrix: (Units=GPa)
#
#
# Indices 1 2 3 4 5 6 
#
# 1 89.2525 32.9986 12.0780 6.7065 -17.4596 -18.0424
# 2 32.9986 130.7323 14.8735 -0.6517 -7.6172 -29.4983
# 3 12.0780 14.8735 98.1080 -22.2688 -0.9330 -24.7243
# 4 6.7065 -0.6517 -22.2688 32.7718 -0.8947 -1.5334
# 5 -17.4596 -7.6172 -0.9330 -0.8947 36.0227 6.7669
# 6 -18.0424 -29.4983 -24.7243 -1.5334 6.7669 45.2353
#
#
#
# Elastic Compliance Matrix: (Units=1/GPa)
#
#
# Indices 1 2 3 4 5 6 
#
# 1 0.014241 -0.002620 -0.001649 -0.003831 0.005822 0.002070
# 2 -0.002620 0.009488 0.000595 0.001382 -0.000257 0.005552
# 3 -0.001649 0.000595 0.014879 0.010812 -0.001611 0.008470
# 4 -0.003831 0.001382 0.010812 0.038949 -0.001603 0.006843
# 5 0.005822 -0.000257 -0.001611 -0.001603 0.031091 -0.003431
# 6 0.002070 0.005552 0.008470 0.006843 -0.003431 0.031928
#
#
# Mechanical properties :
#
#
# Convention : Reuss Voigt Hill
#
# Bulk Modulus (GPa) = 31.98996 48.66589 40.32793
# Shear Modulus (GPa) = 31.57712 40.01546 35.79629
#
# Velocity S-wave (km/s) = 3.73603 4.20570 3.97780
# Velocity P-wave (km/s) = 5.72285 6.71532 6.23885
#
# Compressibility (1/GPa) = 0.03125980
#
# Stress axis : x y z
#
# Youngs Moduli (GPa) = 70.21964 105.40074 67.20862
#
# Poissons Ratio (x) = 0.27614 0.11080
# Poissons Ratio (y) = 0.18397 -0.03996
# Poissons Ratio (z) = 0.11576 -0.06267
#
# Static dielectric constant tensor:
#      x y z
#    x 1.824830 -0.008330 0.067730 
#    y -0.008330 1.954880 -0.057570 
#    z 0.067730 -0.057570 1.936730 
# 
# From -- ./inp_files/181725.got.cif
#   From: 2010.05.17/outbox.cif.g08.bks.cpg/sg2_91_cif.got.tgz:181725.got - 2010.06.03 11:33:40.
