data_PCOD9063553
_publ_section_title
;
Structure prediction by ZEFSAII (Michael W. Deem and Ramdas Pophale) SiO2 
 PCOD9063553
Probable space group: P -1
;
_chemical_formula_sum "Si O2"
_cell_formula_units_Z 16
_cell_length_a 8.899324
_cell_length_b 22.856757
_cell_length_c 8.932630
_cell_angle_alpha 53.371414
_cell_angle_beta 93.480415
_cell_angle_gamma 137.424413
_cell_volume 707.066708
_symmetry_space_group_name_H-M "P -1"
_symmetry_group_IT_number 2
_symmetry_cell_setting 'triclinic'
loop_
_space_group_symop_operation_xyz
x,y,z
-x,-y,-z
loop_
_atom_site_type_symbol
_atom_site_label
_atom_site_fract_x
_atom_site_fract_y
_atom_site_fract_z
Si Si1 0.293612 0.057145 0.091289
Si Si2 0.475509 0.891085 0.288571
Si Si3 0.970145 0.400944 0.688608
Si Si4 0.770864 0.573826 0.062710
Si Si5 0.182268 0.077940 0.551019
Si Si6 0.283297 0.909118 0.481265
Si Si7 0.218237 0.434188 0.379924
Si Si8 0.307045 0.584813 0.930303
O O1 0.196569 0.953964 0.362316
O O2 0.319050 0.037669 0.953993
O O3 0.624864 0.230272 0.888442
O O4 0.053170 0.018204 0.176899
O O5 0.586858 0.889776 0.438917
O O6 0.472508 0.967292 0.253026
O O7 0.120194 0.727740 0.463275
O O8 0.000000 0.500000 0.500000
O O9 0.048574 0.407820 0.849504
O O10 0.180481 0.434456 0.551538
O O11 0.482424 0.490202 0.257334
O O12 0.655634 0.472279 0.079051
O O13 0.002661 0.734655 0.768295
O O14 0.406547 0.241354 0.326872
O O15 0.000000 0.000000 0.500000
O O16 0.500000 0.000000 0.500000
O O17 0.288362 0.544725 0.155096
O O18 0.000000 0.500000 0.000000
#
# Coordination Sequence:
#
# PCOD9063553 Si02
#       8
#     2   2   2   2   2   2   2   2
#     4  11  26  46  71 105 147 195 244 298 380 438
#     4  11  25  47  68 101 147 193 241 304 365 444
#     4  11  26  47  73 106 151 193 240 309 369 445
#     4  12  25  45  75 106 145 195 250 302 364 449
#     4  12  27  46  74 109 144 194 250 308 367 441
#     4  12  23  46  72 105 146 192 245 305 367 431
#     4  11  24  44  70 105 145 189 249 295 372 435
#     4  12  24  45  75 104 147 192 245 305 366 439
#
# _framework density 22.628699000000001
#
# number of rings (size 3 to 8) (size 9 to 14) (size 15 to 20)
#    0.000    0.500    3.750    3.750    7.000    0.000 
#    0.000    0.000    0.000    0.000    0.000    0.000 
#    0.000    0.000    0.000    0.000    0.000    0.000 
#
# Total GULP energy -89340.996330 kJ/mol
# GULP energy per Si atom -5583.812271 kJ/mol
# Density = 2.257720 g / cm^3
# Si number density = 22.628699 Si / 1000 Ang^3
#
#
#
# Elastic Constant Matrix: (Units=GPa)
#
#
# Indices 1 2 3 4 5 6 
#
# 1 112.5725 44.6022 42.4027 -10.8004 -3.7202 1.9200
# 2 44.6022 115.9507 43.6961 1.8348 -4.8340 8.1707
# 3 42.4027 43.6961 83.5002 -5.4532 -1.4301 0.7322
# 4 -10.8004 1.8348 -5.4532 30.3227 -2.8196 5.1542
# 5 -3.7202 -4.8340 -1.4301 -2.8196 50.3347 15.1867
# 6 1.9200 8.1707 0.7322 5.1542 15.1867 29.5638
#
#
#
# Elastic Compliance Matrix: (Units=1/GPa)
#
#
# Indices 1 2 3 4 5 6 
#
# 1 0.012125 -0.002985 -0.004306 0.004007 0.001040 -0.001089
# 2 -0.002985 0.011931 -0.004789 -0.001877 0.001758 -0.003561
# 3 -0.004306 -0.004789 0.016747 0.001504 -0.000589 0.001229
# 4 0.004007 -0.001877 0.001504 0.036710 0.004827 -0.008658
# 5 0.001040 0.001758 -0.000589 0.004827 0.024595 -0.014015
# 6 -0.001089 -0.003561 0.001229 -0.008658 -0.014015 0.043558
#
#
# Mechanical properties :
#
#
# Convention : Reuss Voigt Hill
#
# Bulk Modulus (GPa) = 60.08827 63.71396 61.90111
# Shear Modulus (GPa) = 28.51037 34.13240 31.32138
#
# Velocity S-wave (km/s) = 3.55339 3.88798 3.72445
# Velocity P-wave (km/s) = 6.59144 6.95504 6.77568
#
# Compressibility (1/GPa) = 0.01664218
#
# Stress axis : x y z
#
# Youngs Moduli (GPa) = 82.47331 83.81371 59.71379
#
# Poissons Ratio (x) = 0.25015 0.25716
# Poissons Ratio (y) = 0.24614 0.28599
# Poissons Ratio (z) = 0.35517 0.40141
#
# Static dielectric constant tensor:
#      x y z
#    x 1.965870 0.086840 -0.075850 
#    y 0.086840 1.839560 0.044290 
#    z -0.075850 0.044290 1.867300 
# 
# From -- ./inp_files/226156.got.cif
#   From: 2010.05.17/outbox.cif.g08.bks.cpg/sg2_114_cif.got.tgz:226156.got - 2010.06.03 11:33:40.
