data_PCOD9063778
_publ_section_title
;
Structure prediction by ZEFSAII (Michael W. Deem and Ramdas Pophale) SiO2 
 PCOD9063778
Probable space group: P -1
;
_chemical_formula_sum "Si O2"
_cell_formula_units_Z 16
_cell_length_a 18.448735
_cell_length_b 9.031382
_cell_length_c 8.841201
_cell_angle_alpha 76.137510
_cell_angle_beta 144.290044
_cell_angle_gamma 122.083263
_cell_volume 671.553032
_symmetry_space_group_name_H-M "P -1"
_symmetry_group_IT_number 2
_symmetry_cell_setting 'triclinic'
loop_
_space_group_symop_operation_xyz
x,y,z
-x,-y,-z
loop_
_atom_site_type_symbol
_atom_site_label
_atom_site_fract_x
_atom_site_fract_y
_atom_site_fract_z
Si Si1 0.367577 0.715557 0.848269
Si Si2 0.592828 0.062774 0.438749
Si Si3 0.050142 0.980347 0.424876
Si Si4 0.824351 0.611015 0.950834
Si Si5 0.094185 0.629044 0.945870
Si Si6 0.172704 0.367864 0.384912
Si Si7 0.249928 0.853475 0.867477
Si Si8 0.514496 0.340730 0.644681
O O1 0.408647 0.878054 0.753580
O O2 0.293336 0.532765 0.661071
O O3 0.266278 0.737419 0.793258
O O4 0.473011 0.686605 0.146883
O O5 0.599326 0.884867 0.530233
O O6 0.739974 0.248453 0.718714
O O7 0.417720 0.983831 0.201751
O O8 0.104976 0.162980 0.379305
O O9 0.194491 0.970702 0.674518
O O10 0.000000 0.000000 0.500000
O O11 0.904175 0.795281 0.141877
O O12 0.769580 0.620413 0.689776
O O13 0.684444 0.429515 0.844622
O O14 0.947490 0.570512 0.129541
O O15 0.121513 0.733026 0.807675
O O16 0.970470 0.620023 0.841855
O O17 0.500000 0.500000 0.500000
#
# Coordination Sequence:
#
# PCOD9063778 Si02
#       8
#     2   2   2   2   2   2   2   2
#     4  11  24  48  75 106 143 187 252 290 362 433
#     4  11  25  46  73 108 142 193 244 296 358 437
#     4  12  27  46  69 105 145 187 240 300 367 427
#     4  12  26  47  68 105 141 189 240 296 363 426
#     4  12  24  44  74 102 141 186 247 292 354 434
#     4  12  27  45  71 109 142 190 240 303 360 429
#     4  11  24  44  74 100 141 186 238 298 357 434
#     4  11  26  45  74 107 148 191 240 299 362 431
#
# _framework density 23.825369999999999
#
# number of rings (size 3 to 8) (size 9 to 14) (size 15 to 20)
#    0.000    0.500    5.000    4.125    3.500    4.000 
#    0.000    1.250    0.000    0.000    0.000    0.000 
#    0.000    0.000    0.000    0.000    0.000    0.000 
#
# Total GULP energy -89216.288868 kJ/mol
# GULP energy per Si atom -5576.018054 kJ/mol
# Density = 2.377114 g / cm^3
# Si number density = 23.825370 Si / 1000 Ang^3
#
#
#
# Elastic Constant Matrix: (Units=GPa)
#
#
# Indices 1 2 3 4 5 6 
#
# 1 96.8433 39.7892 15.8866 2.1924 -30.8544 8.6677
# 2 39.7892 140.4585 31.2855 -4.2395 -28.9355 9.0492
# 3 15.8866 31.2855 61.7490 -1.3976 -25.1832 -21.7181
# 4 2.1924 -4.2395 -1.3976 40.3817 -10.6031 -7.5141
# 5 -30.8544 -28.9355 -25.1832 -10.6031 34.2095 0.5050
# 6 8.6677 9.0492 -21.7181 -7.5141 0.5050 43.6674
#
#
#
# Elastic Compliance Matrix: (Units=1/GPa)
#
#
# Indices 1 2 3 4 5 6 
#
# 1 0.015572 -0.001681 0.003080 0.003089 0.015860 -0.000862
# 2 -0.001681 0.009591 -0.003826 0.001466 0.004283 -0.003354
# 3 0.003080 -0.003826 0.037363 0.012601 0.030648 0.020578
# 4 0.003089 0.001466 0.012601 0.033365 0.023483 0.010820
# 5 0.015860 0.004283 0.030648 0.023483 0.076787 0.014360
# 6 -0.000862 -0.003354 0.020578 0.010820 0.014360 0.035697
#
#
# Mechanical properties :
#
#
# Convention : Reuss Voigt Hill
#
# Bulk Modulus (GPa) = 17.33979 52.55261 34.94620
# Shear Modulus (GPa) = 21.50975 37.79101 29.65038
#
# Velocity S-wave (km/s) = 3.00794 3.98699 3.53156
# Velocity P-wave (km/s) = 4.39969 6.58028 5.59720
#
# Compressibility (1/GPa) = 0.05767081
#
# Stress axis : x y z
#
# Youngs Moduli (GPa) = 64.21909 104.26692 26.76460
#
# Poissons Ratio (x) = 0.17529 -0.08245
# Poissons Ratio (y) = 0.10796 0.10241
# Poissons Ratio (z) = -0.19782 0.39897
#
# Static dielectric constant tensor:
#      x y z
#    x 1.908120 -0.014970 -0.016860 
#    y -0.014970 1.947830 -0.070360 
#    z -0.016860 -0.070360 2.013290 
# 
# From -- ./inp_files/328976.got.cif
#   From: 2010.05.17/outbox.cif.g08.bks.cpg/sg2_165_cif.got.tgz:328976.got - 2010.06.03 11:33:40.
