data_PCOD9063354
_publ_section_title
;
Structure prediction by ZEFSAII (Michael W. Deem and Ramdas Pophale) SiO2 
 PCOD9063354
Probable space group: P -1
;
_chemical_formula_sum "Si O2"
_cell_formula_units_Z 14
_cell_length_a 17.402278
_cell_length_b 12.216380
_cell_length_c 16.920655
_cell_angle_alpha 135.859695
_cell_angle_beta 156.002355
_cell_angle_gamma 29.956429
_cell_volume 680.472993
_symmetry_space_group_name_H-M "P -1"
_symmetry_group_IT_number 2
_symmetry_cell_setting 'triclinic'
loop_
_space_group_symop_operation_xyz
x,y,z
-x,-y,-z
loop_
_atom_site_type_symbol
_atom_site_label
_atom_site_fract_x
_atom_site_fract_y
_atom_site_fract_z
Si Si1 0.261910 0.755093 0.448425
Si Si2 0.890482 0.852361 0.726209
Si Si3 0.134615 0.988635 0.940896
Si Si4 0.398137 0.000716 0.778564
Si Si5 0.037586 0.292489 0.741903
Si Si6 0.261748 0.382188 0.740426
Si Si7 0.258045 0.188615 0.264984
O O1 0.500000 0.500000 0.500000
O O2 0.138110 0.735299 0.395518
O O3 0.379630 0.848458 0.636496
O O4 0.019877 0.931176 0.246549
O O5 0.829757 0.854088 0.761387
O O6 0.973378 0.977131 0.845311
O O7 0.142066 0.586483 0.793509
O O8 0.597761 0.988165 0.477640
O O9 0.461705 0.735176 0.108364
O O10 0.138150 0.165467 0.066648
O O11 0.152795 0.166852 0.700191
O O12 0.357461 0.170136 0.768865
O O13 0.692090 0.837230 0.016367
O O14 0.860135 0.562772 0.709617
O O15 0.000000 0.500000 0.500000
#
# Coordination Sequence:
#
# PCOD9063354 Si02
#       7
#     2   2   2   2   2   2   2
#     4  12  26  42  69 104 135 174 224 282 339 403
#     4  11  24  44  65 101 136 181 228 273 341 403
#     4  12  25  42  68 101 135 176 230 281 339 397
#     4  11  25  46  67  99 135 181 229 270 340 403
#     4  11  24  46  70  95 137 181 226 276 333 405
#     4  12  23  45  68  98 138 179 225 283 336 398
#     4  11  24  44  69  97 138 181 225 277 338 405
#
# _framework density 20.573924999999999
#
# number of rings (size 3 to 8) (size 9 to 14) (size 15 to 20)
#    0.000    0.571    4.286    3.857    2.000    1.143 
#    0.000    2.857    0.000    0.000    0.000    0.000 
#    0.000    0.000    0.000    0.000    0.000    0.000 
#
# Total GULP energy -78360.607263 kJ/mol
# GULP energy per Si atom -5597.186233 kJ/mol
# Density = 2.052710 g / cm^3
# Si number density = 20.573925 Si / 1000 Ang^3
#
#
#
# Elastic Constant Matrix: (Units=GPa)
#
#
# Indices 1 2 3 4 5 6 
#
# 1 41.0519 6.3880 7.9460 -10.4907 4.4954 16.9742
# 2 6.3880 101.0876 16.6392 11.3591 3.5885 -2.9628
# 3 7.9460 16.6392 63.8851 2.3700 -1.9688 -0.3921
# 4 -10.4907 11.3591 2.3700 33.2102 -8.3012 0.1412
# 5 4.4954 3.5885 -1.9688 -8.3012 36.4609 4.1171
# 6 16.9742 -2.9628 -0.3921 0.1412 4.1171 37.9942
#
#
#
# Elastic Compliance Matrix: (Units=1/GPa)
#
#
# Indices 1 2 3 4 5 6 
#
# 1 0.035745 -0.003546 -0.004089 0.012998 0.000532 -0.016394
# 2 -0.003546 0.011273 -0.002350 -0.005403 -0.002336 0.002712
# 3 -0.004089 -0.002350 0.016872 -0.001416 0.001132 0.001700
# 4 0.012998 -0.005403 -0.001416 0.038296 0.008396 -0.007295
# 5 0.000532 -0.002336 0.001132 0.008396 0.029980 -0.003688
# 6 -0.016394 0.002712 0.001700 -0.007295 -0.003688 0.034300
#
#
# Mechanical properties :
#
#
# Convention : Reuss Voigt Hill
#
# Bulk Modulus (GPa) = 22.76867 29.77454 26.27160
# Shear Modulus (GPa) = 24.86651 33.20317 29.03484
#
# Velocity S-wave (km/s) = 3.48032 4.02163 3.76073
# Velocity P-wave (km/s) = 5.21929 6.00567 5.62624
#
# Compressibility (1/GPa) = 0.04392000
#
# Stress axis : x y z
#
# Youngs Moduli (GPa) = 27.97627 88.70871 59.27128
#
# Poissons Ratio (x) = 0.31454 0.24235
# Poissons Ratio (y) = 0.09920 0.13928
# Poissons Ratio (z) = 0.11439 0.20846
#
# Static dielectric constant tensor:
#      x y z
#    x 1.736040 -0.017950 0.004140 
#    y -0.017950 1.708570 -0.005080 
#    z 0.004140 -0.005080 1.699720 
# 
# From -- ./inp_files/40234.got.cif
#   From: 2010.05.17/outbox.cif.g08.bks.cpg/sg2_21_cif.got.tgz:40234.got - 2010.06.03 11:33:40.
