data_PCOD9063481
_publ_section_title
;
Structure prediction by ZEFSAII (Michael W. Deem and Ramdas Pophale) SiO2 
 PCOD9063481
Probable space group: P -1
;
_chemical_formula_sum "Si O2"
_cell_formula_units_Z 15
_cell_length_a 11.908565
_cell_length_b 12.359063
_cell_length_c 6.629613
_cell_angle_alpha 115.588545
_cell_angle_beta 129.422789
_cell_angle_gamma 85.535931
_cell_volume 652.229880
_symmetry_space_group_name_H-M "P -1"
_symmetry_group_IT_number 2
_symmetry_cell_setting 'triclinic'
loop_
_space_group_symop_operation_xyz
x,y,z
-x,-y,-z
loop_
_atom_site_type_symbol
_atom_site_label
_atom_site_fract_x
_atom_site_fract_y
_atom_site_fract_z
Si Si1 0.306148 0.746105 0.922249
Si Si2 0.600678 0.365424 0.659486
Si Si3 0.218625 0.295402 0.448291
Si Si4 0.837680 0.492610 0.718569
Si Si5 0.500000 0.500000 0.000000
Si Si6 0.027251 0.851679 0.637022
Si Si7 0.456406 0.128818 0.013297
Si Si8 0.163271 0.127684 0.895468
O O1 0.234644 0.626234 0.603817
O O2 0.187009 0.825366 0.835998
O O3 0.468714 0.823016 0.078867
O O4 0.323602 0.691214 0.115776
O O5 0.721955 0.468735 0.753374
O O6 0.530910 0.246909 0.339944
O O7 0.496895 0.435880 0.718575
O O8 0.154740 0.392060 0.325217
O O9 0.088824 0.213194 0.376567
O O10 0.357581 0.380034 0.802767
O O11 0.254142 0.204935 0.246609
O O12 0.000000 0.500000 0.000000
O O13 0.946415 0.805158 0.292450
O O14 0.061970 0.000076 0.774465
O O15 0.278780 0.102934 0.838761
O O16 0.500000 0.000000 0.000000
#
# Coordination Sequence:
#
# PCOD9063481 Si02
#       8
#     2   2   2   2   1   2   2   2
#     4  11  24  44  69 106 138 182 230 288 351 417
#     4  11  26  44  70 103 142 181 234 288 352 421
#     4  12  26  43  71 100 141 182 232 288 346 421
#     4  11  25  42  68 100 138 181 227 285 351 416
#     4  12  26  44  68 106 140 186 228 286 348 422
#     4  11  26  46  71 100 141 183 238 288 350 413
#     4  11  24  47  72 100 138 183 238 292 347 413
#     4  11  25  47  71 100 138 186 234 292 346 412
#
# _framework density 22.998027
#
# number of rings (size 3 to 8) (size 9 to 14) (size 15 to 20)
#    0.000    0.800    4.000    2.000    5.600    3.200 
#    2.400    0.000    0.000    0.000    0.000    0.000 
#    0.000    0.000    0.000    0.000    0.000    0.000 
#
# Total GULP energy -83604.992165 kJ/mol
# GULP energy per Si atom -5573.666144 kJ/mol
# Density = 2.294568 g / cm^3
# Si number density = 22.998027 Si / 1000 Ang^3
#
#
#
# Elastic Constant Matrix: (Units=GPa)
#
#
# Indices 1 2 3 4 5 6 
#
# 1 94.8969 49.5867 17.1865 1.7469 11.8527 26.6494
# 2 49.5867 135.3266 22.6286 -17.9339 12.9159 29.9940
# 3 17.1865 22.6286 73.9949 9.8668 3.2577 10.0138
# 4 1.7469 -17.9339 9.8668 37.1445 2.7588 4.9866
# 5 11.8527 12.9159 3.2577 2.7588 33.3872 3.8076
# 6 26.6494 29.9940 10.0138 4.9866 3.8076 36.3945
#
#
#
# Elastic Compliance Matrix: (Units=1/GPa)
#
#
# Indices 1 2 3 4 5 6 
#
# 1 0.015041 -0.003520 -0.001173 -0.000888 -0.002951 -0.007359
# 2 -0.003520 0.012146 -0.002825 0.008001 -0.002986 -0.007439
# 3 -0.001173 -0.002825 0.015397 -0.005387 0.000494 -0.000363
# 4 -0.000888 0.008001 -0.005387 0.033721 -0.004053 -0.008657
# 5 -0.002951 -0.002986 0.000494 -0.004053 0.032251 0.001667
# 6 -0.007359 -0.007439 -0.000363 -0.008657 0.001667 0.040107
#
#
# Mechanical properties :
#
#
# Convention : Reuss Voigt Hill
#
# Bulk Modulus (GPa) = 36.30190 53.66912 44.98551
# Shear Modulus (GPa) = 28.92149 35.70633 32.31391
#
# Velocity S-wave (km/s) = 3.55006 3.94456 3.75250
# Velocity P-wave (km/s) = 5.71165 6.64328 6.19500
#
# Compressibility (1/GPa) = 0.02754677
#
# Stress axis : x y z
#
# Youngs Moduli (GPa) = 66.48396 82.33247 64.94972
#
# Poissons Ratio (x) = 0.28984 0.07617
# Poissons Ratio (y) = 0.23404 0.18351
# Poissons Ratio (z) = 0.07796 0.23263
#
# Static dielectric constant tensor:
#      x y z
#    x 1.891080 -0.033120 0.031020 
#    y -0.033120 1.838310 0.001160 
#    z 0.031020 0.001160 1.886020 
# 
# From -- ./inp_files/68722.got.cif
#   From: 2010.05.17/outbox.cif.g08.bks.cpg/sg2_35_cif.got.tgz:68722.got - 2010.06.03 11:33:40.
