data_PCOD9063996
_publ_section_title
;
Structure prediction by ZEFSAII (Michael W. Deem and Ramdas Pophale) SiO2 
 PCOD9063996
Probable space group: P -1
;
_chemical_formula_sum "Si O2"
_cell_formula_units_Z 15
_cell_length_a 7.793772
_cell_length_b 8.552978
_cell_length_c 14.840737
_cell_angle_alpha 72.516137
_cell_angle_beta 112.434730
_cell_angle_gamma 135.750641
_cell_volume 637.496214
_symmetry_space_group_name_H-M "P -1"
_symmetry_group_IT_number 2
_symmetry_cell_setting 'triclinic'
loop_
_space_group_symop_operation_xyz
x,y,z
-x,-y,-z
loop_
_atom_site_type_symbol
_atom_site_label
_atom_site_fract_x
_atom_site_fract_y
_atom_site_fract_z
Si Si1 0.946572 0.210101 0.192413
Si Si2 0.515065 0.006930 0.285990
Si Si3 0.419460 0.569945 0.806329
Si Si4 0.523405 0.542021 0.647326
Si Si5 0.303643 0.145814 0.533252
Si Si6 0.500000 0.500000 0.000000
Si Si7 0.796315 0.982094 0.017504
Si Si8 0.938372 0.348150 0.859474
O O1 0.202812 0.313279 0.276552
O O2 0.995291 0.429093 0.138553
O O3 0.720913 0.074320 0.242704
O O4 0.858782 0.042625 0.123244
O O5 0.620481 0.993480 0.401600
O O6 0.243319 0.770100 0.243895
O O7 0.512153 0.201736 0.241751
O O8 0.346792 0.454576 0.715198
O O9 0.200508 0.416410 0.867599
O O10 0.625713 0.603066 0.902033
O O11 0.429157 0.335852 0.603054
O O12 0.565430 0.717895 0.556855
O O13 0.000000 0.000000 0.500000
O O14 0.549319 0.725932 0.995831
O O15 0.797467 0.159199 0.939428
O O16 0.000000 0.000000 0.000000
#
# Coordination Sequence:
#
# PCOD9063996 Si02
#       8
#     2   2   2   2   2   1   2   2
#     4  11  25  43  71 101 138 186 234 288 351 414
#     4  11  24  45  69 101 140 179 230 295 352 413
#     4  11  26  43  69 102 144 183 231 286 346 415
#     4  11  25  44  73 104 132 182 238 290 347 413
#     4  11  24  46  73 101 136 181 236 292 353 422
#     4  12  24  42  66 104 140 188 232 274 340 410
#     4  12  25  42  68 101 142 188 236 283 340 418
#     4  11  24  46  65 102 145 184 230 291 345 419
#
# _framework density 23.529554000000001
#
# number of rings (size 3 to 8) (size 9 to 14) (size 15 to 20)
#    0.000    0.800    5.333    1.200    1.867    3.200 
#    0.000    1.333    0.000    0.000    0.000    0.000 
#    0.000    0.000    0.000    0.000    0.000    0.000 
#
# Total GULP energy -83659.903788 kJ/mol
# GULP energy per Si atom -5577.326919 kJ/mol
# Density = 2.347600 g / cm^3
# Si number density = 23.529554 Si / 1000 Ang^3
#
#
#
# Elastic Constant Matrix: (Units=GPa)
#
#
# Indices 1 2 3 4 5 6 
#
# 1 25.1251 13.9898 17.0325 1.1973 -8.3296 -4.0009
# 2 13.9898 104.0159 50.7428 -8.1664 -5.1523 -1.8103
# 3 17.0325 50.7428 149.9105 -12.8129 -19.0202 -21.0434
# 4 1.1973 -8.1664 -12.8129 54.5627 -6.5652 10.8927
# 5 -8.3296 -5.1523 -19.0202 -6.5652 30.5537 7.7671
# 6 -4.0009 -1.8103 -21.0434 10.8927 7.7671 30.6225
#
#
#
# Elastic Compliance Matrix: (Units=1/GPa)
#
#
# Indices 1 2 3 4 5 6 
#
# 1 0.047820 -0.004897 -0.002330 -0.001644 0.009782 0.002461
# 2 -0.004897 0.012241 -0.003961 0.001536 -0.000638 -0.003023
# 3 -0.002330 -0.003961 0.009497 0.001211 0.003695 0.004620
# 4 -0.001644 0.001536 0.001211 0.021538 0.007440 -0.008840
# 5 0.009782 -0.000638 0.003695 0.007440 0.041580 -0.009414
# 6 0.002461 -0.003023 0.004620 -0.008840 -0.009414 0.041505
#
#
# Mechanical properties :
#
#
# Convention : Reuss Voigt Hill
#
# Bulk Modulus (GPa) = 21.19413 49.17574 35.18493
# Shear Modulus (GPa) = 23.55336 36.30022 29.92679
#
# Velocity S-wave (km/s) = 3.16731 3.93205 3.57021
# Velocity P-wave (km/s) = 4.73316 6.44667 5.65519
#
# Compressibility (1/GPa) = 0.04718288
#
# Stress axis : x y z
#
# Youngs Moduli (GPa) = 20.91184 81.69076 105.29800
#
# Poissons Ratio (x) = 0.40002 0.24530
# Poissons Ratio (y) = 0.10240 0.41710
# Poissons Ratio (z) = 0.04872 0.32359
#
# Static dielectric constant tensor:
#      x y z
#    x 1.690960 -0.153900 -0.267220 
#    y -0.153900 1.745760 -0.210630 
#    z -0.267220 -0.210630 1.624190 
# 
# From -- ./inp_files/201202.got.cif
#   From: 2010.05.17/outbox.cif.g08.bks.cpg/sg2_101_cif.got.tgz:201202.got - 2010.06.03 11:33:40.
