data_PCOD9063933
_publ_section_title
;
Structure prediction by ZEFSAII (Michael W. Deem and Ramdas Pophale) SiO2 
 PCOD9063933
Probable space group: P -1
;
_chemical_formula_sum "Si O2"
_cell_formula_units_Z 16
_cell_length_a 5.873084
_cell_length_b 22.768270
_cell_length_c 9.198634
_cell_angle_alpha 53.589172
_cell_angle_beta 51.139072
_cell_angle_gamma 51.833925
_cell_volume 709.195491
_symmetry_space_group_name_H-M "P -1"
_symmetry_group_IT_number 2
_symmetry_cell_setting 'triclinic'
loop_
_space_group_symop_operation_xyz
x,y,z
-x,-y,-z
loop_
_atom_site_type_symbol
_atom_site_label
_atom_site_fract_x
_atom_site_fract_y
_atom_site_fract_z
Si Si1 0.379789 0.188271 0.860680
Si Si2 0.730974 0.961127 0.832374
Si Si3 0.368302 0.708491 0.248773
Si Si4 0.582729 0.066533 0.454567
Si Si5 0.354852 0.488573 0.922358
Si Si6 0.320819 0.698828 0.958153
Si Si7 0.343995 0.458003 0.505331
Si Si8 0.320074 0.223736 0.495939
O O1 0.648621 0.214193 0.773406
O O2 0.407291 0.183622 0.681086
O O3 0.362499 0.112447 0.056724
O O4 0.057185 0.259107 0.938569
O O5 0.109189 0.928434 0.754720
O O6 0.672625 0.024343 0.636971
O O7 0.500000 0.000000 0.000000
O O8 0.626240 0.624393 0.318028
O O9 0.024573 0.708726 0.426995
O O10 0.424753 0.720670 0.040546
O O11 0.348642 0.155836 0.463770
O O12 0.500000 0.000000 0.500000
O O13 0.418087 0.553143 0.705176
O O14 0.500000 0.500000 0.000000
O O15 0.559560 0.395772 0.945857
O O16 0.000000 0.500000 0.000000
O O17 0.459356 0.733155 0.720158
O O18 0.500000 0.500000 0.500000
O O19 0.000000 0.500000 0.500000
#
# Coordination Sequence:
#
# PCOD9063933 Si02
#       8
#     2   2   2   2   2   2   2   2
#     4  11  25  44  70  99 139 184 229 294 355 428
#     4  11  24  45  67 101 138 182 236 285 352 426
#     4  11  27  43  72 102 135 190 232 295 363 430
#     4  11  26  43  70  99 139 184 230 293 351 426
#     4  12  27  45  73 106 141 191 244 301 364 437
#     4  11  25  47  68  98 145 179 234 291 359 428
#     4  12  25  48  75 104 148 192 248 305 370 439
#     4  11  25  45  65 104 139 179 238 289 358 430
#
# _framework density 22.560773999999999
#
# number of rings (size 3 to 8) (size 9 to 14) (size 15 to 20)
#    0.000    0.750    3.750    2.250    8.750    1.500 
#    0.000    0.000    0.000    0.000    0.000    0.000 
#    0.000    0.000    0.000    0.000    0.000    0.000 
#
# Total GULP energy -89129.982185 kJ/mol
# GULP energy per Si atom -5570.623887 kJ/mol
# Density = 2.250942 g / cm^3
# Si number density = 22.560774 Si / 1000 Ang^3
#
#
#
# Elastic Constant Matrix: (Units=GPa)
#
#
# Indices 1 2 3 4 5 6 
#
# 1 75.7192 8.9119 15.8689 12.3111 -2.5705 9.6400
# 2 8.9119 92.6837 -0.5693 3.2034 -0.3008 3.9381
# 3 15.8689 -0.5693 122.7094 6.0802 -10.4079 -6.9180
# 4 12.3111 3.2034 6.0802 41.4365 3.3588 -0.3395
# 5 -2.5705 -0.3008 -10.4079 3.3588 25.9785 -1.9780
# 6 9.6400 3.9381 -6.9180 -0.3395 -1.9780 34.1078
#
#
#
# Elastic Compliance Matrix: (Units=1/GPa)
#
#
# Indices 1 2 3 4 5 6 
#
# 1 0.015027 -0.001117 -0.001917 -0.004208 0.000908 -0.004496
# 2 -0.001117 0.010956 0.000179 -0.000556 0.000090 -0.000913
# 3 -0.001917 0.000179 0.008906 -0.001031 0.003707 0.002532
# 4 -0.004208 -0.000556 -0.001031 0.025919 -0.004106 0.001064
# 5 0.000908 0.000090 0.003707 -0.004106 0.040814 0.002811
# 6 -0.004496 -0.000913 0.002532 0.001064 0.002811 0.031382
#
#
# Mechanical properties :
#
#
# Convention : Reuss Voigt Hill
#
# Bulk Modulus (GPa) = 34.26987 37.72616 35.99801
# Shear Modulus (GPa) = 33.68332 38.09795 35.89064
#
# Velocity S-wave (km/s) = 3.86813 4.11381 3.99286
# Velocity P-wave (km/s) = 5.93068 6.27080 6.10311
#
# Compressibility (1/GPa) = 0.02918015
#
# Stress axis : x y z
#
# Youngs Moduli (GPa) = 66.54613 91.27223 112.28080
#
# Poissons Ratio (x) = 0.10198 0.21519
# Poissons Ratio (y) = 0.07435 -0.02011
# Poissons Ratio (z) = 0.12754 -0.01634
#
# Static dielectric constant tensor:
#      x y z
#    x 1.918460 0.090300 -0.034510 
#    y 0.090300 1.388500 0.160670 
#    z -0.034510 0.160670 1.778710 
# 
# From -- ./inp_files/106087.got.cif
#   From: 2010.05.17/outbox.cif.g08.bks.cpg/sg2_54_cif.got.tgz:106087.got - 2010.06.03 11:33:40.
