data_PCOD9063253
_publ_section_title
;
Structure prediction by ZEFSAII (Michael W. Deem and Ramdas Pophale) SiO2 
 PCOD9063253
Probable space group: P -1
;
_chemical_formula_sum "Si O2"
_cell_formula_units_Z 14
_cell_length_a 8.105918
_cell_length_b 22.675974
_cell_length_c 8.348572
_cell_angle_alpha 38.099719
_cell_angle_beta 97.545636
_cell_angle_gamma 126.404927
_cell_volume 561.559712
_symmetry_space_group_name_H-M "P -1"
_symmetry_group_IT_number 2
_symmetry_cell_setting 'triclinic'
loop_
_space_group_symop_operation_xyz
x,y,z
-x,-y,-z
loop_
_atom_site_type_symbol
_atom_site_label
_atom_site_fract_x
_atom_site_fract_y
_atom_site_fract_z
Si Si1 0.773842 0.930083 0.752130
Si Si2 0.681005 0.613241 0.129757
Si Si3 0.177187 0.804648 0.199578
Si Si4 0.231939 0.774513 0.933534
Si Si5 0.736222 0.814411 0.515260
Si Si6 0.641189 0.687271 0.425586
Si Si7 0.371153 0.825873 0.507409
O O1 0.566545 0.916036 0.692893
O O2 0.599243 0.755791 0.151713
O O3 0.000000 0.000000 0.500000
O O4 0.943098 0.033604 0.713602
O O5 0.500000 0.500000 0.500000
O O6 0.601658 0.501282 0.221511
O O7 0.606572 0.683095 0.909451
O O8 0.005253 0.753229 0.913890
O O9 0.184973 0.758683 0.471680
O O10 0.923184 0.761535 0.255468
O O11 0.154732 0.722323 0.222528
O O12 0.463250 0.998755 0.807621
O O13 0.215585 0.716973 0.879346
O O14 0.683332 0.746032 0.482479
O O15 0.603132 0.856307 0.423502
#
# Coordination Sequence:
#
# PCOD9063253 Si02
#       7
#     2   2   2   2   2   2   2
#     4  12  25  45  77 110 144 182 243 304 363 426
#     4  12  28  49  71 101 148 198 242 292 365 436
#     4  11  24  43  73 110 146 185 240 299 367 428
#     4  12  26  45  74 106 146 190 241 298 361 430
#     4  12  26  47  74 108 146 189 243 307 362 427
#     4  12  25  49  72 105 149 193 238 301 363 435
#     4  11  25  43  71 113 144 183 239 306 364 431
#
# _framework density 24.930565999999999
#
# number of rings (size 3 to 8) (size 9 to 14) (size 15 to 20)
#    0.000    0.286    4.286    3.857    8.000    0.571 
#    0.000    1.429    0.000    0.000    0.000    0.000 
#    0.000    0.000    0.000    0.000    0.000    0.000 
#
# Total GULP energy -78201.071630 kJ/mol
# GULP energy per Si atom -5585.790831 kJ/mol
# Density = 2.487382 g / cm^3
# Si number density = 24.930566 Si / 1000 Ang^3
#
#
#
# Elastic Constant Matrix: (Units=GPa)
#
#
# Indices 1 2 3 4 5 6 
#
# 1 115.0682 56.3405 22.0630 6.8801 -23.6526 -2.1383
# 2 56.3405 166.7178 20.1920 25.1709 2.6861 -3.2902
# 3 22.0630 20.1920 57.0173 5.2846 15.6920 -0.3225
# 4 6.8801 25.1709 5.2846 37.0438 -3.4995 -11.9245
# 5 -23.6526 2.6861 15.6920 -3.4995 34.7164 2.1395
# 6 -2.1383 -3.2902 -0.3225 -11.9245 2.1395 26.9210
#
#
#
# Elastic Compliance Matrix: (Units=1/GPa)
#
#
# Indices 1 2 3 4 5 6 
#
# 1 0.015885 -0.005045 -0.008964 0.003501 0.015565 0.000852
# 2 -0.005045 0.008553 0.000840 -0.005980 -0.004983 -0.001598
# 3 -0.008964 0.000840 0.026212 -0.004677 -0.018436 -0.000902
# 4 0.003501 -0.005980 -0.004677 0.036673 0.007727 0.015121
# 5 0.015565 -0.004983 -0.018436 0.007727 0.048911 -0.000058
# 6 0.000852 -0.001598 -0.000902 0.015121 -0.000058 0.043710
#
#
# Mechanical properties :
#
#
# Convention : Reuss Voigt Hill
#
# Bulk Modulus (GPa) = 41.13162 59.55489 50.34326
# Shear Modulus (GPa) = 23.32253 35.75010 29.53632
#
# Velocity S-wave (km/s) = 3.06191 3.79091 3.44574
# Velocity P-wave (km/s) = 5.38838 6.56517 6.00567
#
# Compressibility (1/GPa) = 0.02431219
#
# Stress axis : x y z
#
# Youngs Moduli (GPa) = 62.95077 116.91871 38.15078
#
# Poissons Ratio (x) = 0.58988 0.34197
# Poissons Ratio (y) = 0.31760 -0.03204
# Poissons Ratio (z) = 0.56427 -0.09820
#
# Static dielectric constant tensor:
#      x y z
#    x 1.903570 -0.028290 0.023390 
#    y -0.028290 1.994530 -0.017540 
#    z 0.023390 -0.017540 2.061890 
# 
# From -- ./inp_files/225966.got.cif
#   From: 2010.05.17/outbox.cif.g08.bks.cpg/sg2_113_cif.got.tgz:225966.got - 2010.06.03 11:33:40.
