data_PCOD9063305
_publ_section_title
;
Structure prediction by ZEFSAII (Michael W. Deem and Ramdas Pophale) SiO2 
 PCOD9063305
Probable space group: P -1
;
_chemical_formula_sum "Si O2"
_cell_formula_units_Z 14
_cell_length_a 9.051998
_cell_length_b 12.056229
_cell_length_c 16.561113
_cell_angle_alpha 148.337810
_cell_angle_beta 54.343459
_cell_angle_gamma 138.361777
_cell_volume 622.967726
_symmetry_space_group_name_H-M "P -1"
_symmetry_group_IT_number 2
_symmetry_cell_setting 'triclinic'
loop_
_space_group_symop_operation_xyz
x,y,z
-x,-y,-z
loop_
_atom_site_type_symbol
_atom_site_label
_atom_site_fract_x
_atom_site_fract_y
_atom_site_fract_z
Si Si1 0.188033 0.033953 0.630459
Si Si2 0.699892 0.771927 0.004442
Si Si3 0.531590 0.790879 0.894027
Si Si4 0.061496 0.173906 0.255091
Si Si5 0.348285 0.740157 0.452159
Si Si6 0.972513 0.646580 0.176549
Si Si7 0.352328 0.715381 0.208364
O O1 0.445574 0.246853 0.648466
O O2 0.022664 0.097090 0.685280
O O3 0.196373 0.782411 0.466680
O O4 0.116495 0.001009 0.726691
O O5 0.492879 0.705975 0.085135
O O6 0.637968 0.819279 0.965894
O O7 0.720802 0.534046 0.867170
O O8 0.924723 0.030658 0.128671
O O9 0.718516 0.815228 0.792645
O O10 0.277987 0.539964 0.824866
O O11 0.500000 0.000000 0.000000
O O12 0.179209 0.480699 0.395263
O O13 0.486144 0.999246 0.624894
O O14 0.146161 0.692925 0.217808
O O15 0.000000 0.500000 0.000000
#
# Coordination Sequence:
#
# PCOD9063305 Si02
#       7
#     2   2   2   2   2   2   2
#     4  11  24  45  71 101 148 195 235 296 358 430
#     4  11  24  44  73 107 143 184 248 299 358 425
#     4  12  25  44  68 109 146 185 235 306 364 424
#     4  12  25  46  73 109 141 190 244 297 358 435
#     4  11  25  47  73 102 149 194 245 286 363 438
#     4  12  23  44  72 101 148 190 236 298 362 417
#     4  11  24  43  75 108 139 195 243 294 360 432
#
# _framework density 22.473074
#
# number of rings (size 3 to 8) (size 9 to 14) (size 15 to 20)
#    0.000    0.571    4.286    4.286    2.000    0.571 
#    0.000    0.714    0.000    0.000    0.000    0.000 
#    0.000    0.000    0.000    0.000    0.000    0.000 
#
# Total GULP energy -77989.475099 kJ/mol
# GULP energy per Si atom -5570.676793 kJ/mol
# Density = 2.242192 g / cm^3
# Si number density = 22.473074 Si / 1000 Ang^3
#
#
#
# Elastic Constant Matrix: (Units=GPa)
#
#
# Indices 1 2 3 4 5 6 
#
# 1 203.5226 59.1697 76.8509 16.6438 -39.9533 7.5401
# 2 59.1697 91.0520 35.8477 -10.6844 -5.1852 10.2679
# 3 76.8509 35.8477 101.5623 12.9667 -25.0447 -2.5572
# 4 16.6438 -10.6844 12.9667 37.2037 6.8662 -13.3247
# 5 -39.9533 -5.1852 -25.0447 6.8662 50.7366 1.6091
# 6 7.5401 10.2679 -2.5572 -13.3247 1.6091 47.7034
#
#
#
# Elastic Compliance Matrix: (Units=1/GPa)
#
#
# Indices 1 2 3 4 5 6 
#
# 1 0.009430 -0.005100 -0.002941 -0.006806 0.006459 -0.002670
# 2 -0.005100 0.017085 -0.004941 0.009976 -0.006055 -0.000145
# 3 -0.002941 -0.004941 0.016183 -0.006755 0.006072 0.000304
# 4 -0.006806 0.009976 -0.006755 0.041456 -0.013622 0.010606
# 5 0.006459 -0.006055 0.006072 -0.013622 0.029150 -0.004180
# 6 -0.002670 -0.000145 0.000304 0.010606 -0.004180 0.024536
#
#
# Mechanical properties :
#
#
# Convention : Reuss Voigt Hill
#
# Bulk Modulus (GPa) = 59.76252 82.20819 70.98535
# Shear Modulus (GPa) = 29.51897 42.07998 35.79947
#
# Velocity S-wave (km/s) = 3.62819 4.33189 3.99556
# Velocity P-wave (km/s) = 6.64849 7.85369 7.27609
#
# Compressibility (1/GPa) = 0.01673290
#
# Stress axis : x y z
#
# Youngs Moduli (GPa) = 106.04229 58.53208 61.79227
#
# Poissons Ratio (x) = 0.29852 0.18174
# Poissons Ratio (y) = 0.54083 0.30534
# Poissons Ratio (z) = 0.31188 0.28923
#
# Static dielectric constant tensor:
#      x y z
#    x 1.894130 -0.063190 -0.015500 
#    y -0.063190 1.938310 -0.056870 
#    z -0.015500 -0.056870 1.950450 
# 
# From -- ./inp_files/426583.got.cif
#   From: 2010.05.17/outbox.cif.g08.bks.cpg/sg2_214_cif.got.tgz:426583.got - 2010.06.03 11:33:40.
