data_PCOD9063737
_publ_section_title
;
Structure prediction by ZEFSAII (Michael W. Deem and Ramdas Pophale) SiO2 
 PCOD9063737
Probable space group: P -1
;
_chemical_formula_sum "Si O2"
_cell_formula_units_Z 16
_cell_length_a 5.248805
_cell_length_b 25.221787
_cell_length_c 15.471385
_cell_angle_alpha 161.136413
_cell_angle_beta 97.029990
_cell_angle_gamma 82.962608
_cell_volume 657.083873
_symmetry_space_group_name_H-M "P -1"
_symmetry_group_IT_number 2
_symmetry_cell_setting 'triclinic'
loop_
_space_group_symop_operation_xyz
x,y,z
-x,-y,-z
loop_
_atom_site_type_symbol
_atom_site_label
_atom_site_fract_x
_atom_site_fract_y
_atom_site_fract_z
Si Si1 0.651196 0.853272 0.119332
Si Si2 0.262602 0.087506 0.170495
Si Si3 0.680456 0.415084 0.990114
Si Si4 0.269553 0.423933 0.424971
Si Si5 0.116797 0.434189 0.623837
Si Si6 0.734863 0.632242 0.950928
Si Si7 0.316551 0.250458 0.598991
Si Si8 0.142700 0.067271 0.459722
O O1 0.674109 0.716289 0.983112
O O2 0.370448 0.938937 0.245731
O O3 0.880797 0.980335 0.337929
O O4 0.708798 0.767097 0.896071
O O5 0.221616 0.271609 0.418537
O O6 0.323799 0.114552 0.315672
O O7 0.500000 0.000000 0.000000
O O8 0.000000 0.000000 0.000000
O O9 0.913648 0.410653 0.065566
O O10 0.736482 0.572783 0.176080
O O11 0.457900 0.437933 0.088529
O O12 0.570805 0.281313 0.714526
O O13 0.500000 0.500000 0.500000
O O14 0.253930 0.463643 0.586723
O O15 0.000000 0.500000 0.500000
O O16 0.814811 0.446182 0.623164
O O17 0.759380 0.817931 0.283661
O O18 0.110266 0.192685 0.570678
#
# Coordination Sequence:
#
# PCOD9063737 Si02
#       8
#     2   2   2   2   2   2   2   2
#     4  12  26  46  69 105 149 193 243 299 369 434
#     4  11  28  48  72 105 146 189 232 298 366 440
#     4   9  21  46  73 104 138 184 246 314 356 429
#     4  12  26  46  72 103 142 192 246 301 351 436
#     4  11  26  44  75 105 142 192 245 304 364 431
#     4  11  24  44  73 105 143 189 253 299 371 429
#     4   9  22  47  72 104 139 189 245 295 371 429
#     4  11  27  44  72 104 147 194 234 310 367 437
#
# _framework density 24.350013000000001
#
# number of rings (size 3 to 8) (size 9 to 14) (size 15 to 20)
#    0.000    1.250    1.250    2.250   12.250    0.000 
#    4.500    3.125    0.000    0.000    0.000    0.000 
#    0.000    0.000    0.000    0.000    0.000    0.000 
#
# Total GULP energy -89120.095853 kJ/mol
# GULP energy per Si atom -5570.005991 kJ/mol
# Density = 2.429459 g / cm^3
# Si number density = 24.350013 Si / 1000 Ang^3
#
#
#
# Elastic Constant Matrix: (Units=GPa)
#
#
# Indices 1 2 3 4 5 6 
#
# 1 129.0480 30.1792 23.1963 2.5721 -17.6884 9.9594
# 2 30.1792 129.7701 20.7793 -9.3672 8.5928 2.4615
# 3 23.1963 20.7793 74.7924 -10.6443 2.4867 -12.2594
# 4 2.5721 -9.3672 -10.6443 56.0956 -3.6698 6.4648
# 5 -17.6884 8.5928 2.4867 -3.6698 46.5372 8.0139
# 6 9.9594 2.4615 -12.2594 6.4648 8.0139 20.7161
#
#
#
# Elastic Compliance Matrix: (Units=1/GPa)
#
#
# Indices 1 2 3 4 5 6 
#
# 1 0.010715 -0.001988 -0.004661 -0.000121 0.006422 -0.010120
# 2 -0.001988 0.008666 -0.001659 0.001159 -0.002069 -0.000617
# 3 -0.004661 -0.001659 0.018014 0.001364 -0.004824 0.014539
# 4 -0.000121 0.001159 0.001364 0.019134 0.002227 -0.006105
# 5 0.006422 -0.002069 -0.004824 0.002227 0.027690 -0.017103
# 6 -0.010120 -0.000617 0.014539 -0.006105 -0.017103 0.070335
#
#
# Mechanical properties :
#
#
# Convention : Reuss Voigt Hill
#
# Bulk Modulus (GPa) = 48.11865 53.54670 50.83268
# Shear Modulus (GPa) = 28.07486 41.96683 35.02084
#
# Velocity S-wave (km/s) = 3.39923 4.15599 3.79651
# Velocity P-wave (km/s) = 5.93384 6.71326 6.33555
#
# Compressibility (1/GPa) = 0.02078196
#
# Stress axis : x y z
#
# Youngs Moduli (GPa) = 93.32453 115.39114 55.51206
#
# Poissons Ratio (x) = 0.22936 0.25872
# Poissons Ratio (y) = 0.18550 0.09207
# Poissons Ratio (z) = 0.43494 0.19138
#
# Static dielectric constant tensor:
#      x y z
#    x 2.052340 -0.098800 0.054070 
#    y -0.098800 2.003180 -0.127100 
#    z 0.054070 -0.127100 2.164040 
# 
# From -- ./inp_files/486015.got.cif
#   From: 2010.05.17/outbox.cif.g08.bks.cpg/sg2_244_cif.got.tgz:486015.got - 2010.06.03 11:33:40.
