data_PCOD9063087
_publ_section_title
;
Structure prediction by ZEFSAII (Michael W. Deem and Ramdas Pophale) SiO2 
 PCOD9063087
Probable space group: P -1
;
_chemical_formula_sum "Si O2"
_cell_formula_units_Z 15
_cell_length_a 15.075802
_cell_length_b 23.785025
_cell_length_c 8.939868
_cell_angle_alpha 31.031375
_cell_angle_beta 130.983939
_cell_angle_gamma 151.132344
_cell_volume 737.996571
_symmetry_space_group_name_H-M "P -1"
_symmetry_group_IT_number 2
_symmetry_cell_setting 'triclinic'
loop_
_space_group_symop_operation_xyz
x,y,z
-x,-y,-z
loop_
_atom_site_type_symbol
_atom_site_label
_atom_site_fract_x
_atom_site_fract_y
_atom_site_fract_z
Si Si1 0.007974 0.003743 0.683520
Si Si2 0.461985 0.703581 0.667407
Si Si3 0.780212 0.048606 0.405220
Si Si4 0.021841 0.451605 0.789938
Si Si5 0.463937 0.846133 0.773504
Si Si6 0.609394 0.598561 0.239066
Si Si7 0.540733 0.719613 0.381025
Si Si8 0.000000 0.500000 0.000000
O O1 0.941467 0.072448 0.515177
O O2 0.845014 0.798659 0.039130
O O3 0.000000 0.000000 0.500000
O O4 0.226180 0.133669 0.680166
O O5 0.457574 0.668098 0.571761
O O6 0.249537 0.586403 0.744793
O O7 0.635654 0.921798 0.392397
O O8 0.520748 0.640319 0.969379
O O9 0.628670 0.926402 0.655016
O O10 0.886647 0.243012 0.096396
O O11 0.000000 0.500000 0.500000
O O12 0.971753 0.471110 0.847738
O O13 0.500000 0.000000 0.500000
O O14 0.499480 0.799052 0.065323
O O15 0.242614 0.668725 0.869034
O O16 0.500000 0.500000 0.500000
O O17 0.563945 0.458160 0.413062
#
# Coordination Sequence:
#
# PCOD9063087 Si02
#       8
#     2   2   2   2   2   2   2   1
#     4  11  24  46  72 110 144 188 240 297 370 449
#     4  11  24  43  70 105 144 184 241 302 357 449
#     4  11  24  46  71 101 150 185 234 306 364 434
#     4  12  27  45  74 104 142 196 251 300 372 431
#     4  12  27  48  71 104 144 189 247 306 363 436
#     4  11  25  43  71 106 144 187 234 302 371 438
#     4  12  25  44  77 105 144 193 242 300 374 436
#     4  12  26  50  70 100 144 190 250 306 358 432
#
# _framework density 20.325296000000002
#
# number of rings (size 3 to 8) (size 9 to 14) (size 15 to 20)
#    0.000    0.533    5.333    3.600    1.867    5.867 
#    0.000    0.000    0.000    0.000    0.000    0.000 
#    0.000    0.000    0.000    0.000    0.000    0.000 
#
# Total GULP energy -83593.805577 kJ/mol
# GULP energy per Si atom -5572.920372 kJ/mol
# Density = 2.027903 g / cm^3
# Si number density = 20.325296 Si / 1000 Ang^3
#
#
#
# Elastic Constant Matrix: (Units=GPa)
#
#
# Indices 1 2 3 4 5 6 
#
# 1 134.7514 15.7271 48.8886 8.4656 -26.8662 -22.0851
# 2 15.7271 -22.7811 70.5061 7.8204 -6.7889 -39.3327
# 3 48.8886 70.5061 97.5017 -3.3245 -7.2834 0.6498
# 4 8.4656 7.8204 -3.3245 23.4952 4.3415 -4.6715
# 5 -26.8662 -6.7889 -7.2834 4.3415 31.1668 -2.0248
# 6 -22.0851 -39.3327 0.6498 -4.6715 -2.0248 34.4074
#
#
#
# Elastic Compliance Matrix: (Units=1/GPa)
#
#
# Indices 1 2 3 4 5 6 
#
# 1 0.010782 -0.004527 -0.001635 -0.003844 0.008576 0.001759
# 2 -0.004527 -0.006325 0.006669 0.003580 -0.004874 -0.010063
# 3 -0.001635 0.006669 0.006361 0.000225 0.001927 0.006598
# 4 -0.003844 0.003580 0.000225 0.045797 -0.008384 0.007345
# 5 0.008576 -0.004874 0.001927 -0.008384 0.040107 0.001118
# 6 0.001759 -0.010063 0.006598 0.007345 0.001118 0.019627
#
#
# Mechanical properties :
#
#
# Convention : Reuss Voigt Hill
#
# Bulk Modulus (GPa) = 84.51673 53.30171 68.90922
# Shear Modulus (GPa) = 41.91854 22.77057 32.34456
#
# Velocity S-wave (km/s) = 4.54627 3.35073 3.99349
# Velocity P-wave (km/s) = 8.32048 6.42270 7.43241
#
# Compressibility (1/GPa) = 0.01183198
#
# Stress axis : x y z
#
# Youngs Moduli (GPa) = 92.74617 -158.09942 157.20854
#
# Poissons Ratio (x) = -0.71578 0.25697
# Poissons Ratio (y) = 0.41990 -1.04842
# Poissons Ratio (z) = 0.15160 1.05436
#
# Static dielectric constant tensor:
#      x y z
#    x 1.691100 -0.052170 -0.022550 
#    y -0.052170 1.661400 -0.037020 
#    z -0.022550 -0.037020 1.710670 
# 
# From -- ./inp_files/319984.got.cif
#   From: 2010.05.17/outbox.cif.g08.bks.cpg/sg2_160_cif.got.tgz:319984.got - 2010.06.03 11:33:40.
