data_PCOD9063133
_publ_section_title
;
Structure prediction by ZEFSAII (Michael W. Deem and Ramdas Pophale) SiO2 
 PCOD9063133
Probable space group: P -1
;
_chemical_formula_sum "Si O2"
_cell_formula_units_Z 16
_cell_length_a 8.230948
_cell_length_b 14.450114
_cell_length_c 14.679458
_cell_angle_alpha 40.991212
_cell_angle_beta 39.634088
_cell_angle_gamma 44.960545
_cell_volume 696.460033
_symmetry_space_group_name_H-M "P -1"
_symmetry_group_IT_number 2
_symmetry_cell_setting 'triclinic'
loop_
_space_group_symop_operation_xyz
x,y,z
-x,-y,-z
loop_
_atom_site_type_symbol
_atom_site_label
_atom_site_fract_x
_atom_site_fract_y
_atom_site_fract_z
Si Si1 0.372330 0.315844 0.469843
Si Si2 0.022236 0.485420 0.634304
Si Si3 0.130176 0.313593 0.276607
Si Si4 0.448911 0.805887 0.085297
Si Si5 0.681809 0.017338 0.492366
Si Si6 0.295325 0.743441 0.002094
Si Si7 0.931253 0.924243 0.858015
Si Si8 0.748513 0.471768 0.178366
O O1 0.095553 0.382246 0.486458
O O2 0.498853 0.141938 0.544265
O O3 0.560033 0.388539 0.274823
O O4 0.305916 0.388177 0.544028
O O5 0.995134 0.574299 0.672315
O O6 0.858913 0.366962 0.809595
O O7 0.408034 0.338158 0.104535
O O8 0.898832 0.351405 0.275325
O O9 0.204636 0.142131 0.395124
O O10 0.555883 0.628247 0.180106
O O11 0.202571 0.907951 0.173428
O O12 0.362076 0.830373 0.997414
O O13 0.698286 0.856521 0.977177
O O14 0.905567 0.072586 0.306082
O O15 0.500000 0.000000 0.500000
O O16 0.116669 0.835727 0.927282
O O17 0.000000 0.500000 0.000000
#
# Coordination Sequence:
#
# PCOD9063133 Si02
#       8
#     2   2   2   2   2   2   2   2
#     4  11  25  44  70 103 141 188 228 294 361 420
#     4  11  24  43  71 104 139 180 245 290 350 432
#     4  12  26  44  73 106 135 195 237 289 367 427
#     4  11  25  45  73 106 140 191 237 303 357 423
#     4  12  25  45  71  99 146 185 232 297 361 423
#     4  12  23  45  76 104 141 190 245 294 361 425
#     4  11  26  46  71 107 149 182 244 297 360 429
#     4  12  24  47  72 100 145 183 240 296 351 425
#
# _framework density 22.973320999999999
#
# number of rings (size 3 to 8) (size 9 to 14) (size 15 to 20)
#    0.000    0.500    5.000    2.250    3.500    2.000 
#    4.500    0.000    0.000    0.000    0.000    0.000 
#    0.000    0.000    0.000    0.000    0.000    0.000 
#
# Total GULP energy -89344.721198 kJ/mol
# GULP energy per Si atom -5584.045075 kJ/mol
# Density = 2.292103 g / cm^3
# Si number density = 22.973321 Si / 1000 Ang^3
#
#
#
# Elastic Constant Matrix: (Units=GPa)
#
#
# Indices 1 2 3 4 5 6 
#
# 1 71.1101 37.0281 8.5829 -7.4045 2.3289 -9.1389
# 2 37.0281 152.2137 41.8986 3.5925 3.9426 2.0696
# 3 8.5829 41.8986 76.9403 0.4970 -0.6123 -10.5542
# 4 -7.4045 3.5925 0.4970 35.8374 -0.4664 6.8067
# 5 2.3289 3.9426 -0.6123 -0.4664 23.7440 0.5214
# 6 -9.1389 2.0696 -10.5542 6.8067 0.5214 40.1676
#
#
#
# Elastic Compliance Matrix: (Units=1/GPa)
#
#
# Indices 1 2 3 4 5 6 
#
# 1 0.017188 -0.004586 0.001086 0.003244 -0.000918 0.003894
# 2 -0.004586 0.009100 -0.004792 -0.001328 -0.001155 -0.002531
# 3 0.001086 -0.004792 0.016154 -0.000417 0.000992 0.004796
# 4 0.003244 -0.001328 -0.000417 0.029540 0.000567 -0.004316
# 5 -0.000918 -0.001155 0.000992 0.000567 0.042446 -0.000536
# 6 0.003894 -0.002531 0.004796 -0.004316 -0.000536 0.027911
#
#
# Mechanical properties :
#
#
# Convention : Reuss Voigt Hill
#
# Bulk Modulus (GPa) = 38.67241 52.80928 45.74084
# Shear Modulus (GPa) = 29.84330 34.13344 31.98837
#
# Velocity S-wave (km/s) = 3.60813 3.85877 3.73555
# Velocity P-wave (km/s) = 5.85050 6.54909 6.20963
#
# Compressibility (1/GPa) = 0.02585823
#
# Stress axis : x y z
#
# Youngs Moduli (GPa) = 58.18035 109.89091 61.90468
#
# Poissons Ratio (x) = 0.50394 -0.06722
# Poissons Ratio (y) = 0.26681 0.29663
# Poissons Ratio (z) = -0.06317 0.52657
#
# Static dielectric constant tensor:
#      x y z
#    x 1.857180 -0.008550 -0.027850 
#    y -0.008550 1.832500 0.035950 
#    z -0.027850 0.035950 1.957420 
# 
# From -- ./inp_files/505224.got.cif
#   From: 2010.05.17/outbox.cif.g08.bks.cpg/sg2_253_cif.got.tgz:505224.got - 2010.06.03 11:33:40.
