data_PCOD9063941
_publ_section_title
;
Structure prediction by ZEFSAII (Michael W. Deem and Ramdas Pophale) SiO2 
 PCOD9063941
Probable space group: P -1
;
_chemical_formula_sum "Si O2"
_cell_formula_units_Z 16
_cell_length_a 9.573009
_cell_length_b 8.986495
_cell_length_c 13.430032
_cell_angle_alpha 73.007043
_cell_angle_beta 108.300983
_cell_angle_gamma 144.942267
_cell_volume 628.756577
_symmetry_space_group_name_H-M "P -1"
_symmetry_group_IT_number 2
_symmetry_cell_setting 'triclinic'
loop_
_space_group_symop_operation_xyz
x,y,z
-x,-y,-z
loop_
_atom_site_type_symbol
_atom_site_label
_atom_site_fract_x
_atom_site_fract_y
_atom_site_fract_z
Si Si1 0.265601 0.476406 0.631552
Si Si2 0.293101 0.351831 0.280969
Si Si3 0.677559 0.061644 0.832259
Si Si4 0.884455 0.901273 0.156491
Si Si5 0.485995 0.783611 0.116440
Si Si6 0.980837 0.163058 0.433961
Si Si7 0.249090 0.481650 0.922171
Si Si8 0.575217 0.061042 0.389947
O O1 0.539364 0.642691 0.637597
O O2 0.171964 0.269110 0.731348
O O3 0.260643 0.644252 0.642020
O O4 0.127562 0.366618 0.517366
O O5 0.446976 0.629067 0.227181
O O6 0.099346 0.257995 0.333157
O O7 0.166007 0.171832 0.190035
O O8 0.568937 0.093725 0.880328
O O9 0.968047 0.291897 0.869998
O O10 0.483375 0.754790 0.862775
O O11 0.641895 0.096226 0.705910
O O12 0.760377 0.966609 0.112283
O O13 0.775490 0.720858 0.072226
O O14 0.307242 0.582037 0.027271
O O15 0.722067 0.030361 0.401296
O O16 0.000000 0.000000 0.500000
O O17 0.500000 0.000000 0.500000
#
# Coordination Sequence:
#
# PCOD9063941 Si02
#       8
#     2   2   2   2   2   2   2   2
#     4  11  24  45  67 104 144 194 246 306 375 444
#     4  11  25  44  75 106 148 194 254 312 371 452
#     4  12  29  50  78 110 156 197 253 312 382 452
#     4  11  24  46  75 104 153 189 256 310 377 447
#     4  11  28  46  76 111 147 201 252 314 378 443
#     4  12  25  44  73 102 147 193 248 305 376 448
#     4  12  28  51  79 111 154 202 253 315 377 450
#     4  12  28  45  74 108 146 197 245 309 378 453
#
# _framework density 25.447049
#
# number of rings (size 3 to 8) (size 9 to 14) (size 15 to 20)
#    0.000    0.500    2.500    4.125   12.250    0.500 
#    0.000    0.000    0.000    0.000    0.000    0.000 
#    0.000    0.000    0.000    0.000    0.000    0.000 
#
# Total GULP energy -89512.963185 kJ/mol
# GULP energy per Si atom -5594.560199 kJ/mol
# Density = 2.538913 g / cm^3
# Si number density = 25.447049 Si / 1000 Ang^3
#
#
#
# Elastic Constant Matrix: (Units=GPa)
#
#
# Indices 1 2 3 4 5 6 
#
# 1 116.2893 22.2801 22.5625 -5.3300 10.7042 9.2387
# 2 22.2801 70.9961 24.9186 10.0334 12.7531 -0.1653
# 3 22.5625 24.9186 120.4578 21.5969 -2.4982 9.0932
# 4 -5.3300 10.0334 21.5969 44.8121 -0.4186 -1.5693
# 5 10.7042 12.7531 -2.4982 -0.4186 44.2132 14.9470
# 6 9.2387 -0.1653 9.0932 -1.5693 14.9470 26.9891
#
#
#
# Elastic Compliance Matrix: (Units=1/GPa)
#
#
# Indices 1 2 3 4 5 6 
#
# 1 0.009792 -0.002710 -0.001564 0.002440 -0.000913 -0.002194
# 2 -0.002710 0.017619 -0.003232 -0.002574 -0.006522 0.005587
# 3 -0.001564 -0.003232 0.010591 -0.004720 0.003678 -0.005364
# 4 0.002440 -0.002574 -0.004720 0.025542 -0.000769 0.002650
# 5 -0.000913 -0.006522 0.003678 -0.000769 0.031082 -0.018225
# 6 -0.002194 0.005587 -0.005364 0.002650 -0.018225 0.049892
#
#
# Mechanical properties :
#
#
# Convention : Reuss Voigt Hill
#
# Bulk Modulus (GPa) = 43.50081 49.69617 46.59849
# Shear Modulus (GPa) = 29.90545 39.06835 34.48690
#
# Velocity S-wave (km/s) = 3.43184 3.92252 3.68535
# Velocity P-wave (km/s) = 5.73020 6.33139 6.03828
#
# Compressibility (1/GPa) = 0.02298808
#
# Stress axis : x y z
#
# Youngs Moduli (GPa) = 102.12316 56.75825 94.42144
#
# Poissons Ratio (x) = 0.15381 0.14770
# Poissons Ratio (y) = 0.27675 0.30522
# Poissons Ratio (z) = 0.15975 0.18347
#
# Static dielectric constant tensor:
#      x y z
#    x 2.145560 0.028590 -0.103990 
#    y 0.028590 2.044290 -0.051940 
#    z -0.103990 -0.051940 2.067520 
# 
# From -- ./inp_files/38199.got.cif
#   From: 2010.05.17/outbox.cif.g08.bks.cpg/sg2_20_cif.got.tgz:38199.got - 2010.06.03 11:33:40.
