data_PCOD9063812
_publ_section_title
;
Structure prediction by ZEFSAII (Michael W. Deem and Ramdas Pophale) SiO2 
 PCOD9063812
Probable space group: P -1
;
_chemical_formula_sum "Si O2"
_cell_formula_units_Z 14
_cell_length_a 9.319113
_cell_length_b 9.839882
_cell_length_c 11.414535
_cell_angle_alpha 62.366022
_cell_angle_beta 45.316969
_cell_angle_gamma 47.797599
_cell_volume 551.222652
_symmetry_space_group_name_H-M "P -1"
_symmetry_group_IT_number 2
_symmetry_cell_setting 'triclinic'
loop_
_space_group_symop_operation_xyz
x,y,z
-x,-y,-z
loop_
_atom_site_type_symbol
_atom_site_label
_atom_site_fract_x
_atom_site_fract_y
_atom_site_fract_z
Si Si1 0.429733 0.847130 0.663572
Si Si2 0.059036 0.300560 0.528640
Si Si3 0.626207 0.448500 0.074460
Si Si4 0.184770 0.133892 0.898970
Si Si5 0.100885 0.728201 0.612023
Si Si6 0.949043 0.024212 0.749357
Si Si7 0.387956 0.378218 0.750234
O O1 0.683615 0.819895 0.506875
O O2 0.482102 0.653205 0.755311
O O3 0.240125 0.898873 0.649544
O O4 0.301971 0.990633 0.784256
O O5 0.000000 0.500000 0.500000
O O6 0.054352 0.280982 0.399397
O O7 0.898274 0.226002 0.696352
O O8 0.616238 0.589715 0.119986
O O9 0.500000 0.500000 0.000000
O O10 0.911805 0.294380 0.957427
O O11 0.324208 0.230277 0.814541
O O12 0.168405 0.021656 0.060981
O O13 0.931188 0.932407 0.679780
O O14 0.186374 0.572359 0.725712
O O15 0.353422 0.680965 0.428891
#
# Coordination Sequence:
#
# PCOD9063812 Si02
#       7
#     2   2   2   2   2   2   2
#     4  11  25  45  68 103 141 192 229 294 365 421
#     4  12  28  44  73 107 137 185 245 301 353 418
#     4  11  24  44  74 108 143 182 246 297 343 423
#     4  11  25  45  73 100 147 195 233 285 366 429
#     4  11  25  45  72 104 149 182 240 296 348 432
#     4  11  24  48  69 101 146 186 235 291 362 430
#     4  11  24  45  73 107 140 193 233 290 366 416
#
# _framework density 25.398085999999999
#
# number of rings (size 3 to 8) (size 9 to 14) (size 15 to 20)
#    0.000    0.857    2.857    4.714    6.000    3.429 
#    0.000    2.143    0.000    0.000    0.000    0.000 
#    0.000    0.000    0.000    0.000    0.000    0.000 
#
# Total GULP energy -78438.632608 kJ/mol
# GULP energy per Si atom -5602.759472 kJ/mol
# Density = 2.534028 g / cm^3
# Si number density = 25.398086 Si / 1000 Ang^3
#
#
#
# Elastic Constant Matrix: (Units=GPa)
#
#
# Indices 1 2 3 4 5 6 
#
# 1 136.4236 40.7189 23.2081 -12.1580 14.9120 24.5191
# 2 40.7189 117.8251 24.3155 -7.9082 4.0392 37.8830
# 3 23.2081 24.3155 43.2235 -3.4360 2.9985 10.6516
# 4 -12.1580 -7.9082 -3.4360 40.3404 4.0385 5.2449
# 5 14.9120 4.0392 2.9985 4.0385 47.3311 2.8398
# 6 24.5191 37.8830 10.6516 5.2449 2.8398 60.3066
#
#
#
# Elastic Compliance Matrix: (Units=1/GPa)
#
#
# Indices 1 2 3 4 5 6 
#
# 1 0.009291 -0.001513 -0.003137 0.002817 -0.002696 -0.002391
# 2 -0.001513 0.012123 -0.004216 0.002412 -0.000109 -0.006460
# 3 -0.003137 -0.004216 0.027520 0.000740 -0.000399 -0.000982
# 4 0.002817 0.002412 0.000740 0.027140 -0.003156 -0.005003
# 5 -0.002696 -0.000109 -0.000399 -0.003156 0.022253 0.000462
# 6 -0.002391 -0.006460 -0.000982 -0.005003 0.000462 0.022199
#
#
# Mechanical properties :
#
#
# Convention : Reuss Voigt Hill
#
# Bulk Modulus (GPa) = 32.04992 52.66193 42.35593
# Shear Modulus (GPa) = 33.63383 43.54426 38.58905
#
# Velocity S-wave (km/s) = 3.64300 4.14511 3.90214
# Velocity P-wave (km/s) = 5.50832 6.60975 6.08402
#
# Compressibility (1/GPa) = 0.03120132
#
# Stress axis : x y z
#
# Youngs Moduli (GPa) = 107.63203 82.48919 36.33674
#
# Poissons Ratio (x) = 0.12482 0.11400
# Poissons Ratio (y) = 0.16287 0.15319
# Poissons Ratio (z) = 0.33766 0.34777
#
# Static dielectric constant tensor:
#      x y z
#    x 2.036330 -0.095910 -0.023590 
#    y -0.095910 2.076200 -0.006170 
#    z -0.023590 -0.006170 2.000150 
# 
# From -- ./inp_files/242737.got.cif
#   From: 2010.05.17/outbox.cif.g08.bks.cpg/sg2_122_cif.got.tgz:242737.got - 2010.06.03 11:33:40.
