data_PCOD9063506
_publ_section_title
;
Structure prediction by ZEFSAII (Michael W. Deem and Ramdas Pophale) SiO2 
 PCOD9063506
Probable space group: P -1
;
_chemical_formula_sum "Si O2"
_cell_formula_units_Z 14
_cell_length_a 20.419049
_cell_length_b 20.221252
_cell_length_c 12.087144
_cell_angle_alpha 22.050245
_cell_angle_beta 146.893226
_cell_angle_gamma 158.867172
_cell_volume 662.060676
_symmetry_space_group_name_H-M "P -1"
_symmetry_group_IT_number 2
_symmetry_cell_setting 'triclinic'
loop_
_space_group_symop_operation_xyz
x,y,z
-x,-y,-z
loop_
_atom_site_type_symbol
_atom_site_label
_atom_site_fract_x
_atom_site_fract_y
_atom_site_fract_z
Si Si1 0.997900 0.427840 0.967634
Si Si2 0.045342 0.253262 0.698676
Si Si3 0.328946 0.888069 0.860256
Si Si4 0.901953 0.203309 0.799083
Si Si5 0.537574 0.341792 0.265032
Si Si6 0.504027 0.214668 0.157079
Si Si7 0.900261 0.723677 0.841071
O O1 0.175679 0.590813 0.044741
O O2 0.977899 0.616516 0.625343
O O3 0.034491 0.370533 0.993387
O O4 0.806126 0.158023 0.174483
O O5 0.254976 0.487130 0.677052
O O6 0.913747 0.167533 0.743985
O O7 0.000000 0.000000 0.000000
O O8 0.409218 0.084175 0.565226
O O9 0.500000 0.000000 0.000000
O O10 0.000000 0.500000 0.500000
O O11 0.687673 0.957741 0.907861
O O12 0.019557 0.199817 0.041283
O O13 0.510706 0.292995 0.171013
O O14 0.500000 0.500000 0.000000
O O15 0.500000 0.000000 0.500000
O O16 0.679880 0.472566 0.934747
O O17 0.000000 0.000000 0.500000
#
# Coordination Sequence:
#
# PCOD9063506 Si02
#       7
#     2   2   2   2   2   2   2
#     4  11  25  45  69 100 146 186 230 296 352 416
#     4  12  23  43  73 107 140 182 239 296 346 420
#     4  11  24  44  69  99 139 186 230 283 363 417
#     4  12  23  45  75 103 139 192 240 289 354 425
#     4  12  25  43  70 106 139 178 237 294 348 423
#     4  12  24  46  75 102 138 189 241 290 352 427
#     4  12  28  46  71 107 146 185 239 297 358 422
#
# _framework density 21.146099
#
# number of rings (size 3 to 8) (size 9 to 14) (size 15 to 20)
#    0.000    0.286    5.714    3.429    2.000    4.000 
#    2.571    0.000    0.000    0.000    0.000    0.000 
#    0.000    0.000    0.000    0.000    0.000    0.000 
#
# Total GULP energy -78191.529681 kJ/mol
# GULP energy per Si atom -5585.109263 kJ/mol
# Density = 2.109797 g / cm^3
# Si number density = 21.146099 Si / 1000 Ang^3
#
#
#
# Elastic Constant Matrix: (Units=GPa)
#
#
# Indices 1 2 3 4 5 6 
#
# 1 103.6178 6.7501 26.7929 -24.0435 -3.2056 6.4192
# 2 6.7501 149.6378 14.0798 -17.5916 -8.4435 31.4560
# 3 26.7929 14.0798 99.5441 -21.2524 -6.6871 6.8426
# 4 -24.0435 -17.5916 -21.2524 31.1105 6.3273 -12.2877
# 5 -3.2056 -8.4435 -6.6871 6.3273 39.2112 -9.5555
# 6 6.4192 31.4560 6.8426 -12.2877 -9.5555 42.0015
#
#
#
# Elastic Compliance Matrix: (Units=1/GPa)
#
#
# Indices 1 2 3 4 5 6 
#
# 1 0.012009 0.000504 -0.001480 0.008852 -0.000466 0.000512
# 2 0.000504 0.008124 -0.000356 0.002634 0.000006 -0.005332
# 3 -0.001480 -0.000356 0.011990 0.006970 0.000914 0.000786
# 4 0.008852 0.002634 0.006970 0.049570 -0.003253 0.009301
# 5 -0.000466 0.000006 0.000914 -0.003253 0.027415 0.005203
# 6 0.000512 -0.005332 0.000786 0.009301 0.005203 0.031500
#
#
# Mechanical properties :
#
#
# Convention : Reuss Voigt Hill
#
# Bulk Modulus (GPa) = 33.94466 49.78280 41.86373
# Shear Modulus (GPa) = 32.66020 42.80979 37.73499
#
# Velocity S-wave (km/s) = 3.93428 4.50430 4.22890
# Velocity P-wave (km/s) = 6.06015 7.11653 6.60948
#
# Compressibility (1/GPa) = 0.02945972
#
# Stress axis : x y z
#
# Youngs Moduli (GPa) = 83.27400 123.08777 83.40278
#
# Poissons Ratio (x) = -0.06208 0.12345
# Poissons Ratio (y) = -0.04200 0.02967
# Poissons Ratio (z) = 0.12326 0.04378
#
# Static dielectric constant tensor:
#      x y z
#    x 1.773660 0.048470 0.013440 
#    y 0.048470 1.856450 0.032720 
#    z 0.013440 0.032720 1.700760 
# 
# From -- ./inp_files/283416.got.cif
#   From: 2010.05.17/outbox.cif.g08.bks.cpg/sg2_142_cif.got.tgz:283416.got - 2010.06.03 11:33:40.
