data_PCOD9063757
_publ_section_title
;
Structure prediction by ZEFSAII (Michael W. Deem and Ramdas Pophale) SiO2 
 PCOD9063757
Probable space group: P -1
;
_chemical_formula_sum "Si O2"
_cell_formula_units_Z 14
_cell_length_a 11.303065
_cell_length_b 13.488595
_cell_length_c 19.376558
_cell_angle_alpha 35.122942
_cell_angle_beta 24.005465
_cell_angle_gamma 33.955111
_cell_volume 647.301467
_symmetry_space_group_name_H-M "P -1"
_symmetry_group_IT_number 2
_symmetry_cell_setting 'triclinic'
loop_
_space_group_symop_operation_xyz
x,y,z
-x,-y,-z
loop_
_atom_site_type_symbol
_atom_site_label
_atom_site_fract_x
_atom_site_fract_y
_atom_site_fract_z
Si Si1 0.499208 0.868038 0.009645
Si Si2 0.151946 0.059415 0.450603
Si Si3 0.271683 0.532966 0.167057
Si Si4 0.672733 0.442033 0.512999
Si Si5 0.345473 0.493673 0.299066
Si Si6 0.230358 0.714548 0.692360
Si Si7 0.283423 0.917078 0.949010
O O1 0.374786 0.695625 0.185124
O O2 0.344250 0.983117 0.956041
O O3 0.863448 0.765147 0.857452
O O4 0.500000 0.000000 0.000000
O O5 0.875301 0.227948 0.535097
O O6 0.285925 0.888248 0.527893
O O7 0.418097 0.117600 0.239652
O O8 0.000000 0.000000 0.500000
O O9 0.395676 0.421586 0.233968
O O10 0.236316 0.731333 0.100109
O O11 0.939391 0.530493 0.324948
O O12 0.500000 0.500000 0.000000
O O13 0.500000 0.500000 0.500000
O O14 0.409178 0.532252 0.657313
O O15 0.608955 0.339131 0.289439
O O16 0.000000 0.500000 0.500000
O O17 0.000000 0.000000 0.000000
#
# Coordination Sequence:
#
# PCOD9063757 Si02
#       7
#     2   2   2   2   2   2   2
#     4  11  27  50  74 109 151 199 260 313 378 466
#     4  12  24  44  71 114 146 189 255 305 370 462
#     4  11  24  46  72 105 144 193 250 307 374 447
#     4  12  24  43  77 106 149 198 245 311 377 446
#     4  11  26  49  75 107 153 197 253 313 382 456
#     4  12  26  47  74 107 151 200 247 308 383 455
#     4  11  24  44  73 108 149 186 251 319 374 446
#
# _framework density 21.628253000000001
#
# number of rings (size 3 to 8) (size 9 to 14) (size 15 to 20)
#    0.000    0.571    5.714    1.286    6.000    1.143 
#    0.000    1.429    0.000    0.000    0.000    0.000 
#    0.000    0.000    0.000    0.000    0.000    0.000 
#
# Total GULP energy -78050.033403 kJ/mol
# GULP energy per Si atom -5575.002386 kJ/mol
# Density = 2.157903 g / cm^3
# Si number density = 21.628253 Si / 1000 Ang^3
#
#
#
# Elastic Constant Matrix: (Units=GPa)
#
#
# Indices 1 2 3 4 5 6 
#
# 1 197.3404 45.5838 52.5391 14.6266 9.5564 -22.3120
# 2 45.5838 92.7572 31.3402 12.9474 3.3461 -0.1400
# 3 52.5391 31.3402 97.0533 3.2497 -18.3023 4.6137
# 4 14.6266 12.9474 3.2497 39.8622 0.6471 3.5591
# 5 9.5564 3.3461 -18.3023 0.6471 37.3814 -1.8192
# 6 -22.3120 -0.1400 4.6137 3.5591 -1.8192 45.9598
#
#
#
# Elastic Compliance Matrix: (Units=1/GPa)
#
#
# Indices 1 2 3 4 5 6 
#
# 1 0.007382 -0.001778 -0.004215 -0.002089 -0.003560 0.004022
# 2 -0.001778 0.013479 -0.003743 -0.003354 -0.002541 -0.000287
# 3 -0.004215 -0.003743 0.015567 0.001653 0.008840 -0.003398
# 4 -0.002089 -0.003354 0.001653 0.027081 0.001017 -0.003247
# 5 -0.003560 -0.002541 0.008840 0.001017 0.032130 -0.001430
# 6 0.004022 -0.000287 -0.003398 -0.003247 -0.001430 0.024246
#
#
# Mechanical properties :
#
#
# Convention : Reuss Voigt Hill
#
# Bulk Modulus (GPa) = 58.97443 71.78633 65.38038
# Shear Modulus (GPa) = 34.48075 41.81987 38.15031
#
# Velocity S-wave (km/s) = 3.99713 4.40202 4.20445
# Velocity P-wave (km/s) = 6.97347 7.68765 7.33925
#
# Compressibility (1/GPa) = 0.01695650
#
# Stress axis : x y z
#
# Youngs Moduli (GPa) = 135.46199 74.19208 64.23698
#
# Poissons Ratio (x) = 0.13189 0.27075
# Poissons Ratio (y) = 0.24081 0.24046
# Poissons Ratio (z) = 0.57094 0.27772
#
# Static dielectric constant tensor:
#      x y z
#    x 1.654790 -0.225490 -0.119050 
#    y -0.225490 1.700300 -0.129480 
#    z -0.119050 -0.129480 1.726860 
# 
# From -- ./inp_files/332719.got.cif
#   From: 2010.05.17/outbox.cif.g08.bks.cpg/sg2_167_cif.got.tgz:332719.got - 2010.06.03 11:33:40.
