data_PCOD9063988
_publ_section_title
;
Structure prediction by ZEFSAII (Michael W. Deem and Ramdas Pophale) SiO2 
 PCOD9063988
Probable space group: P -1
;
_chemical_formula_sum "Si O2"
_cell_formula_units_Z 14
_cell_length_a 14.135365
_cell_length_b 28.323483
_cell_length_c 11.773736
_cell_angle_alpha 157.024390
_cell_angle_beta 30.393392
_cell_angle_gamma 162.671306
_cell_volume 542.619481
_symmetry_space_group_name_H-M "P -1"
_symmetry_group_IT_number 2
_symmetry_cell_setting 'triclinic'
loop_
_space_group_symop_operation_xyz
x,y,z
-x,-y,-z
loop_
_atom_site_type_symbol
_atom_site_label
_atom_site_fract_x
_atom_site_fract_y
_atom_site_fract_z
Si Si1 0.451095 0.900926 0.214213
Si Si2 0.745112 0.047171 0.673978
Si Si3 0.113038 0.440470 0.815723
Si Si4 0.170295 0.463380 0.268060
Si Si5 0.280041 0.348660 0.262720
Si Si6 0.623080 0.724751 0.594609
Si Si7 0.709935 0.799084 0.280688
O O1 0.451256 0.978768 0.271492
O O2 0.075005 0.666338 0.107786
O O3 0.500000 0.000000 0.500000
O O4 0.629684 0.866817 0.943181
O O5 0.038947 0.139265 0.505226
O O6 0.911858 0.222308 0.981708
O O7 0.562687 0.841634 0.468554
O O8 0.058378 0.298322 0.471530
O O9 0.489948 0.628885 0.867163
O O10 0.000000 0.500000 0.000000
O O11 0.352802 0.570209 0.434619
O O12 0.448138 0.595372 0.177261
O O13 0.000000 0.500000 0.500000
O O14 0.513945 0.577702 0.481483
O O15 0.148058 0.215289 0.992913
O O16 0.000000 0.000000 0.500000
#
# Coordination Sequence:
#
# PCOD9063988 Si02
#       7
#     2   2   2   2   2   2   2
#     4  12  28  44  67 108 145 185 241 301 356 419
#     4  12  26  49  73 105 149 187 243 296 365 433
#     4  11  24  45  69 100 135 187 242 288 352 422
#     4  12  25  48  76 105 146 192 237 299 367 432
#     4  11  25  44  74 101 136 191 240 288 358 429
#     4  12  23  47  74 100 144 192 234 296 362 431
#     4  12  26  45  75 111 143 187 241 296 364 436
#
# _framework density 25.800768999999999
#
# number of rings (size 3 to 8) (size 9 to 14) (size 15 to 20)
#    0.000    0.286    7.143    1.286    4.000    1.143 
#    0.000    0.000    0.000    0.000    0.000    0.000 
#    0.000    0.000    0.000    0.000    0.000    0.000 
#
# Total GULP energy -78526.314543 kJ/mol
# GULP energy per Si atom -5609.022467 kJ/mol
# Density = 2.574205 g / cm^3
# Si number density = 25.800769 Si / 1000 Ang^3
#
#
#
# Elastic Constant Matrix: (Units=GPa)
#
#
# Indices 1 2 3 4 5 6 
#
# 1 125.1752 2.3575 28.8232 5.8319 -7.5640 8.3809
# 2 2.3575 43.1261 6.9730 -18.8756 1.6812 1.9873
# 3 28.8232 6.9730 180.2802 -9.9388 7.7771 12.6671
# 4 5.8319 -18.8756 -9.9388 47.0656 2.0969 -8.2421
# 5 -7.5640 1.6812 7.7771 2.0969 55.3683 -0.1780
# 6 8.3809 1.9873 12.6671 -8.2421 -0.1780 44.7789
#
#
#
# Elastic Compliance Matrix: (Units=1/GPa)
#
#
# Indices 1 2 3 4 5 6 
#
# 1 0.008632 -0.001185 -0.001409 -0.002182 0.001491 -0.001560
# 2 -0.001185 0.028451 -0.000285 0.011771 -0.001428 0.001201
# 3 -0.001409 -0.000285 0.005978 0.001159 -0.001071 -0.001206
# 4 -0.002182 0.011771 0.001159 0.027368 -0.001840 0.004588
# 5 0.001491 -0.001428 -0.001071 -0.001840 0.018527 -0.000178
# 6 -0.001560 0.001201 -0.001206 0.004588 -0.000178 0.023755
#
#
# Mechanical properties :
#
#
# Convention : Reuss Voigt Hill
#
# Bulk Modulus (GPa) = 26.80813 47.20990 37.00902
# Shear Modulus (GPa) = 38.19575 50.13773 44.16674
#
# Velocity S-wave (km/s) = 3.85179 4.41303 4.14193
# Velocity P-wave (km/s) = 5.49497 6.65613 6.10322
#
# Compressibility (1/GPa) = 0.03730211
#
# Stress axis : x y z
#
# Youngs Moduli (GPa) = 115.85055 35.14834 167.27778
#
# Poissons Ratio (x) = 0.04166 0.23573
# Poissons Ratio (y) = 0.13732 0.04764
# Poissons Ratio (z) = 0.16326 0.01001
#
# Static dielectric constant tensor:
#      x y z
#    x 2.017060 0.027980 0.016600 
#    y 0.027980 2.107350 0.065170 
#    z 0.016600 0.065170 2.027040 
# 
# From -- ./inp_files/306975.got.cif
#   From: 2010.05.17/outbox.cif.g08.bks.cpg/sg2_154_cif.got.tgz:306975.got - 2010.06.03 11:33:40.
