data_PCOD9063611
_publ_section_title
;
Structure prediction by ZEFSAII (Michael W. Deem and Ramdas Pophale) SiO2 
 PCOD9063611
Probable space group: P -1
;
_chemical_formula_sum "Si O2"
_cell_formula_units_Z 14
_cell_length_a 12.362367
_cell_length_b 18.401910
_cell_length_c 14.875991
_cell_angle_alpha 33.052393
_cell_angle_beta 19.190997
_cell_angle_gamma 32.405814
_cell_volume 579.944473
_symmetry_space_group_name_H-M "P -1"
_symmetry_group_IT_number 2
_symmetry_cell_setting 'triclinic'
loop_
_space_group_symop_operation_xyz
x,y,z
-x,-y,-z
loop_
_atom_site_type_symbol
_atom_site_label
_atom_site_fract_x
_atom_site_fract_y
_atom_site_fract_z
Si Si1 0.019522 0.397143 0.406112
Si Si2 0.107594 0.319322 0.873814
Si Si3 0.370632 0.759279 0.792605
Si Si4 0.274837 0.881042 0.458224
Si Si5 0.335988 0.066443 0.738269
Si Si6 0.113230 0.341273 0.043931
Si Si7 0.469336 0.249273 0.044093
O O1 0.362458 0.356964 0.238235
O O2 0.152018 0.323038 0.282646
O O3 0.859918 0.560051 0.344040
O O4 0.739516 0.337315 0.735123
O O5 0.349385 0.162039 0.835717
O O6 0.235581 0.355746 0.831857
O O7 0.736677 0.308911 0.142691
O O8 0.563882 0.872493 0.495545
O O9 0.023291 0.834385 0.043031
O O10 0.349126 0.927700 0.449492
O O11 0.157569 0.742440 0.682362
O O12 0.000000 0.000000 0.500000
O O13 0.351570 0.905135 0.898275
O O14 0.340892 0.253125 0.037228
O O15 0.000000 0.500000 0.000000
#
# Coordination Sequence:
#
# PCOD9063611 Si02
#       7
#     2   2   2   2   2   2   2
#     4  12  27  47  69 105 145 194 239 297 355 425
#     4  11  26  44  73 105 142 189 242 296 360 429
#     4  11  25  46  74 100 142 191 245 298 350 424
#     4  11  24  44  71 105 145 189 235 296 365 432
#     4  11  24  46  71 108 139 188 244 295 358 428
#     4  12  24  44  72 105 145 184 234 298 365 430
#     4  12  27  43  73 104 145 189 237 295 368 426
#
# _framework density 24.140243000000002
#
# number of rings (size 3 to 8) (size 9 to 14) (size 15 to 20)
#    0.000    0.571    4.286    3.000    2.000    6.286 
#    0.000    3.571    0.000    0.000    0.000    0.000 
#    0.000    0.000    0.000    0.000    0.000    0.000 
#
# Total GULP energy -78189.644941 kJ/mol
# GULP energy per Si atom -5584.974639 kJ/mol
# Density = 2.408530 g / cm^3
# Si number density = 24.140243 Si / 1000 Ang^3
#
#
#
# Elastic Constant Matrix: (Units=GPa)
#
#
# Indices 1 2 3 4 5 6 
#
# 1 89.9368 21.1881 -10.8651 1.5433 -6.7702 -20.3558
# 2 21.1881 117.9543 23.1619 -7.3349 6.3297 -23.0032
# 3 -10.8651 23.1619 83.8867 -19.5628 4.7558 1.3071
# 4 1.5433 -7.3349 -19.5628 38.7356 -2.4773 -8.4062
# 5 -6.7702 6.3297 4.7558 -2.4773 33.7503 -1.9483
# 6 -20.3558 -23.0032 1.3071 -8.4062 -1.9483 41.9611
#
#
#
# Elastic Compliance Matrix: (Units=1/GPa)
#
#
# Indices 1 2 3 4 5 6 
#
# 1 0.013376 -0.001762 0.002373 0.001828 0.003158 0.005962
# 2 -0.001762 0.010553 -0.002733 0.001740 -0.001514 0.005294
# 3 0.002373 -0.002733 0.014601 0.006846 -0.000535 0.000545
# 4 0.001828 0.001740 0.006846 0.031384 0.001841 0.008000
# 5 0.003158 -0.001514 -0.000535 0.001841 0.030903 0.002522
# 6 0.005962 0.005294 0.000545 0.008000 0.002522 0.031329
#
#
# Mechanical properties :
#
#
# Convention : Reuss Voigt Hill
#
# Bulk Modulus (GPa) = 29.16481 39.86083 34.51282
# Shear Modulus (GPa) = 33.82532 40.10891 36.96712
#
# Velocity S-wave (km/s) = 3.74732 4.08057 3.91749
# Velocity P-wave (km/s) = 5.55255 6.22490 5.89832
#
# Compressibility (1/GPa) = 0.03428790
#
# Stress axis : x y z
#
# Youngs Moduli (GPa) = 74.75807 94.76128 68.48771
#
# Poissons Ratio (x) = 0.16696 -0.16255
# Poissons Ratio (y) = 0.13172 0.18716
# Poissons Ratio (z) = -0.17743 0.25896
#
# Static dielectric constant tensor:
#      x y z
#    x 2.195940 0.056230 0.210210 
#    y 0.056230 1.901240 0.031240 
#    z 0.210210 0.031240 2.162290 
# 
# From -- ./inp_files/68122.got.cif
#   From: 2010.05.17/outbox.cif.g08.bks.cpg/sg2_35_cif.got.tgz:68122.got - 2010.06.03 11:33:40.
