data_PCOD9063080
_publ_section_title
;
Structure prediction by ZEFSAII (Michael W. Deem and Ramdas Pophale) SiO2 
 PCOD9063080
Probable space group: P -1
;
_chemical_formula_sum "Si O2"
_cell_formula_units_Z 16
_cell_length_a 19.828071
_cell_length_b 11.195701
_cell_length_c 14.877584
_cell_angle_alpha 29.691133
_cell_angle_beta 150.689381
_cell_angle_gamma 131.201343
_cell_volume 731.366300
_symmetry_space_group_name_H-M "P -1"
_symmetry_group_IT_number 2
_symmetry_cell_setting 'triclinic'
loop_
_space_group_symop_operation_xyz
x,y,z
-x,-y,-z
loop_
_atom_site_type_symbol
_atom_site_label
_atom_site_fract_x
_atom_site_fract_y
_atom_site_fract_z
Si Si1 0.337441 0.711031 0.705308
Si Si2 0.083526 0.146822 0.595912
Si Si3 0.605392 0.110504 0.153176
Si Si4 0.495359 0.310714 0.388904
Si Si5 0.074757 0.233623 0.321617
Si Si6 0.274449 0.080289 0.230007
Si Si7 0.051551 0.590864 0.410247
Si Si8 0.570143 0.193569 0.757600
O O1 0.337173 0.796641 0.750801
O O2 0.205318 0.618842 0.590065
O O3 0.304735 0.959044 0.442487
O O4 0.500000 0.500000 0.000000
O O5 0.040685 0.268555 0.366309
O O6 0.077533 0.376163 0.504422
O O7 0.983658 0.996824 0.615337
O O8 0.253239 0.927247 0.937159
O O9 0.746475 0.900073 0.401411
O O10 0.500269 0.971825 0.157608
O O11 0.522301 0.387881 0.823699
O O12 0.342913 0.301336 0.174690
O O13 0.536807 0.182344 0.619772
O O14 0.625828 0.132587 0.588366
O O15 0.000000 0.500000 0.000000
O O16 0.099681 0.160628 0.955002
O O17 0.000000 0.500000 0.500000
O O18 0.500000 0.500000 0.500000
#
# Coordination Sequence:
#
# PCOD9063080 Si02
#       8
#     2   2   2   2   2   2   2   2
#     4  12  24  45  71 104 141 186 232 288 354 423
#     4  11  26  47  69 101 143 179 233 293 346 416
#     4  12  25  45  72 100 136 184 236 282 351 419
#     4  11  24  43  72 102 141 184 227 289 352 419
#     4  11  26  47  72  97 136 190 234 288 355 410
#     4  11  24  43  70 104 141 184 235 279 354 422
#     4  12  26  44  70 107 147 182 232 293 351 422
#     4  12  26  45  71 102 136 178 236 293 345 413
#
# _framework density 21.876861000000002
#
# number of rings (size 3 to 8) (size 9 to 14) (size 15 to 20)
#    0.000    0.500    2.500    5.625    3.500    5.000 
#    2.250    0.000    0.000    0.000    0.000    0.000 
#    0.000    0.000    0.000    0.000    0.000    0.000 
#
# Total GULP energy -89505.610986 kJ/mol
# GULP energy per Si atom -5594.100687 kJ/mol
# Density = 2.182707 g / cm^3
# Si number density = 21.876861 Si / 1000 Ang^3
#
#
#
# Elastic Constant Matrix: (Units=GPa)
#
#
# Indices 1 2 3 4 5 6 
#
# 1 69.9662 9.9330 18.5514 -6.2949 -13.8426 14.9943
# 2 9.9330 84.0865 7.9641 5.0666 -1.0134 12.7818
# 3 18.5514 7.9641 94.6797 5.2611 -6.9945 20.0666
# 4 -6.2949 5.0666 5.2611 35.7925 3.8578 -2.0188
# 5 -13.8426 -1.0134 -6.9945 3.8578 35.3796 -1.4551
# 6 14.9943 12.7818 20.0666 -2.0188 -1.4551 43.5147
#
#
#
# Elastic Compliance Matrix: (Units=1/GPa)
#
#
# Indices 1 2 3 4 5 6 
#
# 1 0.017357 -0.001286 -0.002092 0.002666 0.005872 -0.004319
# 2 -0.001286 0.012692 0.000026 -0.002215 -0.000033 -0.003401
# 3 -0.002092 0.000026 0.012308 -0.002647 0.001697 -0.005029
# 4 0.002666 -0.002215 -0.002647 0.029524 -0.002671 0.002233
# 5 0.005872 -0.000033 0.001697 -0.002671 0.031111 -0.001880
# 6 -0.004319 -0.003401 -0.005029 0.002233 -0.001880 0.027827
#
#
# Mechanical properties :
#
#
# Convention : Reuss Voigt Hill
#
# Bulk Modulus (GPa) = 28.04776 35.73661 31.89219
# Shear Modulus (GPa) = 33.46560 37.08960 35.27760
#
# Velocity S-wave (km/s) = 3.91541 4.12197 4.02002
# Velocity P-wave (km/s) = 5.76968 6.24700 6.01308
#
# Compressibility (1/GPa) = 0.03565347
#
# Stress axis : x y z
#
# Youngs Moduli (GPa) = 57.61393 78.79008 81.24887
#
# Poissons Ratio (x) = 0.10129 0.16995
# Poissons Ratio (y) = 0.07407 -0.00209
# Poissons Ratio (z) = 0.12051 -0.00203
#
# Static dielectric constant tensor:
#      x y z
#    x 1.803410 -0.034610 -0.028640 
#    y -0.034610 1.904450 0.047970 
#    z -0.028640 0.047970 1.841180 
# 
# From -- ./inp_files/382268.got.cif
#   From: 2010.05.17/outbox.cif.g08.bks.cpg/sg2_192_cif.got.tgz:382268.got - 2010.06.03 11:33:40.
