data_PCOD9063622
_publ_section_title
;
Structure prediction by ZEFSAII (Michael W. Deem and Ramdas Pophale) SiO2 
 PCOD9063622
Probable space group: P -1
;
_chemical_formula_sum "Si O2"
_cell_formula_units_Z 16
_cell_length_a 11.893051
_cell_length_b 8.612939
_cell_length_c 9.685703
_cell_angle_alpha 82.300276
_cell_angle_beta 99.776220
_cell_angle_gamma 45.999187
_cell_volume 657.400760
_symmetry_space_group_name_H-M "P -1"
_symmetry_group_IT_number 2
_symmetry_cell_setting 'triclinic'
loop_
_space_group_symop_operation_xyz
x,y,z
-x,-y,-z
loop_
_atom_site_type_symbol
_atom_site_label
_atom_site_fract_x
_atom_site_fract_y
_atom_site_fract_z
Si Si1 0.592337 0.776426 0.957314
Si Si2 0.559812 0.752421 0.435440
Si Si3 0.305146 0.561697 0.762558
Si Si4 0.839638 0.103473 0.866062
Si Si5 0.062947 0.052280 0.390435
Si Si6 0.793371 0.791180 0.832841
Si Si7 0.138055 0.315859 0.434717
Si Si8 0.492859 0.355667 0.270556
O O1 0.597276 0.620832 0.073803
O O2 0.763360 0.684286 0.949024
O O3 0.502951 0.805683 0.798372
O O4 0.500000 0.000000 0.000000
O O5 0.644800 0.563510 0.357213
O O6 0.694230 0.752916 0.495875
O O7 0.524487 0.681016 0.570388
O O8 0.387914 0.988741 0.303833
O O9 0.114073 0.713349 0.737095
O O10 0.351401 0.694755 0.736624
O O11 0.671295 0.370966 0.836072
O O12 0.834445 0.918193 0.894292
O O13 0.849751 0.117881 0.699960
O O14 0.000000 0.000000 0.000000
O O15 0.154592 0.110601 0.464400
O O16 0.000000 0.000000 0.500000
O O17 0.902865 0.620588 0.745416
O O18 0.000000 0.500000 0.500000
#
# Coordination Sequence:
#
# PCOD9063622 Si02
#       8
#     2   2   2   2   2   2   2   2
#     4  12  25  45  69 108 148 188 242 298 363 435
#     4  12  23  45  76 107 144 182 251 302 363 419
#     4  12  25  45  73 109 148 190 247 299 357 446
#     4  11  25  49  69 100 145 193 241 292 367 433
#     4  11  26  45  70 106 146 188 242 302 364 429
#     4  11  25  46  73 107 145 193 246 300 361 433
#     4  11  24  44  71 106 147 186 240 301 365 430
#     4  12  26  45  78 106 141 194 247 303 365 427
#
# _framework density 24.338274999999999
#
# number of rings (size 3 to 8) (size 9 to 14) (size 15 to 20)
#    0.000    0.500    5.000    2.625    3.500    1.000 
#    4.500    1.875    0.000    0.000    0.000    0.000 
#    0.000    0.000    0.000    0.000    0.000    0.000 
#
# Total GULP energy -89500.045154 kJ/mol
# GULP energy per Si atom -5593.752822 kJ/mol
# Density = 2.428288 g / cm^3
# Si number density = 24.338275 Si / 1000 Ang^3
#
#
#
# Elastic Constant Matrix: (Units=GPa)
#
#
# Indices 1 2 3 4 5 6 
#
# 1 178.8767 16.3964 59.2355 5.1709 -4.6616 22.0868
# 2 16.3964 80.5829 36.7255 25.9518 3.5706 -8.3362
# 3 59.2355 36.7255 102.8356 17.2988 -9.1556 20.1995
# 4 5.1709 25.9518 17.2988 52.7818 1.7004 3.2894
# 5 -4.6616 3.5706 -9.1556 1.7004 54.1682 -1.4520
# 6 22.0868 -8.3362 20.1995 3.2894 -1.4520 36.6831
#
#
#
# Elastic Compliance Matrix: (Units=1/GPa)
#
#
# Indices 1 2 3 4 5 6 
#
# 1 0.007099 -0.000275 -0.003660 0.000791 -0.000079 -0.002395
# 2 -0.000275 0.019368 -0.007498 -0.007550 -0.002082 0.009291
# 3 -0.003660 -0.007498 0.016575 -0.000951 0.002785 -0.008431
# 4 0.000791 -0.007550 -0.000951 0.023140 -0.000422 -0.003760
# 5 -0.000079 -0.002082 0.002785 -0.000422 0.019044 -0.001167
# 6 -0.002395 0.009291 -0.008431 -0.003760 -0.001167 0.035748
#
#
# Mechanical properties :
#
#
# Convention : Reuss Voigt Hill
#
# Bulk Modulus (GPa) = 49.57113 65.22334 57.39724
# Shear Modulus (GPa) = 33.20809 45.38914 39.29861
#
# Velocity S-wave (km/s) = 3.69784 4.32317 4.02267
# Velocity P-wave (km/s) = 6.21641 7.19559 6.72385
#
# Compressibility (1/GPa) = 0.02017303
#
# Stress axis : x y z
#
# Youngs Moduli (GPa) = 140.87268 51.63176 60.33333
#
# Poissons Ratio (x) = 0.01422 0.22084
# Poissons Ratio (y) = 0.03879 0.45240
# Poissons Ratio (z) = 0.51563 0.38716
#
# Static dielectric constant tensor:
#      x y z
#    x 1.958170 -0.022350 0.044960 
#    y -0.022350 1.986200 -0.053700 
#    z 0.044960 -0.053700 1.994370 
# 
# From -- ./inp_files/244116.got.cif
#   From: 2010.05.17/outbox.cif.g08.bks.cpg/sg2_123_cif.got.tgz:244116.got - 2010.06.03 11:33:40.
