data_PCOD9063842
_publ_section_title
;
Structure prediction by ZEFSAII (Michael W. Deem and Ramdas Pophale) SiO2 
 PCOD9063842
Probable space group: P -1
;
_chemical_formula_sum "Si O2"
_cell_formula_units_Z 16
_cell_length_a 11.624731
_cell_length_b 8.901646
_cell_length_c 11.769845
_cell_angle_alpha 49.360729
_cell_angle_beta 128.852476
_cell_angle_gamma 103.939801
_cell_volume 690.156007
_symmetry_space_group_name_H-M "P -1"
_symmetry_group_IT_number 2
_symmetry_cell_setting 'triclinic'
loop_
_space_group_symop_operation_xyz
x,y,z
-x,-y,-z
loop_
_atom_site_type_symbol
_atom_site_label
_atom_site_fract_x
_atom_site_fract_y
_atom_site_fract_z
Si Si1 0.898414 0.420390 0.308985
Si Si2 0.646620 0.184672 0.563970
Si Si3 0.461663 0.332494 0.761320
Si Si4 0.187110 0.218402 0.740793
Si Si5 0.610796 0.292803 0.115592
Si Si6 0.255223 0.831795 0.129378
Si Si7 0.652327 0.926812 0.480332
Si Si8 0.917754 0.516071 0.820044
O O1 0.819322 0.602239 0.258499
O O2 0.781829 0.300238 0.249243
O O3 0.041989 0.280878 0.537158
O O4 0.963166 0.511843 0.195441
O O5 0.631777 0.426216 0.423510
O O6 0.750946 0.095639 0.780446
O O7 0.477295 0.163726 0.499164
O O8 0.701791 0.059881 0.545243
O O9 0.341441 0.203525 0.773108
O O10 0.566482 0.266397 0.748493
O O11 0.573743 0.303590 0.954207
O O12 0.189983 0.016294 0.911727
O O13 0.583880 0.092897 0.257937
O O14 0.500000 0.500000 0.000000
O O15 0.171610 0.655649 0.155314
O O16 0.793814 0.739729 0.621167
O O17 0.000000 0.500000 0.000000
#
# Coordination Sequence:
#
# PCOD9063842 Si02
#       8
#     2   2   2   2   2   2   2   2
#     4  11  27  47  70 103 147 189 238 297 369 428
#     4  11  24  44  75 105 146 184 242 293 359 425
#     4  12  23  46  74 110 141 184 248 298 353 424
#     4  11  26  46  73 105 143 189 240 303 355 429
#     4  12  24  46  76 103 138 192 244 298 356 434
#     4  12  27  45  76 106 141 194 242 297 357 431
#     4  11  26  44  72 107 145 188 236 298 360 421
#     4  12  29  48  70 104 154 188 238 297 363 435
#
# _framework density 23.183161999999999
#
# number of rings (size 3 to 8) (size 9 to 14) (size 15 to 20)
#    0.000    0.500    3.750    3.000    7.000    2.000 
#    0.000    0.000    0.000    0.000    0.000    0.000 
#    0.000    0.000    0.000    0.000    0.000    0.000 
#
# Total GULP energy -89745.539309 kJ/mol
# GULP energy per Si atom -5609.096207 kJ/mol
# Density = 2.313040 g / cm^3
# Si number density = 23.183162 Si / 1000 Ang^3
#
#
#
# Elastic Constant Matrix: (Units=GPa)
#
#
# Indices 1 2 3 4 5 6 
#
# 1 85.3477 18.4675 12.8126 4.7907 -19.2200 11.9068
# 2 18.4675 66.9875 29.4399 3.2356 -7.9777 0.1702
# 3 12.8126 29.4399 90.0500 -1.1061 -24.3542 8.5703
# 4 4.7907 3.2356 -1.1061 36.1568 6.7438 -11.5410
# 5 -19.2200 -7.9777 -24.3542 6.7438 35.5058 4.0113
# 6 11.9068 0.1702 8.5703 -11.5410 4.0113 22.3893
#
#
#
# Elastic Compliance Matrix: (Units=1/GPa)
#
#
# Indices 1 2 3 4 5 6 
#
# 1 0.020125 -0.005251 0.005978 -0.012857 0.018850 -0.022955
# 2 -0.005251 0.018951 -0.007471 0.002077 -0.004947 0.007466
# 3 0.005978 -0.007471 0.019384 -0.008900 0.018630 -0.018468
# 4 -0.012857 0.002077 -0.008900 0.045996 -0.025688 0.038540
# 5 0.018850 -0.004947 0.018630 -0.025688 0.059550 -0.041029
# 6 -0.022955 0.007466 -0.018468 0.038540 -0.041029 0.091101
#
#
# Mechanical properties :
#
#
# Convention : Reuss Voigt Hill
#
# Bulk Modulus (GPa) = 22.23685 40.42503 31.33094
# Shear Modulus (GPa) = 17.63140 30.92140 24.27640
#
# Velocity S-wave (km/s) = 2.76076 3.65607 3.23949
# Velocity P-wave (km/s) = 4.44691 5.94117 5.24750
#
# Compressibility (1/GPa) = 0.04497039
#
# Stress axis : x y z
#
# Youngs Moduli (GPa) = 49.69047 52.76786 51.58932
#
# Poissons Ratio (x) = 0.27709 -0.30841
# Poissons Ratio (y) = 0.26093 0.38545
# Poissons Ratio (z) = -0.29706 0.39425
#
# Static dielectric constant tensor:
#      x y z
#    x 1.826790 -0.011640 0.021060 
#    y -0.011640 1.844900 0.010620 
#    z 0.021060 0.010620 1.838520 
# 
# From -- ./inp_files/402961.got.cif
#   From: 2010.05.17/outbox.cif.g08.bks.cpg/sg2_202_cif.got.tgz:402961.got - 2010.06.03 11:33:40.
