data_PCOD9063017
_publ_section_title
;
Structure prediction by ZEFSAII (Michael W. Deem and Ramdas Pophale) SiO2 
 PCOD9063017
Probable space group: P -1
;
_chemical_formula_sum "Si O2"
_cell_formula_units_Z 16
_cell_length_a 12.612317
_cell_length_b 15.890566
_cell_length_c 19.499528
_cell_angle_alpha 153.129846
_cell_angle_beta 153.253423
_cell_angle_gamma 45.038400
_cell_volume 712.955775
_symmetry_space_group_name_H-M "P -1"
_symmetry_group_IT_number 2
_symmetry_cell_setting 'triclinic'
loop_
_space_group_symop_operation_xyz
x,y,z
-x,-y,-z
loop_
_atom_site_type_symbol
_atom_site_label
_atom_site_fract_x
_atom_site_fract_y
_atom_site_fract_z
Si Si1 0.029437 0.732610 0.686936
Si Si2 0.112854 0.895619 0.255851
Si Si3 0.765545 0.013761 0.465406
Si Si4 0.707004 0.939727 0.811740
Si Si5 0.542891 0.745717 0.389766
Si Si6 0.465714 0.468507 0.375693
Si Si7 0.703306 0.719905 0.086912
Si Si8 0.380589 0.787187 0.818000
O O1 0.119800 0.785328 0.699107
O O2 0.000000 0.500000 0.500000
O O3 0.760702 0.734664 0.558045
O O4 0.247936 0.911149 0.987865
O O5 0.131286 0.022006 0.428001
O O6 0.289667 0.773951 0.284074
O O7 0.272671 0.059625 0.408801
O O8 0.823755 0.719793 0.942694
O O9 0.480293 0.004735 0.304551
O O10 0.007149 0.229435 0.737686
O O11 0.736383 0.864654 0.276519
O O12 0.540340 0.698350 0.558109
O O13 0.000000 0.000000 0.000000
O O14 0.433516 0.510947 0.129427
O O15 0.500000 0.500000 0.500000
O O16 0.652536 0.390805 0.385158
O O17 0.548847 0.761407 0.962264
O O18 0.500000 0.000000 0.000000
#
# Coordination Sequence:
#
# PCOD9063017 Si02
#       8
#     2   2   2   2   2   2   2   2
#     4  12  23  44  72 101 141 184 232 290 348 418
#     4  11  25  45  73  98 143 188 228 297 346 422
#     4  11  24  43  69 102 139 180 232 286 350 418
#     4  12  25  41  69 105 141 180 231 288 346 424
#     4  11  24  45  69 103 140 184 238 280 360 409
#     4  12  27  47  69 103 138 184 239 294 357 415
#     4  11  24  44  71 101 137 183 234 291 345 427
#     4  12  24  44  71  99 136 185 233 289 357 408
#
# _framework density 22.441783999999998
#
# number of rings (size 3 to 8) (size 9 to 14) (size 15 to 20)
#    0.000    0.500    3.750    4.500    1.750    2.500 
#    0.000    0.000    0.000    0.000    0.000    0.000 
#    0.000    0.000    0.000    0.000    0.000    0.000 
#
# Total GULP energy -89137.645855 kJ/mol
# GULP energy per Si atom -5571.102866 kJ/mol
# Density = 2.239071 g / cm^3
# Si number density = 22.441784 Si / 1000 Ang^3
#
#
#
# Elastic Constant Matrix: (Units=GPa)
#
#
# Indices 1 2 3 4 5 6 
#
# 1 91.5952 17.0529 33.1493 -14.8766 -13.1060 0.4775
# 2 17.0529 66.1607 33.3564 3.7349 -9.9292 -7.8811
# 3 33.1493 33.3564 120.1940 6.9698 -5.5609 1.9077
# 4 -14.8766 3.7349 6.9698 44.2062 -2.1341 14.7623
# 5 -13.1060 -9.9292 -5.5609 -2.1341 52.9229 -6.3546
# 6 0.4775 -7.8811 1.9077 14.7623 -6.3546 33.8106
#
#
#
# Elastic Compliance Matrix: (Units=1/GPa)
#
#
# Indices 1 2 3 4 5 6 
#
# 1 0.014035 -0.002183 -0.003478 0.006542 0.002619 -0.002875
# 2 -0.002183 0.019554 -0.004557 -0.003904 0.003354 0.007181
# 3 -0.003478 -0.004557 0.010650 -0.002241 -0.000781 -0.000782
# 4 0.006542 -0.003904 -0.002241 0.030199 0.000186 -0.014027
# 5 0.002619 0.003354 -0.000781 0.000186 0.020650 0.004589
# 6 -0.002875 0.007181 -0.000782 -0.014027 0.004589 0.038322
#
#
# Mechanical properties :
#
#
# Convention : Reuss Voigt Hill
#
# Bulk Modulus (GPa) = 42.01000 49.45191 45.73096
# Shear Modulus (GPa) = 30.90629 39.14737 35.02683
#
# Velocity S-wave (km/s) = 3.71506 4.18113 3.95496
# Velocity P-wave (km/s) = 6.09610 6.73740 6.42476
#
# Compressibility (1/GPa) = 0.02380385
#
# Stress axis : x y z
#
# Youngs Moduli (GPa) = 71.25063 51.14023 93.89788
#
# Poissons Ratio (x) = 0.11164 0.32654
# Poissons Ratio (y) = 0.15554 0.42789
# Poissons Ratio (z) = 0.24778 0.23305
#
# Static dielectric constant tensor:
#      x y z
#    x 22.474330 13.362780 22.302310 
#    y 13.362780 10.612440 14.433990 
#    z 22.302310 14.433990 26.022890 
# 
# From -- ./inp_files/569982.got.cif
#   From: 2010.05.17/outbox.cif.g08.bks.cpg/sg2_285_cif.got.tgz:569982.got - 2010.06.03 11:33:40.
