data_PCOD9063217
_publ_section_title
;
Structure prediction by ZEFSAII (Michael W. Deem and Ramdas Pophale) SiO2 
 PCOD9063217
Probable space group: P -1
;
_chemical_formula_sum "Si O2"
_cell_formula_units_Z 16
_cell_length_a 9.374891
_cell_length_b 5.160415
_cell_length_c 29.062214
_cell_angle_alpha 91.103629
_cell_angle_beta 151.078810
_cell_angle_gamma 91.872437
_cell_volume 676.238435
_symmetry_space_group_name_H-M "P -1"
_symmetry_group_IT_number 2
_symmetry_cell_setting 'triclinic'
loop_
_space_group_symop_operation_xyz
x,y,z
-x,-y,-z
loop_
_atom_site_type_symbol
_atom_site_label
_atom_site_fract_x
_atom_site_fract_y
_atom_site_fract_z
Si Si1 0.587482 0.627319 0.976988
Si Si2 0.687626 0.920633 0.885760
Si Si3 0.215778 0.464501 0.157376
Si Si4 0.739229 0.834940 0.741729
Si Si5 0.293413 0.004295 0.486684
Si Si6 0.318261 0.098055 0.862608
Si Si7 0.624612 0.895950 0.291645
Si Si8 0.696366 0.489180 0.445031
O O1 0.497949 0.915499 0.945860
O O2 0.425502 0.405123 0.896649
O O3 0.500000 0.500000 0.000000
O O4 0.938216 0.628619 0.073645
O O5 0.725746 0.632632 0.877680
O O6 0.421174 0.984453 0.843255
O O7 0.590244 0.031269 0.809726
O O8 0.000000 0.000000 0.000000
O O9 0.116277 0.272912 0.171513
O O10 0.535568 0.588238 0.266352
O O11 0.480458 0.993145 0.689595
O O12 0.586627 0.601583 0.667133
O O13 0.980587 0.019454 0.781946
O O14 0.343432 0.249152 0.536580
O O15 0.955249 0.996718 0.374364
O O16 0.500000 0.000000 0.500000
O O17 0.299764 0.743698 0.517712
O O18 0.000000 0.500000 0.500000
#
# Coordination Sequence:
#
# PCOD9063217 Si02
#       8
#     2   2   2   2   2   2   2   2
#     4  12  24  43  67  97 144 185 238 295 359 416
#     4  11  25  45  66 103 146 192 238 292 364 437
#     4  11  24  43  72  98 148 195 238 302 363 437
#     4  11  26  44  73 108 140 188 252 303 368 431
#     4  12  29  51  79 114 157 197 248 317 394 449
#     4  12  27  42  69 103 139 187 245 295 355 436
#     4  11  26  46  74 103 149 191 247 300 372 442
#     4  12  26  51  81 110 152 196 254 315 378 457
#
# _framework density 23.660292999999999
#
# number of rings (size 3 to 8) (size 9 to 14) (size 15 to 20)
#    0.000    0.500    3.750    3.375    8.750    2.000 
#    0.000    0.000    0.000    0.000    0.000    0.000 
#    0.000    0.000    0.000    0.000    0.000    0.000 
#
# Total GULP energy -89367.638862 kJ/mol
# GULP energy per Si atom -5585.477429 kJ/mol
# Density = 2.360644 g / cm^3
# Si number density = 23.660293 Si / 1000 Ang^3
#
#
#
# Elastic Constant Matrix: (Units=GPa)
#
#
# Indices 1 2 3 4 5 6 
#
# 1 184.3217 27.8839 65.1554 18.6488 20.9749 -16.2630
# 2 27.8839 69.6288 26.2892 14.2182 -3.3433 -8.4887
# 3 65.1554 26.2892 132.4925 26.2075 17.1880 -15.5119
# 4 18.6488 14.2182 26.2075 31.3848 -3.8999 -9.1262
# 5 20.9749 -3.3433 17.1880 -3.8999 44.4267 -4.6765
# 6 -16.2630 -8.4887 -15.5119 -9.1262 -4.6765 39.8806
#
#
#
# Elastic Compliance Matrix: (Units=1/GPa)
#
#
# Indices 1 2 3 4 5 6 
#
# 1 0.007045 -0.001615 -0.002409 -0.001481 -0.002545 0.000955
# 2 -0.001615 0.016909 -0.001837 -0.004414 0.002517 0.001511
# 3 -0.002409 -0.001837 0.011133 -0.007268 -0.003858 0.000841
# 4 -0.001481 -0.004414 -0.007268 0.043665 0.007699 0.006525
# 5 -0.002545 0.002517 -0.003858 0.007699 0.026368 0.002851
# 6 0.000955 0.001511 0.000841 0.006525 0.002851 0.027940
#
#
# Mechanical properties :
#
#
# Convention : Reuss Voigt Hill
#
# Bulk Modulus (GPa) = 42.80041 69.45554 56.12797
# Shear Modulus (GPa) = 32.77138 40.94606 36.85872
#
# Velocity S-wave (km/s) = 3.72570 4.16454 3.95122
# Velocity P-wave (km/s) = 6.05282 7.24869 6.67758
#
# Compressibility (1/GPa) = 0.02336426
#
# Stress axis : x y z
#
# Youngs Moduli (GPa) = 141.94645 59.14083 89.82003
#
# Poissons Ratio (x) = 0.09551 0.21638
# Poissons Ratio (y) = 0.22924 0.16504
# Poissons Ratio (z) = 0.34195 0.10867
#
# Static dielectric constant tensor:
#      x y z
#    x 1.906350 0.033130 -0.037690 
#    y 0.033130 2.392180 0.096140 
#    z -0.037690 0.096140 1.947510 
# 
# From -- ./inp_files/90547.got.cif
#   From: 2010.05.17/outbox.cif.g08.bks.cpg/sg2_46_cif.got.tgz:90547.got - 2010.06.03 11:33:40.
