data_PCOD9063458
_publ_section_title
;
Structure prediction by ZEFSAII (Michael W. Deem and Ramdas Pophale) SiO2 
 PCOD9063458
Probable space group: P -1
;
_chemical_formula_sum "Si O2"
_cell_formula_units_Z 16
_cell_length_a 8.936843
_cell_length_b 7.628492
_cell_length_c 16.102762
_cell_angle_alpha 125.389376
_cell_angle_beta 121.309609
_cell_angle_gamma 49.006790
_cell_volume 657.850738
_symmetry_space_group_name_H-M "P -1"
_symmetry_group_IT_number 2
_symmetry_cell_setting 'triclinic'
loop_
_space_group_symop_operation_xyz
x,y,z
-x,-y,-z
loop_
_atom_site_type_symbol
_atom_site_label
_atom_site_fract_x
_atom_site_fract_y
_atom_site_fract_z
Si Si1 0.560181 0.133251 0.258778
Si Si2 0.423235 0.185879 0.402703
Si Si3 0.798160 0.967123 0.575390
Si Si4 0.555556 0.446901 0.890266
Si Si5 0.775867 0.774572 0.065869
Si Si6 0.206507 0.618709 0.215346
Si Si7 0.152966 0.736939 0.517994
Si Si8 0.220393 0.888783 0.989227
O O1 0.510485 0.034334 0.301284
O O2 0.345226 0.358099 0.228149
O O3 0.696321 0.237269 0.367613
O O4 0.667398 0.963960 0.163627
O O5 0.614298 0.115182 0.498186
O O6 0.288242 0.486483 0.435917
O O7 0.285046 0.110772 0.392598
O O8 0.869274 0.153647 0.680676
O O9 0.982247 0.727460 0.520460
O O10 0.669957 0.607676 0.984732
O O11 0.315730 0.640406 0.889189
O O12 0.640615 0.358799 0.799088
O O13 0.633530 0.229385 0.921168
O O14 0.013393 0.632061 0.119209
O O15 0.761233 0.919934 0.015343
O O16 0.000000 0.000000 0.500000
O O17 0.000000 0.000000 0.000000
#
# Coordination Sequence:
#
# PCOD9063458 Si02
#       8
#     2   2   2   2   2   2   2   2
#     4  12  25  42  67 102 137 180 235 281 346 420
#     4  11  25  43  67 102 137 180 224 288 352 419
#     4  11  24  44  69 100 141 174 230 289 347 416
#     4  11  26  46  73 102 139 188 236 285 353 423
#     4  12  26  47  69 103 143 191 236 287 352 421
#     4  12  24  44  70 101 136 182 235 287 343 416
#     4  12  22  43  71  96 135 184 226 278 353 421
#     4  11  24  44  72 100 135 181 234 293 350 404
#
# _framework density 24.321629000000001
#
# number of rings (size 3 to 8) (size 9 to 14) (size 15 to 20)
#    0.000    0.500    6.250    2.250    0.000    2.000 
#    2.250    0.000    0.000    0.000    0.000    0.000 
#    0.000    0.000    0.000    0.000    0.000    0.000 
#
# Total GULP energy -89430.943197 kJ/mol
# GULP energy per Si atom -5589.433950 kJ/mol
# Density = 2.426627 g / cm^3
# Si number density = 24.321629 Si / 1000 Ang^3
#
#
#
# Elastic Constant Matrix: (Units=GPa)
#
#
# Indices 1 2 3 4 5 6 
#
# 1 129.2195 38.8406 32.3635 -3.5983 -33.8845 -11.7176
# 2 38.8406 98.7913 37.8157 -5.2382 -1.5533 -8.6764
# 3 32.3635 37.8157 96.9417 10.7435 -21.8497 12.4984
# 4 -3.5983 -5.2382 10.7435 38.7570 -4.8307 -16.8542
# 5 -33.8845 -1.5533 -21.8497 -4.8307 54.8867 -1.4108
# 6 -11.7176 -8.6764 12.4984 -16.8542 -1.4108 49.3047
#
#
#
# Elastic Compliance Matrix: (Units=1/GPa)
#
#
# Indices 1 2 3 4 5 6 
#
# 1 0.011378 -0.002967 -0.002150 0.003916 0.006538 0.004253
# 2 -0.002967 0.014592 -0.006787 0.005469 -0.003501 0.005353
# 3 -0.002150 -0.006787 0.016782 -0.009156 0.004125 -0.008971
# 4 0.003916 0.005469 -0.009156 0.037160 0.002635 0.016992
# 5 0.006538 -0.003501 0.004125 0.002635 0.024069 0.001481
# 6 0.004253 0.005353 -0.008971 0.016992 0.001481 0.030360
#
#
# Mechanical properties :
#
#
# Convention : Reuss Voigt Hill
#
# Bulk Modulus (GPa) = 52.78539 60.33246 56.55892
# Shear Modulus (GPa) = 30.40209 42.98521 36.69365
#
# Velocity S-wave (km/s) = 3.53937 4.20857 3.88839
# Velocity P-wave (km/s) = 6.20105 6.96247 6.59276
#
# Compressibility (1/GPa) = 0.01894464
#
# Stress axis : x y z
#
# Youngs Moduli (GPa) = 87.88824 68.53204 59.58842
#
# Poissons Ratio (x) = 0.20330 0.12810
# Poissons Ratio (y) = 0.26073 0.40443
# Poissons Ratio (z) = 0.18894 0.46513
#
# Static dielectric constant tensor:
#      x y z
#    x 2.024160 0.029190 -0.048050 
#    y 0.029190 1.935870 0.018360 
#    z -0.048050 0.018360 1.940070 
# 
# From -- ./inp_files/493454.got.cif
#   From: 2010.05.17/outbox.cif.g08.bks.cpg/sg2_247_cif.got.tgz:493454.got - 2010.06.03 11:33:40.
