data_PCOD9063864
_publ_section_title
;
Structure prediction by ZEFSAII (Michael W. Deem and Ramdas Pophale) SiO2 
 PCOD9063864
Probable space group: P -1
;
_chemical_formula_sum "Si O2"
_cell_formula_units_Z 13
_cell_length_a 15.831838
_cell_length_b 9.036494
_cell_length_c 13.431117
_cell_angle_alpha 144.551250
_cell_angle_beta 152.423906
_cell_angle_gamma 42.130439
_cell_volume 514.531645
_symmetry_space_group_name_H-M "P -1"
_symmetry_group_IT_number 2
_symmetry_cell_setting 'triclinic'
loop_
_space_group_symop_operation_xyz
x,y,z
-x,-y,-z
loop_
_atom_site_type_symbol
_atom_site_label
_atom_site_fract_x
_atom_site_fract_y
_atom_site_fract_z
Si Si1 0.388079 0.979248 0.220934
Si Si2 0.986034 0.464861 0.733989
Si Si3 0.000000 0.500000 0.000000
Si Si4 0.713876 0.086692 0.504100
Si Si5 0.335355 0.196778 0.903916
Si Si6 0.977201 0.252546 0.272349
Si Si7 0.593986 0.608873 0.367097
O O1 0.513604 0.725302 0.244257
O O2 0.505966 0.128046 0.347392
O O3 0.362564 0.156298 0.388418
O O4 0.191793 0.891323 0.938315
O O5 0.980641 0.558847 0.892342
O O6 0.780282 0.426908 0.460183
O O7 0.139113 0.227729 0.768106
O O8 0.053143 0.654106 0.821717
O O9 0.815073 0.331236 0.709455
O O10 0.708615 0.884273 0.298046
O O11 0.843356 0.939585 0.640460
O O12 0.429189 0.462224 0.158851
O O13 0.500000 0.000000 0.000000
O O14 0.000000 0.500000 0.500000
#
# Coordination Sequence:
#
# PCOD9063864 Si02
#       7
#     2   2   1   2   2   2   2
#     4  11  25  44  80 117 150 193 252 327 382 447
#     4  12  26  51  76 111 158 197 258 314 382 456
#     4  12  30  48  74 112 158 212 244 306 390 470
#     4  12  27  49  77 114 154 203 257 318 387 454
#     4  12  28  48  76 110 155 207 251 314 384 466
#     4  12  25  47  83 118 149 197 260 327 381 445
#     4  11  24  44  75 112 149 197 249 316 380 445
#
# _framework density 25.265695000000001
#
# number of rings (size 3 to 8) (size 9 to 14) (size 15 to 20)
#    0.000    0.308    4.615    2.769    4.308    7.385 
#    0.000    5.385    0.000    0.000    0.000    0.000 
#    0.000    0.000    0.000    0.000    0.000    0.000 
#
# Total GULP energy -72486.587024 kJ/mol
# GULP energy per Si atom -5575.891310 kJ/mol
# Density = 2.520819 g / cm^3
# Si number density = 25.265695 Si / 1000 Ang^3
#
#
#
# Elastic Constant Matrix: (Units=GPa)
#
#
# Indices 1 2 3 4 5 6 
#
# 1 85.6468 29.0651 47.8187 2.3132 17.1430 5.9153
# 2 29.0651 93.2123 21.7572 -27.6530 10.3771 -6.3051
# 3 47.8187 21.7572 114.6493 -0.8577 36.7696 -7.6692
# 4 2.3132 -27.6530 -0.8577 43.5894 5.7652 12.9483
# 5 17.1430 10.3771 36.7696 5.7652 53.6905 -17.9451
# 6 5.9153 -6.3051 -7.6692 12.9483 -17.9451 22.3625
#
#
#
# Elastic Compliance Matrix: (Units=1/GPa)
#
#
# Indices 1 2 3 4 5 6 
#
# 1 0.018463 -0.004476 -0.006030 0.000516 -0.005194 -0.012680
# 2 -0.004476 0.016060 0.000157 0.012793 -0.005062 -0.005704
# 3 -0.006030 0.000157 0.013791 0.002286 -0.008348 -0.001654
# 4 0.000516 0.012793 0.002286 0.046210 -0.022801 -0.040799
# 5 -0.005194 -0.005062 -0.008348 -0.022801 0.044911 0.046325
# 6 -0.012680 -0.005704 -0.001654 -0.040799 0.046325 0.106693
#
#
# Mechanical properties :
#
#
# Convention : Reuss Voigt Hill
#
# Bulk Modulus (GPa) = 36.21023 54.53228 45.37125
# Shear Modulus (GPa) = 18.11382 36.91966 27.51674
#
# Velocity S-wave (km/s) = 2.68047 3.82679 3.30372
# Velocity P-wave (km/s) = 4.89313 6.41530 5.70521
#
# Compressibility (1/GPa) = 0.02761651
#
# Stress axis : x y z
#
# Youngs Moduli (GPa) = 54.16261 62.26506 72.50966
#
# Poissons Ratio (x) = 0.27871 0.43722
# Poissons Ratio (y) = 0.24244 -0.01137
# Poissons Ratio (z) = 0.32659 -0.00977
#
# Static dielectric constant tensor:
#      x y z
#    x 1.973270 -0.018150 0.034620 
#    y -0.018150 2.116720 -0.040700 
#    z 0.034620 -0.040700 1.971210 
# 
# From -- ./inp_files/374667.got.cif
#   From: 2010.05.17/outbox.cif.g08.bks.cpg/sg2_188_cif.got.tgz:374667.got - 2010.06.03 11:33:40.
