data_PCOD9063208
_publ_section_title
;
Structure prediction by ZEFSAII (Michael W. Deem and Ramdas Pophale) SiO2 
 PCOD9063208
Probable space group: P -1
;
_chemical_formula_sum "Si O2"
_cell_formula_units_Z 16
_cell_length_a 9.167618
_cell_length_b 5.657347
_cell_length_c 13.509589
_cell_angle_alpha 92.793022
_cell_angle_beta 68.780594
_cell_angle_gamma 81.836979
_cell_volume 642.727586
_symmetry_space_group_name_H-M "P -1"
_symmetry_group_IT_number 2
_symmetry_cell_setting 'triclinic'
loop_
_space_group_symop_operation_xyz
x,y,z
-x,-y,-z
loop_
_atom_site_type_symbol
_atom_site_label
_atom_site_fract_x
_atom_site_fract_y
_atom_site_fract_z
Si Si1 0.385460 0.231897 0.578580
Si Si2 0.407210 0.103467 0.199983
Si Si3 0.068929 0.738566 0.518186
Si Si4 0.989148 0.255559 0.868896
Si Si5 0.630990 0.349902 0.039501
Si Si6 0.370628 0.467229 0.396400
Si Si7 0.957741 0.765063 0.768685
Si Si8 0.318549 0.276426 0.810257
O O1 0.299942 0.332366 0.502162
O O2 0.471509 0.447522 0.602912
O O3 0.291906 0.198975 0.700626
O O4 0.500000 0.000000 0.500000
O O5 0.539639 0.137441 0.087463
O O6 0.390913 0.303374 0.293628
O O7 0.230958 0.139482 0.201159
O O8 0.501136 0.863359 0.220503
O O9 0.242079 0.702848 0.425088
O O10 0.000000 0.500000 0.500000
O O11 0.049057 0.746527 0.641292
O O12 0.000000 0.000000 0.500000
O O13 0.985671 0.502391 0.808951
O O14 0.147451 0.243816 0.898275
O O15 0.012877 0.984574 0.815941
O O16 0.806798 0.292021 0.951747
O O17 0.660068 0.474425 0.139854
O O18 0.500000 0.500000 0.000000
#
# Coordination Sequence:
#
# PCOD9063208 Si02
#       8
#     2   2   2   2   2   2   2   2
#     4  11  24  43  72 107 150 197 248 311 394 470
#     4  12  26  46  82 112 152 208 268 325 386 472
#     4  12  27  43  75 109 154 200 255 313 377 458
#     4  12  30  51  80 112 162 205 260 332 395 464
#     4  12  27  52  80 112 153 206 267 330 395 459
#     4  11  25  44  71 111 150 202 253 315 387 468
#     4  12  28  51  77 116 160 208 262 318 400 466
#     4  12  28  47  81 113 153 204 261 327 392 476
#
# _framework density 24.893908
#
# number of rings (size 3 to 8) (size 9 to 14) (size 15 to 20)
#    0.000    0.250    5.000    2.625    8.750    1.500 
#    0.000    0.000    0.000    0.000    0.000    0.000 
#    0.000    0.000    0.000    0.000    0.000    0.000 
#
# Total GULP energy -89178.687414 kJ/mol
# GULP energy per Si atom -5573.667963 kJ/mol
# Density = 2.483725 g / cm^3
# Si number density = 24.893908 Si / 1000 Ang^3
#
#
#
# Elastic Constant Matrix: (Units=GPa)
#
#
# Indices 1 2 3 4 5 6 
#
# 1 98.1386 9.3233 -8.8427 15.6785 -7.8997 9.1009
# 2 9.3233 91.6240 34.0258 14.3434 4.9793 -3.1837
# 3 -8.8427 34.0258 92.2942 12.2854 -6.1743 12.9981
# 4 15.6785 14.3434 12.2854 34.3013 1.6920 -4.3904
# 5 -7.8997 4.9793 -6.1743 1.6920 38.7824 12.5993
# 6 9.1009 -3.1837 12.9981 -4.3904 12.5993 45.0403
#
#
#
# Elastic Compliance Matrix: (Units=1/GPa)
#
#
# Indices 1 2 3 4 5 6 
#
# 1 0.013186 -0.002367 0.004526 -0.007814 0.006207 -0.006636
# 2 -0.002367 0.014111 -0.006102 -0.001851 -0.004595 0.004342
# 3 0.004526 -0.006102 0.016148 -0.006785 0.007412 -0.008741
# 4 -0.007814 -0.001851 -0.006785 0.037427 -0.006994 0.009011
# 5 0.006207 -0.004595 0.007412 -0.006994 0.033608 -0.013801
# 6 -0.006636 0.004342 -0.008741 0.009011 -0.013801 0.031111
#
#
# Mechanical properties :
#
#
# Convention : Reuss Voigt Hill
#
# Bulk Modulus (GPa) = 28.12228 39.00774 33.56501
# Shear Modulus (GPa) = 30.24248 40.12816 35.18532
#
# Velocity S-wave (km/s) = 3.48926 4.01929 3.76361
# Velocity P-wave (km/s) = 5.24925 6.10272 5.69200
#
# Compressibility (1/GPa) = 0.03555900
#
# Stress axis : x y z
#
# Youngs Moduli (GPa) = 75.84027 70.86523 61.92736
#
# Poissons Ratio (x) = 0.16775 -0.28027
# Poissons Ratio (y) = 0.17952 0.37786
# Poissons Ratio (z) = -0.34324 0.43239
#
# Static dielectric constant tensor:
#      x y z
#    x 0.490260 1.107070 0.279520 
#    y 1.107070 1.082950 -0.321410 
#    z 0.279520 -0.321410 2.075400 
# 
# From -- ./inp_files/488516.got.cif
#   From: 2010.05.17/outbox.cif.g08.bks.cpg/sg2_245_cif.got.tgz:488516.got - 2010.06.03 11:33:40.
