data_PCOD9063719
_publ_section_title
;
Structure prediction by ZEFSAII (Michael W. Deem and Ramdas Pophale) SiO2 
 PCOD9063719
Probable space group: P -1
;
_chemical_formula_sum "Si O2"
_cell_formula_units_Z 16
_cell_length_a 14.676877
_cell_length_b 9.348899
_cell_length_c 12.291671
_cell_angle_alpha 131.137628
_cell_angle_beta 71.266638
_cell_angle_gamma 69.142674
_cell_volume 729.025071
_symmetry_space_group_name_H-M "P -1"
_symmetry_group_IT_number 2
_symmetry_cell_setting 'triclinic'
loop_
_space_group_symop_operation_xyz
x,y,z
-x,-y,-z
loop_
_atom_site_type_symbol
_atom_site_label
_atom_site_fract_x
_atom_site_fract_y
_atom_site_fract_z
Si Si1 0.825593 0.244163 0.242082
Si Si2 0.785569 0.862917 0.027628
Si Si3 0.067698 0.298489 0.480664
Si Si4 0.904350 0.186248 0.436361
Si Si5 0.094474 0.532424 0.020715
Si Si6 0.655037 0.777596 0.404941
Si Si7 0.588844 0.160197 0.796293
Si Si8 0.602367 0.836848 0.987076
O O1 0.844506 0.275702 0.377740
O O2 0.698375 0.564667 0.380516
O O3 0.780762 0.092054 0.171870
O O4 0.000000 0.000000 0.000000
O O5 0.644933 0.988134 0.075399
O O6 0.952725 0.553804 0.748636
O O7 0.785010 0.734384 0.070461
O O8 0.000000 0.500000 0.500000
O O9 0.046417 0.109642 0.368908
O O10 0.247255 0.074268 0.319201
O O11 0.765452 0.477461 0.712297
O O12 0.968625 0.879272 0.287193
O O13 0.191908 0.473044 0.856484
O O14 0.000000 0.500000 0.000000
O O15 0.500000 0.000000 0.500000
O O16 0.637179 0.011303 0.584126
O O17 0.500000 0.500000 0.000000
O O18 0.482448 0.160912 0.890115
O O19 0.500000 0.000000 0.000000
#
# Coordination Sequence:
#
# PCOD9063719 Si02
#       8
#     2   2   2   2   2   2   2   2
#     4  12  22  46  76 106 136 184 241 288 351 421
#     4  11  25  43  76 102 138 186 234 293 348 426
#     4  11  24  44  73 103 138 185 240 282 346 420
#     4  11  25  42  78 102 137 189 236 295 349 423
#     4  12  24  45  70 107 140 178 241 292 357 413
#     4  12  28  46  71 105 146 182 236 297 350 416
#     4  12  28  45  70 103 144 184 231 289 355 413
#     4  11  26  48  67 101 146 184 235 286 353 421
#
# _framework density 21.947119000000001
#
# number of rings (size 3 to 8) (size 9 to 14) (size 15 to 20)
#    0.000    0.500    2.500    6.000    7.000    2.000 
#    0.000    1.875    0.000    0.000    0.000    0.000 
#    0.000    0.000    0.000    0.000    0.000    0.000 
#
# Total GULP energy -89511.871760 kJ/mol
# GULP energy per Si atom -5594.491985 kJ/mol
# Density = 2.189717 g / cm^3
# Si number density = 21.947119 Si / 1000 Ang^3
#
#
#
# Elastic Constant Matrix: (Units=GPa)
#
#
# Indices 1 2 3 4 5 6 
#
# 1 142.3471 16.8325 34.1740 11.2934 2.1513 -10.8282
# 2 16.8325 71.0086 11.3396 11.7189 1.6262 -6.5548
# 3 34.1740 11.3396 68.2392 5.4403 8.0160 5.1021
# 4 11.2934 11.7189 5.4403 38.2190 4.5746 -1.2460
# 5 2.1513 1.6262 8.0160 4.5746 42.0751 5.0919
# 6 -10.8282 -6.5548 5.1021 -1.2460 5.0919 41.6088
#
#
#
# Elastic Compliance Matrix: (Units=1/GPa)
#
#
# Indices 1 2 3 4 5 6 
#
# 1 0.008440 -0.000847 -0.004177 -0.001590 0.000268 0.002495
# 2 -0.000847 0.015502 -0.001996 -0.004142 -0.000009 0.002344
# 3 -0.004177 -0.001996 0.017667 -0.000460 -0.002631 -0.003260
# 4 -0.001590 -0.004142 -0.000460 0.028308 -0.002770 0.000177
# 5 0.000268 -0.000009 -0.002631 -0.002770 0.024887 -0.002738
# 6 0.002495 0.002344 -0.003260 0.000177 -0.002738 0.025792
#
#
# Mechanical properties :
#
#
# Convention : Reuss Voigt Hill
#
# Bulk Modulus (GPa) = 36.27200 45.14301 40.70750
# Shear Modulus (GPa) = 34.76410 38.99717 36.88064
#
# Velocity S-wave (km/s) = 3.98426 4.21987 4.10375
# Velocity P-wave (km/s) = 6.14236 6.66008 6.40645
#
# Compressibility (1/GPa) = 0.02756947
#
# Stress axis : x y z
#
# Youngs Moduli (GPa) = 118.48375 64.50632 56.60159
#
# Poissons Ratio (x) = 0.05464 0.23644
# Poissons Ratio (y) = 0.10036 0.11297
# Poissons Ratio (z) = 0.49493 0.12875
#
# Static dielectric constant tensor:
#      x y z
#    x 1.853470 -0.107500 0.044030 
#    y -0.107500 1.706000 -0.030560 
#    z 0.044030 -0.030560 1.861710 
# 
# From -- ./inp_files/448193.got.cif
#   From: 2010.05.17/outbox.cif.g08.bks.cpg/sg2_225_cif.got.tgz:448193.got - 2010.06.03 11:33:40.
