data_PCOD9063226
_publ_section_title
;
Structure prediction by ZEFSAII (Michael W. Deem and Ramdas Pophale) SiO2 
 PCOD9063226
Probable space group: P -1
;
_chemical_formula_sum "Si O2"
_cell_formula_units_Z 14
_cell_length_a 19.174136
_cell_length_b 6.478523
_cell_length_c 16.516493
_cell_angle_alpha 43.059011
_cell_angle_beta 25.254262
_cell_angle_gamma 49.108432
_cell_volume 597.491371
_symmetry_space_group_name_H-M "P -1"
_symmetry_group_IT_number 2
_symmetry_cell_setting 'triclinic'
loop_
_space_group_symop_operation_xyz
x,y,z
-x,-y,-z
loop_
_atom_site_type_symbol
_atom_site_label
_atom_site_fract_x
_atom_site_fract_y
_atom_site_fract_z
Si Si1 0.566228 0.342571 0.317464
Si Si2 0.790046 0.341899 0.930576
Si Si3 0.893711 0.302430 0.540823
Si Si4 0.247485 0.346067 0.831108
Si Si5 0.065141 0.327661 0.865981
Si Si6 0.288138 0.721539 0.415313
Si Si7 0.317948 0.417652 0.186724
O O1 0.610322 0.477383 0.320479
O O2 0.439756 0.547617 0.342696
O O3 0.500000 0.000000 0.500000
O O4 0.723426 0.364346 0.085692
O O5 0.698421 0.547792 0.902609
O O6 0.979687 0.429332 0.694120
O O7 0.751879 0.999114 0.043095
O O8 0.735571 0.289814 0.652667
O O9 0.818265 0.372380 0.687916
O O10 0.000000 0.000000 0.500000
O O11 0.213935 0.327793 0.775184
O O12 0.087065 0.512040 0.981331
O O13 0.131600 0.536085 0.665232
O O14 0.000000 0.000000 0.000000
O O15 0.284371 0.069424 0.345698
O O16 0.500000 0.500000 0.000000
#
# Coordination Sequence:
#
# PCOD9063226 Si02
#       7
#     2   2   2   2   2   2   2
#     4  12  28  47  74 111 153 204 256 315 388 457
#     4  12  26  45  74 105 148 197 253 312 381 462
#     4  12  27  46  76 109 149 198 259 309 382 455
#     4  11  24  43  73 100 145 192 253 307 388 441
#     4  11  24  45  72 106 140 193 252 321 375 456
#     4  12  26  45  72 103 154 190 252 314 382 451
#     4  12  28  46  72 110 151 199 251 313 391 457
#
# _framework density 23.431301000000001
#
# number of rings (size 3 to 8) (size 9 to 14) (size 15 to 20)
#    0.000    0.286    1.429    7.286    6.000    8.000 
#    0.000    0.000    0.000    0.000    0.000    0.000 
#    0.000    0.000    0.000    0.000    0.000    0.000 
#
# Total GULP energy -78299.068982 kJ/mol
# GULP energy per Si atom -5592.790642 kJ/mol
# Density = 2.337797 g / cm^3
# Si number density = 23.431301 Si / 1000 Ang^3
#
#
#
# Elastic Constant Matrix: (Units=GPa)
#
#
# Indices 1 2 3 4 5 6 
#
# 1 161.0332 26.1385 32.4253 -7.1347 -14.9535 3.1444
# 2 26.1385 114.8347 43.7744 -17.0288 4.8562 0.9969
# 3 32.4253 43.7744 100.2486 -10.3176 5.5482 22.6114
# 4 -7.1347 -17.0288 -10.3176 54.5577 6.4618 -2.9766
# 5 -14.9535 4.8562 5.5482 6.4618 45.2203 -1.7375
# 6 3.1444 0.9969 22.6114 -2.9766 -1.7375 42.5194
#
#
#
# Elastic Compliance Matrix: (Units=1/GPa)
#
#
# Indices 1 2 3 4 5 6 
#
# 1 0.007038 -0.000884 -0.002226 -0.000057 0.002734 0.000792
# 2 -0.000884 0.011179 -0.004812 0.002742 -0.001198 0.002505
# 3 -0.002226 -0.004812 0.014735 0.000868 -0.002443 -0.007597
# 4 -0.000057 0.002742 0.000868 0.019763 -0.003216 0.000730
# 5 0.002734 -0.001198 -0.002443 -0.003216 0.023978 0.001880
# 6 0.000792 0.002505 -0.007597 0.000730 0.001880 0.027569
#
#
# Mechanical properties :
#
#
# Convention : Reuss Voigt Hill
#
# Bulk Modulus (GPa) = 58.45608 64.53257 61.49432
# Shear Modulus (GPa) = 39.74293 46.71137 43.22715
#
# Velocity S-wave (km/s) = 4.12290 4.46976 4.29983
# Velocity P-wave (km/s) = 6.90409 7.36473 7.13813
#
# Compressibility (1/GPa) = 0.01710686
#
# Stress axis : x y z
#
# Youngs Moduli (GPa) = 142.09567 89.45059 67.86772
#
# Poissons Ratio (x) = 0.07911 0.15107
# Poissons Ratio (y) = 0.12566 0.32658
# Poissons Ratio (z) = 0.31629 0.43044
#
# Static dielectric constant tensor:
#      x y z
#    x 1.899790 0.007810 -0.029350 
#    y 0.007810 1.858790 0.024820 
#    z -0.029350 0.024820 1.845660 
# 
# From -- ./inp_files/107055.got.cif
#   From: 2010.05.17/outbox.cif.g08.bks.cpg/sg2_54_cif.got.tgz:107055.got - 2010.06.03 11:33:40.
