data_PCOD9063791
_publ_section_title
;
Structure prediction by ZEFSAII (Michael W. Deem and Ramdas Pophale) SiO2 
 PCOD9063791
Probable space group: P -1
;
_chemical_formula_sum "Si O2"
_cell_formula_units_Z 16
_cell_length_a 18.110200
_cell_length_b 24.918190
_cell_length_c 5.846020
_cell_angle_alpha 129.210272
_cell_angle_beta 132.265463
_cell_angle_gamma 18.935094
_cell_volume 633.436912
_symmetry_space_group_name_H-M "P -1"
_symmetry_group_IT_number 2
_symmetry_cell_setting 'triclinic'
loop_
_space_group_symop_operation_xyz
x,y,z
-x,-y,-z
loop_
_atom_site_type_symbol
_atom_site_label
_atom_site_fract_x
_atom_site_fract_y
_atom_site_fract_z
Si Si1 0.736246 0.773563 0.025332
Si Si2 0.553991 0.540041 0.330993
Si Si3 0.730169 0.647179 0.382115
Si Si4 0.856852 0.444156 0.404504
Si Si5 0.746519 0.880361 0.923200
Si Si6 0.858963 0.144794 0.352212
Si Si7 0.753738 0.064241 0.052805
Si Si8 0.023278 0.808670 0.581143
O O1 0.753135 0.817740 0.969671
O O2 0.990339 0.608351 0.234139
O O3 0.655980 0.751315 0.693617
O O4 0.532510 0.930267 0.194121
O O5 0.641574 0.540101 0.331219
O O6 0.338133 0.703303 0.470449
O O7 0.790100 0.371784 0.510401
O O8 0.500000 0.500000 0.000000
O O9 0.755333 0.555922 0.296108
O O10 0.527753 0.773516 0.105230
O O11 0.000000 0.500000 0.500000
O O12 0.058287 0.265237 0.246313
O O13 0.831696 0.899982 0.253698
O O14 0.850563 0.201968 0.277159
O O15 0.801892 0.100073 0.081505
O O16 0.116845 0.992617 0.600278
O O17 0.895220 0.910084 0.823659
#
# Coordination Sequence:
#
# PCOD9063791 Si02
#       8
#     2   2   2   2   2   2   2   2
#     4  11  24  49  69 105 143 188 241 294 358 430
#     4  12  26  46  72 109 144 184 242 296 364 425
#     4  12  27  48  74 105 145 192 239 295 358 426
#     4  12  27  45  72 105 146 190 238 299 358 425
#     4  11  24  44  74 104 139 189 234 299 356 420
#     4  11  27  48  76 102 144 194 234 303 357 422
#     4  11  27  49  70 106 143 185 248 290 358 436
#     4  12  24  47  74 104 142 184 243 296 360 424
#
# _framework density 25.259027
#
# number of rings (size 3 to 8) (size 9 to 14) (size 15 to 20)
#    0.000    0.500    5.000    2.250    5.250    3.000 
#    0.000    0.000    0.000    0.000    0.000    0.000 
#    0.000    0.000    0.000    0.000    0.000    0.000 
#
# Total GULP energy -89608.778820 kJ/mol
# GULP energy per Si atom -5600.548676 kJ/mol
# Density = 2.520154 g / cm^3
# Si number density = 25.259027 Si / 1000 Ang^3
#
#
#
# Elastic Constant Matrix: (Units=GPa)
#
#
# Indices 1 2 3 4 5 6 
#
# 1 73.8424 28.3022 -20.1137 7.9077 8.1430 3.4860
# 2 28.3022 160.0836 35.2831 -7.0325 -1.1059 -16.1160
# 3 -20.1137 35.2831 70.5945 1.2601 18.2722 -14.9960
# 4 7.9077 -7.0325 1.2601 53.6214 2.1849 0.6285
# 5 8.1430 -1.1059 18.2722 2.1849 25.4642 3.9045
# 6 3.4860 -16.1160 -14.9960 0.6285 3.9045 28.2238
#
#
#
# Elastic Compliance Matrix: (Units=1/GPa)
#
#
# Indices 1 2 3 4 5 6 
#
# 1 0.023597 -0.007764 0.016914 -0.004119 -0.020364 0.004548
# 2 -0.007764 0.009933 -0.009700 0.002281 0.009665 0.000089
# 3 0.016914 -0.009700 0.036173 -0.003423 -0.034003 0.016372
# 4 -0.004119 0.002281 -0.003423 0.019551 0.002312 -0.000763
# 5 -0.020364 0.009665 -0.034003 0.002312 0.073509 -0.020253
# 6 0.004548 0.000089 0.016372 -0.000763 -0.020253 0.046438
#
#
# Mechanical properties :
#
#
# Convention : Reuss Voigt Hill
#
# Bulk Modulus (GPa) = 14.57641 43.49597 29.03619
# Shear Modulus (GPa) = 21.44378 38.86515 30.15446
#
# Velocity S-wave (km/s) = 2.91684 3.92684 3.45890
# Velocity P-wave (km/s) = 4.13851 6.14959 5.24141
#
# Compressibility (1/GPa) = 0.06860400
#
# Stress axis : x y z
#
# Youngs Moduli (GPa) = 42.37784 100.67270 27.64522
#
# Poissons Ratio (x) = 0.78158 -0.46760
# Poissons Ratio (y) = 0.32901 0.26816
# Poissons Ratio (z) = -0.71678 0.97653
#
# Static dielectric constant tensor:
#      x y z
#    x 1.979390 0.013070 -0.029700 
#    y 0.013070 2.046610 -0.040080 
#    z -0.029700 -0.040080 1.998230 
# 
# From -- ./inp_files/113285.got.cif
#   From: 2010.05.17/outbox.cif.g08.bks.cpg/sg2_57_cif.got.tgz:113285.got - 2010.06.03 11:33:40.
