data_PCOD9063686
_publ_section_title
;
Structure prediction by ZEFSAII (Michael W. Deem and Ramdas Pophale) SiO2 
 PCOD9063686
Probable space group: P -1
;
_chemical_formula_sum "Si O2"
_cell_formula_units_Z 14
_cell_length_a 11.546067
_cell_length_b 12.112435
_cell_length_c 6.137164
_cell_angle_alpha 69.165291
_cell_angle_beta 86.004570
_cell_angle_gamma 124.481004
_cell_volume 618.965291
_symmetry_space_group_name_H-M "P -1"
_symmetry_group_IT_number 2
_symmetry_cell_setting 'triclinic'
loop_
_space_group_symop_operation_xyz
x,y,z
-x,-y,-z
loop_
_atom_site_type_symbol
_atom_site_label
_atom_site_fract_x
_atom_site_fract_y
_atom_site_fract_z
Si Si1 0.548851 0.489620 0.252993
Si Si2 0.917163 0.071547 0.471154
Si Si3 0.398976 0.897860 0.834059
Si Si4 0.871511 0.647868 0.056961
Si Si5 0.150250 0.623958 0.763474
Si Si6 0.576769 0.851454 0.565421
Si Si7 0.141266 0.788643 0.260987
O O1 0.500000 0.500000 0.500000
O O2 0.727692 0.634944 0.132652
O O3 0.487246 0.315483 0.373521
O O4 0.500000 0.500000 0.000000
O O5 0.867484 0.093483 0.692736
O O6 0.757375 0.961320 0.448618
O O7 0.000000 0.000000 0.500000
O O8 0.036666 0.241796 0.236373
O O9 0.262545 0.780228 0.767733
O O10 0.512136 0.861792 0.798497
O O11 0.469822 0.068831 0.638877
O O12 0.303242 0.861332 0.087845
O O13 0.787755 0.467902 0.182817
O O14 0.002691 0.711084 0.169145
O O15 0.113205 0.662379 0.517019
O O16 0.000000 0.500000 0.000000
#
# Coordination Sequence:
#
# PCOD9063686 Si02
#       7
#     2   2   2   2   2   2   2
#     4  12  31  53  79 112 158 214 265 323 390 474
#     4  12  27  47  72 105 151 202 263 318 376 474
#     4  11  24  44  72 107 149 193 251 333 390 463
#     4  12  26  46  74 107 150 196 258 322 393 464
#     4  12  21  43  68 108 150 183 244 322 392 463
#     4  11  24  51  72 108 155 195 259 323 397 457
#     4  12  24  42  76 110 144 202 259 314 405 462
#
# _framework density 22.618393000000001
#
# number of rings (size 3 to 8) (size 9 to 14) (size 15 to 20)
#    0.000    0.286    7.143    1.286    4.000    4.571 
#    0.000    0.000    0.000    0.000    0.000    0.000 
#    0.000    0.000    0.000    0.000    0.000    0.000 
#
# Total GULP energy -77974.796958 kJ/mol
# GULP energy per Si atom -5569.628354 kJ/mol
# Density = 2.256691 g / cm^3
# Si number density = 22.618393 Si / 1000 Ang^3
#
#
#
# Elastic Constant Matrix: (Units=GPa)
#
#
# Indices 1 2 3 4 5 6 
#
# 1 126.0982 41.3887 57.7087 4.9469 -31.3578 -7.2704
# 2 41.3887 128.0475 45.5464 -4.0152 3.5545 -28.3655
# 3 57.7087 45.5464 129.3389 4.6046 -22.0191 -13.9472
# 4 4.9469 -4.0152 4.6046 32.5560 -3.4930 -0.2702
# 5 -31.3578 3.5545 -22.0191 -3.4930 45.9809 -6.1050
# 6 -7.2704 -28.3655 -13.9472 -0.2702 -6.1050 38.1909
#
#
#
# Elastic Compliance Matrix: (Units=1/GPa)
#
#
# Indices 1 2 3 4 5 6 
#
# 1 0.012116 -0.003026 -0.003123 -0.001029 0.006926 0.000018
# 2 -0.003026 0.011244 -0.002529 0.001919 -0.003153 0.006361
# 3 -0.003123 -0.002529 0.010860 -0.000985 0.003462 0.002040
# 4 -0.001029 0.001919 -0.000985 0.031392 0.001234 0.001289
# 5 0.006926 -0.003153 0.003462 0.001234 0.029118 0.004904
# 6 0.000018 0.006361 0.002040 0.001289 0.004904 0.032451
#
#
# Mechanical properties :
#
#
# Convention : Reuss Voigt Hill
#
# Bulk Modulus (GPa) = 59.29276 74.75248 67.02262
# Shear Modulus (GPa) = 33.29840 39.26827 36.28333
#
# Velocity S-wave (km/s) = 3.84107 4.17120 4.00953
# Velocity P-wave (km/s) = 6.77813 7.50465 7.15062
#
# Compressibility (1/GPa) = 0.01686547
#
# Stress axis : x y z
#
# Youngs Moduli (GPa) = 82.53231 88.93650 92.08201
#
# Poissons Ratio (x) = 0.26913 0.28755
# Poissons Ratio (y) = 0.24975 0.23284
# Poissons Ratio (z) = 0.25773 0.22488
#
# Static dielectric constant tensor:
#      x y z
#    x 1.843470 0.050810 -0.088640 
#    y 0.050810 1.799500 0.123480 
#    z -0.088640 0.123480 1.879250 
# 
# From -- ./inp_files/69138.got.cif
#   From: 2010.05.17/outbox.cif.g08.bks.cpg/sg2_35_cif.got.tgz:69138.got - 2010.06.03 11:33:40.
