data_PCOD9063140
_publ_section_title
;
Structure prediction by ZEFSAII (Michael W. Deem and Ramdas Pophale) SiO2 
 PCOD9063140
Probable space group: P -1
;
_chemical_formula_sum "Si O2"
_cell_formula_units_Z 10
_cell_length_a 8.206991
_cell_length_b 12.366542
_cell_length_c 9.110692
_cell_angle_alpha 32.394430
_cell_angle_beta 71.764860
_cell_angle_gamma 82.199032
_cell_volume 455.257941
_symmetry_space_group_name_H-M "P -1"
_symmetry_group_IT_number 2
_symmetry_cell_setting 'triclinic'
loop_
_space_group_symop_operation_xyz
x,y,z
-x,-y,-z
loop_
_atom_site_type_symbol
_atom_site_label
_atom_site_fract_x
_atom_site_fract_y
_atom_site_fract_z
Si Si1 0.576135 0.806675 0.738748
Si Si2 0.846195 0.574914 0.377055
Si Si3 0.864427 0.934730 0.746050
Si Si4 0.350617 0.805099 0.332053
Si Si5 0.377782 0.352818 0.377594
O O1 0.679741 0.835515 0.828164
O O2 0.693840 0.776531 0.599464
O O3 0.500000 0.000000 0.500000
O O4 0.424916 0.593774 0.041051
O O5 0.716362 0.377491 0.558787
O O6 0.744657 0.671982 0.418480
O O7 0.000000 0.500000 0.500000
O O8 0.915331 0.757151 0.031513
O O9 0.815380 0.113983 0.653555
O O10 0.000000 0.000000 0.500000
O O11 0.445404 0.711865 0.544777
O O12 0.500000 0.000000 0.000000
#
# Coordination Sequence:
#
# PCOD9063140 Si02
#       5
#     2   2   2   2   2
#     4  11  24  43  71 105 137 181 235 294 353 420
#     4  12  29  46  70 105 148 189 239 294 356 422
#     4  12  28  45  71 107 148 182 233 300 364 415
#     4  12  24  47  77 100 136 191 244 290 344 425
#     4  11  24  44  73 101 136 186 244 287 345 431
#
# _framework density 21.96557
#
# number of rings (size 3 to 8) (size 9 to 14) (size 15 to 20)
#    0.000    0.400    6.000    1.800    5.600    1.600 
#    0.000    0.000    0.000    0.000    0.000    0.000 
#    0.000    0.000    0.000    0.000    0.000    0.000 
#
# Total GULP energy -55948.118275 kJ/mol
# GULP energy per Si atom -5594.811828 kJ/mol
# Density = 2.191558 g / cm^3
# Si number density = 21.965570 Si / 1000 Ang^3
#
#
#
# Elastic Constant Matrix: (Units=GPa)
#
#
# Indices 1 2 3 4 5 6 
#
# 1 57.0886 -4.2821 25.5786 3.0703 35.7865 -7.2258
# 2 -4.2821 108.1552 29.3419 15.1625 1.2342 -8.5202
# 3 25.5786 29.3419 157.8354 14.3434 31.3806 -20.4713
# 4 3.0703 15.1625 14.3434 34.2160 -4.9362 1.3887
# 5 35.7865 1.2342 31.3806 -4.9362 42.3349 7.9734
# 6 -7.2258 -8.5202 -20.4713 1.3887 7.9734 40.4999
#
#
#
# Elastic Compliance Matrix: (Units=1/GPa)
#
#
# Indices 1 2 3 4 5 6 
#
# 1 0.060193 0.006435 0.007828 -0.022118 -0.065028 0.029611
# 2 0.006435 0.010996 -0.000461 -0.006476 -0.007086 0.004845
# 3 0.007828 -0.000461 0.010679 -0.007906 -0.017399 0.010394
# 4 -0.022118 -0.006476 -0.007906 0.042856 0.032995 -0.017270
# 5 -0.065028 -0.007086 -0.017399 0.032995 0.103723 -0.043439
# 6 0.029611 0.004845 0.010394 -0.017270 -0.043439 0.045392
#
#
# Mechanical properties :
#
#
# Convention : Reuss Voigt Hill
#
# Bulk Modulus (GPa) = 9.13482 47.15065 28.14273
# Shear Modulus (GPa) = 17.68504 41.57287 29.62896
#
# Velocity S-wave (km/s) = 2.84055 4.35517 3.67670
# Velocity P-wave (km/s) = 3.86342 6.84122 5.55555
#
# Compressibility (1/GPa) = 0.10947120
#
# Stress axis : x y z
#
# Youngs Moduli (GPa) = 16.61330 90.93944 93.64494
#
# Poissons Ratio (x) = -0.58518 -0.73308
# Poissons Ratio (y) = -0.10690 0.04320
# Poissons Ratio (z) = -0.13005 0.04196
#
# Static dielectric constant tensor:
#      x y z
#    x 1.832540 0.006890 -0.020290 
#    y 0.006890 1.853320 0.012140 
#    z -0.020290 0.012140 1.784660 
# 
# From -- ./inp_files/15269.got.cif
#   From: 2010.05.17/outbox.cif.g08.bks.cpg/sg2_8_cif.got.tgz:15269.got - 2010.06.03 11:33:40.
