data_PCOD9063061
_publ_section_title
;
Structure prediction by ZEFSAII (Michael W. Deem and Ramdas Pophale) SiO2 
 PCOD9063061
Probable space group: P -1
;
_chemical_formula_sum "Si O2"
_cell_formula_units_Z 16
_cell_length_a 14.464241
_cell_length_b 8.028635
_cell_length_c 9.733802
_cell_angle_alpha 109.678318
_cell_angle_beta 97.332154
_cell_angle_gamma 42.362785
_cell_volume 703.979314
_symmetry_space_group_name_H-M "P -1"
_symmetry_group_IT_number 2
_symmetry_cell_setting 'triclinic'
loop_
_space_group_symop_operation_xyz
x,y,z
-x,-y,-z
loop_
_atom_site_type_symbol
_atom_site_label
_atom_site_fract_x
_atom_site_fract_y
_atom_site_fract_z
Si Si1 0.705479 0.576581 0.990991
Si Si2 0.188961 0.958171 0.210517
Si Si3 0.698860 0.882816 0.576756
Si Si4 0.401111 0.791194 0.622463
Si Si5 0.004829 0.683306 0.979198
Si Si6 0.951171 0.290212 0.480444
Si Si7 0.441537 0.117490 0.215888
Si Si8 0.881003 0.010817 0.309101
O O1 0.835664 0.486716 0.064777
O O2 0.678352 0.706335 0.873431
O O3 0.743160 0.319832 0.902567
O O4 0.562714 0.810306 0.110531
O O5 0.298755 0.948176 0.278788
O O6 0.088865 0.069525 0.353533
O O7 0.090424 0.174124 0.132778
O O8 0.856608 0.589506 0.507498
O O9 0.618391 0.848497 0.638385
O O10 0.640453 0.020693 0.457963
O O11 0.500000 0.500000 0.500000
O O12 0.485995 0.792436 0.744553
O O13 0.261023 0.899415 0.683586
O O14 0.943158 0.910137 0.140922
O O15 0.000000 0.500000 0.000000
O O16 0.862363 0.237855 0.420242
O O17 0.004355 0.227510 0.628931
#
# Coordination Sequence:
#
# PCOD9063061 Si02
#       8
#     2   2   2   2   2   2   2   2
#     4  11  25  47  68  97 139 180 229 277 341 405
#     4  12  25  43  73 101 139 176 223 291 342 404
#     4  12  26  43  69 101 137 178 232 280 342 401
#     4  12  26  44  67  99 138 184 230 278 333 409
#     4  12  25  42  71 103 137 175 226 282 346 404
#     4  11  24  43  72 102 138 174 223 293 347 394
#     4  11  26  45  69  95 139 187 226 278 331 410
#     4  11  24  43  70 101 135 179 223 283 345 399
#
# _framework density 22.727938999999999
#
# number of rings (size 3 to 8) (size 9 to 14) (size 15 to 20)
#    0.000    0.500    2.500    5.625    5.250    2.500 
#    0.000    0.000    0.000    0.000    0.000    0.000 
#    0.000    0.000    0.000    0.000    0.000    0.000 
#
# Total GULP energy -89648.830546 kJ/mol
# GULP energy per Si atom -5603.051909 kJ/mol
# Density = 2.267621 g / cm^3
# Si number density = 22.727939 Si / 1000 Ang^3
#
#
#
# Elastic Constant Matrix: (Units=GPa)
#
#
# Indices 1 2 3 4 5 6 
#
# 1 79.7530 -7.0567 -11.2100 11.3264 8.8792 -8.3865
# 2 -7.0567 72.7608 0.6047 18.8560 -3.0942 7.3550
# 3 -11.2100 0.6047 47.6613 -2.4597 -0.0741 -8.8446
# 4 11.3264 18.8560 -2.4597 42.2488 5.8564 6.9604
# 5 8.8792 -3.0942 -0.0741 5.8564 34.7981 2.9275
# 6 -8.3865 7.3550 -8.8446 6.9604 2.9275 25.1431
#
#
#
# Elastic Compliance Matrix: (Units=1/GPa)
#
#
# Indices 1 2 3 4 5 6 
#
# 1 0.015442 0.001922 0.004844 -0.005588 -0.003512 0.008248
# 2 0.001922 0.016302 -0.000612 -0.007761 0.002473 -0.002483
# 3 0.004844 -0.000612 0.024072 -0.001133 -0.001958 0.010804
# 4 -0.005588 -0.007761 -0.001133 0.030393 -0.003711 -0.007974
# 5 -0.003512 0.002473 -0.001958 -0.003711 0.030907 -0.005155
# 6 0.008248 -0.002483 0.010804 -0.007974 -0.005155 0.049858
#
#
# Mechanical properties :
#
#
# Convention : Reuss Voigt Hill
#
# Bulk Modulus (GPa) = 14.67890 18.31679 16.49785
# Shear Modulus (GPa) = 28.18906 34.96047 31.57477
#
# Velocity S-wave (km/s) = 3.52558 3.92626 3.73131
# Velocity P-wave (km/s) = 4.80058 5.35077 5.08312
#
# Compressibility (1/GPa) = 0.06812499
#
# Stress axis : x y z
#
# Youngs Moduli (GPa) = 64.75999 61.34042 41.54205
#
# Poissons Ratio (x) = -0.11791 -0.20124
# Poissons Ratio (y) = -0.12448 0.02543
# Poissons Ratio (z) = -0.31372 0.03755
#
# Static dielectric constant tensor:
#      x y z
#    x 1.861960 0.008980 0.017880 
#    y 0.008980 1.814180 0.011820 
#    z 0.017880 0.011820 1.837210 
# 
# From -- ./inp_files/299240.got.cif
#   From: 2010.05.17/outbox.cif.g08.bks.cpg/sg2_150_cif.got.tgz:299240.got - 2010.06.03 11:33:40.
