data_PCOD9063794
_publ_section_title
;
Structure prediction by ZEFSAII (Michael W. Deem and Ramdas Pophale) SiO2 
 PCOD9063794
Probable space group: P -1
;
_chemical_formula_sum "Si O2"
_cell_formula_units_Z 13
_cell_length_a 6.305452
_cell_length_b 25.591544
_cell_length_c 11.321927
_cell_angle_alpha 22.776742
_cell_angle_beta 130.886700
_cell_angle_gamma 130.848395
_cell_volume 526.689713
_symmetry_space_group_name_H-M "P -1"
_symmetry_group_IT_number 2
_symmetry_cell_setting 'triclinic'
loop_
_space_group_symop_operation_xyz
x,y,z
-x,-y,-z
loop_
_atom_site_type_symbol
_atom_site_label
_atom_site_fract_x
_atom_site_fract_y
_atom_site_fract_z
Si Si1 0.500000 0.500000 0.500000
Si Si2 0.167748 0.910528 0.588008
Si Si3 0.300840 0.206576 0.010006
Si Si4 0.562616 0.741753 0.687690
Si Si5 0.333134 0.795638 0.239073
Si Si6 0.269062 0.951947 0.258683
Si Si7 0.316515 0.538731 0.595856
O O1 0.528573 0.563553 0.510471
O O2 0.387883 0.342533 0.836759
O O3 0.411953 0.821960 0.890214
O O4 0.204493 0.941801 0.395363
O O5 0.863860 0.821369 0.677380
O O6 0.219808 0.059590 0.355222
O O7 0.995796 0.208155 0.835458
O O8 0.513622 0.778053 0.457924
O O9 0.322034 0.803715 0.542199
O O10 0.590471 0.583968 0.040188
O O11 0.324203 0.667081 0.416573
O O12 0.469331 0.934892 0.931357
O O13 0.000000 0.000000 0.000000
O O14 0.000000 0.500000 0.500000
#
# Coordination Sequence:
#
# PCOD9063794 Si02
#       7
#     1   2   2   2   2   2   2
#     4  12  24  50  70 102 140 196 250 292 364 432
#     4  11  24  45  71 112 148 194 248 299 374 438
#     4  11  24  44  74 104 150 194 246 306 357 445
#     4  12  26  48  77 112 151 192 250 309 374 445
#     4  12  25  49  75 111 152 195 246 307 376 440
#     4  12  24  44  76 108 150 194 241 310 368 441
#     4  12  27  48  75 106 150 196 249 311 363 441
#
# _framework density 24.682465000000001
#
# number of rings (size 3 to 8) (size 9 to 14) (size 15 to 20)
#    0.000    0.308    4.615    4.615    0.000    1.846 
#    0.000    1.538    0.000    0.000    0.000    0.000 
#    0.000    0.000    0.000    0.000    0.000    0.000 
#
# Total GULP energy -72495.447009 kJ/mol
# GULP energy per Si atom -5576.572847 kJ/mol
# Density = 2.462629 g / cm^3
# Si number density = 24.682465 Si / 1000 Ang^3
#
#
#
# Elastic Constant Matrix: (Units=GPa)
#
#
# Indices 1 2 3 4 5 6 
#
# 1 89.1127 35.7560 32.2110 13.2626 3.7085 -5.5298
# 2 35.7560 80.5724 35.1431 -8.7080 15.1199 1.3799
# 3 32.2110 35.1431 164.6194 -4.6486 17.0872 -7.2464
# 4 13.2626 -8.7080 -4.6486 44.8176 -9.7492 5.2813
# 5 3.7085 15.1199 17.0872 -9.7492 44.0048 11.6193
# 6 -5.5298 1.3799 -7.2464 5.2813 11.6193 54.9468
#
#
#
# Elastic Compliance Matrix: (Units=1/GPa)
#
#
# Indices 1 2 3 4 5 6 
#
# 1 0.015721 -0.006938 -0.001646 -0.006507 -0.000334 0.002235
# 2 -0.006938 0.017489 -0.001948 0.004657 -0.003336 -0.001137
# 3 -0.001646 -0.001948 0.007107 0.000208 -0.002242 0.001275
# 4 -0.006507 0.004657 0.000208 0.027032 0.006079 -0.004628
# 5 -0.000334 -0.003336 -0.002242 0.006079 0.027893 -0.006728
# 6 0.002235 -0.001137 0.001275 -0.004628 -0.006728 0.020489
#
#
# Mechanical properties :
#
#
# Convention : Reuss Voigt Hill
#
# Bulk Modulus (GPa) = 51.93818 60.05829 55.99823
# Shear Modulus (GPa) = 34.91304 44.16681 39.53993
#
# Velocity S-wave (km/s) = 3.76505 4.23472 4.00677
# Velocity P-wave (km/s) = 6.32369 6.94951 6.64397
#
# Compressibility (1/GPa) = 0.01925366
#
# Stress axis : x y z
#
# Youngs Moduli (GPa) = 63.60722 57.18019 140.70077
#
# Poissons Ratio (x) = 0.39671 0.23157
# Poissons Ratio (y) = 0.44130 0.27411
# Poissons Ratio (z) = 0.10469 0.11140
#
# Static dielectric constant tensor:
#      x y z
#    x 2.055320 0.055220 -0.031450 
#    y 0.055220 1.889080 -0.044880 
#    z -0.031450 -0.044880 2.010820 
# 
# From -- ./inp_files/371384.got.cif
#   From: 2010.05.17/outbox.cif.g08.bks.cpg/sg2_186_cif.got.tgz:371384.got - 2010.06.03 11:33:40.
