data_PCOD9063967
_publ_section_title
;
Structure prediction by ZEFSAII (Michael W. Deem and Ramdas Pophale) SiO2 
 PCOD9063967
Probable space group: P -1
;
_chemical_formula_sum "Si O2"
_cell_formula_units_Z 14
_cell_length_a 17.664090
_cell_length_b 17.923732
_cell_length_c 7.865490
_cell_angle_alpha 51.109475
_cell_angle_beta 58.959331
_cell_angle_gamma 17.395185
_cell_volume 540.903859
_symmetry_space_group_name_H-M "P -1"
_symmetry_group_IT_number 2
_symmetry_cell_setting 'triclinic'
loop_
_space_group_symop_operation_xyz
x,y,z
-x,-y,-z
loop_
_atom_site_type_symbol
_atom_site_label
_atom_site_fract_x
_atom_site_fract_y
_atom_site_fract_z
Si Si1 0.331837 0.845070 0.086888
Si Si2 0.391830 0.306465 0.435688
Si Si3 0.404237 0.238063 0.138632
Si Si4 0.905954 0.701084 0.874699
Si Si5 0.375320 0.734662 0.811858
Si Si6 0.033546 0.855676 0.612994
Si Si7 0.239971 0.267097 0.688230
O O1 0.121186 0.037140 0.203876
O O2 0.350290 0.940243 0.911563
O O3 0.281820 0.853746 0.943589
O O4 0.643317 0.495159 0.272190
O O5 0.317950 0.350636 0.268068
O O6 0.399014 0.414139 0.284219
O O7 0.239245 0.375509 0.610940
O O8 0.701588 0.962740 0.613311
O O9 0.489216 0.041990 0.283835
O O10 0.155210 0.511772 0.910008
O O11 0.758942 0.816508 0.051816
O O12 0.000000 0.500000 0.000000
O O13 0.134153 0.987648 0.591127
O O14 0.500000 0.500000 0.000000
O O15 0.000000 0.000000 0.500000
O O16 0.000000 0.500000 0.500000
#
# Coordination Sequence:
#
# PCOD9063967 Si02
#       7
#     2   2   2   2   2   2   2
#     4  11  28  48  79 114 151 203 254 320 390 461
#     4  11  24  45  68 103 142 191 245 300 375 443
#     4  11  25  45  68 101 148 185 240 303 372 446
#     4  12  24  41  70 101 145 188 241 296 368 448
#     4  11  26  48  78 111 152 204 261 324 383 459
#     4  12  26  50  81 109 155 200 260 321 394 449
#     4  12  24  42  72 102 146 192 235 303 367 451
#
# _framework density 25.882605000000002
#
# number of rings (size 3 to 8) (size 9 to 14) (size 15 to 20)
#    0.000    0.571    4.286    3.000    4.000    1.714 
#    0.000    1.429    0.000    0.000    0.000    0.000 
#    0.000    0.000    0.000    0.000    0.000    0.000 
#
# Total GULP energy -78288.424574 kJ/mol
# GULP energy per Si atom -5592.030327 kJ/mol
# Density = 2.582370 g / cm^3
# Si number density = 25.882605 Si / 1000 Ang^3
#
#
#
# Elastic Constant Matrix: (Units=GPa)
#
#
# Indices 1 2 3 4 5 6 
#
# 1 175.4069 23.9714 62.3382 -11.0544 7.4894 3.4855
# 2 23.9714 79.8159 34.9279 -7.0122 10.1169 3.2635
# 3 62.3382 34.9279 114.6297 -17.0975 16.4194 2.4900
# 4 -11.0544 -7.0122 -17.0975 40.1874 -9.2484 2.5086
# 5 7.4894 10.1169 16.4194 -9.2484 79.0521 0.7985
# 6 3.4855 3.2635 2.4900 2.5086 0.7985 40.6254
#
#
#
# Elastic Compliance Matrix: (Units=1/GPa)
#
#
# Indices 1 2 3 4 5 6 
#
# 1 0.007097 -0.000502 -0.003672 0.000372 0.000202 -0.000370
# 2 -0.000502 0.014609 -0.003939 0.000578 -0.000927 -0.000906
# 3 -0.003672 -0.003939 0.012629 0.003380 -0.001372 -0.000324
# 4 0.000372 0.000578 0.003380 0.027200 0.002391 -0.002012
# 5 0.000202 -0.000927 -0.001372 0.002391 0.013317 -0.000268
# 6 -0.000370 -0.000906 -0.000324 -0.002012 -0.000268 0.024869
#
#
# Mechanical properties :
#
#
# Convention : Reuss Voigt Hill
#
# Bulk Modulus (GPa) = 55.22659 68.03638 61.63148
# Shear Modulus (GPa) = 40.98909 48.54731 44.76820
#
# Velocity S-wave (km/s) = 3.98383 4.33560 4.16343
# Velocity P-wave (km/s) = 6.52264 7.16986 6.85389
#
# Compressibility (1/GPa) = 0.01810722
#
# Stress axis : x y z
#
# Youngs Moduli (GPa) = 140.90941 68.45088 79.18554
#
# Poissons Ratio (x) = 0.03439 0.29074
# Poissons Ratio (y) = 0.07079 0.31195
# Poissons Ratio (z) = 0.51737 0.26966
#
# Static dielectric constant tensor:
#      x y z
#    x 2.018580 0.047250 -0.002040 
#    y 0.047250 2.323220 0.198090 
#    z -0.002040 0.198090 2.203630 
# 
# From -- ./inp_files/336450.got.cif
#   From: 2010.05.17/outbox.cif.g08.bks.cpg/sg2_169_cif.got.tgz:336450.got - 2010.06.03 11:33:40.
