data_PCOD9063310
_publ_section_title
;
Structure prediction by ZEFSAII (Michael W. Deem and Ramdas Pophale) SiO2 
 PCOD9063310
Probable space group: P -1
;
_chemical_formula_sum "Si O2"
_cell_formula_units_Z 16
_cell_length_a 6.555843
_cell_length_b 4.941225
_cell_length_c 23.286456
_cell_angle_alpha 101.058063
_cell_angle_beta 105.836899
_cell_angle_gamma 48.269305
_cell_volume 541.527056
_symmetry_space_group_name_H-M "P -1"
_symmetry_group_IT_number 2
_symmetry_cell_setting 'triclinic'
loop_
_space_group_symop_operation_xyz
x,y,z
-x,-y,-z
loop_
_atom_site_type_symbol
_atom_site_label
_atom_site_fract_x
_atom_site_fract_y
_atom_site_fract_z
Si Si1 0.773860 0.591957 0.854483
Si Si2 0.581540 0.572084 0.122268
Si Si3 0.488540 0.841880 0.328119
Si Si4 0.177745 0.580373 0.487087
Si Si5 0.936366 0.167462 0.312290
Si Si6 0.775935 0.676086 0.039906
Si Si7 0.961929 0.539128 0.243134
Si Si8 0.463949 0.466387 0.395473
O O1 0.659290 0.990404 0.877603
O O2 0.068866 0.285070 0.895782
O O3 0.558456 0.570507 0.866491
O O4 0.787117 0.548002 0.785422
O O5 0.818472 0.481415 0.179668
O O6 0.698674 0.467294 0.062238
O O7 0.704840 0.589833 0.280373
O O8 0.572132 0.071933 0.366208
O O9 0.170444 0.170992 0.286830
O O10 0.254429 0.834791 0.352280
O O11 0.227177 0.501980 0.420657
O O12 0.446455 0.401345 0.540400
O O13 0.000000 0.500000 0.500000
O O14 0.000000 0.000000 0.500000
O O15 0.869259 0.924165 0.272370
O O16 0.721022 0.414782 0.361271
O O17 0.000000 0.500000 0.000000
O O18 0.500000 0.000000 0.000000
#
# Coordination Sequence:
#
# PCOD9063310 Si02
#       8
#     2   2   2   2   2   2   2   2
#     4  11  25  46  76 105 143 191 237 300 355 419
#     4  11  25  46  76 105 143 191 237 300 355 419
#     4  12  28  47  74 106 148 189 236 300 368 423
#     4  11  24  43  76 101 141 194 238 293 352 417
#     4  12  28  48  76 105 144 193 238 300 368 423
#     4  11  24  48  72 109 148 189 236 291 360 437
#     4  11  26  46  74 106 142 186 250 296 354 436
#     4  11  26  46  70 109 144 188 244 293 352 436
#
# _framework density 29.546078000000001
#
# number of rings (size 3 to 8) (size 9 to 14) (size 15 to 20)
#    0.000    0.750    1.250    4.500   10.500    6.000 
#    0.000    0.000    0.000    0.000    0.000    0.000 
#    0.000    0.000    0.000    0.000    0.000    0.000 
#
# Total GULP energy -89524.545569 kJ/mol
# GULP energy per Si atom -5595.284098 kJ/mol
# Density = 2.947883 g / cm^3
# Si number density = 29.546078 Si / 1000 Ang^3
#
#
#
# Elastic Constant Matrix: (Units=GPa)
#
#
# Indices 1 2 3 4 5 6 
#
# 1 199.4516 115.6318 66.4347 -11.6372 -18.3040 -1.1291
# 2 115.6318 221.4664 76.4424 -4.9824 -14.0513 -6.2029
# 3 66.4347 76.4424 194.1040 -24.1334 -57.0144 15.0952
# 4 -11.6372 -4.9824 -24.1334 55.1718 -5.9447 -6.4889
# 5 -18.3040 -14.0513 -57.0144 -5.9447 80.9555 -9.9969
# 6 -1.1291 -6.2029 15.0952 -6.4889 -9.9969 96.7731
#
#
#
# Elastic Compliance Matrix: (Units=1/GPa)
#
#
# Indices 1 2 3 4 5 6 
#
# 1 0.007463 -0.003526 -0.000907 0.000929 0.000520 0.000118
# 2 -0.003526 0.006978 -0.002009 -0.001037 -0.001010 0.000546
# 3 -0.000907 -0.002009 0.008418 0.003838 0.005580 -0.000619
# 4 0.000929 -0.001037 0.003838 0.020517 0.004385 0.001174
# 5 0.000520 -0.001010 0.005580 0.004385 0.016681 0.001088
# 6 0.000118 0.000546 -0.000619 0.001174 0.001088 0.010657
#
#
# Mechanical properties :
#
#
# Convention : Reuss Voigt Hill
#
# Bulk Modulus (GPa) = 100.25755 125.78219 113.01987
# Shear Modulus (GPa) = 57.52282 70.34762 63.93522
#
# Velocity S-wave (km/s) = 4.41714 4.88479 4.65684
# Velocity P-wave (km/s) = 7.74733 8.63011 8.20061
#
# Compressibility (1/GPa) = 0.00997431
#
# Stress axis : x y z
#
# Youngs Moduli (GPa) = 134.00114 143.31037 118.79707
#
# Poissons Ratio (x) = 0.50535 0.10769
# Poissons Ratio (y) = 0.47253 0.23868
# Poissons Ratio (z) = 0.12147 0.28793
#
# Static dielectric constant tensor:
#      x y z
#    x 2.686450 -0.018110 -0.266190 
#    y -0.018110 2.239530 -0.133320 
#    z -0.266190 -0.133320 2.514890 
# 
# From -- ./inp_files/13507.got.cif
#   From: 2010.05.17/outbox.cif.g08.bks.cpg/sg2_7_cif.got.tgz:13507.got - 2010.06.03 11:33:40.
