data_PCOD9063556
_publ_section_title
;
Structure prediction by ZEFSAII (Michael W. Deem and Ramdas Pophale) SiO2 
 PCOD9063556
Probable space group: P -1
;
_chemical_formula_sum "Si O2"
_cell_formula_units_Z 14
_cell_length_a 12.682687
_cell_length_b 13.709833
_cell_length_c 9.898793
_cell_angle_alpha 132.682033
_cell_angle_beta 40.769565
_cell_angle_gamma 151.246083
_cell_volume 540.144732
_symmetry_space_group_name_H-M "P -1"
_symmetry_group_IT_number 2
_symmetry_cell_setting 'triclinic'
loop_
_space_group_symop_operation_xyz
x,y,z
-x,-y,-z
loop_
_atom_site_type_symbol
_atom_site_label
_atom_site_fract_x
_atom_site_fract_y
_atom_site_fract_z
Si Si1 0.936658 0.260310 0.844160
Si Si2 0.698314 0.482619 0.045021
Si Si3 0.833624 0.861124 0.161355
Si Si4 0.858449 0.836650 0.606981
Si Si5 0.197803 0.710209 0.406650
Si Si6 0.483123 0.982565 0.825413
Si Si7 0.313220 0.665677 0.522551
O O1 0.706748 0.156199 0.872440
O O2 0.119236 0.447416 0.944093
O O3 0.116264 0.293341 0.603314
O O4 0.751607 0.074261 0.960357
O O5 0.789706 0.679560 0.077125
O O6 0.424365 0.322197 0.222414
O O7 0.717484 0.379450 0.819377
O O8 0.557607 0.747095 0.309717
O O9 0.968157 0.022558 0.303263
O O10 0.000000 0.000000 0.000000
O O11 0.000000 0.000000 0.500000
O O12 0.395928 0.928176 0.353496
O O13 0.215303 0.713702 0.553149
O O14 0.928281 0.576940 0.484949
O O15 0.368870 0.763567 0.708274
#
# Coordination Sequence:
#
# PCOD9063556 Si02
#       7
#     2   2   2   2   2   2   2
#     4  11  24  44  70 106 140 188 233 301 355 434
#     4  12  27  47  73 112 149 185 246 299 363 436
#     4  12  29  47  75 106 149 196 240 302 364 431
#     4  12  25  45  73 107 147 195 239 293 370 430
#     4  11  26  44  74 102 141 189 234 301 357 426
#     4  11  24  46  71 102 144 184 242 292 360 426
#     4  11  25  46  70 103 136 190 241 293 355 431
#
# _framework density 25.918977999999999
#
# number of rings (size 3 to 8) (size 9 to 14) (size 15 to 20)
#    0.000    0.571    4.286    2.571    4.000    5.143 
#    0.000    0.000    0.000    0.000    0.000    0.000 
#    0.000    0.000    0.000    0.000    0.000    0.000 
#
# Total GULP energy -78127.144282 kJ/mol
# GULP energy per Si atom -5580.510306 kJ/mol
# Density = 2.585998 g / cm^3
# Si number density = 25.918978 Si / 1000 Ang^3
#
#
#
# Elastic Constant Matrix: (Units=GPa)
#
#
# Indices 1 2 3 4 5 6 
#
# 1 64.9403 42.0079 28.1208 -2.2205 13.7336 19.5680
# 2 42.0079 145.9697 57.6741 -14.4242 -6.0284 30.6789
# 3 28.1208 57.6741 128.9094 -44.3800 -5.4208 24.0580
# 4 -2.2205 -14.4242 -44.3800 70.4341 12.5335 1.1139
# 5 13.7336 -6.0284 -5.4208 12.5335 49.5698 -4.7090
# 6 19.5680 30.6789 24.0580 1.1139 -4.7090 53.6319
#
#
#
# Elastic Compliance Matrix: (Units=1/GPa)
#
#
# Indices 1 2 3 4 5 6 
#
# 1 0.022657 -0.004913 -0.002190 -0.000249 -0.007539 -0.005131
# 2 -0.004913 0.010000 -0.002975 -0.000318 0.002104 -0.002402
# 3 -0.002190 -0.002975 0.012776 0.007531 -0.000589 -0.003438
# 4 -0.000249 -0.000318 0.007531 0.019734 -0.004507 -0.003911
# 5 -0.007539 0.002104 -0.000589 -0.004507 0.023974 0.004010
# 6 -0.005131 -0.002402 -0.003438 -0.003911 0.004010 0.023867
#
#
# Mechanical properties :
#
#
# Convention : Reuss Voigt Hill
#
# Bulk Modulus (GPa) = 39.56061 66.15831 52.85946
# Shear Modulus (GPa) = 35.31364 48.86160 42.08762
#
# Velocity S-wave (km/s) = 3.69516 4.34656 4.03403
# Velocity P-wave (km/s) = 5.78808 7.12535 6.49124
#
# Compressibility (1/GPa) = 0.02527767
#
# Stress axis : x y z
#
# Youngs Moduli (GPa) = 44.13741 99.99606 78.27408
#
# Poissons Ratio (x) = 0.49124 0.17139
# Poissons Ratio (y) = 0.21683 0.23288
# Poissons Ratio (z) = 0.09664 0.29751
#
# Static dielectric constant tensor:
#      x y z
#    x 2.185190 -0.171490 0.020030 
#    y -0.171490 2.129660 0.010580 
#    z 0.020030 0.010580 2.081580 
# 
# From -- ./inp_files/94465.got.cif
#   From: 2010.05.17/outbox.cif.g08.bks.cpg/sg2_48_cif.got.tgz:94465.got - 2010.06.03 11:33:40.
