data_PCOD9063299
_publ_section_title
;
Structure prediction by ZEFSAII (Michael W. Deem and Ramdas Pophale) SiO2 
 PCOD9063299
Probable space group: P -1
;
_chemical_formula_sum "Si O2"
_cell_formula_units_Z 13
_cell_length_a 5.942385
_cell_length_b 7.514513
_cell_length_c 13.648176
_cell_angle_alpha 125.013052
_cell_angle_beta 110.008092
_cell_angle_gamma 76.026527
_cell_volume 468.215734
_symmetry_space_group_name_H-M "P -1"
_symmetry_group_IT_number 2
_symmetry_cell_setting 'triclinic'
loop_
_space_group_symop_operation_xyz
x,y,z
-x,-y,-z
loop_
_atom_site_type_symbol
_atom_site_label
_atom_site_fract_x
_atom_site_fract_y
_atom_site_fract_z
Si Si1 0.126729 0.100857 0.659441
Si Si2 0.304396 0.546981 0.332304
Si Si3 0.636207 0.652493 0.930013
Si Si4 0.068338 0.299152 0.376360
Si Si5 0.500000 0.000000 0.500000
Si Si6 0.039393 0.964651 0.880934
Si Si7 0.411700 0.794021 0.118251
O O1 0.331112 0.168274 0.786483
O O2 0.950149 0.312679 0.678775
O O3 0.960237 0.917500 0.626854
O O4 0.290204 0.013428 0.564793
O O5 0.349700 0.388814 0.195507
O O6 0.492985 0.733624 0.415739
O O7 0.285623 0.402076 0.380397
O O8 0.679081 0.421422 0.914312
O O9 0.816025 0.825099 0.047288
O O10 0.405626 0.755388 0.987371
O O11 0.000000 0.500000 0.500000
O O12 0.887730 0.241624 0.240650
O O13 0.770019 0.013536 0.814750
O O14 0.000000 0.000000 0.000000
#
# Coordination Sequence:
#
# PCOD9063299 Si02
#       7
#     2   2   2   2   1   2   2
#     4  12  27  50  76 110 154 196 253 318 371 456
#     4  12  27  50  76 111 154 199 251 315 382 446
#     4  11  24  43  75 106 143 195 255 307 371 450
#     4  12  27  49  76 111 151 201 248 317 377 446
#     4  12  26  48  76 110 146 206 254 300 382 456
#     4  12  26  47  72 106 156 191 249 319 370 446
#     4  11  26  44  76 110 141 200 252 306 382 448
#
# _framework density 27.764980999999999
#
# number of rings (size 3 to 8) (size 9 to 14) (size 15 to 20)
#    0.000    0.308    6.154    1.846    4.308    0.615 
#    5.538    2.308    0.000    0.000    0.000    0.000 
#    0.000    0.000    0.000    0.000    0.000    0.000 
#
# Total GULP energy -72377.830662 kJ/mol
# GULP energy per Si atom -5567.525436 kJ/mol
# Density = 2.770179 g / cm^3
# Si number density = 27.764981 Si / 1000 Ang^3
#
#
#
# Elastic Constant Matrix: (Units=GPa)
#
#
# Indices 1 2 3 4 5 6 
#
# 1 149.9002 68.5061 70.2429 -1.8818 -13.2704 -2.6803
# 2 68.5061 114.2529 62.6927 21.4500 3.1687 50.0757
# 3 70.2429 62.6927 234.7502 2.8293 -15.2371 27.9784
# 4 -1.8818 21.4500 2.8293 56.0166 26.6959 -4.6472
# 5 -13.2704 3.1687 -15.2371 26.6959 66.5339 2.1312
# 6 -2.6803 50.0757 27.9784 -4.6472 2.1312 83.6302
#
#
#
# Elastic Compliance Matrix: (Units=1/GPa)
#
#
# Indices 1 2 3 4 5 6 
#
# 1 0.012959 -0.011327 -0.001868 0.005415 0.000264 0.008117
# 2 -0.011327 0.025433 -0.001258 -0.012148 0.001625 -0.015887
# 3 -0.001868 -0.001258 0.005374 -0.000500 0.001156 -0.001162
# 4 0.005415 -0.012148 -0.000500 0.028318 -0.010121 0.009446
# 5 0.000264 0.001625 0.001156 -0.010121 0.019408 -0.002408
# 6 0.008117 -0.015887 -0.001162 0.009446 -0.002408 0.022706
#
#
# Mechanical properties :
#
#
# Convention : Reuss Voigt Hill
#
# Bulk Modulus (GPa) = 67.28760 100.19855 83.74307
# Shear Modulus (GPa) = 33.77088 61.06691 47.41889
#
# Velocity S-wave (km/s) = 3.49135 4.69489 4.13712
# Velocity P-wave (km/s) = 6.36710 8.09665 7.28340
#
# Compressibility (1/GPa) = 0.01486158
#
# Stress axis : x y z
#
# Youngs Moduli (GPa) = 77.16369 39.31921 186.07022
#
# Poissons Ratio (x) = 0.44535 0.34765
# Poissons Ratio (y) = 0.87400 0.23400
# Poissons Ratio (z) = 0.14417 0.04945
#
# Static dielectric constant tensor:
#      x y z
#    x 2.781480 -0.088060 0.024700 
#    y -0.088060 2.237780 -0.162690 
#    z 0.024700 -0.162690 2.260640 
# 
# From -- ./inp_files/478766.got.cif
#   From: 2010.05.17/outbox.cif.g08.bks.cpg/sg2_240_cif.got.tgz:478766.got - 2010.06.03 11:33:40.
