data_PCOD9063831
_publ_section_title
;
Structure prediction by ZEFSAII (Michael W. Deem and Ramdas Pophale) SiO2 
 PCOD9063831
Probable space group: P -1
;
_chemical_formula_sum "Si O2"
_cell_formula_units_Z 15
_cell_length_a 7.927705
_cell_length_b 9.911449
_cell_length_c 10.035569
_cell_angle_alpha 90.788222
_cell_angle_beta 58.463455
_cell_angle_gamma 106.230492
_cell_volume 636.790358
_symmetry_space_group_name_H-M "P -1"
_symmetry_group_IT_number 2
_symmetry_cell_setting 'triclinic'
loop_
_space_group_symop_operation_xyz
x,y,z
-x,-y,-z
loop_
_atom_site_type_symbol
_atom_site_label
_atom_site_fract_x
_atom_site_fract_y
_atom_site_fract_z
Si Si1 0.721844 0.810347 0.162563
Si Si2 0.269433 0.717383 0.451239
Si Si3 0.780992 0.009311 0.634027
Si Si4 0.175759 0.452028 0.853383
Si Si5 0.500000 0.500000 0.000000
Si Si6 0.937905 0.470425 0.721537
Si Si7 0.546408 0.267455 0.167127
Si Si8 0.196355 0.928842 0.060445
O O1 0.518866 0.748675 0.339636
O O2 0.744424 0.660280 0.100345
O O3 0.947718 0.887315 0.135692
O O4 0.697428 0.923563 0.064852
O O5 0.256664 0.873439 0.443878
O O6 0.160335 0.626534 0.365058
O O7 0.116210 0.621556 0.622865
O O8 0.767412 0.048495 0.796613
O O9 0.614284 0.855844 0.686786
O O10 0.000000 0.000000 0.500000
O O11 0.359653 0.598939 0.772188
O O12 0.069192 0.394278 0.756925
O O13 0.000000 0.500000 0.000000
O O14 0.264776 0.508350 0.129062
O O15 0.447974 0.341590 0.096157
O O16 0.707558 0.190534 0.038594
#
# Coordination Sequence:
#
# PCOD9063831 Si02
#       8
#     2   2   2   2   1   2   2   2
#     4  11  24  44  75 102 137 189 231 292 348 424
#     4  11  25  47  69 100 143 189 236 283 358 415
#     4  12  27  46  67 101 144 185 234 292 347 418
#     4  12  24  42  69 109 142 172 237 293 346 409
#     4  12  22  40  72 100 134 180 232 288 336 408
#     4  11  26  44  71 105 142 185 234 290 349 423
#     4  12  25  43  71 107 137 182 234 290 347 418
#     4  11  25  46  73 101 138 186 238 283 354 419
#
# _framework density 23.555633
#
# number of rings (size 3 to 8) (size 9 to 14) (size 15 to 20)
#    0.000    0.533    4.000    3.600    3.733    3.733 
#    0.000    1.333    0.000    0.000    0.000    0.000 
#    0.000    0.000    0.000    0.000    0.000    0.000 
#
# Total GULP energy -83565.579343 kJ/mol
# GULP energy per Si atom -5571.038623 kJ/mol
# Density = 2.350202 g / cm^3
# Si number density = 23.555633 Si / 1000 Ang^3
#
#
#
# Elastic Constant Matrix: (Units=GPa)
#
#
# Indices 1 2 3 4 5 6 
#
# 1 79.0175 17.8312 8.4196 -1.9498 -10.5968 -12.7146
# 2 17.8312 135.1417 10.9426 -35.2201 -11.8601 -17.7416
# 3 8.4196 10.9426 54.6122 -30.2656 -26.8153 1.3852
# 4 -1.9498 -35.2201 -30.2656 50.9420 6.0475 -8.9412
# 5 -10.5968 -11.8601 -26.8153 6.0475 35.6365 -5.6000
# 6 -12.7146 -17.7416 1.3852 -8.9412 -5.6000 52.5041
#
#
#
# Elastic Compliance Matrix: (Units=1/GPa)
#
#
# Indices 1 2 3 4 5 6 
#
# 1 0.014040 -0.000984 0.000223 0.000073 0.004563 0.003561
# 2 -0.000984 0.012601 0.011462 0.015491 0.011081 0.007537
# 3 0.000223 0.011462 0.059950 0.040753 0.044277 0.014008
# 4 0.000073 0.015491 0.040753 0.053974 0.029275 0.016491
# 5 0.004563 0.011081 0.044277 0.029275 0.063888 0.015481
# 6 0.003561 0.007537 0.014008 0.016491 0.015481 0.026545
#
#
# Mechanical properties :
#
#
# Convention : Reuss Voigt Hill
#
# Bulk Modulus (GPa) = 9.25982 38.12869 23.69426
# Shear Modulus (GPa) = 20.35889 43.25507 31.80698
#
# Velocity S-wave (km/s) = 2.94307 4.28985 3.67862
# Velocity P-wave (km/s) = 3.93554 6.38427 5.30317
#
# Compressibility (1/GPa) = 0.10799344
#
# Stress axis : x y z
#
# Youngs Moduli (GPa) = 71.22364 79.36126 16.68061
#
# Poissons Ratio (x) = 0.07806 -0.00372
# Poissons Ratio (y) = 0.07006 -0.19119
# Poissons Ratio (z) = -0.01589 -0.90963
#
# Static dielectric constant tensor:
#      x y z
#    x 1.847460 0.004000 0.162890 
#    y 0.004000 1.863560 0.006220 
#    z 0.162890 0.006220 1.770430 
# 
# From -- ./inp_files/381058.got.cif
#   From: 2010.05.17/outbox.cif.g08.bks.cpg/sg2_191_cif.got.tgz:381058.got - 2010.06.03 11:33:40.
