data_PCOD9063882
_publ_section_title
;
Structure prediction by ZEFSAII (Michael W. Deem and Ramdas Pophale) SiO2 
 PCOD9063882
Probable space group: P -1
;
_chemical_formula_sum "Si O2"
_cell_formula_units_Z 15
_cell_length_a 11.680161
_cell_length_b 9.455024
_cell_length_c 11.798154
_cell_angle_alpha 129.485745
_cell_angle_beta 137.793539
_cell_angle_gamma 52.261900
_cell_volume 650.086613
_symmetry_space_group_name_H-M "P -1"
_symmetry_group_IT_number 2
_symmetry_cell_setting 'triclinic'
loop_
_space_group_symop_operation_xyz
x,y,z
-x,-y,-z
loop_
_atom_site_type_symbol
_atom_site_label
_atom_site_fract_x
_atom_site_fract_y
_atom_site_fract_z
Si Si1 0.869944 0.364240 0.344337
Si Si2 0.601001 0.288373 0.499045
Si Si3 0.962574 0.969847 0.085366
Si Si4 0.317743 0.657685 0.183930
Si Si5 0.500000 0.500000 0.000000
Si Si6 0.589136 0.986088 0.901568
Si Si7 0.064524 0.771380 0.428140
Si Si8 0.301355 0.261076 0.932384
O O1 0.688537 0.454574 0.189932
O O2 0.842485 0.320120 0.434232
O O3 0.000000 0.500000 0.500000
O O4 0.964067 0.154472 0.254858
O O5 0.500000 0.500000 0.500000
O O6 0.575790 0.263699 0.601983
O O7 0.533834 0.136206 0.299894
O O8 0.800682 0.272300 0.598871
O O9 0.117743 0.780485 0.124134
O O10 0.764587 0.953240 0.942264
O O11 0.000000 0.000000 0.000000
O O12 0.388741 0.635315 0.096429
O O13 0.323310 0.440639 0.106924
O O14 0.461255 0.202315 0.927241
O O15 0.665511 0.913928 0.045465
O O16 0.888760 0.702155 0.244221
O O17 0.000000 0.000000 0.500000
#
# Coordination Sequence:
#
# PCOD9063882 Si02
#       8
#     2   2   2   2   1   2   2   2
#     4  12  28  53  81 113 159 212 267 322 401 488
#     4  12  25  43  72 116 152 192 258 331 384 468
#     4  12  28  49  71 108 152 200 261 320 382 469
#     4  12  26  47  73 111 149 206 258 318 390 467
#     4  12  26  52  78 106 158 212 260 314 394 482
#     4  11  25  46  74 112 155 200 254 319 401 468
#     4  12  25  47  77 118 155 200 261 327 402 475
#     4  11  24  44  76 107 152 203 251 316 395 470
#
# _framework density 23.073848000000002
#
# number of rings (size 3 to 8) (size 9 to 14) (size 15 to 20)
#    0.000    0.267    4.000    4.800    3.733    2.133 
#    0.000    1.333    0.000    0.000    0.000    0.000 
#    0.000    0.000    0.000    0.000    0.000    0.000 
#
# Total GULP energy -83663.087399 kJ/mol
# GULP energy per Si atom -5577.539160 kJ/mol
# Density = 2.302133 g / cm^3
# Si number density = 23.073848 Si / 1000 Ang^3
#
#
#
# Elastic Constant Matrix: (Units=GPa)
#
#
# Indices 1 2 3 4 5 6 
#
# 1 126.4270 28.8715 43.4234 -20.6302 -14.3074 -31.7349
# 2 28.8715 130.1216 34.8741 -6.1073 0.4911 -40.6779
# 3 43.4234 34.8741 134.8137 -20.7181 -15.3418 -11.4937
# 4 -20.6302 -6.1073 -20.7181 40.8797 6.7491 -3.6802
# 5 -14.3074 0.4911 -15.3418 6.7491 48.3079 -4.3806
# 6 -31.7349 -40.6779 -11.4937 -3.6802 -4.3806 42.0558
#
#
#
# Elastic Compliance Matrix: (Units=1/GPa)
#
#
# Indices 1 2 3 4 5 6 
#
# 1 0.012413 0.001579 -0.002197 0.005869 0.003153 0.011136
# 2 0.001579 0.011884 -0.002082 0.002558 0.000452 0.012388
# 3 -0.002197 -0.002082 0.009261 0.002907 0.001843 -0.000694
# 4 0.005869 0.002558 0.002907 0.030315 -0.000667 0.010281
# 5 0.003153 0.000452 0.001843 -0.000667 0.022819 0.005638
# 6 0.011136 0.012388 -0.000694 0.010281 0.005638 0.045461
#
#
# Mechanical properties :
#
#
# Convention : Reuss Voigt Hill
#
# Bulk Modulus (GPa) = 35.51237 67.30002 51.40619
# Shear Modulus (GPa) = 34.02774 45.19490 39.61132
#
# Velocity S-wave (km/s) = 3.84439 4.43053 4.14783
# Velocity P-wave (km/s) = 5.92705 7.44334 6.72805
#
# Compressibility (1/GPa) = 0.02815920
#
# Stress axis : x y z
#
# Youngs Moduli (GPa) = 80.55809 84.14841 107.97824
#
# Poissons Ratio (x) = -0.13290 0.23720
# Poissons Ratio (y) = -0.12723 0.22483
# Poissons Ratio (z) = 0.17696 0.17522
#
# Static dielectric constant tensor:
#      x y z
#    x 1.584570 -0.066140 0.003390 
#    y -0.066140 1.848180 -0.001960 
#    z 0.003390 -0.001960 1.836650 
# 
# From -- ./inp_files/226825.got.cif
#   From: 2010.05.17/outbox.cif.g08.bks.cpg/sg2_114_cif.got.tgz:226825.got - 2010.06.03 11:33:40.
