data_PCOD9063164
_publ_section_title
;
Structure prediction by ZEFSAII (Michael W. Deem and Ramdas Pophale) SiO2 
 PCOD9063164
Probable space group: P -1
;
_chemical_formula_sum "Si O2"
_cell_formula_units_Z 14
_cell_length_a 9.440325
_cell_length_b 12.779875
_cell_length_c 15.468959
_cell_angle_alpha 151.499601
_cell_angle_beta 61.289132
_cell_angle_gamma 130.444842
_cell_volume 656.706298
_symmetry_space_group_name_H-M "P -1"
_symmetry_group_IT_number 2
_symmetry_cell_setting 'triclinic'
loop_
_space_group_symop_operation_xyz
x,y,z
-x,-y,-z
loop_
_atom_site_type_symbol
_atom_site_label
_atom_site_fract_x
_atom_site_fract_y
_atom_site_fract_z
Si Si1 0.836825 0.704431 0.857019
Si Si2 0.122095 0.883127 0.346647
Si Si3 0.325480 0.221599 0.874145
Si Si4 0.925537 0.034678 0.776455
Si Si5 0.578833 0.208786 0.453641
Si Si6 0.107492 0.632591 0.846385
Si Si7 0.331721 0.555384 0.586293
O O1 0.704944 0.489164 0.667853
O O2 0.954007 0.599946 0.796462
O O3 0.710728 0.748728 0.993707
O O4 0.000000 0.000000 0.000000
O O5 0.013224 0.602259 0.220735
O O6 0.107919 0.882278 0.246403
O O7 0.349619 0.064582 0.432816
O O8 0.000000 0.000000 0.500000
O O9 0.359917 0.990256 0.680592
O O10 0.500000 0.500000 0.000000
O O11 0.146410 0.181208 0.843436
O O12 0.853255 0.733452 0.583063
O O13 0.823057 0.104862 0.930327
O O14 0.623253 0.262525 0.377213
O O15 0.281114 0.642684 0.752946
O O16 0.500000 0.500000 0.500000
#
# Coordination Sequence:
#
# PCOD9063164 Si02
#       7
#     2   2   2   2   2   2   2
#     4  11  25  46  70 105 136 180 232 283 348 405
#     4  12  25  46  68 102 140 184 226 277 350 408
#     4  11  26  45  72 105 136 176 237 284 338 412
#     4  11  24  46  69  98 142 178 228 286 338 408
#     4  12  25  44  74 101 139 182 225 291 342 404
#     4  11  24  43  71  95 138 184 226 283 343 400
#     4  12  24  45  65 103 136 179 233 274 343 410
#
# _framework density 21.31851
#
# number of rings (size 3 to 8) (size 9 to 14) (size 15 to 20)
#    0.000    0.571    2.857    5.571    2.000    3.429 
#    2.571    0.000    0.000    0.000    0.000    0.000 
#    0.000    0.000    0.000    0.000    0.000    0.000 
#
# Total GULP energy -78254.111126 kJ/mol
# GULP energy per Si atom -5589.579366 kJ/mol
# Density = 2.126999 g / cm^3
# Si number density = 21.318510 Si / 1000 Ang^3
#
#
#
# Elastic Constant Matrix: (Units=GPa)
#
#
# Indices 1 2 3 4 5 6 
#
# 1 85.8305 28.2920 46.6688 -14.5749 -8.6700 6.5164
# 2 28.2920 116.1478 41.1568 -1.1928 1.0272 15.0702
# 3 46.6688 41.1568 120.1821 -11.4073 -4.8447 16.2182
# 4 -14.5749 -1.1928 -11.4073 42.0611 -5.0376 -11.6845
# 5 -8.6700 1.0272 -4.8447 -5.0376 27.3209 -1.8509
# 6 6.5164 15.0702 16.2182 -11.6845 -1.8509 32.0894
#
#
#
# Elastic Compliance Matrix: (Units=1/GPa)
#
#
# Indices 1 2 3 4 5 6 
#
# 1 0.016671 -0.002585 -0.005199 0.005783 0.005728 0.002892
# 2 -0.002585 0.010660 -0.002413 -0.002768 -0.002458 -0.004411
# 3 -0.005199 -0.002413 0.011695 0.000349 0.000337 -0.003575
# 4 0.005783 -0.002768 0.000349 0.029934 0.008288 0.011327
# 5 0.005728 -0.002458 0.000337 0.008288 0.040450 0.005172
# 6 0.002892 -0.004411 -0.003575 0.011327 0.005172 0.038877
#
#
# Mechanical properties :
#
#
# Convention : Reuss Voigt Hill
#
# Bulk Modulus (GPa) = 53.67199 61.59951 57.63575
# Shear Modulus (GPa) = 28.58897 34.03047 31.30972
#
# Velocity S-wave (km/s) = 3.66599 3.99969 3.83647
# Velocity P-wave (km/s) = 6.56888 7.09138 6.83512
#
# Compressibility (1/GPa) = 0.01863169
#
# Stress axis : x y z
#
# Youngs Moduli (GPa) = 59.98542 93.80632 85.50591
#
# Poissons Ratio (x) = 0.24250 0.44452
# Poissons Ratio (y) = 0.15507 0.20635
# Poissons Ratio (z) = 0.31185 0.22638
#
# Static dielectric constant tensor:
#      x y z
#    x 1.772280 0.008160 0.008570 
#    y 0.008160 1.834740 0.025630 
#    z 0.008570 0.025630 1.787660 
# 
# From -- ./inp_files/446733.got.cif
#   From: 2010.05.17/outbox.cif.g08.bks.cpg/sg2_224_cif.got.tgz:446733.got - 2010.06.03 11:33:40.
