data_PCOD9063603
_publ_section_title
;
Structure prediction by ZEFSAII (Michael W. Deem and Ramdas Pophale) SiO2 
 PCOD9063603
Probable space group: P -1
;
_chemical_formula_sum "Si O2"
_cell_formula_units_Z 15
_cell_length_a 12.029127
_cell_length_b 7.711651
_cell_length_c 15.181966
_cell_angle_alpha 105.937396
_cell_angle_beta 30.542757
_cell_angle_gamma 92.871030
_cell_volume 636.148363
_symmetry_space_group_name_H-M "P -1"
_symmetry_group_IT_number 2
_symmetry_cell_setting 'triclinic'
loop_
_space_group_symop_operation_xyz
x,y,z
-x,-y,-z
loop_
_atom_site_type_symbol
_atom_site_label
_atom_site_fract_x
_atom_site_fract_y
_atom_site_fract_z
Si Si1 0.792689 0.763583 0.922915
Si Si2 0.827591 0.388514 0.082716
Si Si3 0.524021 0.226643 0.688611
Si Si4 0.272479 0.700918 0.678100
Si Si5 0.770500 0.648554 0.727888
Si Si6 0.042071 0.032621 0.376433
Si Si7 0.500000 0.000000 0.500000
Si Si8 0.260565 0.803414 0.042011
O O1 0.771378 0.645923 0.833616
O O2 0.060608 0.678412 0.764200
O O3 0.743549 0.988391 0.960839
O O4 0.621096 0.761562 0.119953
O O5 0.578940 0.563185 0.258297
O O6 0.819019 0.260349 0.153362
O O7 0.888801 0.266237 0.934613
O O8 0.000000 0.500000 0.000000
O O9 0.487381 0.075399 0.623892
O O10 0.797306 0.164922 0.516779
O O11 0.500000 0.500000 0.500000
O O12 0.351692 0.864480 0.607445
O O13 0.776070 0.860789 0.735322
O O14 0.000000 0.500000 0.500000
O O15 0.528221 0.653126 0.852249
O O16 0.143428 0.839774 0.222514
O O17 0.000000 0.000000 0.500000
#
# Coordination Sequence:
#
# PCOD9063603 Si02
#       8
#     2   2   2   2   2   2   1   2
#     4  11  25  47  72 104 149 195 250 315 380 458
#     4  12  27  47  71 108 154 197 256 314 379 454
#     4  12  25  44  72 104 150 194 256 304 382 452
#     4  12  27  45  74 107 153 196 258 311 377 456
#     4  11  24  45  73 103 144 189 250 313 383 452
#     4  11  24  44  71 104 144 190 253 307 379 456
#     4  12  26  44  76 106 146 204 254 304 386 440
#     4  11  25  44  74 104 146 195 249 313 382 453
#
# _framework density 23.579405999999999
#
# number of rings (size 3 to 8) (size 9 to 14) (size 15 to 20)
#    0.000    0.533    2.667    6.400    5.600    2.133 
#    0.000    2.667    0.000    0.000    0.000    0.000 
#    0.000    0.000    0.000    0.000    0.000    0.000 
#
# Total GULP energy -83754.830351 kJ/mol
# GULP energy per Si atom -5583.655357 kJ/mol
# Density = 2.352574 g / cm^3
# Si number density = 23.579406 Si / 1000 Ang^3
#
#
#
# Elastic Constant Matrix: (Units=GPa)
#
#
# Indices 1 2 3 4 5 6 
#
# 1 170.5501 34.3258 67.3785 2.3355 24.2098 12.6648
# 2 34.3258 44.3457 24.8758 -11.1001 4.0054 7.2448
# 3 67.3785 24.8758 119.9039 -5.3241 14.8275 -3.2343
# 4 2.3355 -11.1001 -5.3241 45.5133 -12.5173 -0.4757
# 5 24.2098 4.0054 14.8275 -12.5173 65.8752 4.4874
# 6 12.6648 7.2448 -3.2343 -0.4757 4.4874 38.8230
#
#
#
# Elastic Compliance Matrix: (Units=1/GPa)
#
#
# Indices 1 2 3 4 5 6 
#
# 1 0.008922 -0.004872 -0.003874 -0.002809 -0.002504 -0.002069
# 2 -0.004872 0.030989 -0.003784 0.008032 0.002605 -0.004711
# 3 -0.003874 -0.003784 0.011534 0.000359 -0.001083 0.003060
# 4 -0.002809 0.008032 0.000359 0.025589 0.005384 -0.000861
# 5 -0.002504 0.002605 -0.001083 0.005384 0.017324 -0.001696
# 6 -0.002069 -0.004711 0.003060 -0.000861 -0.001696 0.027753
#
#
# Mechanical properties :
#
#
# Convention : Reuss Voigt Hill
#
# Bulk Modulus (GPa) = 37.89942 65.32889 51.61416
# Shear Modulus (GPa) = 32.05853 43.92359 37.99106
#
# Velocity S-wave (km/s) = 3.69127 4.32069 4.01833
# Velocity P-wave (km/s) = 5.85451 7.25653 6.59290
#
# Compressibility (1/GPa) = 0.02638563
#
# Stress axis : x y z
#
# Youngs Moduli (GPa) = 112.08473 32.26963 86.69866
#
# Poissons Ratio (x) = 0.15722 0.33584
# Poissons Ratio (y) = 0.54608 0.32806
# Poissons Ratio (z) = 0.43418 0.12211
#
# Static dielectric constant tensor:
#      x y z
#    x 1.910240 0.000060 0.035370 
#    y 0.000060 1.891660 0.055500 
#    z 0.035370 0.055500 1.933630 
# 
# From -- ./inp_files/515729.got.cif
#   From: 2010.05.17/outbox.cif.g08.bks.cpg/sg2_258_cif.got.tgz:515729.got - 2010.06.03 11:33:40.
