data_PCOD9063182
_publ_section_title
;
Structure prediction by ZEFSAII (Michael W. Deem and Ramdas Pophale) SiO2 
 PCOD9063182
Probable space group: P -1
;
_chemical_formula_sum "Si O2"
_cell_formula_units_Z 16
_cell_length_a 19.110577
_cell_length_b 11.607857
_cell_length_c 8.390424
_cell_angle_alpha 74.550037
_cell_angle_beta 83.642962
_cell_angle_gamma 149.092942
_cell_volume 671.065815
_symmetry_space_group_name_H-M "P -1"
_symmetry_group_IT_number 2
_symmetry_cell_setting 'triclinic'
loop_
_space_group_symop_operation_xyz
x,y,z
-x,-y,-z
loop_
_atom_site_type_symbol
_atom_site_label
_atom_site_fract_x
_atom_site_fract_y
_atom_site_fract_z
Si Si1 0.994652 0.757675 0.362529
Si Si2 0.618323 0.009058 0.143339
Si Si3 0.474868 0.673203 0.997907
Si Si4 0.669102 0.326312 0.431587
Si Si5 0.142013 0.248033 0.069721
Si Si6 0.977971 0.723789 0.750980
Si Si7 0.299596 0.122564 0.702086
Si Si8 0.640360 0.704713 0.055828
O O1 0.807878 0.442406 0.424647
O O2 0.955716 0.708775 0.575742
O O3 0.056680 0.982827 0.191689
O O4 0.188558 0.989224 0.218012
O O5 0.426556 0.754551 0.365387
O O6 0.674832 0.975905 0.230347
O O7 0.785193 0.364513 0.995683
O O8 0.605334 0.958423 0.975176
O O9 0.460922 0.578278 0.864554
O O10 0.300631 0.485510 0.079880
O O11 0.486571 0.568428 0.137334
O O12 0.500000 0.000000 0.500000
O O13 0.769818 0.569681 0.185684
O O14 0.993357 0.108240 0.224208
O O15 0.151592 0.912564 0.679856
O O16 0.500000 0.500000 0.500000
O O17 0.240067 0.098153 0.886406
#
# Coordination Sequence:
#
# PCOD9063182 Si02
#       8
#     2   2   2   2   2   2   2   2
#     4  11  26  42  72 102 141 186 238 291 345 412
#     4  11  26  46  70 102 147 183 233 283 364 416
#     4   9  21  41  71 100 137 183 223 290 340 415
#     4  12  26  45  70 104 143 189 230 291 353 421
#     4  11  24  43  72 101 142 180 243 288 344 414
#     4  12  26  46  69 105 147 184 231 292 353 418
#     4  11  27  44  76 103 138 188 235 292 346 419
#     4   9  21  44  68 101 142 171 240 285 341 408
#
# _framework density 23.842669000000001
#
# number of rings (size 3 to 8) (size 9 to 14) (size 15 to 20)
#    0.000    1.250    1.250    2.625   15.750    1.000 
#    0.000    2.500    0.000    0.000    0.000    0.000 
#    0.000    0.000    0.000    0.000    0.000    0.000 
#
# Total GULP energy -89096.263174 kJ/mol
# GULP energy per Si atom -5568.516448 kJ/mol
# Density = 2.378840 g / cm^3
# Si number density = 23.842669 Si / 1000 Ang^3
#
#
#
# Elastic Constant Matrix: (Units=GPa)
#
#
# Indices 1 2 3 4 5 6 
#
# 1 73.3344 15.8019 5.3511 6.3728 -1.1247 26.8943
# 2 15.8019 94.1776 3.3904 5.8719 3.4867 29.2543
# 3 5.3511 3.3904 92.4247 8.2991 4.0557 8.3133
# 4 6.3728 5.8719 8.2991 21.2480 1.0729 -4.7268
# 5 -1.1247 3.4867 4.0557 1.0729 22.5489 2.2560
# 6 26.8943 29.2543 8.3133 -4.7268 2.2560 49.9185
#
#
#
# Elastic Compliance Matrix: (Units=1/GPa)
#
#
# Indices 1 2 3 4 5 6 
#
# 1 0.018387 0.000912 0.000614 -0.008669 0.002225 -0.011464
# 2 0.000912 0.013748 0.000898 -0.006433 -0.001009 -0.009261
# 3 0.000614 0.000898 0.011618 -0.005612 -0.001606 -0.003251
# 4 -0.008669 -0.006433 -0.005612 0.057081 -0.002635 0.014899
# 5 0.002225 -0.001009 -0.001606 -0.002635 0.045293 -0.002636
# 6 -0.011464 -0.009261 -0.003251 0.014899 -0.002636 0.033708
#
#
# Mechanical properties :
#
#
# Convention : Reuss Voigt Hill
#
# Bulk Modulus (GPa) = 20.57591 34.33598 27.45594
# Shear Modulus (GPa) = 26.15242 34.43596 30.29419
#
# Velocity S-wave (km/s) = 3.31550 3.80452 3.56840
# Velocity P-wave (km/s) = 4.82756 5.80788 5.34026
#
# Compressibility (1/GPa) = 0.04860053
#
# Stress axis : x y z
#
# Youngs Moduli (GPa) = 54.38729 72.73676 86.07415
#
# Poissons Ratio (x) = -0.06634 -0.05285
# Poissons Ratio (y) = -0.04961 -0.07728
# Poissons Ratio (z) = -0.03339 -0.06530
#
# Static dielectric constant tensor:
#      x y z
#    x 1.955570 -0.133350 -0.362630 
#    y -0.133350 2.828200 1.340780 
#    z -0.362630 1.340780 4.160520 
# 
# From -- ./inp_files/345272.got.cif
#   From: 2010.05.17/outbox.cif.g08.bks.cpg/sg2_173_cif.got.tgz:345272.got - 2010.06.03 11:33:40.
