data_PCOD9063085
_publ_section_title
;
Structure prediction by ZEFSAII (Michael W. Deem and Ramdas Pophale) SiO2 
 PCOD9063085
Probable space group: P -1
;
_chemical_formula_sum "Si O2"
_cell_formula_units_Z 14
_cell_length_a 17.472209
_cell_length_b 8.592372
_cell_length_c 14.278027
_cell_angle_alpha 49.886696
_cell_angle_beta 21.752021
_cell_angle_gamma 51.428173
_cell_volume 605.130532
_symmetry_space_group_name_H-M "P -1"
_symmetry_group_IT_number 2
_symmetry_cell_setting 'triclinic'
loop_
_space_group_symop_operation_xyz
x,y,z
-x,-y,-z
loop_
_atom_site_type_symbol
_atom_site_label
_atom_site_fract_x
_atom_site_fract_y
_atom_site_fract_z
Si Si1 0.472285 0.173403 0.192890
Si Si2 0.640632 0.517993 0.180365
Si Si3 0.973001 0.197976 0.021839
Si Si4 0.747581 0.199640 0.467548
Si Si5 0.815551 0.431532 0.673355
Si Si6 0.993033 0.221774 0.373800
Si Si7 0.581297 0.796294 0.543116
O O1 0.348542 0.373318 0.214143
O O2 0.404022 0.145220 0.388279
O O3 0.395759 0.988357 0.293635
O O4 0.709949 0.227759 0.903354
O O5 0.788800 0.358173 0.133522
O O6 0.422671 0.611229 0.434466
O O7 0.572563 0.381489 0.223663
O O8 0.780608 0.700922 0.928010
O O9 0.915084 0.158123 0.210313
O O10 0.196941 0.280806 0.722817
O O11 0.000000 0.000000 0.000000
O O12 0.865757 0.221753 0.422052
O O13 0.884519 0.384887 0.506816
O O14 0.000000 0.500000 0.500000
O O15 0.000000 0.000000 0.500000
O O16 0.500000 0.000000 0.500000
#
# Coordination Sequence:
#
# PCOD9063085 Si02
#       7
#     2   2   2   2   2   2   2
#     4  11  24  43  70 105 138 190 248 298 363 432
#     4  12  26  47  74 109 153 193 245 306 378 435
#     4  12  25  48  75 111 145 191 247 302 370 446
#     4  12  27  46  75 107 155 194 244 306 376 436
#     4  11  24  44  72 102 140 190 248 305 360 428
#     4  12  28  48  72 109 152 199 250 303 370 439
#     4  12  25  45  74 108 146 190 244 303 365 443
#
# _framework density 23.135503
#
# number of rings (size 3 to 8) (size 9 to 14) (size 15 to 20)
#    0.000    0.286    2.857    5.571    0.000   11.429 
#    0.000    0.000    0.000    0.000    0.000    0.000 
#    0.000    0.000    0.000    0.000    0.000    0.000 
#
# Total GULP energy -78329.725875 kJ/mol
# GULP energy per Si atom -5594.980420 kJ/mol
# Density = 2.308285 g / cm^3
# Si number density = 23.135503 Si / 1000 Ang^3
#
#
#
# Elastic Constant Matrix: (Units=GPa)
#
#
# Indices 1 2 3 4 5 6 
#
# 1 135.0344 53.6676 77.2738 -11.2534 -20.0158 20.6946
# 2 53.6676 104.7055 37.6036 -4.0698 -15.8961 8.6884
# 3 77.2738 37.6036 144.9754 -10.1863 -15.7481 18.8381
# 4 -11.2534 -4.0698 -10.1863 42.7954 10.4804 -8.3915
# 5 -20.0158 -15.8961 -15.7481 10.4804 39.9474 -3.2518
# 6 20.6946 8.6884 18.8381 -8.3915 -3.2518 41.4119
#
#
#
# Elastic Compliance Matrix: (Units=1/GPa)
#
#
# Indices 1 2 3 4 5 6 
#
# 1 0.012790 -0.004108 -0.005072 0.000612 0.002377 -0.002912
# 2 -0.004108 0.012322 -0.000746 -0.000785 0.002746 -0.000137
# 3 -0.005072 -0.000746 0.010154 0.000444 0.000904 -0.001767
# 4 0.000612 -0.000785 0.000444 0.025965 -0.006282 0.004425
# 5 0.002377 0.002746 0.000904 -0.006282 0.029227 -0.001153
# 6 -0.002912 -0.000137 -0.001767 0.004425 -0.001153 0.027241
#
#
# Mechanical properties :
#
#
# Convention : Reuss Voigt Hill
#
# Bulk Modulus (GPa) = 64.87597 80.20058 72.53827
# Shear Modulus (GPa) = 35.04126 39.24230 37.14178
#
# Velocity S-wave (km/s) = 3.89602 4.12296 4.01109
# Velocity P-wave (km/s) = 6.95279 7.57667 7.27142
#
# Compressibility (1/GPa) = 0.01541403
#
# Stress axis : x y z
#
# Youngs Moduli (GPa) = 78.18361 81.15858 98.48572
#
# Poissons Ratio (x) = 0.33339 0.49956
# Poissons Ratio (y) = 0.32117 0.07343
# Poissons Ratio (z) = 0.39658 0.06051
#
# Static dielectric constant tensor:
#      x y z
#    x 1.775750 -0.003760 -0.008930 
#    y -0.003760 1.886020 -0.019260 
#    z -0.008930 -0.019260 1.938110 
# 
# From -- ./inp_files/27293.got.cif
#   From: 2010.05.17/outbox.cif.g08.bks.cpg/sg2_14_cif.got.tgz:27293.got - 2010.06.03 11:33:40.
