data_PCOD9063658
_publ_section_title
;
Structure prediction by ZEFSAII (Michael W. Deem and Ramdas Pophale) SiO2 
 PCOD9063658
Probable space group: P -1
;
_chemical_formula_sum "Si O2"
_cell_formula_units_Z 16
_cell_length_a 9.249193
_cell_length_b 9.729786
_cell_length_c 15.830703
_cell_angle_alpha 143.250558
_cell_angle_beta 115.463898
_cell_angle_gamma 77.057951
_cell_volume 750.184947
_symmetry_space_group_name_H-M "P -1"
_symmetry_group_IT_number 2
_symmetry_cell_setting 'triclinic'
loop_
_space_group_symop_operation_xyz
x,y,z
-x,-y,-z
loop_
_atom_site_type_symbol
_atom_site_label
_atom_site_fract_x
_atom_site_fract_y
_atom_site_fract_z
Si Si1 0.523047 0.877417 0.633277
Si Si2 0.998954 0.634291 0.653770
Si Si3 0.382414 0.337447 0.822632
Si Si4 0.650872 0.345405 0.173337
Si Si5 0.413827 0.151726 0.171059
Si Si6 0.770673 0.491729 0.679229
Si Si7 0.899871 0.106750 0.815595
Si Si8 0.965676 0.598632 0.171055
O O1 0.534001 0.803220 0.696926
O O2 0.411862 0.669331 0.449609
O O3 0.427543 0.087197 0.711588
O O4 0.708545 0.974594 0.696207
O O5 0.159216 0.605575 0.730681
O O6 0.000000 0.500000 0.500000
O O7 0.844767 0.523665 0.619608
O O8 0.994703 0.906754 0.769471
O O9 0.405326 0.449178 0.790131
O O10 0.195827 0.333763 0.799178
O O11 0.500000 0.500000 0.000000
O O12 0.548434 0.271109 0.195745
O O13 0.619582 0.124146 0.992682
O O14 0.252064 0.255257 0.169460
O O15 0.891524 0.389575 0.718916
O O16 0.968885 0.229217 0.805713
O O17 0.916881 0.327101 0.992484
#
# Coordination Sequence:
#
# PCOD9063658 Si02
#       8
#     2   2   2   2   2   2   2   2
#     4  12  26  45  69 103 140 192 223 293 348 411
#     4  12  27  45  70 103 143 185 233 294 349 414
#     4  12  24  45  72  98 142 179 236 280 347 411
#     4  11  25  43  72 105 134 187 233 295 346 411
#     4  11  24  44  72 102 140 179 241 286 352 415
#     4  12  27  45  71 101 144 183 236 289 350 421
#     4  11  26  46  74 100 141 183 236 285 349 413
#     4  11  26  47  72 105 135 188 234 287 347 418
#
# _framework density 21.328074000000001
#
# number of rings (size 3 to 8) (size 9 to 14) (size 15 to 20)
#    0.000    0.500    5.000    1.875    7.000    3.000 
#    0.000    0.000    0.000    0.000    0.000    0.000 
#    0.000    0.000    0.000    0.000    0.000    0.000 
#
# Total GULP energy -89565.385571 kJ/mol
# GULP energy per Si atom -5597.836598 kJ/mol
# Density = 2.127953 g / cm^3
# Si number density = 21.328074 Si / 1000 Ang^3
#
#
#
# Elastic Constant Matrix: (Units=GPa)
#
#
# Indices 1 2 3 4 5 6 
#
# 1 51.4086 0.7534 6.8719 -6.2679 14.8994 -3.6239
# 2 0.7534 102.8141 12.9255 8.7837 15.8420 -19.2533
# 3 6.8719 12.9255 45.1458 0.9095 12.0885 -1.3179
# 4 -6.2679 8.7837 0.9095 20.3342 -13.6743 -0.6390
# 5 14.8994 15.8420 12.0885 -13.6743 30.2992 6.0140
# 6 -3.6239 -19.2533 -1.3179 -0.6390 6.0140 40.6660
#
#
#
# Elastic Compliance Matrix: (Units=1/GPa)
#
#
# Indices 1 2 3 4 5 6 
#
# 1 0.024594 0.004766 0.000495 -0.007438 -0.019577 0.007242
# 2 0.004766 0.017409 0.001656 -0.022241 -0.024526 0.011998
# 3 0.000495 0.001656 0.027250 -0.014765 -0.019511 0.004365
# 4 -0.007438 -0.022241 -0.014765 0.105552 0.072942 -0.020800
# 5 -0.019577 -0.024526 -0.019511 0.072942 0.101692 -0.027881
# 6 0.007242 0.011998 0.004365 -0.020800 -0.027881 0.034854
#
#
# Mechanical properties :
#
#
# Convention : Reuss Voigt Hill
#
# Bulk Modulus (GPa) = 12.03562 26.71890 19.37726
# Shear Modulus (GPa) = 15.37451 30.18106 22.77778
#
# Velocity S-wave (km/s) = 2.68779 3.76584 3.27153
# Velocity P-wave (km/s) = 3.90994 5.60924 4.83483
#
# Compressibility (1/GPa) = 0.08308667
#
# Stress axis : x y z
#
# Youngs Moduli (GPa) = 40.66103 57.44095 36.69677
#
# Poissons Ratio (x) = -0.27375 -0.01818
# Poissons Ratio (y) = -0.19378 -0.06076
# Poissons Ratio (z) = -0.02014 -0.09510
#
# Static dielectric constant tensor:
#      x y z
#    x 1.742800 0.009850 0.007190 
#    y 0.009850 1.738150 0.002720 
#    z 0.007190 0.002720 1.776850 
# 
# From -- ./inp_files/245138.got.cif
#   From: 2010.05.17/outbox.cif.g08.bks.cpg/sg2_123_cif.got.tgz:245138.got - 2010.06.03 11:33:40.
