data_PCOD9063670
_publ_section_title
;
Structure prediction by ZEFSAII (Michael W. Deem and Ramdas Pophale) SiO2 
 PCOD9063670
Probable space group: P -1
;
_chemical_formula_sum "Si O2"
_cell_formula_units_Z 16
_cell_length_a 20.300914
_cell_length_b 11.018502
_cell_length_c 8.277829
_cell_angle_alpha 135.802393
_cell_angle_beta 74.436330
_cell_angle_gamma 138.983296
_cell_volume 680.308362
_symmetry_space_group_name_H-M "P -1"
_symmetry_group_IT_number 2
_symmetry_cell_setting 'triclinic'
loop_
_space_group_symop_operation_xyz
x,y,z
-x,-y,-z
loop_
_atom_site_type_symbol
_atom_site_label
_atom_site_fract_x
_atom_site_fract_y
_atom_site_fract_z
Si Si1 0.868615 0.277796 0.794028
Si Si2 0.131093 0.198737 0.060456
Si Si3 0.295434 0.850631 0.704586
Si Si4 0.625996 0.868198 0.726670
Si Si5 0.792835 0.993093 0.223806
Si Si6 0.871228 0.697280 0.205600
Si Si7 0.609862 0.203242 0.994095
Si Si8 0.541968 0.275833 0.806977
O O1 0.738844 0.986381 0.703826
O O2 0.848101 0.140686 0.506331
O O3 0.868944 0.486928 0.970178
O O4 0.000000 0.500000 0.000000
O O5 0.234647 0.536065 0.402656
O O6 0.135050 0.004701 0.914949
O O7 0.146818 0.249901 0.905239
O O8 0.000000 0.000000 0.000000
O O9 0.207828 0.823809 0.688327
O O10 0.419510 0.128407 0.778855
O O11 0.329349 0.946241 0.959616
O O12 0.500000 0.500000 0.500000
O O13 0.595262 0.967731 0.724430
O O14 0.652511 0.613708 0.968897
O O15 0.758980 0.521849 0.227862
O O16 0.000000 0.000000 0.500000
O O17 0.590219 0.313730 0.984586
O O18 0.500000 0.000000 0.000000
O O19 0.500000 0.000000 0.500000
#
# Coordination Sequence:
#
# PCOD9063670 Si02
#       8
#     2   2   2   2   2   2   2   2
#     4  11  26  45  73 106 145 192 248 302 373 443
#     4  12  28  47  75 107 146 197 249 303 374 442
#     4  12  26  48  72 111 148 191 252 305 371 451
#     4  11  27  45  71 106 149 192 245 310 368 440
#     4  12  26  48  75 106 149 194 245 310 372 446
#     4  11  24  47  72 104 151 196 245 304 369 447
#     4  11  24  44  72 104 141 190 251 297 363 444
#     4  12  24  44  75 105 144 194 242 300 383 438
#
# _framework density 23.518744000000002
#
# number of rings (size 3 to 8) (size 9 to 14) (size 15 to 20)
#    0.000    0.500    5.000    1.875    8.750    1.500 
#    0.000    0.000    0.000    0.000    0.000    0.000 
#    0.000    0.000    0.000    0.000    0.000    0.000 
#
# Total GULP energy -89483.102757 kJ/mol
# GULP energy per Si atom -5592.693922 kJ/mol
# Density = 2.346521 g / cm^3
# Si number density = 23.518744 Si / 1000 Ang^3
#
#
#
# Elastic Constant Matrix: (Units=GPa)
#
#
# Indices 1 2 3 4 5 6 
#
# 1 124.1464 14.5412 24.0026 -4.4386 -18.3191 32.6167
# 2 14.5412 72.5498 12.2141 3.6355 8.1004 30.7911
# 3 24.0026 12.2141 132.1166 -6.1351 0.6995 9.3460
# 4 -4.4386 3.6355 -6.1351 31.3503 6.9623 6.0242
# 5 -18.3191 8.1004 0.6995 6.9623 32.8671 2.1494
# 6 32.6167 30.7911 9.3460 6.0242 2.1494 45.9402
#
#
#
# Elastic Compliance Matrix: (Units=1/GPa)
#
#
# Indices 1 2 3 4 5 6 
#
# 1 0.011658 0.000989 -0.001526 0.001536 0.006558 -0.009138
# 2 0.000989 0.019996 -0.000975 0.001116 -0.003685 -0.013880
# 3 -0.001526 -0.000975 0.008028 0.001736 -0.001144 -0.000070
# 4 0.001536 0.001116 0.001736 0.035002 -0.006446 -0.006480
# 5 0.006558 -0.003685 -0.001144 -0.006446 0.036563 -0.002819
# 6 -0.009138 -0.013880 -0.000070 -0.006480 -0.002819 0.038554
#
#
# Mechanical properties :
#
#
# Convention : Reuss Voigt Hill
#
# Bulk Modulus (GPa) = 27.27975 47.81429 37.54702
# Shear Modulus (GPa) = 30.29483 40.56851 35.43167
#
# Velocity S-wave (km/s) = 3.59292 4.15775 3.88561
# Velocity P-wave (km/s) = 5.36996 6.58966 6.01083
#
# Compressibility (1/GPa) = 0.03665722
#
# Stress axis : x y z
#
# Youngs Moduli (GPa) = 85.78088 50.01021 124.56189
#
# Poissons Ratio (x) = -0.04947 0.19013
# Poissons Ratio (y) = -0.08486 0.12146
# Poissons Ratio (z) = 0.13093 0.04877
#
# Static dielectric constant tensor:
#      x y z
#    x 1.950260 -0.017020 0.009880 
#    y -0.017020 1.911560 0.015980 
#    z 0.009880 0.015980 1.900920 
# 
# From -- ./inp_files/279571.got.cif
#   From: 2010.05.17/outbox.cif.g08.bks.cpg/sg2_140_cif.got.tgz:279571.got - 2010.06.03 11:33:40.
