data_PCOD9063957
_publ_section_title
;
Structure prediction by ZEFSAII (Michael W. Deem and Ramdas Pophale) SiO2 
 PCOD9063957
Probable space group: P -1
;
_chemical_formula_sum "Si O2"
_cell_formula_units_Z 14
_cell_length_a 10.937349
_cell_length_b 7.497278
_cell_length_c 16.953506
_cell_angle_alpha 127.684206
_cell_angle_beta 150.521978
_cell_angle_gamma 66.109276
_cell_volume 511.708312
_symmetry_space_group_name_H-M "P -1"
_symmetry_group_IT_number 2
_symmetry_cell_setting 'triclinic'
loop_
_space_group_symop_operation_xyz
x,y,z
-x,-y,-z
loop_
_atom_site_type_symbol
_atom_site_label
_atom_site_fract_x
_atom_site_fract_y
_atom_site_fract_z
Si Si1 0.543907 0.241224 0.000899
Si Si2 0.197887 0.495724 0.327740
Si Si3 0.925827 0.619160 0.568273
Si Si4 0.690511 0.462943 0.969790
Si Si5 0.413246 0.189276 0.177876
Si Si6 0.895815 0.979952 0.759088
Si Si7 0.518003 0.997431 0.348082
O O1 0.578107 0.351084 0.962130
O O2 0.818090 0.365399 0.232004
O O3 0.340982 0.283960 0.960954
O O4 0.484768 0.966832 0.870003
O O5 0.500000 0.500000 0.500000
O O6 0.074051 0.245296 0.234818
O O7 0.227539 0.764533 0.446489
O O8 0.993394 0.474417 0.135255
O O9 0.644236 0.434986 0.386332
O O10 0.890002 0.876243 0.639511
O O11 0.000000 0.500000 0.500000
O O12 0.498369 0.273692 0.751876
O O13 0.365425 0.059477 0.201749
O O14 0.145821 0.195904 0.988654
O O15 0.635718 0.007564 0.658151
#
# Coordination Sequence:
#
# PCOD9063957 Si02
#       7
#     2   2   2   2   2   2   2
#     4   9  20  34  50  75 105 138 174 204 256 319
#     4  10  18  27  47  77 110 131 165 199 252 317
#     4  11  22  36  52  74 102 139 184 216 245 298
#     4  10  18  33  49  77 113 132 163 212 260 321
#     4  10  18  32  54  73 106 138 162 217 265 299
#     4  10  19  30  48  81 107 128 174 207 262 316
#     4  10  18  28  53  79 110 135 156 209 274 311
#
# _framework density 27.359337
#
# number of rings (size 3 to 8) (size 9 to 14) (size 15 to 20)
#    0.000    2.000    5.714    0.429    2.000    3.429 
#    0.000    4.286    0.000    0.857    0.000    8.000 
#    0.000    0.000    0.000    0.000    0.000    0.000 
#
# Total GULP energy -77966.629818 kJ/mol
# GULP energy per Si atom -5569.044987 kJ/mol
# Density = 2.729707 g / cm^3
# Si number density = 27.359337 Si / 1000 Ang^3
#
#
#
# Elastic Constant Matrix: (Units=GPa)
#
#
# Indices 1 2 3 4 5 6 
#
# 1 123.0680 36.6573 31.2725 7.3064 -23.9837 -23.7067
# 2 36.6573 65.2605 19.6676 10.5943 -11.1060 -22.0119
# 3 31.2725 19.6676 176.5254 33.6670 -11.0630 -1.0379
# 4 7.3064 10.5943 33.6670 44.7510 -9.0266 -6.7143
# 5 -23.9837 -11.1060 -11.0630 -9.0266 51.5088 11.4377
# 6 -23.7067 -22.0119 -1.0379 -6.7143 11.4377 44.7484
#
#
#
# Elastic Compliance Matrix: (Units=1/GPa)
#
#
# Indices 1 2 3 4 5 6 
#
# 1 0.010963 -0.004359 -0.001513 0.001522 0.003446 0.002976
# 2 -0.004359 0.021079 -0.001085 -0.002277 0.000185 0.007645
# 3 -0.001513 -0.001085 0.007011 -0.005041 0.000119 -0.001960
# 4 0.001522 -0.002277 -0.005041 0.027527 0.003326 0.002849
# 5 0.003446 0.000185 0.000119 0.003326 0.022401 -0.003307
# 6 0.002976 0.007645 -0.001960 0.002849 -0.003307 0.028912
#
#
# Mechanical properties :
#
#
# Convention : Reuss Voigt Hill
#
# Bulk Modulus (GPa) = 39.78058 60.00540 49.89299
# Shear Modulus (GPa) = 35.66654 46.68540 41.17597
#
# Velocity S-wave (km/s) = 3.61450 4.13532 3.88365
# Velocity P-wave (km/s) = 5.65607 6.69186 6.19565
#
# Compressibility (1/GPa) = 0.02513789
#
# Stress axis : x y z
#
# Youngs Moduli (GPa) = 91.21684 47.44160 142.62830
#
# Poissons Ratio (x) = 0.20678 0.21585
# Poissons Ratio (y) = 0.39758 0.15481
# Poissons Ratio (z) = 0.13805 0.05149
#
# Static dielectric constant tensor:
#      x y z
#    x 2.242760 0.006980 -0.014520 
#    y 0.006980 2.410970 -0.018190 
#    z -0.014520 -0.018190 2.103860 
# 
# From -- ./inp_files/470689.got.cif
#   From: 2010.05.17/outbox.cif.g08.bks.cpg/sg2_236_cif.got.tgz:470689.got - 2010.06.03 11:33:40.
