data_PCOD9063246
_publ_section_title
;
Structure prediction by ZEFSAII (Michael W. Deem and Ramdas Pophale) SiO2 
 PCOD9063246
Probable space group: P -1
;
_chemical_formula_sum "Si O2"
_cell_formula_units_Z 16
_cell_length_a 11.441127
_cell_length_b 9.362426
_cell_length_c 15.344909
_cell_angle_alpha 141.301566
_cell_angle_beta 70.437900
_cell_angle_gamma 129.714689
_cell_volume 743.232154
_symmetry_space_group_name_H-M "P -1"
_symmetry_group_IT_number 2
_symmetry_cell_setting 'triclinic'
loop_
_space_group_symop_operation_xyz
x,y,z
-x,-y,-z
loop_
_atom_site_type_symbol
_atom_site_label
_atom_site_fract_x
_atom_site_fract_y
_atom_site_fract_z
Si Si1 0.042416 0.707235 0.005421
Si Si2 0.450730 0.611128 0.270210
Si Si3 0.994269 0.808202 0.739440
Si Si4 0.611874 0.977403 0.021792
Si Si5 0.238848 0.783792 0.589425
Si Si6 0.385549 0.200265 0.495268
Si Si7 0.623141 0.313548 0.341766
Si Si8 0.851159 0.474490 0.769811
O O1 0.899997 0.531205 0.885258
O O2 0.209797 0.830512 0.975361
O O3 0.000000 0.500000 0.000000
O O4 0.053278 0.986417 0.162754
O O5 0.488847 0.656665 0.386511
O O6 0.284807 0.509769 0.222782
O O7 0.586079 0.936505 0.352380
O O8 0.460095 0.361466 0.119274
O O9 0.858665 0.472966 0.579341
O O10 0.007654 0.749547 0.809019
O O11 0.150654 0.914391 0.698754
O O12 0.605430 0.091702 0.171129
O O13 0.500000 0.000000 0.000000
O O14 0.244409 0.621465 0.592979
O O15 0.469954 0.192512 0.384415
O O16 0.341143 0.408781 0.584598
O O17 0.226746 0.863329 0.393399
#
# Coordination Sequence:
#
# PCOD9063246 Si02
#       8
#     2   2   2   2   2   2   2   2
#     4  12  31  47  71 105 148 194 237 289 374 428
#     4  12  24  46  78 107 141 187 248 297 349 429
#     4  11  25  47  70 102 152 185 240 297 363 425
#     4  12  28  48  73 105 149 186 239 302 355 427
#     4  11  25  43  73 109 139 188 243 304 351 423
#     4  11  24  43  73 107 141 186 242 294 360 419
#     4  11  25  42  69 107 144 181 241 296 358 417
#     4  12  24  46  74 100 141 195 237 293 356 429
#
# _framework density 21.527594000000001
#
# number of rings (size 3 to 8) (size 9 to 14) (size 15 to 20)
#    0.000    0.500    5.000    2.250    7.000    0.500 
#    0.000    1.250    0.000    0.000    0.000    0.000 
#    0.000    0.000    0.000    0.000    0.000    0.000 
#
# Total GULP energy -89416.538795 kJ/mol
# GULP energy per Si atom -5588.533675 kJ/mol
# Density = 2.147860 g / cm^3
# Si number density = 21.527594 Si / 1000 Ang^3
#
#
#
# Elastic Constant Matrix: (Units=GPa)
#
#
# Indices 1 2 3 4 5 6 
#
# 1 107.4050 38.4814 34.1474 -9.6792 -14.2158 -17.9019
# 2 38.4814 80.1010 52.5971 0.4875 -10.4671 -30.0796
# 3 34.1474 52.5971 108.3457 -15.6565 -27.6850 -12.6836
# 4 -9.6792 0.4875 -15.6565 34.1864 -6.9959 -2.7486
# 5 -14.2158 -10.4671 -27.6850 -6.9959 39.8997 -0.4587
# 6 -17.9019 -30.0796 -12.6836 -2.7486 -0.4587 42.7744
#
#
#
# Elastic Compliance Matrix: (Units=1/GPa)
#
#
# Indices 1 2 3 4 5 6 
#
# 1 0.012272 -0.004918 0.000610 0.004901 0.004390 0.002220
# 2 -0.004918 0.027294 -0.012319 -0.007253 -0.004262 0.012970
# 3 0.000610 -0.012319 0.019823 0.011918 0.012811 -0.001626
# 4 0.004901 -0.007253 0.011918 0.039543 0.015083 0.003187
# 5 0.004390 -0.004262 0.012811 0.015083 0.037088 0.004006
# 6 0.002220 0.012970 -0.001626 0.003187 0.004006 0.033194
#
#
# Mechanical properties :
#
#
# Convention : Reuss Voigt Hill
#
# Bulk Modulus (GPa) = 38.26427 60.70038 49.48233
# Shear Modulus (GPa) = 23.67657 34.74715 29.21186
#
# Velocity S-wave (km/s) = 3.31996 4.02191 3.68768
# Velocity P-wave (km/s) = 5.70169 7.05872 6.41618
#
# Compressibility (1/GPa) = 0.02613404
#
# Stress axis : x y z
#
# Youngs Moduli (GPa) = 81.48951 36.63850 50.44660
#
# Poissons Ratio (x) = 0.18020 -0.03076
# Poissons Ratio (y) = 0.40079 0.62143
# Poissons Ratio (z) = -0.04969 0.45133
#
# Static dielectric constant tensor:
#      x y z
#    x 1.788290 0.018030 0.013470 
#    y 0.018030 1.832850 -0.070680 
#    z 0.013470 -0.070680 1.808710 
# 
# From -- ./inp_files/298228.got.cif
#   From: 2010.05.17/outbox.cif.g08.bks.cpg/sg2_150_cif.got.tgz:298228.got - 2010.06.03 11:33:40.
