data_PCOD9063291
_publ_section_title
;
Structure prediction by ZEFSAII (Michael W. Deem and Ramdas Pophale) SiO2 
 PCOD9063291
Probable space group: P -1
;
_chemical_formula_sum "Si O2"
_cell_formula_units_Z 14
_cell_length_a 7.760432
_cell_length_b 8.716990
_cell_length_c 23.393514
_cell_angle_alpha 139.015763
_cell_angle_beta 144.269041
_cell_angle_gamma 54.863308
_cell_volume 603.233756
_symmetry_space_group_name_H-M "P -1"
_symmetry_group_IT_number 2
_symmetry_cell_setting 'triclinic'
loop_
_space_group_symop_operation_xyz
x,y,z
-x,-y,-z
loop_
_atom_site_type_symbol
_atom_site_label
_atom_site_fract_x
_atom_site_fract_y
_atom_site_fract_z
Si Si1 0.921801 0.816379 0.210203
Si Si2 0.782240 0.625340 0.239772
Si Si3 0.212754 0.558818 0.021405
Si Si4 0.329912 0.620142 0.439079
Si Si5 0.329169 0.470088 0.604028
Si Si6 0.576616 0.875402 0.364735
Si Si7 0.672390 0.968622 0.872683
O O1 0.931215 0.783007 0.272156
O O2 0.234799 0.923174 0.299347
O O3 0.626122 0.944276 0.153117
O O4 0.891201 0.561796 0.099646
O O5 0.524892 0.464537 0.094306
O O6 0.620956 0.768607 0.284621
O O7 0.021148 0.487678 0.297932
O O8 0.273305 0.836942 0.107617
O O9 0.000000 0.500000 0.000000
O O10 0.500000 0.500000 0.500000
O O11 0.523291 0.650758 0.443121
O O12 0.249129 0.870737 0.509581
O O13 0.329124 0.306742 0.613695
O O14 0.541197 0.710024 0.743113
O O15 0.000000 0.500000 0.500000
O O16 0.000000 0.000000 0.000000
#
# Coordination Sequence:
#
# PCOD9063291 Si02
#       7
#     2   2   2   2   2   2   2
#     4  11  24  46  76 106 143 196 236 300 377 433
#     4  11  24  43  75 101 146 183 247 294 366 431
#     4  11  24  46  76 107 143 195 240 295 376 444
#     4  12  28  44  71 108 147 191 248 306 368 439
#     4  12  27  46  74 108 151 196 251 307 370 443
#     4  12  25  48  74 103 145 196 246 297 376 440
#     4  11  26  44  74 111 147 188 253 308 362 444
#
# _framework density 23.208248000000001
#
# number of rings (size 3 to 8) (size 9 to 14) (size 15 to 20)
#    0.000    0.571    2.857    5.143   10.000    0.000 
#    0.000    0.714    0.000    0.000    0.000    0.000 
#    0.000    0.000    0.000    0.000    0.000    0.000 
#
# Total GULP energy -78177.345841 kJ/mol
# GULP energy per Si atom -5584.096131 kJ/mol
# Density = 2.315543 g / cm^3
# Si number density = 23.208248 Si / 1000 Ang^3
#
#
#
# Elastic Constant Matrix: (Units=GPa)
#
#
# Indices 1 2 3 4 5 6 
#
# 1 135.6898 23.4228 25.9885 -13.5000 -18.8646 -3.7653
# 2 23.4228 107.3335 64.9216 -14.8299 -8.4444 5.8649
# 3 25.9885 64.9216 132.1200 -24.7476 3.6574 6.4776
# 4 -13.5000 -14.8299 -24.7476 57.2872 -12.5267 7.8303
# 5 -18.8646 -8.4444 3.6574 -12.5267 51.5171 -8.6360
# 6 -3.7653 5.8649 6.4776 7.8303 -8.6360 34.7792
#
#
#
# Elastic Compliance Matrix: (Units=1/GPa)
#
#
# Indices 1 2 3 4 5 6 
#
# 1 0.008485 -0.000672 -0.001173 0.001917 0.003843 0.001773
# 2 -0.000672 0.013789 -0.006427 0.001330 0.002653 -0.000842
# 3 -0.001173 -0.006427 0.011692 0.003004 -0.001983 -0.002390
# 4 0.001917 0.001330 0.003004 0.021241 0.005189 -0.004070
# 5 0.003843 0.002653 -0.001983 0.005189 0.023495 0.005004
# 6 0.001773 -0.000842 -0.002390 -0.004070 0.005004 0.031691
#
#
# Mechanical properties :
#
#
# Convention : Reuss Voigt Hill
#
# Bulk Modulus (GPa) = 57.39505 67.08992 62.24248
# Shear Modulus (GPa) = 37.66695 46.10405 41.88550
#
# Velocity S-wave (km/s) = 4.03302 4.46189 4.25286
# Velocity P-wave (km/s) = 6.81697 7.45085 7.14095
#
# Compressibility (1/GPa) = 0.01742311
#
# Stress axis : x y z
#
# Youngs Moduli (GPa) = 117.85992 72.52155 85.52636
#
# Poissons Ratio (x) = 0.04870 0.10034
# Poissons Ratio (y) = 0.07915 0.54964
# Poissons Ratio (z) = 0.13828 0.46607
#
# Static dielectric constant tensor:
#      x y z
#    x 1.884650 -0.052290 0.038420 
#    y -0.052290 1.891150 -0.044700 
#    z 0.038420 -0.044700 2.016870 
# 
# From -- ./inp_files/606897.got.cif
#   From: 2010.05.17/outbox.cif.g08.bks.cpg/sg2_304_cif.got.tgz:606897.got - 2010.06.03 11:33:40.
