data_PCOD9063560
_publ_section_title
;
Structure prediction by ZEFSAII (Michael W. Deem and Ramdas Pophale) SiO2 
 PCOD9063560
Probable space group: P -1
;
_chemical_formula_sum "Si O2"
_cell_formula_units_Z 16
_cell_length_a 11.402823
_cell_length_b 8.328334
_cell_length_c 14.682837
_cell_angle_alpha 50.029605
_cell_angle_beta 42.380411
_cell_angle_gamma 53.821090
_cell_volume 701.976207
_symmetry_space_group_name_H-M "P -1"
_symmetry_group_IT_number 2
_symmetry_cell_setting 'triclinic'
loop_
_space_group_symop_operation_xyz
x,y,z
-x,-y,-z
loop_
_atom_site_type_symbol
_atom_site_label
_atom_site_fract_x
_atom_site_fract_y
_atom_site_fract_z
Si Si1 0.450160 0.975848 0.779543
Si Si2 0.315916 0.717435 0.111907
Si Si3 0.638929 0.766222 0.000087
Si Si4 0.954778 0.886116 0.354163
Si Si5 0.831356 0.691115 0.653191
Si Si6 0.013278 0.713846 0.708931
Si Si7 0.359382 0.873232 0.666365
Si Si8 0.308849 0.436034 0.764357
O O1 0.661353 0.883175 0.698454
O O2 0.383946 0.891040 0.753899
O O3 0.417761 0.234221 0.716496
O O4 0.354825 0.869362 0.953522
O O5 0.502739 0.631112 0.087758
O O6 0.237722 0.517171 0.200953
O O7 0.160125 0.834938 0.226313
O O8 0.717735 0.680477 0.083311
O O9 0.808150 0.748709 0.845577
O O10 0.500000 0.000000 0.000000
O O11 0.878682 0.702905 0.515159
O O12 0.835999 0.989149 0.299874
O O13 0.927926 0.069458 0.379256
O O14 0.006320 0.682942 0.616585
O O15 0.137108 0.533109 0.765504
O O16 0.380973 0.642192 0.686253
O O17 0.500000 0.000000 0.500000
#
# Coordination Sequence:
#
# PCOD9063560 Si02
#       8
#     2   2   2   2   2   2   2   2
#     4  12  25  49  77 109 144 193 252 299 365 444
#     4  12  26  44  74 110 141 193 248 303 366 434
#     4  12  21  44  73 103 146 192 242 301 363 433
#     4  11  25  48  70 107 149 193 244 302 371 437
#     4  12  25  46  73 108 147 192 247 305 364 440
#     4  11  24  44  70 107 145 187 248 301 366 437
#     4  11  26  49  73 108 152 193 241 307 370 436
#     4  11  26  45  73 110 147 195 239 309 371 431
#
# _framework density 22.792795999999999
#
# number of rings (size 3 to 8) (size 9 to 14) (size 15 to 20)
#    0.000    0.500    5.000    2.250    3.500    2.000 
#    0.000    0.000    0.000    0.000    0.000    0.000 
#    0.000    0.000    0.000    0.000    0.000    0.000 
#
# Total GULP energy -89336.443118 kJ/mol
# GULP energy per Si atom -5583.527695 kJ/mol
# Density = 2.274092 g / cm^3
# Si number density = 22.792796 Si / 1000 Ang^3
#
#
#
# Elastic Constant Matrix: (Units=GPa)
#
#
# Indices 1 2 3 4 5 6 
#
# 1 148.2710 42.9400 18.0329 -12.8863 21.9090 -2.1158
# 2 42.9400 138.1476 35.7419 -11.8392 6.6138 2.2736
# 3 18.0329 35.7419 105.4947 -4.2389 5.8791 -9.8948
# 4 -12.8863 -11.8392 -4.2389 7.7247 -0.0366 2.0817
# 5 21.9090 6.6138 5.8791 -0.0366 30.7573 -1.3727
# 6 -2.1158 2.2736 -9.8948 2.0817 -1.3727 33.9236
#
#
#
# Elastic Compliance Matrix: (Units=1/GPa)
#
#
# Indices 1 2 3 4 5 6 
#
# 1 0.009241 -0.001353 -0.000285 0.013287 -0.006243 -0.000484
# 2 -0.001353 0.009379 -0.002666 0.011246 -0.000628 -0.002206
# 3 -0.000285 -0.002666 0.010819 0.000497 -0.001147 0.003240
# 4 0.013287 0.011246 0.000497 0.171988 -0.012256 -0.010830
# 5 -0.006243 -0.000628 -0.001147 -0.012256 0.037370 0.001583
# 6 -0.000484 -0.002206 0.003240 -0.010830 0.001583 0.031269
#
#
# Mechanical properties :
#
#
# Convention : Reuss Voigt Hill
#
# Bulk Modulus (GPa) = 48.00638 65.03811 56.52224
# Shear Modulus (GPa) = 17.50583 34.16101 25.83342
#
# Velocity S-wave (km/s) = 2.77436 3.87559 3.37026
# Velocity P-wave (km/s) = 5.60095 6.97304 6.32432
#
# Compressibility (1/GPa) = 0.02083056
#
# Stress axis : x y z
#
# Youngs Moduli (GPa) = 108.20988 106.61786 92.43043
#
# Poissons Ratio (x) = 0.14428 0.02632
# Poissons Ratio (y) = 0.14643 0.24646
# Poissons Ratio (z) = 0.03082 0.28429
#
# Static dielectric constant tensor:
#      x y z
#    x 1.887880 0.071320 0.019610 
#    y 0.071320 1.947880 -0.035010 
#    z 0.019610 -0.035010 1.835320 
# 
# From -- ./inp_files/515006.got.cif
#   From: 2010.05.17/outbox.cif.g08.bks.cpg/sg2_258_cif.got.tgz:515006.got - 2010.06.03 11:33:40.
