data_PCOD9063730
_publ_section_title
;
Structure prediction by ZEFSAII (Michael W. Deem and Ramdas Pophale) SiO2 
 PCOD9063730
Probable space group: P -1
;
_chemical_formula_sum "Si O2"
_cell_formula_units_Z 16
_cell_length_a 19.319793
_cell_length_b 9.840338
_cell_length_c 17.871980
_cell_angle_alpha 38.235629
_cell_angle_beta 149.172035
_cell_angle_gamma 154.440839
_cell_volume 750.329155
_symmetry_space_group_name_H-M "P -1"
_symmetry_group_IT_number 2
_symmetry_cell_setting 'triclinic'
loop_
_space_group_symop_operation_xyz
x,y,z
-x,-y,-z
loop_
_atom_site_type_symbol
_atom_site_label
_atom_site_fract_x
_atom_site_fract_y
_atom_site_fract_z
Si Si1 0.553733 0.843534 0.074595
Si Si2 0.500993 0.235547 0.107339
Si Si3 0.736169 0.816221 0.666811
Si Si4 0.071284 0.836531 0.624739
Si Si5 0.907170 0.477040 0.347644
Si Si6 0.776213 0.812637 0.877180
Si Si7 0.288412 0.767767 0.365157
Si Si8 0.382959 0.699300 0.330856
O O1 0.360119 0.476742 0.067219
O O2 0.741009 0.963306 0.235856
O O3 0.602098 0.933785 0.994004
O O4 0.500000 0.000000 0.000000
O O5 0.715487 0.388877 0.227017
O O6 0.416944 0.980150 0.205012
O O7 0.500000 0.500000 0.000000
O O8 0.692726 0.705174 0.760876
O O9 0.583949 0.812184 0.491524
O O10 0.722442 0.583390 0.703560
O O11 0.942552 0.178299 0.699636
O O12 0.129211 0.781992 0.624921
O O13 0.881293 0.482911 0.626774
O O14 0.000000 0.000000 0.500000
O O15 0.000000 0.500000 0.500000
O O16 0.754028 0.036420 0.784196
O O17 0.000000 0.000000 0.000000
O O18 0.276981 0.599975 0.354831
O O19 0.500000 0.000000 0.500000
#
# Coordination Sequence:
#
# PCOD9063730 Si02
#       8
#     2   2   2   2   2   2   2   2
#     4  12  25  46  70 103 148 185 241 295 355 436
#     4  12  27  47  73 105 148 193 236 299 372 429
#     4  11  24  44  73 104 144 187 238 294 363 429
#     4  12  28  44  73 109 140 191 244 298 361 431
#     4  12  25  46  72 104 147 187 241 296 366 438
#     4  12  24  44  72 102 142 188 235 291 359 424
#     4  12  24  46  70 103 143 181 243 291 352 430
#     4  11  25  44  71 107 140 190 237 297 359 429
#
# _framework density 21.323974
#
# number of rings (size 3 to 8) (size 9 to 14) (size 15 to 20)
#    0.000    0.250    5.000    3.750    3.500    0.000 
#    0.000    1.875    0.000    0.000    0.000    0.000 
#    0.000    0.000    0.000    0.000    0.000    0.000 
#
# Total GULP energy -89418.040282 kJ/mol
# GULP energy per Si atom -5588.627518 kJ/mol
# Density = 2.127544 g / cm^3
# Si number density = 21.323974 Si / 1000 Ang^3
#
#
#
# Elastic Constant Matrix: (Units=GPa)
#
#
# Indices 1 2 3 4 5 6 
#
# 1 102.3415 -0.9864 33.6475 3.3491 3.1725 -24.2909
# 2 -0.9864 51.7261 24.9757 -4.1437 13.5052 -2.8364
# 3 33.6475 24.9757 141.2715 3.7734 19.0769 -11.2482
# 4 3.3491 -4.1437 3.7734 43.3723 -5.2796 5.1115
# 5 3.1725 13.5052 19.0769 -5.2796 47.4048 -3.4769
# 6 -24.2909 -2.8364 -11.2482 5.1115 -3.4769 42.5694
#
#
#
# Elastic Compliance Matrix: (Units=1/GPa)
#
#
# Indices 1 2 3 4 5 6 
#
# 1 0.012273 0.001763 -0.002689 -0.001309 0.000095 0.006575
# 2 0.001763 0.022609 -0.003738 0.001654 -0.004802 0.000934
# 3 -0.002689 -0.003738 0.008776 -0.001262 -0.002391 0.000491
# 4 -0.001309 0.001654 -0.001262 0.024167 0.002547 -0.003664
# 5 0.000095 -0.004802 -0.002391 0.002547 0.023756 0.000737
# 6 0.006575 0.000934 0.000491 -0.003664 0.000737 0.027935
#
#
# Mechanical properties :
#
#
# Convention : Reuss Voigt Hill
#
# Bulk Modulus (GPa) = 29.13007 45.62362 37.37685
# Shear Modulus (GPa) = 35.64119 42.51612 39.07865
#
# Velocity S-wave (km/s) = 4.09273 4.47006 4.28555
# Velocity P-wave (km/s) = 6.00202 6.93425 6.48491
#
# Compressibility (1/GPa) = 0.03432879
#
# Stress axis : x y z
#
# Youngs Moduli (GPa) = 81.48106 44.23055 113.95071
#
# Poissons Ratio (x) = -0.07800 0.30644
# Poissons Ratio (y) = -0.14369 0.42600
# Poissons Ratio (z) = 0.21912 0.16535
#
# Static dielectric constant tensor:
#      x y z
#    x 1.403080 -0.102590 -0.311980 
#    y -0.102590 1.704700 -0.082130 
#    z -0.311980 -0.082130 1.499840 
# 
# From -- ./inp_files/209193.got.cif
#   From: 2010.05.17/outbox.cif.g08.bks.cpg/sg2_105_cif.got.tgz:209193.got - 2010.06.03 11:33:40.
