data_PCOD9063638
_publ_section_title
;
Structure prediction by ZEFSAII (Michael W. Deem and Ramdas Pophale) SiO2 
 PCOD9063638
Probable space group: P -1
;
_chemical_formula_sum "Si O2"
_cell_formula_units_Z 16
_cell_length_a 10.405317
_cell_length_b 18.395432
_cell_length_c 7.022886
_cell_angle_alpha 56.148072
_cell_angle_beta 42.543847
_cell_angle_gamma 40.529279
_cell_volume 590.637582
_symmetry_space_group_name_H-M "P -1"
_symmetry_group_IT_number 2
_symmetry_cell_setting 'triclinic'
loop_
_space_group_symop_operation_xyz
x,y,z
-x,-y,-z
loop_
_atom_site_type_symbol
_atom_site_label
_atom_site_fract_x
_atom_site_fract_y
_atom_site_fract_z
Si Si1 0.330171 0.529283 0.412762
Si Si2 0.069268 0.120493 0.680341
Si Si3 0.170948 0.291265 0.410054
Si Si4 0.650414 0.124872 0.235006
Si Si5 0.841799 0.389673 0.091030
Si Si6 0.907808 0.850472 0.781187
Si Si7 0.325031 0.329046 0.775648
Si Si8 0.598436 0.096026 0.886013
O O1 0.589373 0.495046 0.125006
O O2 0.233644 0.596162 0.621114
O O3 0.383341 0.412884 0.567569
O O4 0.105440 0.602614 0.407809
O O5 0.155604 0.189294 0.557674
O O6 0.944686 0.171950 0.538518
O O7 0.282951 0.989388 0.589713
O O8 0.874599 0.125879 0.013347
O O9 0.390584 0.241461 0.389186
O O10 0.245548 0.322637 0.088574
O O11 0.626313 0.107980 0.061018
O O12 0.947206 0.264936 0.095149
O O13 0.077088 0.383453 0.849726
O O14 0.657349 0.876476 0.937351
O O15 0.815946 0.967190 0.796641
O O16 0.556944 0.199830 0.671803
#
# Coordination Sequence:
#
# PCOD9063638 Si02
#       8
#     2   2   2   2   2   2   2   2
#     4  10  18  27  46  71 100 131 163 201 252 293
#     4  11  20  34  51  75 104 133 172 205 250 304
#     4  10  18  31  48  70 101 133 161 212 249 291
#     4  10  22  33  51  74 105 134 171 207 247 302
#     4   9  17  28  43  68 101 129 155 205 246 290
#     4  10  18  33  52  75 107 132 166 201 258 303
#     4   9  17  29  43  71 102 129 160 199 251 298
#     4   9  19  33  51  75 107 136 159 206 254 305
#
# _framework density 27.089372999999998
#
# number of rings (size 3 to 8) (size 9 to 14) (size 15 to 20)
#    0.000    2.250    5.000    1.875    3.500    1.500 
#    0.000    0.000    0.000    0.000    0.000    1.750 
#    7.500    0.125    0.000    0.000    0.000    0.000 
#
# Total GULP energy -89426.567929 kJ/mol
# GULP energy per Si atom -5589.160496 kJ/mol
# Density = 2.702772 g / cm^3
# Si number density = 27.089373 Si / 1000 Ang^3
#
#
#
# Elastic Constant Matrix: (Units=GPa)
#
#
# Indices 1 2 3 4 5 6 
#
# 1 60.2894 11.1525 16.6592 6.9457 -6.7833 -19.0127
# 2 11.1525 143.2389 23.1939 -1.1001 -23.4914 -5.7137
# 3 16.6592 23.1939 73.3698 2.4148 -15.4643 6.8280
# 4 6.9457 -1.1001 2.4148 50.6612 0.5971 -5.6275
# 5 -6.7833 -23.4914 -15.4643 0.5971 33.7449 10.4920
# 6 -19.0127 -5.7137 6.8280 -5.6275 10.4920 44.7778
#
#
#
# Elastic Compliance Matrix: (Units=1/GPa)
#
#
# Indices 1 2 3 4 5 6 
#
# 1 0.021558 -0.000639 -0.006031 -0.001516 -0.002044 0.010280
# 2 -0.000639 0.008050 -0.001363 0.000253 0.004894 -0.000151
# 3 -0.006031 -0.001363 0.017945 -0.000999 0.008435 -0.007573
# 4 -0.001516 0.000253 -0.000999 0.020297 -0.001721 0.002495
# 5 -0.002044 0.004894 0.008435 -0.001721 0.039982 -0.011114
# 6 0.010280 -0.000151 -0.007573 0.002495 -0.011114 0.030751
#
#
# Mechanical properties :
#
#
# Convention : Reuss Voigt Hill
#
# Bulk Modulus (GPa) = 31.75704 42.10104 36.92904
# Shear Modulus (GPa) = 30.27675 40.89629 35.58652
#
# Velocity S-wave (km/s) = 3.34677 3.88968 3.62839
# Velocity P-wave (km/s) = 5.16556 5.97897 5.58709
#
# Compressibility (1/GPa) = 0.03148908
#
# Stress axis : x y z
#
# Youngs Moduli (GPa) = 46.38709 124.22017 55.72539
#
# Poissons Ratio (x) = 0.07936 0.33606
# Poissons Ratio (y) = 0.02963 0.07593
# Poissons Ratio (z) = 0.27974 0.16926
#
# Static dielectric constant tensor:
#      x y z
#    x 2.154810 0.019670 0.044400 
#    y 0.019670 2.124100 0.077510 
#    z 0.044400 0.077510 2.150140 
# 
# From -- ./inp_files/457943.got.cif
#   From: 2010.05.17/outbox.cif.g08.bks.cpg/sg2_229_cif.got.tgz:457943.got - 2010.06.03 11:33:40.
