data_PCOD9063915
_publ_section_title
;
Structure prediction by ZEFSAII (Michael W. Deem and Ramdas Pophale) SiO2 
 PCOD9063915
Probable space group: P -1
;
_chemical_formula_sum "Si O2"
_cell_formula_units_Z 14
_cell_length_a 6.903628
_cell_length_b 18.283483
_cell_length_c 5.078114
_cell_angle_alpha 93.922267
_cell_angle_beta 101.781363
_cell_angle_gamma 94.128946
_cell_volume 623.569185
_symmetry_space_group_name_H-M "P -1"
_symmetry_group_IT_number 2
_symmetry_cell_setting 'triclinic'
loop_
_space_group_symop_operation_xyz
x,y,z
-x,-y,-z
loop_
_atom_site_type_symbol
_atom_site_label
_atom_site_fract_x
_atom_site_fract_y
_atom_site_fract_z
Si Si1 0.461123 0.948275 0.726481
Si Si2 0.332971 0.458761 0.120458
Si Si3 0.732206 0.284749 0.679042
Si Si4 0.078716 0.556822 0.315124
Si Si5 0.468235 0.297386 0.125252
Si Si6 0.945191 0.145560 0.533718
Si Si7 0.200516 0.157406 0.082408
O O1 0.617971 0.887384 0.784429
O O2 0.500000 0.000000 0.500000
O O3 0.239792 0.909274 0.625342
O O4 0.500000 0.000000 0.000000
O O5 0.290871 0.523522 0.324643
O O6 0.395861 0.377975 0.169447
O O7 0.500000 0.500000 0.000000
O O8 0.109640 0.446553 0.935771
O O9 0.863994 0.356625 0.625194
O O10 0.555116 0.273518 0.419476
O O11 0.854245 0.214297 0.669591
O O12 0.635819 0.298021 0.941890
O O13 0.000000 0.500000 0.500000
O O14 0.290284 0.235374 0.003959
O O15 0.068144 0.167596 0.308101
O O16 0.080286 0.116011 0.797179
#
# Coordination Sequence:
#
# PCOD9063915 Si02
#       7
#     2   2   2   2   2   2   2
#     4  12  28  50  79 113 155 188 241 306 366 444
#     4  11  24  45  64 100 138 191 242 303 363 426
#     4  12  26  46  73 106 145 197 241 309 362 428
#     4  11  26  41  69  99 144 187 249 303 365 426
#     4  12  26  45  76 101 147 193 248 302 368 432
#     4  12  27  48  78 110 153 193 251 297 367 442
#     4  12  27  48  78 112 146 200 244 299 373 439
#
# _framework density 22.451398000000001
#
# number of rings (size 3 to 8) (size 9 to 14) (size 15 to 20)
#    0.000    0.286    2.857    5.143    8.000    4.571 
#    0.000    0.000    0.000    0.000    0.000    0.000 
#    0.000    0.000    0.000    0.000    0.000    0.000 
#
# Total GULP energy -78189.666651 kJ/mol
# GULP energy per Si atom -5584.976189 kJ/mol
# Density = 2.240030 g / cm^3
# Si number density = 22.451398 Si / 1000 Ang^3
#
#
#
# Elastic Constant Matrix: (Units=GPa)
#
#
# Indices 1 2 3 4 5 6 
#
# 1 93.4121 32.9292 16.0587 0.4517 2.1264 12.8783
# 2 32.9292 119.5991 15.8402 -3.5523 6.1954 13.6359
# 3 16.0587 15.8402 92.3041 -3.4378 3.2418 0.0781
# 4 0.4517 -3.5523 -3.4378 29.0082 2.7342 4.1301
# 5 2.1264 6.1954 3.2418 2.7342 46.3051 -0.0291
# 6 12.8783 13.6359 0.0781 4.1301 -0.0291 32.2431
#
#
#
# Elastic Compliance Matrix: (Units=1/GPa)
#
#
# Indices 1 2 3 4 5 6 
#
# 1 0.012505 -0.002788 -0.001698 -0.000191 -0.000073 -0.003787
# 2 -0.002788 0.009752 -0.001081 0.001682 -0.001202 -0.003224
# 3 -0.001698 -0.001081 0.011380 0.001167 -0.000642 0.000958
# 4 -0.000191 0.001682 0.001167 0.035792 -0.002415 -0.005224
# 5 -0.000073 -0.001202 -0.000642 -0.002415 0.021948 0.000868
# 6 -0.003787 -0.003224 0.000958 -0.005224 0.000868 0.034558
#
#
# Mechanical properties :
#
#
# Convention : Reuss Voigt Hill
#
# Bulk Modulus (GPa) = 44.44071 48.33016 46.38543
# Shear Modulus (GPa) = 34.58528 37.54376 36.06452
#
# Velocity S-wave (km/s) = 3.92912 4.09372 4.01226
# Velocity P-wave (km/s) = 6.35776 6.62707 6.49381
#
# Compressibility (1/GPa) = 0.02250189
#
# Stress axis : x y z
#
# Youngs Moduli (GPa) = 79.96952 102.54366 87.87394
#
# Poissons Ratio (x) = 0.28590 0.14925
# Poissons Ratio (y) = 0.22296 0.09498
# Poissons Ratio (z) = 0.13582 0.11083
#
# Static dielectric constant tensor:
#      x y z
#    x 1.820110 -0.034190 0.032510 
#    y -0.034190 2.009060 0.109570 
#    z 0.032510 0.109570 1.907170 
# 
# From -- ./inp_files/7699.got.cif
#   From: 2010.05.17/outbox.cif.g08.bks.cpg/sg2_4_cif.got.tgz:7699.got - 2010.06.03 11:33:40.
