data_PCOD9063990
_publ_section_title
;
Structure prediction by ZEFSAII (Michael W. Deem and Ramdas Pophale) SiO2 
 PCOD9063990
Probable space group: P -1
;
_chemical_formula_sum "Si O2"
_cell_formula_units_Z 16
_cell_length_a 9.212421
_cell_length_b 19.741399
_cell_length_c 11.417124
_cell_angle_alpha 41.299969
_cell_angle_beta 137.969126
_cell_angle_gamma 143.996826
_cell_volume 755.212865
_symmetry_space_group_name_H-M "P -1"
_symmetry_group_IT_number 2
_symmetry_cell_setting 'triclinic'
loop_
_space_group_symop_operation_xyz
x,y,z
-x,-y,-z
loop_
_atom_site_type_symbol
_atom_site_label
_atom_site_fract_x
_atom_site_fract_y
_atom_site_fract_z
Si Si1 0.706588 0.376714 0.010032
Si Si2 0.900315 0.855289 0.624777
Si Si3 0.834605 0.230138 0.636357
Si Si4 0.932787 0.034789 0.036451
Si Si5 0.344173 0.804249 0.990461
Si Si6 0.411600 0.183438 0.290947
Si Si7 0.380848 0.691363 0.390576
Si Si8 0.643192 0.543722 0.405241
O O1 0.653130 0.276087 0.009862
O O2 0.517289 0.422272 0.816744
O O3 0.611239 0.300026 0.175008
O O4 0.000000 0.500000 0.000000
O O5 0.730472 0.789715 0.726612
O O6 0.693532 0.787714 0.481954
O O7 0.000000 0.000000 0.500000
O O8 0.141951 0.840894 0.790410
O O9 0.581424 0.145246 0.513206
O O10 0.763277 0.299825 0.594966
O O11 0.072161 0.331304 0.567885
O O12 0.923143 0.154048 0.857379
O O13 0.169761 0.073082 0.215942
O O14 0.637923 0.924163 0.035184
O O15 0.000000 0.000000 0.000000
O O16 0.279208 0.726804 0.171346
O O17 0.334275 0.560401 0.505587
O O18 0.500000 0.500000 0.500000
#
# Coordination Sequence:
#
# PCOD9063990 Si02
#       8
#     2   2   2   2   2   2   2   2
#     4  12  25  46  67 103 143 184 236 288 349 417
#     4  11  25  47  69 106 142 181 235 289 352 424
#     4  11  25  45  68 100 139 181 230 283 350 415
#     4  12  24  45  68 104 139 178 234 287 347 415
#     4  12  24  44  73 101 138 185 228 287 352 413
#     4  11  24  45  69 100 139 181 228 290 347 406
#     4  11  25  44  70 102 138 184 231 286 348 415
#     4  12  23  45  69 100 140 183 234 288 341 416
#
# _framework density 21.186077999999998
#
# number of rings (size 3 to 8) (size 9 to 14) (size 15 to 20)
#    0.000    0.500    3.750    4.875    0.000    2.000 
#    2.250    1.875    0.000    0.000    0.000    0.000 
#    0.000    0.000    0.000    0.000    0.000    0.000 
#
# Total GULP energy -89434.349707 kJ/mol
# GULP energy per Si atom -5589.646857 kJ/mol
# Density = 2.113786 g / cm^3
# Si number density = 21.186078 Si / 1000 Ang^3
#
#
#
# Elastic Constant Matrix: (Units=GPa)
#
#
# Indices 1 2 3 4 5 6 
#
# 1 90.7004 14.2438 24.5159 -6.0037 -4.3477 9.7186
# 2 14.2438 96.4361 20.5852 0.5325 10.4008 11.5592
# 3 24.5159 20.5852 89.0477 6.5912 10.2323 -1.9204
# 4 -6.0037 0.5325 6.5912 32.9158 1.6500 1.7030
# 5 -4.3477 10.4008 10.2323 1.6500 36.8180 0.9790
# 6 9.7186 11.5592 -1.9204 1.7030 0.9790 38.1375
#
#
#
# Elastic Compliance Matrix: (Units=1/GPa)
#
#
# Indices 1 2 3 4 5 6 
#
# 1 0.012974 -0.000981 -0.003986 0.003214 0.002864 -0.003426
# 2 -0.000981 0.011681 -0.002218 0.000386 -0.002728 -0.003349
# 3 -0.003986 -0.002218 0.013551 -0.003363 -0.003529 0.002611
# 4 0.003214 0.000386 -0.003363 0.031772 -0.000152 -0.002520
# 5 0.002864 -0.002728 -0.003529 -0.000152 0.029279 -0.000826
# 6 -0.003426 -0.003349 0.002611 -0.002520 -0.000826 0.028374
#
#
# Mechanical properties :
#
#
# Convention : Reuss Voigt Hill
#
# Bulk Modulus (GPa) = 41.95287 43.87486 42.91387
# Shear Modulus (GPa) = 33.34522 36.03022 34.68772
#
# Velocity S-wave (km/s) = 3.97157 4.12837 4.05073
# Velocity P-wave (km/s) = 6.39345 6.59385 6.49443
#
# Compressibility (1/GPa) = 0.02383627
#
# Stress axis : x y z
#
# Youngs Moduli (GPa) = 77.07722 85.60611 73.79717
#
# Poissons Ratio (x) = 0.08401 0.29415
# Poissons Ratio (y) = 0.07564 0.16365
# Poissons Ratio (z) = 0.30722 0.18984
#
# Static dielectric constant tensor:
#      x y z
#    x 1.742030 0.025060 -0.005730 
#    y 0.025060 1.788510 0.037030 
#    z -0.005730 0.037030 1.734260 
# 
# From -- ./inp_files/402906.got.cif
#   From: 2010.05.17/outbox.cif.g08.bks.cpg/sg2_202_cif.got.tgz:402906.got - 2010.06.03 11:33:40.
