data_PCOD9063960
_publ_section_title
;
Structure prediction by ZEFSAII (Michael W. Deem and Ramdas Pophale) SiO2 
 PCOD9063960
Probable space group: P -1
;
_chemical_formula_sum "Si O2"
_cell_formula_units_Z 15
_cell_length_a 8.445566
_cell_length_b 5.775690
_cell_length_c 17.574916
_cell_angle_alpha 72.593415
_cell_angle_beta 93.376179
_cell_angle_gamma 123.373157
_cell_volume 677.106725
_symmetry_space_group_name_H-M "P -1"
_symmetry_group_IT_number 2
_symmetry_cell_setting 'triclinic'
loop_
_space_group_symop_operation_xyz
x,y,z
-x,-y,-z
loop_
_atom_site_type_symbol
_atom_site_label
_atom_site_fract_x
_atom_site_fract_y
_atom_site_fract_z
Si Si1 0.587572 0.850634 0.465002
Si Si2 0.000000 0.000000 0.500000
Si Si3 0.158520 0.158530 0.329340
Si Si4 0.112358 0.288983 0.749820
Si Si5 0.492783 0.103130 0.304748
Si Si6 0.719581 0.243585 0.970033
Si Si7 0.763092 0.287311 0.793543
Si Si8 0.993808 0.125784 0.068239
O O1 0.500000 0.500000 0.500000
O O2 0.810701 0.008610 0.474419
O O3 0.500000 0.000000 0.500000
O O4 0.551865 0.917199 0.371956
O O5 0.887074 0.795613 0.592206
O O6 0.313652 0.077755 0.343194
O O7 0.243655 0.432194 0.248371
O O8 0.962148 0.896289 0.311603
O O9 0.325886 0.566108 0.724238
O O10 0.962028 0.376092 0.752571
O O11 0.077012 0.082907 0.840772
O O12 0.413669 0.976689 0.231202
O O13 0.767508 0.210071 0.888226
O O14 0.795697 0.583563 0.941459
O O15 0.841211 0.209698 0.040929
O O16 0.500000 0.000000 0.000000
O O17 0.000000 0.000000 0.000000
#
# Coordination Sequence:
#
# PCOD9063960 Si02
#       8
#     2   1   2   2   2   2   2   2
#     4  12  28  52  79 116 155 201 264 325 397 482
#     4  12  26  48  84 104 154 200 256 328 392 470
#     4  11  25  47  71 107 147 191 251 315 385 463
#     4  11  25  45  71 102 146 191 247 309 383 454
#     4  11  27  45  73 106 145 198 250 310 392 462
#     4  11  26  42  69 103 142 187 248 304 373 453
#     4  11  24  46  66 103 145 191 245 308 376 459
#     4  11  24  45  68 101 141 187 239 304 370 450
#
# _framework density 22.153081
#
# number of rings (size 3 to 8) (size 9 to 14) (size 15 to 20)
#    0.000    0.800    4.000    1.600    5.600    3.200 
#    0.000    0.000    0.000    0.000    0.000    0.000 
#    0.000    0.000    0.000    0.000    0.000    0.000 
#
# Total GULP energy -83542.303728 kJ/mol
# GULP energy per Si atom -5569.486915 kJ/mol
# Density = 2.210266 g / cm^3
# Si number density = 22.153081 Si / 1000 Ang^3
#
#
#
# Elastic Constant Matrix: (Units=GPa)
#
#
# Indices 1 2 3 4 5 6 
#
# 1 91.1069 38.0095 25.8091 1.7820 18.6208 15.9605
# 2 38.0095 128.1002 18.4422 -14.1726 -3.4966 31.9320
# 3 25.8091 18.4422 96.5429 -20.6014 20.6988 8.6537
# 4 1.7820 -14.1726 -20.6014 22.8381 -1.6553 6.7172
# 5 18.6208 -3.4966 20.6988 -1.6553 38.4149 -2.9639
# 6 15.9605 31.9320 8.6537 6.7172 -2.9639 35.6627
#
#
#
# Elastic Compliance Matrix: (Units=1/GPa)
#
#
# Indices 1 2 3 4 5 6 
#
# 1 0.015647 -0.004954 -0.003343 -0.007530 -0.006627 -0.000888
# 2 -0.004954 0.014201 0.002954 0.016139 0.001709 -0.014113
# 3 -0.003343 0.002954 0.017464 0.020195 -0.007407 -0.009806
# 4 -0.007530 0.016139 0.020195 0.081603 -0.004695 -0.031742
# 5 -0.006627 0.001709 -0.007407 -0.004695 0.033722 0.006920
# 6 -0.000888 -0.014113 -0.009806 -0.031742 0.006920 0.050008
#
#
# Mechanical properties :
#
#
# Convention : Reuss Voigt Hill
#
# Bulk Modulus (GPa) = 27.30230 53.36351 40.33291
# Shear Modulus (GPa) = 21.22775 34.94909 28.08842
#
# Velocity S-wave (km/s) = 3.09889 3.97623 3.56465
# Velocity P-wave (km/s) = 5.01550 6.72469 5.93198
#
# Compressibility (1/GPa) = 0.03662695
#
# Stress axis : x y z
#
# Youngs Moduli (GPa) = 63.90829 70.41570 57.26081
#
# Poissons Ratio (x) = 0.34885 0.19142
# Poissons Ratio (y) = 0.31661 -0.16916
# Poissons Ratio (z) = 0.21365 -0.20803
#
# Static dielectric constant tensor:
#      x y z
#    x 1.832930 -0.058500 0.026250 
#    y -0.058500 1.858110 0.026460 
#    z 0.026250 0.026460 1.824600 
# 
# From -- ./inp_files/137891.got.cif
#   From: 2010.05.17/outbox.cif.g08.bks.cpg/sg2_69_cif.got.tgz:137891.got - 2010.06.03 11:33:40.
