data_PCOD9063626
_publ_section_title
;
Structure prediction by ZEFSAII (Michael W. Deem and Ramdas Pophale) SiO2 
 PCOD9063626
Probable space group: P -1
;
_chemical_formula_sum "Si O2"
_cell_formula_units_Z 16
_cell_length_a 12.123067
_cell_length_b 25.926216
_cell_length_c 8.907643
_cell_angle_alpha 149.338706
_cell_angle_beta 142.777719
_cell_angle_gamma 29.264488
_cell_volume 686.020590
_symmetry_space_group_name_H-M "P -1"
_symmetry_group_IT_number 2
_symmetry_cell_setting 'triclinic'
loop_
_space_group_symop_operation_xyz
x,y,z
-x,-y,-z
loop_
_atom_site_type_symbol
_atom_site_label
_atom_site_fract_x
_atom_site_fract_y
_atom_site_fract_z
Si Si1 0.865459 0.829629 0.355137
Si Si2 0.371289 0.737485 0.649392
Si Si3 0.113963 0.232971 0.433264
Si Si4 0.883306 0.120522 0.781952
Si Si5 0.602624 0.109945 0.703799
Si Si6 0.455678 0.630433 0.141312
Si Si7 0.244127 0.514452 0.475056
Si Si8 0.976477 0.440780 0.181219
O O1 0.861766 0.813088 0.486873
O O2 0.104136 0.805193 0.518680
O O3 0.667308 0.970240 0.436917
O O4 0.889991 0.708158 0.017214
O O5 0.467141 0.672710 0.427711
O O6 0.507586 0.619093 0.618280
O O7 0.405255 0.836693 0.005614
O O8 0.356873 0.203383 0.590737
O O9 0.897928 0.379701 0.541013
O O10 0.061433 0.151573 0.076553
O O11 0.796458 0.101469 0.795688
O O12 0.663483 0.244247 0.774030
O O13 0.000000 0.000000 0.500000
O O14 0.704090 0.516454 0.060586
O O15 0.295496 0.584118 0.832062
O O16 0.091348 0.470563 0.251875
O O17 0.000000 0.500000 0.500000
#
# Coordination Sequence:
#
# PCOD9063626 Si02
#       8
#     2   2   2   2   2   2   2   2
#     4  12  26  45  71 104 144 185 239 289 345 427
#     4  12  23  44  77 102 143 188 229 292 356 416
#     4  11  27  46  70 108 140 184 240 288 356 415
#     4  11  26  47  74 102 143 191 229 293 354 419
#     4  12  27  49  73 103 144 188 235 291 350 422
#     4  11  24  44  71 108 143 179 239 292 349 420
#     4  11  24  45  71 104 144 183 236 294 351 418
#     4  12  24  42  71 104 137 186 233 287 354 407
#
# _framework density 23.322917
#
# number of rings (size 3 to 8) (size 9 to 14) (size 15 to 20)
#    0.000    0.500    3.750    4.125    1.750    6.000 
#    0.000    0.000    0.000    0.000    0.000    0.000 
#    0.000    0.000    0.000    0.000    0.000    0.000 
#
# Total GULP energy -89496.136013 kJ/mol
# GULP energy per Si atom -5593.508501 kJ/mol
# Density = 2.326983 g / cm^3
# Si number density = 23.322917 Si / 1000 Ang^3
#
#
#
# Elastic Constant Matrix: (Units=GPa)
#
#
# Indices 1 2 3 4 5 6 
#
# 1 51.7026 12.4267 14.0723 -1.2428 8.2809 -6.1315
# 2 12.4267 104.0238 29.9735 15.5699 3.6223 6.8152
# 3 14.0723 29.9735 137.2976 13.1768 7.2734 1.7554
# 4 -1.2428 15.5699 13.1768 42.1911 -3.3900 12.8327
# 5 8.2809 3.6223 7.2734 -3.3900 26.4179 3.7892
# 6 -6.1315 6.8152 1.7554 12.8327 3.7892 37.8359
#
#
#
# Elastic Compliance Matrix: (Units=1/GPa)
#
#
# Indices 1 2 3 4 5 6 
#
# 1 0.021938 -0.002267 -0.001446 -0.000057 -0.006854 0.004736
# 2 -0.002267 0.010986 -0.001809 -0.003267 -0.000559 -0.001098
# 3 -0.001446 -0.001809 0.008139 -0.002279 -0.001930 0.000680
# 4 -0.000057 -0.003267 -0.002279 0.029102 0.006235 -0.009810
# 5 -0.006854 -0.000559 -0.001930 0.006235 0.042455 -0.007287
# 6 0.004736 -0.001098 0.000680 -0.009810 -0.007287 0.031421
#
#
# Mechanical properties :
#
#
# Convention : Reuss Voigt Hill
#
# Bulk Modulus (GPa) = 33.31195 45.10765 39.20980
# Shear Modulus (GPa) = 30.28666 37.05907 33.67287
#
# Velocity S-wave (km/s) = 3.60749 3.99049 3.80382
# Velocity P-wave (km/s) = 5.62725 6.37295 6.01167
#
# Compressibility (1/GPa) = 0.03001926
#
# Stress axis : x y z
#
# Youngs Moduli (GPa) = 45.58313 91.02835 122.86989
#
# Poissons Ratio (x) = 0.20639 0.17761
# Poissons Ratio (y) = 0.10335 0.22223
# Poissons Ratio (z) = 0.06589 0.16464
#
# Static dielectric constant tensor:
#      x y z
#    x 1.923660 -0.037930 0.013130 
#    y -0.037930 1.889230 -0.021110 
#    z 0.013130 -0.021110 1.874590 
# 
# From -- ./inp_files/285891.got.cif
#   From: 2010.05.17/outbox.cif.g08.bks.cpg/sg2_143_cif.got.tgz:285891.got - 2010.06.03 11:33:40.
