data_PCOD9063995
_publ_section_title
;
Structure prediction by ZEFSAII (Michael W. Deem and Ramdas Pophale) SiO2 
 PCOD9063995
Probable space group: P -1
;
_chemical_formula_sum "Si O2"
_cell_formula_units_Z 16
_cell_length_a 10.033267
_cell_length_b 17.472584
_cell_length_c 6.962764
_cell_angle_alpha 61.410141
_cell_angle_beta 133.963378
_cell_angle_gamma 104.151952
_cell_volume 763.991937
_symmetry_space_group_name_H-M "P -1"
_symmetry_group_IT_number 2
_symmetry_cell_setting 'triclinic'
loop_
_space_group_symop_operation_xyz
x,y,z
-x,-y,-z
loop_
_atom_site_type_symbol
_atom_site_label
_atom_site_fract_x
_atom_site_fract_y
_atom_site_fract_z
Si Si1 0.106214 0.836468 0.431211
Si Si2 0.615816 0.615716 0.108859
Si Si3 0.838952 0.960438 0.271988
Si Si4 0.393410 0.719524 0.099305
Si Si5 0.324393 0.187571 0.473587
Si Si6 0.961243 0.691779 0.189030
Si Si7 0.666960 0.413628 0.476026
Si Si8 0.586402 0.077326 0.600699
O O1 0.260850 0.885920 0.422889
O O2 0.936343 0.905066 0.257174
O O3 0.036891 0.767532 0.298362
O O4 0.207992 0.782979 0.775738
O O5 0.498966 0.682672 0.056992
O O6 0.812503 0.646025 0.216346
O O7 0.644962 0.518442 0.346439
O O8 0.495566 0.609450 0.802348
O O9 0.745631 0.894920 0.393474
O O10 0.000000 0.000000 0.500000
O O11 0.688660 0.036569 0.943984
O O12 0.528854 0.772425 0.293763
O O13 0.347935 0.638482 0.279571
O O14 0.426769 0.154083 0.418144
O O15 0.151295 0.260658 0.160319
O O16 0.135779 0.622994 0.379742
O O17 0.500000 0.000000 0.500000
#
# Coordination Sequence:
#
# PCOD9063995 Si02
#       8
#     2   2   2   2   2   2   2   2
#     4  12  24  41  67  96 131 175 224 274 329 399
#     4  11  24  45  69 101 139 177 218 277 336 396
#     4  12  24  41  60  94 129 172 223 274 329 393
#     4  12  23  45  68 102 133 179 224 273 336 392
#     4  12  24  41  67  96 131 175 224 274 329 399
#     4  12  23  45  68 102 133 179 224 273 336 392
#     4  11  24  45  69 101 139 176 220 276 334 398
#     4  12  24  43  64  94 133 178 217 274 339 389
#
# _framework density 20.942629
#
# number of rings (size 3 to 8) (size 9 to 14) (size 15 to 20)
#    0.000    0.250    2.500    8.250    0.000    0.000 
#    0.000    1.250    0.000    0.000    0.000    0.000 
#    0.000    0.000    0.000    0.000    0.000    0.000 
#
# Total GULP energy -89662.876102 kJ/mol
# GULP energy per Si atom -5603.929756 kJ/mol
# Density = 2.089496 g / cm^3
# Si number density = 20.942629 Si / 1000 Ang^3
#
#
#
# Elastic Constant Matrix: (Units=GPa)
#
#
# Indices 1 2 3 4 5 6 
#
# 1 94.1427 11.9881 -15.3462 -7.6354 -2.6597 18.9608
# 2 11.9881 73.0115 14.2226 4.1593 4.5970 8.0274
# 3 -15.3462 14.2226 55.0348 -5.2068 0.0612 27.2458
# 4 -7.6354 4.1593 -5.2068 32.2542 4.5460 -3.0114
# 5 -2.6597 4.5970 0.0612 4.5460 39.5959 -11.6076
# 6 18.9608 8.0274 27.2458 -3.0114 -11.6076 43.0825
#
#
#
# Elastic Compliance Matrix: (Units=1/GPa)
#
#
# Indices 1 2 3 4 5 6 
#
# 1 0.017313 -0.003951 0.014790 0.005987 -0.004045 -0.016908
# 2 -0.003951 0.015645 -0.006791 -0.003680 -0.000879 0.002625
# 3 0.014790 -0.006791 0.041374 0.009235 -0.009078 -0.033210
# 4 0.005987 -0.003680 0.009235 0.034477 -0.005125 -0.006760
# 5 -0.004045 -0.000879 -0.009078 -0.005125 0.030223 0.015470
# 6 -0.016908 0.002625 -0.033210 -0.006760 0.015470 0.054861
#
#
# Mechanical properties :
#
#
# Convention : Reuss Voigt Hill
#
# Bulk Modulus (GPa) = 12.13191 27.10201 19.61696
# Shear Modulus (GPa) = 23.44407 37.07484 30.25946
#
# Velocity S-wave (km/s) = 3.34944 4.21206 3.80527
# Velocity P-wave (km/s) = 4.55673 6.05182 5.35669
#
# Compressibility (1/GPa) = 0.08242722
#
# Stress axis : x y z
#
# Youngs Moduli (GPa) = 57.76023 63.91971 24.16960
#
# Poissons Ratio (x) = 0.25256 -0.35748
# Poissons Ratio (y) = 0.22822 0.16415
# Poissons Ratio (z) = -0.85429 0.43411
#
# Static dielectric constant tensor:
#      x y z
#    x 1.722190 -0.008610 -0.005000 
#    y -0.008610 1.709890 -0.009200 
#    z -0.005000 -0.009200 1.733470 
# 
# From -- ./inp_files/46825.got.cif
#   From: 2010.05.17/outbox.cif.g08.bks.cpg/sg2_24_cif.got.tgz:46825.got - 2010.06.03 11:33:40.
