data_PCOD9063814
_publ_section_title
;
Structure prediction by ZEFSAII (Michael W. Deem and Ramdas Pophale) SiO2 
 PCOD9063814
Probable space group: P -1
;
_chemical_formula_sum "Si O2"
_cell_formula_units_Z 16
_cell_length_a 12.044545
_cell_length_b 5.834953
_cell_length_c 11.251276
_cell_angle_alpha 78.087348
_cell_angle_beta 107.954354
_cell_angle_gamma 116.261741
_cell_volume 672.306220
_symmetry_space_group_name_H-M "P -1"
_symmetry_group_IT_number 2
_symmetry_cell_setting 'triclinic'
loop_
_space_group_symop_operation_xyz
x,y,z
-x,-y,-z
loop_
_atom_site_type_symbol
_atom_site_label
_atom_site_fract_x
_atom_site_fract_y
_atom_site_fract_z
Si Si1 0.962754 0.990637 0.268810
Si Si2 0.205919 0.972476 0.273254
Si Si3 0.631626 0.293141 0.265788
Si Si4 0.581201 0.134865 0.626569
Si Si5 0.116535 0.779864 0.004747
Si Si6 0.375121 0.739282 0.004957
Si Si7 0.901918 0.400685 0.370178
Si Si8 0.546792 0.519180 0.723836
O O1 0.112997 0.047208 0.314969
O O2 0.919702 0.052944 0.120080
O O3 0.935772 0.195389 0.323953
O O4 0.906354 0.678305 0.295245
O O5 0.264520 0.768165 0.347439
O O6 0.344838 0.197777 0.285920
O O7 0.140393 0.895935 0.131923
O O8 0.502709 0.036170 0.269739
O O9 0.653104 0.367148 0.126888
O O10 0.751567 0.253756 0.361327
O O11 0.594344 0.497280 0.301020
O O12 0.500000 0.000000 0.500000
O O13 0.561072 0.385559 0.625090
O O14 0.249123 0.768873 0.007568
O O15 0.000000 0.500000 0.000000
O O16 0.410623 0.573166 0.130493
O O17 0.500000 0.000000 0.000000
O O18 0.000000 0.500000 0.500000
#
# Coordination Sequence:
#
# PCOD9063814 Si02
#       8
#     2   2   2   2   2   2   2   2
#     4  12  28  48  78 110 154 206 253 319 389 465
#     4  11  26  45  73 108 144 199 248 313 391 463
#     4  11  26  44  72 110 142 197 251 317 386 461
#     4  11  26  47  73 104 144 196 253 316 383 457
#     4  12  25  47  76 116 160 202 254 323 396 480
#     4  12  22  43  76 105 156 189 249 314 394 469
#     4  12  30  50  75 111 152 206 265 319 384 463
#     4  11  24  44  74 108 150 190 251 320 388 461
#
# _framework density 23.798677000000001
#
# number of rings (size 3 to 8) (size 9 to 14) (size 15 to 20)
#    0.000    0.500    3.750    3.375    8.750    3.000 
#    0.000    0.000    0.000    0.000    0.000    0.000 
#    0.000    0.000    0.000    0.000    0.000    0.000 
#
# Total GULP energy -89249.233514 kJ/mol
# GULP energy per Si atom -5578.077095 kJ/mol
# Density = 2.374451 g / cm^3
# Si number density = 23.798677 Si / 1000 Ang^3
#
#
#
# Elastic Constant Matrix: (Units=GPa)
#
#
# Indices 1 2 3 4 5 6 
#
# 1 227.2786 35.3804 25.6043 18.3612 17.2911 -36.0165
# 2 35.3804 25.0724 -9.3836 3.4777 -5.2750 -20.0475
# 3 25.6043 -9.3836 86.7071 18.4967 3.8712 -29.0765
# 4 18.3612 3.4777 18.4967 46.9773 -4.9232 -5.2917
# 5 17.2911 -5.2750 3.8712 -4.9232 31.7371 0.9167
# 6 -36.0165 -20.0475 -29.0765 -5.2917 0.9167 41.2446
#
#
#
# Elastic Compliance Matrix: (Units=1/GPa)
#
#
# Indices 1 2 3 4 5 6 
#
# 1 0.007913 -0.023503 -0.007874 -0.000103 -0.006986 -0.009923
# 2 -0.023503 0.239056 0.087599 -0.022112 0.033980 0.153836
# 3 -0.007874 0.087599 0.048773 -0.014023 0.008758 0.068093
# 4 -0.000103 -0.022112 -0.014023 0.026820 0.002753 -0.017343
# 5 -0.006986 0.033980 0.008758 0.002753 0.039858 0.016057
# 6 -0.009923 0.153836 0.068093 -0.017343 0.016057 0.135776
#
#
# Mechanical properties :
#
#
# Convention : Reuss Voigt Hill
#
# Bulk Modulus (GPa) = 2.44986 49.14002 25.79494
# Shear Modulus (GPa) = 9.58194 43.15560 26.36877
#
# Velocity S-wave (km/s) = 2.00873 4.26298 3.33226
# Velocity P-wave (km/s) = 2.53212 6.70251 5.06633
#
# Compressibility (1/GPa) = 0.40818645
#
# Stress axis : x y z
#
# Youngs Moduli (GPa) = 126.37435 4.18311 20.50310
#
# Poissons Ratio (x) = 0.09832 0.16144
# Poissons Ratio (y) = 2.97018 -1.79605
# Poissons Ratio (z) = 0.99507 -0.36644
#
# Static dielectric constant tensor:
#      x y z
#    x 3.490900 -1.725620 0.630570 
#    y -1.725620 3.919890 -0.769610 
#    z 0.630570 -0.769610 2.178310 
# 
# From -- ./inp_files/126851.got.cif
#   From: 2010.05.17/outbox.cif.g08.bks.cpg/sg2_64_cif.got.tgz:126851.got - 2010.06.03 11:33:40.
