data_PCOD9063994
_publ_section_title
;
Structure prediction by ZEFSAII (Michael W. Deem and Ramdas Pophale) SiO2 
 PCOD9063994
Probable space group: P -1
;
_chemical_formula_sum "Si O2"
_cell_formula_units_Z 14
_cell_length_a 20.833226
_cell_length_b 9.383561
_cell_length_c 6.082169
_cell_angle_alpha 129.038679
_cell_angle_beta 123.890007
_cell_angle_gamma 38.791671
_cell_volume 573.120432
_symmetry_space_group_name_H-M "P -1"
_symmetry_group_IT_number 2
_symmetry_cell_setting 'triclinic'
loop_
_space_group_symop_operation_xyz
x,y,z
-x,-y,-z
loop_
_atom_site_type_symbol
_atom_site_label
_atom_site_fract_x
_atom_site_fract_y
_atom_site_fract_z
Si Si1 0.825787 0.879642 0.941569
Si Si2 0.785563 0.209921 0.812888
Si Si3 0.959339 0.916665 0.520598
Si Si4 0.826050 0.523975 0.340810
Si Si5 0.487028 0.169378 0.453151
Si Si6 0.631994 0.289991 0.255036
Si Si7 0.643144 0.905051 0.117605
O O1 0.816432 0.679747 0.676818
O O2 0.838495 0.968284 0.823503
O O3 0.915517 0.807283 0.204113
O O4 0.719957 0.123366 0.079638
O O5 0.686609 0.280197 0.573130
O O6 0.864239 0.142025 0.701898
O O7 0.770878 0.411501 0.134554
O O8 0.053065 0.712569 0.660297
O O9 0.000000 0.000000 0.500000
O O10 0.766271 0.711052 0.202740
O O11 0.450680 0.428952 0.697730
O O12 0.591394 0.013770 0.361233
O O13 0.500000 0.000000 0.500000
O O14 0.397932 0.219843 0.178814
O O15 0.599807 0.136706 0.111131
#
# Coordination Sequence:
#
# PCOD9063994 Si02
#       7
#     2   2   2   2   2   2   2
#     4  11  26  43  69 106 136 186 228 278 343 399
#     4  11  24  45  69 101 138 184 228 286 334 403
#     4  11  25  44  68 103 141 184 229 283 338 396
#     4  12  24  45  72  96 145 180 232 278 343 406
#     4  11  27  46  73 103 136 176 230 285 352 410
#     4  11  25  47  72 100 143 174 233 284 344 415
#     4  11  26  45  71 106 131 185 228 283 348 407
#
# _framework density 24.427674
#
# number of rings (size 3 to 8) (size 9 to 14) (size 15 to 20)
#    0.000    0.857    4.286    1.286    4.000    2.286 
#    0.000    0.000    0.000    0.000    0.000    0.000 
#    0.000    0.000    0.000    0.000    0.000    0.000 
#
# Total GULP energy -78329.152684 kJ/mol
# GULP energy per Si atom -5594.939477 kJ/mol
# Density = 2.437208 g / cm^3
# Si number density = 24.427674 Si / 1000 Ang^3
#
#
#
# Elastic Constant Matrix: (Units=GPa)
#
#
# Indices 1 2 3 4 5 6 
#
# 1 85.6278 13.6614 13.6894 8.0485 -6.8982 18.2676
# 2 13.6614 106.5557 17.7166 3.8602 11.9340 12.0177
# 3 13.6894 17.7166 121.4988 16.2717 45.8099 -4.5713
# 4 8.0485 3.8602 16.2717 46.7313 8.7754 9.3320
# 5 -6.8982 11.9340 45.8099 8.7754 36.9139 -0.1630
# 6 18.2676 12.0177 -4.5713 9.3320 -0.1630 16.9165
#
#
#
# Elastic Compliance Matrix: (Units=1/GPa)
#
#
# Indices 1 2 3 4 5 6 
#
# 1 0.018913 0.000061 -0.008259 0.001841 0.013223 -0.023587
# 2 0.000061 0.010817 -0.001273 0.001805 -0.002375 -0.009113
# 3 -0.008259 -0.001273 0.019885 -0.004202 -0.024734 0.017277
# 4 0.001841 0.001805 -0.004202 0.026455 -0.001398 -0.019013
# 5 0.013223 -0.002375 -0.024734 -0.001398 0.061277 -0.017914
# 6 -0.023587 -0.009113 0.017277 -0.019013 -0.017914 0.106044
#
#
# Mechanical properties :
#
#
# Convention : Reuss Voigt Hill
#
# Bulk Modulus (GPa) = 32.60286 44.86857 38.73572
# Shear Modulus (GPa) = 18.34461 38.02000 28.18231
#
# Velocity S-wave (km/s) = 2.74337 3.94944 3.40031
# Velocity P-wave (km/s) = 4.83843 6.26141 5.59534
#
# Compressibility (1/GPa) = 0.03067215
#
# Stress axis : x y z
#
# Youngs Moduli (GPa) = 52.87260 92.44660 50.28841
#
# Poissons Ratio (x) = -0.00564 0.41535
# Poissons Ratio (y) = -0.00323 0.06404
# Poissons Ratio (z) = 0.43669 0.11773
#
# Static dielectric constant tensor:
#      x y z
#    x 1.915290 0.013910 -0.008380 
#    y 0.013910 1.964320 -0.017080 
#    z -0.008380 -0.017080 1.966950 
# 
# From -- ./inp_files/37718.got.cif
#   From: 2010.05.17/outbox.cif.g08.bks.cpg/sg2_19_cif.got.tgz:37718.got - 2010.06.03 11:33:40.
