data_PCOD9063107
_publ_section_title
;
Structure prediction by ZEFSAII (Michael W. Deem and Ramdas Pophale) SiO2 
 PCOD9063107
Probable space group: P -1
;
_chemical_formula_sum "Si O2"
_cell_formula_units_Z 12
_cell_length_a 8.674387
_cell_length_b 8.412016
_cell_length_c 9.680968
_cell_angle_alpha 99.374491
_cell_angle_beta 107.776416
_cell_angle_gamma 54.230841
_cell_volume 545.690426
_symmetry_space_group_name_H-M "P -1"
_symmetry_group_IT_number 2
_symmetry_cell_setting 'triclinic'
loop_
_space_group_symop_operation_xyz
x,y,z
-x,-y,-z
loop_
_atom_site_type_symbol
_atom_site_label
_atom_site_fract_x
_atom_site_fract_y
_atom_site_fract_z
Si Si1 0.385677 0.225362 0.544740
Si Si2 0.758026 0.571715 0.189939
Si Si3 0.155327 0.817877 0.700063
Si Si4 0.497652 0.181655 0.081461
Si Si5 0.175063 0.450371 0.253451
Si Si6 0.236695 0.779745 0.390071
O O1 0.298219 0.272711 0.680661
O O2 0.218508 0.359542 0.406546
O O3 0.547477 0.275776 0.590151
O O4 0.500000 0.000000 0.500000
O O5 0.801886 0.375865 0.243856
O O6 0.955912 0.522996 0.165068
O O7 0.584459 0.663824 0.044732
O O8 0.294121 0.873046 0.815499
O O9 0.209968 0.777630 0.547390
O O10 0.928716 0.000284 0.673387
O O11 0.342032 0.284334 0.177499
O O12 0.500000 0.000000 0.000000
O O13 0.199801 0.628391 0.290007
#
# Coordination Sequence:
#
# PCOD9063107 Si02
#       6
#     2   2   2   2   2   2
#     4  12  24  41  68 102 134 174 229 278 327 394
#     4  12  26  43  68 105 135 176 227 276 333 403
#     4  11  24  44  69 100 136 178 225 279 331 398
#     4  12  26  47  68  98 139 182 220 274 345 402
#     4  12  24  45  70  99 136 178 225 274 340 395
#     4  11  24  43  71 100 135 176 226 279 338 388
#
# _framework density 21.990490999999999
#
# number of rings (size 3 to 8) (size 9 to 14) (size 15 to 20)
#    0.000    0.333    3.333    6.000    4.667    0.000 
#    0.000    2.500    0.000    0.000    0.000    0.000 
#    0.000    0.000    0.000    0.000    0.000    0.000 
#
# Total GULP energy -67270.736581 kJ/mol
# GULP energy per Si atom -5605.894715 kJ/mol
# Density = 2.194044 g / cm^3
# Si number density = 21.990491 Si / 1000 Ang^3
#
#
#
# Elastic Constant Matrix: (Units=GPa)
#
#
# Indices 1 2 3 4 5 6 
#
# 1 51.8304 24.0096 6.6340 5.5283 11.1659 7.4356
# 2 24.0096 75.7371 13.6032 6.3470 16.5335 8.1634
# 3 6.6340 13.6032 82.0268 0.4928 2.7955 -6.3639
# 4 5.5283 6.3470 0.4928 37.5165 1.9546 4.3429
# 5 11.1659 16.5335 2.7955 1.9546 29.5155 4.3508
# 6 7.4356 8.1634 -6.3639 4.3429 4.3508 36.4208
#
#
#
# Elastic Compliance Matrix: (Units=1/GPa)
#
#
# Indices 1 2 3 4 5 6 
#
# 1 0.023825 -0.005779 -0.001008 -0.001917 -0.005125 -0.002904
# 2 -0.005779 0.017303 -0.002323 -0.001442 -0.006880 -0.002110
# 3 -0.001008 -0.002323 0.012888 0.000027 0.000022 0.002972
# 4 -0.001917 -0.001442 0.000027 0.027474 0.000090 -0.002567
# 5 -0.005125 -0.006880 0.000022 0.000090 0.039989 -0.002196
# 6 -0.002904 -0.002110 0.002972 -0.002567 -0.002196 0.029611
#
#
# Mechanical properties :
#
#
# Convention : Reuss Voigt Hill
#
# Bulk Modulus (GPa) = 27.93580 33.12090 30.52835
# Shear Modulus (GPa) = 27.58774 31.71371 29.65073
#
# Velocity S-wave (km/s) = 3.54578 3.80169 3.67596
# Velocity P-wave (km/s) = 5.43089 5.86214 5.65063
#
# Compressibility (1/GPa) = 0.03579636
#
# Stress axis : x y z
#
# Youngs Moduli (GPa) = 41.97265 57.79323 77.59441
#
# Poissons Ratio (x) = 0.33401 0.07818
# Poissons Ratio (y) = 0.24258 0.18023
# Poissons Ratio (z) = 0.04229 0.13424
#
# Static dielectric constant tensor:
#      x y z
#    x 1.751890 0.016410 -0.010400 
#    y 0.016410 1.792200 -0.009300 
#    z -0.010400 -0.009300 1.784280 
# 
# From -- ./inp_files/147304.got.cif
#   From: 2010.05.17/outbox.cif.g08.bks.cpg/sg2_74_cif.got.tgz:147304.got - 2010.06.03 11:33:40.
