data_PCOD9063660
_publ_section_title
;
Structure prediction by ZEFSAII (Michael W. Deem and Ramdas Pophale) SiO2 
 PCOD9063660
Probable space group: P -1
;
_chemical_formula_sum "Si O2"
_cell_formula_units_Z 13
_cell_length_a 9.894105
_cell_length_b 9.763463
_cell_length_c 9.413099
_cell_angle_alpha 75.462479
_cell_angle_beta 116.212456
_cell_angle_gamma 138.024337
_cell_volume 541.066135
_symmetry_space_group_name_H-M "P -1"
_symmetry_group_IT_number 2
_symmetry_cell_setting 'triclinic'
loop_
_space_group_symop_operation_xyz
x,y,z
-x,-y,-z
loop_
_atom_site_type_symbol
_atom_site_label
_atom_site_fract_x
_atom_site_fract_y
_atom_site_fract_z
Si Si1 0.685710 0.142221 0.862321
Si Si2 0.500000 0.000000 0.500000
Si Si3 0.485487 0.458940 0.709625
Si Si4 0.013584 0.276562 0.517131
Si Si5 0.959261 0.512039 0.263739
Si Si6 0.512514 0.238762 0.997158
Si Si7 0.344442 0.186705 0.451409
O O1 0.526924 0.035797 0.679430
O O2 0.601540 0.192876 0.928559
O O3 0.915345 0.353485 0.852742
O O4 0.687008 0.985002 0.968215
O O5 0.470706 0.150903 0.436737
O O6 0.262898 0.398311 0.612498
O O7 0.481411 0.367804 0.875588
O O8 0.473225 0.339322 0.605245
O O9 0.682471 0.700852 0.699429
O O10 0.933163 0.321035 0.601552
O O11 0.983928 0.363541 0.349769
O O12 0.869781 0.037238 0.526474
O O13 0.707372 0.380011 0.164847
#
# Coordination Sequence:
#
# PCOD9063660 Si02
#       7
#     2   1   2   2   2   2   2
#     4  11  24  44  72 102 141 184 235 287 346 417
#     4  12  20  44  80  98 132 192 234 278 332 432
#     4  11  26  45  69 105 145 182 227 295 359 409
#     4  11  25  43  72 105 137 186 241 286 342 421
#     4  11  25  43  72 105 137 186 241 286 342 421
#     4  11  26  45  69 105 145 182 227 295 359 409
#     4  11  24  44  72 102 141 184 235 287 346 417
#
# _framework density 24.026637000000001
#
# number of rings (size 3 to 8) (size 9 to 14) (size 15 to 20)
#    0.000    0.923    3.077    2.769   10.769    1.846 
#    0.000    1.538    0.000    0.000    0.000    0.000 
#    0.000    0.000    0.000    0.000    0.000    0.000 
#
# Total GULP energy -72508.940598 kJ/mol
# GULP energy per Si atom -5577.610815 kJ/mol
# Density = 2.397195 g / cm^3
# Si number density = 24.026637 Si / 1000 Ang^3
#
#
#
# Elastic Constant Matrix: (Units=GPa)
#
#
# Indices 1 2 3 4 5 6 
#
# 1 56.4057 25.5088 3.9833 -9.1797 -2.7383 -4.7302
# 2 25.5088 177.6241 58.4421 -56.3716 4.7077 -4.3775
# 3 3.9833 58.4421 86.8108 -38.9420 15.1429 -1.0589
# 4 -9.1797 -56.3716 -38.9420 67.8256 -16.2788 -14.8480
# 5 -2.7383 4.7077 15.1429 -16.2788 45.1678 -0.7923
# 6 -4.7302 -4.3775 -1.0589 -14.8480 -0.7923 34.1675
#
#
#
# Elastic Compliance Matrix: (Units=1/GPa)
#
#
# Indices 1 2 3 4 5 6 
#
# 1 0.019591 -0.002409 0.001751 0.002961 0.001985 0.003791
# 2 -0.002409 0.009335 -0.003493 0.006884 0.002600 0.003806
# 3 0.001751 -0.003493 0.017740 0.007676 -0.002647 0.003619
# 4 0.002961 0.006884 0.007676 0.030507 0.008146 0.014976
# 5 0.001985 0.002600 -0.002647 0.008146 0.025894 0.004666
# 6 0.003791 0.003806 0.003619 0.014976 0.004666 0.037008
#
#
# Mechanical properties :
#
#
# Convention : Reuss Voigt Hill
#
# Bulk Modulus (GPa) = 26.06642 55.18989 40.62816
# Shear Modulus (GPa) = 31.02435 44.95927 37.99181
#
# Velocity S-wave (km/s) = 3.59729 4.33046 3.98079
# Velocity P-wave (km/s) = 5.30345 6.92994 6.17052
#
# Compressibility (1/GPa) = 0.03836353
#
# Stress axis : x y z
#
# Youngs Moduli (GPa) = 51.04472 107.12771 56.37101
#
# Poissons Ratio (x) = 0.25808 -0.09871
# Poissons Ratio (y) = 0.12297 0.19688
# Poissons Ratio (z) = -0.08938 0.37416
#
# Static dielectric constant tensor:
#      x y z
#    x -1.962510 -1.962180 -0.252640 
#    y -1.962180 0.946240 -0.118420 
#    z -0.252640 -0.118420 1.933580 
# 
# From -- ./inp_files/237947.got.cif
#   From: 2010.05.17/outbox.cif.g08.bks.cpg/sg2_119_cif.got.tgz:237947.got - 2010.06.03 11:33:40.
