data_PCOD9063453
_publ_section_title
;
Structure prediction by ZEFSAII (Michael W. Deem and Ramdas Pophale) SiO2 
 PCOD9063453
Probable space group: P -1
;
_chemical_formula_sum "Si O2"
_cell_formula_units_Z 14
_cell_length_a 11.795470
_cell_length_b 12.149866
_cell_length_c 27.697908
_cell_angle_alpha 19.950613
_cell_angle_beta 150.726239
_cell_angle_gamma 140.492091
_cell_volume 633.803888
_symmetry_space_group_name_H-M "P -1"
_symmetry_group_IT_number 2
_symmetry_cell_setting 'triclinic'
loop_
_space_group_symop_operation_xyz
x,y,z
-x,-y,-z
loop_
_atom_site_type_symbol
_atom_site_label
_atom_site_fract_x
_atom_site_fract_y
_atom_site_fract_z
Si Si1 0.970555 0.100769 0.506243
Si Si2 0.746903 0.184979 0.726537
Si Si3 0.245253 0.948274 0.055772
Si Si4 0.557970 0.744182 0.082399
Si Si5 0.505431 0.862716 0.837492
Si Si6 0.239167 0.227674 0.184772
Si Si7 0.627233 0.836928 0.563478
O O1 0.822292 0.487920 0.292797
O O2 0.830267 0.928784 0.565016
O O3 0.000000 0.000000 0.500000
O O4 0.232576 0.061745 0.641513
O O5 0.500000 0.500000 0.500000
O O6 0.652169 0.881051 0.836794
O O7 0.840363 0.025420 0.776259
O O8 0.973820 0.188438 0.843422
O O9 0.260622 0.556789 0.220576
O O10 0.350678 0.001285 0.124640
O O11 0.429177 0.039381 0.049081
O O12 0.401966 0.478717 0.127976
O O13 0.500000 0.000000 0.000000
O O14 0.500000 0.500000 0.000000
O O15 0.396417 0.966737 0.389445
O O16 0.000000 0.500000 0.000000
O O17 0.500000 0.000000 0.500000
#
# Coordination Sequence:
#
# PCOD9063453 Si02
#       7
#     2   2   2   2   2   2   2
#     4  11  24  47  72  99 138 187 234 284 349 426
#     4  12  25  44  68  98 134 181 230 281 347 421
#     4  12  25  42  66 102 137 174 230 294 347 409
#     4  11  24  44  68  99 139 187 233 282 347 430
#     4  12  25  41  65 100 135 173 222 290 351 403
#     4  11  24  45  70  97 136 188 234 279 345 426
#     4  11  24  45  71 103 140 180 230 294 350 409
#
# _framework density 22.088851999999999
#
# number of rings (size 3 to 8) (size 9 to 14) (size 15 to 20)
#    0.000    0.571    0.000    9.857    0.000    5.714 
#    0.000    2.143    0.000    0.000    0.000    0.000 
#    0.000    0.000    0.000    0.000    0.000    0.000 
#
# Total GULP energy -77970.548431 kJ/mol
# GULP energy per Si atom -5569.324888 kJ/mol
# Density = 2.203858 g / cm^3
# Si number density = 22.088852 Si / 1000 Ang^3
#
#
#
# Elastic Constant Matrix: (Units=GPa)
#
#
# Indices 1 2 3 4 5 6 
#
# 1 98.7145 43.8398 30.6910 -1.6944 -5.5636 -0.6285
# 2 43.8398 111.1528 52.8884 18.9875 10.2564 -10.8516
# 3 30.6910 52.8884 130.3095 9.7287 13.2939 0.2776
# 4 -1.6944 18.9875 9.7287 56.2929 11.9431 -1.0141
# 5 -5.5636 10.2564 13.2939 11.9431 46.6053 -15.4336
# 6 -0.6285 -10.8516 0.2776 -1.0141 -15.4336 41.2474
#
#
#
# Elastic Compliance Matrix: (Units=1/GPa)
#
#
# Indices 1 2 3 4 5 6 
#
# 1 0.012960 -0.004983 -0.001423 0.001772 0.002562 -0.000102
# 2 -0.004983 0.014003 -0.004184 -0.004020 -0.000321 0.003417
# 3 -0.001423 -0.004184 0.009993 0.000217 -0.002908 -0.002272
# 4 0.001772 -0.004020 0.000217 0.020135 -0.004912 -0.002375
# 5 0.002562 -0.000321 -0.002908 -0.004912 0.027249 0.010049
# 6 -0.000102 0.003417 -0.002272 -0.002375 0.010049 0.028858
#
#
# Mechanical properties :
#
#
# Convention : Reuss Voigt Hill
#
# Bulk Modulus (GPa) = 63.39368 66.11279 64.75324
# Shear Modulus (GPa) = 35.80681 43.01297 39.40989
#
# Velocity S-wave (km/s) = 4.03058 4.41758 4.22851
# Velocity P-wave (km/s) = 7.10088 7.48434 7.29513
#
# Compressibility (1/GPa) = 0.01577444
#
# Stress axis : x y z
#
# Youngs Moduli (GPa) = 77.16037 71.41352 100.07368
#
# Poissons Ratio (x) = 0.35588 0.14243
# Poissons Ratio (y) = 0.38452 0.41871
# Poissons Ratio (z) = 0.10982 0.29879
#
# Static dielectric constant tensor:
#      x y z
#    x 2.420540 -0.618360 0.347450 
#    y -0.618360 2.767790 -0.492530 
#    z 0.347450 -0.492530 2.038760 
# 
# From -- ./inp_files/618398.got.cif
#   From: 2010.05.17/outbox.cif.g08.bks.cpg/sg2_310_cif.got.tgz:618398.got - 2010.06.03 11:33:40.
