data_PCOD9063582
_publ_section_title
;
Structure prediction by ZEFSAII (Michael W. Deem and Ramdas Pophale) SiO2 
 PCOD9063582
Probable space group: P -1
;
_chemical_formula_sum "Si O2"
_cell_formula_units_Z 16
_cell_length_a 10.223232
_cell_length_b 11.702421
_cell_length_c 21.395801
_cell_angle_alpha 31.283588
_cell_angle_beta 143.792435
_cell_angle_gamma 125.417037
_cell_volume 732.906157
_symmetry_space_group_name_H-M "P -1"
_symmetry_group_IT_number 2
_symmetry_cell_setting 'triclinic'
loop_
_space_group_symop_operation_xyz
x,y,z
-x,-y,-z
loop_
_atom_site_type_symbol
_atom_site_label
_atom_site_fract_x
_atom_site_fract_y
_atom_site_fract_z
Si Si1 0.212765 0.840371 0.381696
Si Si2 0.228784 0.343222 0.120920
Si Si3 0.876607 0.904435 0.442752
Si Si4 0.622841 0.682872 0.946134
Si Si5 0.214241 0.039800 0.027991
Si Si6 0.709107 0.330485 0.374583
Si Si7 0.763415 0.835065 0.163840
Si Si8 0.374453 0.412502 0.547146
O O1 0.335244 0.752608 0.535554
O O2 0.286703 0.627618 0.460602
O O3 0.932578 0.888725 0.255020
O O4 0.256426 0.071354 0.268107
O O5 0.216164 0.386826 0.020993
O O6 0.471125 0.376077 0.221337
O O7 0.000000 0.500000 0.000000
O O8 0.828072 0.660688 0.530706
O O9 0.060953 0.872531 0.471500
O O10 0.605522 0.080833 0.261476
O O11 0.000000 0.000000 0.500000
O O12 0.755464 0.735321 0.032132
O O13 0.500000 0.500000 0.000000
O O14 0.447227 0.810029 0.241164
O O15 0.175904 0.088583 0.917038
O O16 0.000000 0.000000 0.000000
O O17 0.767143 0.568985 0.291436
O O18 0.500000 0.000000 0.000000
O O19 0.500000 0.500000 0.500000
#
# Coordination Sequence:
#
# PCOD9063582 Si02
#       8
#     2   2   2   2   2   2   2   2
#     4  12  26  46  70 103 141 187 239 293 355 423
#     4  12  27  49  69 105 147 186 236 298 363 431
#     4  11  24  44  71 101 140 181 241 293 352 424
#     4  11  25  44  71 100 137 184 234 291 355 426
#     4  11  25  43  67 104 140 182 228 287 359 414
#     4  12  26  45  73 105 140 192 242 294 360 423
#     4  12  25  44  71 103 142 182 235 294 354 422
#     4  11  24  44  73 102 142 185 236 294 351 427
#
# _framework density 21.830898000000001
#
# number of rings (size 3 to 8) (size 9 to 14) (size 15 to 20)
#    0.000    0.500    2.500    6.000    5.250    1.000 
#    0.000    0.000    0.000    0.000    0.000    0.000 
#    0.000    0.000    0.000    0.000    0.000    0.000 
#
# Total GULP energy -89378.603450 kJ/mol
# GULP energy per Si atom -5586.162716 kJ/mol
# Density = 2.178121 g / cm^3
# Si number density = 21.830898 Si / 1000 Ang^3
#
#
#
# Elastic Constant Matrix: (Units=GPa)
#
#
# Indices 1 2 3 4 5 6 
#
# 1 105.4593 -1.4571 10.3947 -19.2821 8.3936 -11.2426
# 2 -1.4571 94.6564 -8.8754 -15.0635 -12.0222 5.0605
# 3 10.3947 -8.8754 42.2097 -7.7395 -7.3220 -9.0596
# 4 -19.2821 -15.0635 -7.7395 41.6416 7.8086 -2.7769
# 5 8.3936 -12.0222 -7.3220 7.8086 35.1044 1.3026
# 6 -11.2426 5.0605 -9.0596 -2.7769 1.3026 37.7353
#
#
#
# Elastic Compliance Matrix: (Units=1/GPa)
#
#
# Indices 1 2 3 4 5 6 
#
# 1 0.011532 0.000240 -0.001661 0.006210 -0.004537 0.003618
# 2 0.000240 0.012171 0.003913 0.004473 0.003948 -0.000428
# 3 -0.001661 0.003913 0.028217 0.005110 0.006267 0.005914
# 4 0.006210 0.004473 0.005110 0.030903 -0.005945 0.004957
# 5 -0.004537 0.003948 0.006267 -0.005945 0.033626 -0.001975
# 6 0.003618 -0.000428 0.005914 0.004957 -0.001975 0.029489
#
#
# Mechanical properties :
#
#
# Convention : Reuss Voigt Hill
#
# Bulk Modulus (GPa) = 17.57345 26.93886 22.25615
# Shear Modulus (GPa) = 31.26553 39.04715 35.15634
#
# Velocity S-wave (km/s) = 3.78851 4.23379 4.01732
# Velocity P-wave (km/s) = 5.21578 6.02218 5.63342
#
# Compressibility (1/GPa) = 0.05690403
#
# Stress axis : x y z
#
# Youngs Moduli (GPa) = 86.71794 82.16104 35.44024
#
# Poissons Ratio (x) = -0.01975 0.05887
# Poissons Ratio (y) = -0.02084 -0.13868
# Poissons Ratio (z) = 0.14404 -0.32150
#
# Static dielectric constant tensor:
#      x y z
#    x 2.090510 0.147740 0.867990 
#    y 0.147740 1.902900 0.421340 
#    z 0.867990 0.421340 4.034550 
# 
# From -- ./inp_files/184181.got.cif
#   From: 2010.05.17/outbox.cif.g08.bks.cpg/sg2_93_cif.got.tgz:184181.got - 2010.06.03 11:33:40.
