data_PCOD9063160
_publ_section_title
;
Structure prediction by ZEFSAII (Michael W. Deem and Ramdas Pophale) SiO2 
 PCOD9063160
Probable space group: P -1
;
_chemical_formula_sum "Si O2"
_cell_formula_units_Z 15
_cell_length_a 9.297932
_cell_length_b 9.687246
_cell_length_c 12.322451
_cell_angle_alpha 100.421987
_cell_angle_beta 118.160150
_cell_angle_gamma 44.703265
_cell_volume 666.614860
_symmetry_space_group_name_H-M "P -1"
_symmetry_group_IT_number 2
_symmetry_cell_setting 'triclinic'
loop_
_space_group_symop_operation_xyz
x,y,z
-x,-y,-z
loop_
_atom_site_type_symbol
_atom_site_label
_atom_site_fract_x
_atom_site_fract_y
_atom_site_fract_z
Si Si1 0.765533 0.277777 0.557125
Si Si2 0.500000 0.000000 0.000000
Si Si3 0.961483 0.156439 0.371028
Si Si4 0.704242 0.794271 0.481550
Si Si5 0.491917 0.504892 0.869428
Si Si6 0.737766 0.616392 0.887835
Si Si7 0.406842 0.242982 0.799415
Si Si8 0.886357 0.497818 0.687841
O O1 0.500000 0.500000 0.500000
O O2 0.826241 0.214303 0.444078
O O3 0.920276 0.308916 0.666623
O O4 0.840176 0.085275 0.611176
O O5 0.458115 0.924336 0.082972
O O6 0.439654 0.175674 0.079466
O O7 0.763741 0.281873 0.227871
O O8 0.076606 0.236694 0.437599
O O9 0.629299 0.813264 0.335176
O O10 0.770655 0.617466 0.550999
O O11 0.500000 0.000000 0.500000
O O12 0.682046 0.490566 0.882482
O O13 0.508912 0.331292 0.819378
O O14 0.500000 0.500000 0.000000
O O15 0.731579 0.630644 0.756750
O O16 0.000000 0.500000 0.000000
O O17 0.138896 0.415975 0.776041
#
# Coordination Sequence:
#
# PCOD9063160 Si02
#       8
#     2   1   2   2   2   2   2   2
#     4  11  24  43  71 112 148 196 251 316 382 449
#     4  12  26  48  78 106 150 198 256 302 390 448
#     4  11  25  44  74 109 153 203 250 317 383 449
#     4  12  25  45  75 109 154 199 255 312 383 456
#     4  12  25  48  76 109 153 201 256 314 382 461
#     4  12  27  48  76 108 147 200 255 314 380 463
#     4  12  25  48  76 109 150 206 248 316 378 452
#     4  12  23  45  74 103 150 192 250 310 376 441
#
# _framework density 22.501747999999999
#
# number of rings (size 3 to 8) (size 9 to 14) (size 15 to 20)
#    0.000    0.267    5.333    3.600    1.867    2.133 
#    0.000    0.667    0.000    0.000    0.000    0.000 
#    0.000    0.000    0.000    0.000    0.000    0.000 
#
# Total GULP energy -83669.457602 kJ/mol
# GULP energy per Si atom -5577.963840 kJ/mol
# Density = 2.245053 g / cm^3
# Si number density = 22.501748 Si / 1000 Ang^3
#
#
#
# Elastic Constant Matrix: (Units=GPa)
#
#
# Indices 1 2 3 4 5 6 
#
# 1 125.9833 41.7677 45.0645 4.3644 0.8443 24.1857
# 2 41.7677 89.2606 42.0568 12.7037 -6.7604 21.5244
# 3 45.0645 42.0568 111.9320 10.3675 -18.7429 3.8329
# 4 4.3644 12.7037 10.3675 30.6877 -1.8796 -4.5063
# 5 0.8443 -6.7604 -18.7429 -1.8796 43.1850 6.0302
# 6 24.1857 21.5244 3.8329 -4.5063 6.0302 41.0317
#
#
#
# Elastic Compliance Matrix: (Units=1/GPa)
#
#
# Indices 1 2 3 4 5 6 
#
# 1 0.010916 -0.002403 -0.003573 -0.000123 -0.001499 -0.004633
# 2 -0.002403 0.017471 -0.004418 -0.006511 0.001741 -0.008306
# 3 -0.003573 -0.004418 0.012840 -0.001369 0.004556 0.002404
# 4 -0.000123 -0.006511 -0.001369 0.036843 -0.001100 0.007824
# 5 -0.001499 0.001741 0.004556 -0.001100 0.026001 -0.004398
# 6 -0.004633 -0.008306 0.002404 0.007824 -0.004398 0.032741
#
#
# Mechanical properties :
#
#
# Convention : Reuss Voigt Hill
#
# Bulk Modulus (GPa) = 48.92678 64.99489 56.96084
# Shear Modulus (GPa) = 30.41133 36.20001 33.30567
#
# Velocity S-wave (km/s) = 3.68028 4.01529 3.85143
# Velocity P-wave (km/s) = 6.31269 7.10238 6.71915
#
# Compressibility (1/GPa) = 0.02043870
#
# Stress axis : x y z
#
# Youngs Moduli (GPa) = 91.60795 57.23820 77.88414
#
# Poissons Ratio (x) = 0.13757 0.27826
# Poissons Ratio (y) = 0.22017 0.34407
# Poissons Ratio (z) = 0.32729 0.25286
#
# Static dielectric constant tensor:
#      x y z
#    x 1.837810 0.014500 -0.001150 
#    y 0.014500 1.835670 -0.023390 
#    z -0.001150 -0.023390 1.829850 
# 
# From -- ./inp_files/185487.got.cif
#   From: 2010.05.17/outbox.cif.g08.bks.cpg/sg2_93_cif.got.tgz:185487.got - 2010.06.03 11:33:40.
