data_PCOD9063515
_publ_section_title
;
Structure prediction by ZEFSAII (Michael W. Deem and Ramdas Pophale) SiO2 
 PCOD9063515
Probable space group: P -1
;
_chemical_formula_sum "Si O2"
_cell_formula_units_Z 14
_cell_length_a 8.569946
_cell_length_b 12.860599
_cell_length_c 7.122725
_cell_angle_alpha 82.166332
_cell_angle_beta 55.457919
_cell_angle_gamma 55.653055
_cell_volume 514.060159
_symmetry_space_group_name_H-M "P -1"
_symmetry_group_IT_number 2
_symmetry_cell_setting 'triclinic'
loop_
_space_group_symop_operation_xyz
x,y,z
-x,-y,-z
loop_
_atom_site_type_symbol
_atom_site_label
_atom_site_fract_x
_atom_site_fract_y
_atom_site_fract_z
Si Si1 0.931573 0.965843 0.360553
Si Si2 0.308278 0.818635 0.850184
Si Si3 0.147696 0.253203 0.948608
Si Si4 0.578401 0.640118 0.402066
Si Si5 0.496509 0.031116 0.212309
Si Si6 0.066229 0.414859 0.284052
Si Si7 0.355991 0.503152 0.925618
O O1 0.725679 0.951415 0.546389
O O2 0.000000 0.000000 0.500000
O O3 0.157626 0.843097 0.130116
O O4 0.843165 0.082505 0.243256
O O5 0.447122 0.682656 0.679579
O O6 0.487594 0.852087 0.778115
O O7 0.746168 0.895003 0.136020
O O8 0.361429 0.260950 0.731777
O O9 0.899436 0.358968 0.985543
O O10 0.115398 0.283186 0.189684
O O11 0.478193 0.587501 0.339576
O O12 0.841329 0.515232 0.287271
O O13 0.500000 0.000000 0.000000
O O14 0.000000 0.500000 0.500000
O O15 0.282733 0.411018 0.066469
O O16 0.500000 0.500000 0.000000
#
# Coordination Sequence:
#
# PCOD9063515 Si02
#       7
#     2   2   2   2   2   2   2
#     4  11  24  45  65 101 143 185 249 294 343 427
#     4  11  24  44  70 100 145 190 236 299 357 417
#     4   9  20  40  65  96 135 181 229 285 348 433
#     4   9  19  40  68  93 132 182 224 286 359 416
#     4  12  24  43  73 100 145 197 237 286 360 429
#     4   9  19  36  66  93 125 173 226 275 353 423
#     4   9  19  42  70 100 130 170 232 295 354 417
#
# _framework density 27.234166999999999
#
# number of rings (size 3 to 8) (size 9 to 14) (size 15 to 20)
#    0.000    2.000    2.857    2.143    2.000    0.000 
#    2.571    7.143    0.000    0.000    0.000    3.000 
#    0.000    0.000    0.000    0.000    0.000    0.000 
#
# Total GULP energy -78242.229657 kJ/mol
# GULP energy per Si atom -5588.730690 kJ/mol
# Density = 2.717218 g / cm^3
# Si number density = 27.234167 Si / 1000 Ang^3
#
#
#
# Elastic Constant Matrix: (Units=GPa)
#
#
# Indices 1 2 3 4 5 6 
#
# 1 165.9100 39.2501 67.9907 17.3545 22.2822 26.2783
# 2 39.2501 61.5625 44.8884 16.3572 -3.3203 18.4461
# 3 67.9907 44.8884 218.8822 24.6396 12.2789 29.9320
# 4 17.3545 16.3572 24.6396 46.7326 14.8995 7.5699
# 5 22.2822 -3.3203 12.2789 14.8995 58.3901 1.0355
# 6 26.2783 18.4461 29.9320 7.5699 1.0355 43.0799
#
#
#
# Elastic Compliance Matrix: (Units=1/GPa)
#
#
# Indices 1 2 3 4 5 6 
#
# 1 0.008242 -0.003832 -0.001302 0.000368 -0.003140 -0.002471
# 2 -0.003832 0.024128 -0.002613 -0.006439 0.005119 -0.005170
# 3 -0.001302 -0.002613 0.005952 -0.001242 -0.000551 -0.001991
# 4 0.000368 -0.006439 -0.001242 0.026584 -0.007009 -0.001108
# 5 -0.003140 0.005119 -0.000551 -0.007009 0.020505 0.000845
# 6 -0.002471 -0.005170 -0.001991 -0.001108 0.000845 0.028491
#
#
# Mechanical properties :
#
#
# Convention : Reuss Voigt Hill
#
# Bulk Modulus (GPa) = 43.80611 83.40146 63.60379
# Shear Modulus (GPa) = 36.49461 49.25555 42.87508
#
# Velocity S-wave (km/s) = 3.66461 4.25737 3.97206
# Velocity P-wave (km/s) = 5.83316 7.40657 6.66645
#
# Compressibility (1/GPa) = 0.02282787
#
# Stress axis : x y z
#
# Youngs Moduli (GPa) = 121.32981 41.44502 168.01408
#
# Poissons Ratio (x) = 0.15883 0.21869
# Poissons Ratio (y) = 0.46498 0.43905
# Poissons Ratio (z) = 0.15792 0.10830
#
# Static dielectric constant tensor:
#      x y z
#    x 2.163410 -0.012190 0.130070 
#    y -0.012190 2.261520 0.045060 
#    z 0.130070 0.045060 2.302930 
# 
# From -- ./inp_files/202859.got.cif
#   From: 2010.05.17/outbox.cif.g08.bks.cpg/sg2_102_cif.got.tgz:202859.got - 2010.06.03 11:33:40.
