data_PCOD9063419
_publ_section_title
;
Structure prediction by ZEFSAII (Michael W. Deem and Ramdas Pophale) SiO2 
 PCOD9063419
Probable space group: P -1
;
_chemical_formula_sum "Si O2"
_cell_formula_units_Z 16
_cell_length_a 10.599356
_cell_length_b 18.540936
_cell_length_c 9.594403
_cell_angle_alpha 27.814498
_cell_angle_beta 118.750492
_cell_angle_gamma 127.435042
_cell_volume 690.388717
_symmetry_space_group_name_H-M "P -1"
_symmetry_group_IT_number 2
_symmetry_cell_setting 'triclinic'
loop_
_space_group_symop_operation_xyz
x,y,z
-x,-y,-z
loop_
_atom_site_type_symbol
_atom_site_label
_atom_site_fract_x
_atom_site_fract_y
_atom_site_fract_z
Si Si1 0.358243 0.440622 0.330711
Si Si2 0.690238 0.162054 0.724958
Si Si3 0.024856 0.475349 0.717918
Si Si4 0.365465 0.169268 0.583384
Si Si5 0.161855 0.628585 0.941297
Si Si6 0.296126 0.310210 0.811362
Si Si7 0.136879 0.190275 0.212765
Si Si8 0.359718 0.987467 0.346184
O O1 0.327419 0.293373 0.453900
O O2 0.302056 0.588498 0.018118
O O3 0.256868 0.358699 0.556964
O O4 0.547068 0.528898 0.318206
O O5 0.850820 0.334894 0.489499
O O6 0.553642 0.216831 0.607819
O O7 0.621320 0.052066 0.736069
O O8 0.714945 0.031359 0.068221
O O9 0.000000 0.500000 0.500000
O O10 0.866924 0.400656 0.858179
O O11 0.097768 0.338175 0.004955
O O12 0.299877 0.194994 0.355734
O O13 0.201719 0.824332 0.595016
O O14 0.000000 0.500000 0.000000
O O15 0.161655 0.234865 0.986245
O O16 0.348896 0.163159 0.054418
O O17 0.000000 0.000000 0.500000
O O18 0.500000 0.000000 0.500000
#
# Coordination Sequence:
#
# PCOD9063419 Si02
#       8
#     2   2   2   2   2   2   2   2
#     4  11  24  44  68 103 134 180 229 283 350 402
#     4  11  25  46  68 105 138 185 236 282 360 414
#     4  12  26  46  72 101 144 187 228 291 355 418
#     4  11  25  44  73  98 141 179 231 297 338 421
#     4  12  25  43  68 102 140 179 234 281 343 419
#     4  11  24  44  69 101 136 176 232 285 341 414
#     4  12  26  46  69 103 138 183 236 286 353 414
#     4  12  23  43  70 101 139 181 230 284 344 412
#
# _framework density 23.175348
#
# number of rings (size 3 to 8) (size 9 to 14) (size 15 to 20)
#    0.000    0.500    3.750    4.500    0.000    4.000 
#    0.000    1.875    0.000    0.000    0.000    0.000 
#    0.000    0.000    0.000    0.000    0.000    0.000 
#
# Total GULP energy -89541.905598 kJ/mol
# GULP energy per Si atom -5596.369100 kJ/mol
# Density = 2.312260 g / cm^3
# Si number density = 23.175348 Si / 1000 Ang^3
#
#
#
# Elastic Constant Matrix: (Units=GPa)
#
#
# Indices 1 2 3 4 5 6 
#
# 1 66.4365 -1.2773 12.0026 4.7617 4.1378 -21.4299
# 2 -1.2773 65.0280 6.5936 -3.2727 0.1771 -9.5602
# 3 12.0026 6.5936 91.6982 -8.1648 2.1460 -8.1730
# 4 4.7617 -3.2727 -8.1648 30.9636 -4.7767 -4.6184
# 5 4.1378 0.1771 2.1460 -4.7767 52.0868 -0.7715
# 6 -21.4299 -9.5602 -8.1730 -4.6184 -0.7715 30.1169
#
#
#
# Elastic Compliance Matrix: (Units=1/GPa)
#
#
# Indices 1 2 3 4 5 6 
#
# 1 0.020291 0.002647 -0.001628 -0.001318 -0.001458 0.014597
# 2 0.002647 0.016695 -0.000691 0.002284 0.000080 0.007348
# 3 -0.001628 -0.000691 0.011699 0.003616 0.000016 0.002352
# 4 -0.001318 0.002284 0.003616 0.035127 0.003262 0.006239
# 5 -0.001458 0.000080 0.000016 0.003262 0.019613 -0.000006
# 6 0.014597 0.007348 0.002352 0.006239 -0.000006 0.047518
#
#
# Mechanical properties :
#
#
# Convention : Reuss Voigt Hill
#
# Bulk Modulus (GPa) = 20.26677 28.64449 24.45563
# Shear Modulus (GPa) = 29.98795 36.35638 33.17216
#
# Velocity S-wave (km/s) = 3.60107 3.96504 3.78743
# Velocity P-wave (km/s) = 5.10433 5.77484 5.44991
#
# Compressibility (1/GPa) = 0.04934185
#
# Stress axis : x y z
#
# Youngs Moduli (GPa) = 49.28339 59.89810 85.47500
#
# Poissons Ratio (x) = -0.15857 0.13919
# Poissons Ratio (y) = -0.13047 0.05903
# Poissons Ratio (z) = 0.08025 0.04136
#
# Static dielectric constant tensor:
#      x y z
#    x 1.904820 0.051760 -0.028720 
#    y 0.051760 2.117190 -0.071970 
#    z -0.028720 -0.071970 1.959570 
# 
# From -- ./inp_files/278700.got.cif
#   From: 2010.05.17/outbox.cif.g08.bks.cpg/sg2_140_cif.got.tgz:278700.got - 2010.06.03 11:33:40.
