data_PCOD9063944
_publ_section_title
;
Structure prediction by ZEFSAII (Michael W. Deem and Ramdas Pophale) SiO2 
 PCOD9063944
Probable space group: P -1
;
_chemical_formula_sum "Si O2"
_cell_formula_units_Z 14
_cell_length_a 10.796624
_cell_length_b 8.951087
_cell_length_c 8.853518
_cell_angle_alpha 121.565450
_cell_angle_beta 101.466152
_cell_angle_gamma 54.751879
_cell_volume 588.764657
_symmetry_space_group_name_H-M "P -1"
_symmetry_group_IT_number 2
_symmetry_cell_setting 'triclinic'
loop_
_space_group_symop_operation_xyz
x,y,z
-x,-y,-z
loop_
_atom_site_type_symbol
_atom_site_label
_atom_site_fract_x
_atom_site_fract_y
_atom_site_fract_z
Si Si1 0.030817 0.040543 0.714642
Si Si2 0.189812 0.627866 0.386455
Si Si3 0.822356 0.527192 0.372959
Si Si4 0.551228 0.632468 0.172583
Si Si5 0.125424 0.183610 0.086348
Si Si6 0.632337 0.763620 0.961895
Si Si7 0.759608 0.973834 0.653897
O O1 0.947543 0.256042 0.709769
O O2 0.900550 0.992961 0.668643
O O3 0.176052 0.835965 0.560530
O O4 0.074828 0.067707 0.904346
O O5 0.163452 0.531313 0.477668
O O6 0.339781 0.433759 0.237369
O O7 0.691245 0.510489 0.257581
O O8 0.781318 0.764239 0.481286
O O9 0.977207 0.369014 0.236590
O O10 0.402391 0.820015 0.322129
O O11 0.500000 0.500000 0.000000
O O12 0.605999 0.725508 0.105970
O O13 0.209267 0.257604 0.039520
O O14 0.242497 0.039675 0.170927
O O15 0.500000 0.000000 0.000000
#
# Coordination Sequence:
#
# PCOD9063944 Si02
#       7
#     2   2   2   2   2   2   2
#     4  11  26  44  75 110 144 185 242 301 356 417
#     4  11  24  45  67 106 145 181 240 297 351 423
#     4  12  25  46  77 104 142 191 240 292 360 427
#     4  12  28  47  73 106 147 187 237 295 363 429
#     4  12  24  45  77 102 140 190 239 293 352 426
#     4  12  25  48  72 102 148 191 239 293 358 431
#     4  12  23  47  73 105 146 187 238 295 355 432
#
# _framework density 23.778601999999999
#
# number of rings (size 3 to 8) (size 9 to 14) (size 15 to 20)
#    0.000    0.286    4.286    4.714    2.000    4.571 
#    0.000    6.429    0.000    0.000    0.000    0.000 
#    0.000    0.000    0.000    0.000    0.000    0.000 
#
# Total GULP energy -78360.156809 kJ/mol
# GULP energy per Si atom -5597.154058 kJ/mol
# Density = 2.372448 g / cm^3
# Si number density = 23.778602 Si / 1000 Ang^3
#
#
#
# Elastic Constant Matrix: (Units=GPa)
#
#
# Indices 1 2 3 4 5 6 
#
# 1 89.5679 23.3711 13.0279 -7.6609 1.2045 -1.9929
# 2 23.3711 97.5428 33.4899 21.7317 -0.4928 -9.0088
# 3 13.0279 33.4899 114.7225 9.1514 -3.9336 -11.1906
# 4 -7.6609 21.7317 9.1514 39.0317 -9.5613 -4.3022
# 5 1.2045 -0.4928 -3.9336 -9.5613 38.5503 -0.5998
# 6 -1.9929 -9.0088 -11.1906 -4.3022 -0.5998 36.5821
#
#
#
# Elastic Compliance Matrix: (Units=1/GPa)
#
#
# Indices 1 2 3 4 5 6 
#
# 1 0.012707 -0.003922 -0.000662 0.005027 0.000734 0.000127
# 2 -0.003922 0.014179 -0.002968 -0.008319 -0.002041 0.001359
# 3 -0.000662 -0.002968 0.009936 -0.000326 0.000951 0.002250
# 4 0.005027 -0.008319 -0.000326 0.033530 0.008054 0.002201
# 5 0.000734 -0.002041 0.000951 0.008054 0.028005 0.001234
# 6 0.000127 0.001359 0.002250 0.002201 0.001234 0.028645
#
#
# Mechanical properties :
#
#
# Convention : Reuss Voigt Hill
#
# Bulk Modulus (GPa) = 46.04017 49.06790 47.55403
# Shear Modulus (GPa) = 33.47967 38.29578 35.88772
#
# Velocity S-wave (km/s) = 3.75637 4.01747 3.88911
# Velocity P-wave (km/s) = 6.18205 6.49617 6.34106
#
# Compressibility (1/GPa) = 0.02172016
#
# Stress axis : x y z
#
# Youngs Moduli (GPa) = 78.69567 70.52698 100.64196
#
# Poissons Ratio (x) = 0.27660 0.06658
# Poissons Ratio (y) = 0.30864 0.29867
# Poissons Ratio (z) = 0.05206 0.20930
#
# Static dielectric constant tensor:
#      x y z
#    x 1.922050 0.042610 0.018130 
#    y 0.042610 1.944770 0.025880 
#    z 0.018130 0.025880 1.914470 
# 
# From -- ./inp_files/156614.got.cif
#   From: 2010.05.17/outbox.cif.g08.bks.cpg/sg2_79_cif.got.tgz:156614.got - 2010.06.03 11:33:40.
