data_PCOD9063877
_publ_section_title
;
Structure prediction by ZEFSAII (Michael W. Deem and Ramdas Pophale) SiO2 
 PCOD9063877
Probable space group: P -1
;
_chemical_formula_sum "Si O2"
_cell_formula_units_Z 16
_cell_length_a 10.057594
_cell_length_b 12.965130
_cell_length_c 8.399170
_cell_angle_alpha 100.794477
_cell_angle_beta 119.164303
_cell_angle_gamma 47.462525
_cell_volume 687.281202
_symmetry_space_group_name_H-M "P -1"
_symmetry_group_IT_number 2
_symmetry_cell_setting 'triclinic'
loop_
_space_group_symop_operation_xyz
x,y,z
-x,-y,-z
loop_
_atom_site_type_symbol
_atom_site_label
_atom_site_fract_x
_atom_site_fract_y
_atom_site_fract_z
Si Si1 0.024931 0.527400 0.203596
Si Si2 0.514443 0.291195 0.462335
Si Si3 0.515012 0.099725 0.632968
Si Si4 0.095298 0.055659 0.983275
Si Si5 0.090235 0.248706 0.566397
Si Si6 0.796600 0.035614 0.338805
Si Si7 0.743462 0.484451 0.181898
Si Si8 0.342033 0.632968 0.179372
O O1 0.966839 0.671154 0.274180
O O2 0.886286 0.514571 0.225381
O O3 0.268530 0.406032 0.345548
O O4 0.000000 0.500000 0.000000
O O5 0.581546 0.168493 0.588531
O O6 0.608730 0.200187 0.328550
O O7 0.598198 0.361900 0.602348
O O8 0.285581 0.222466 0.605065
O O9 0.500000 0.000000 0.500000
O O10 0.703112 0.992913 0.830500
O O11 0.899038 0.223661 0.922084
O O12 0.178685 0.988180 0.840009
O O13 0.000000 0.000000 0.000000
O O14 0.895277 0.346946 0.354943
O O15 0.181433 0.089527 0.604253
O O16 0.000000 0.000000 0.500000
O O17 0.527757 0.606881 0.185306
O O18 0.669268 0.466624 0.965299
#
# Coordination Sequence:
#
# PCOD9063877 Si02
#       8
#     2   2   2   2   2   2   2   2
#     4  12  29  47  74 109 149 191 243 303 365 435
#     4  12  24  49  72 110 148 191 239 306 362 438
#     4  12  24  43  75 106 144 196 243 297 366 431
#     4  12  27  45  73 103 151 192 241 301 363 435
#     4  12  26  48  76 106 146 197 246 305 363 435
#     4  12  28  46  72 112 147 187 247 300 369 432
#     4  11  25  48  77 106 142 197 248 296 363 443
#     4  11  24  44  76 106 144 193 246 295 367 429
#
# _framework density 23.280135999999999
#
# number of rings (size 3 to 8) (size 9 to 14) (size 15 to 20)
#    0.000    0.250    6.250    1.875    5.250    0.500 
#    2.250    1.875    0.000    0.000    0.000    0.000 
#    0.000    0.000    0.000    0.000    0.000    0.000 
#
# Total GULP energy -89331.958669 kJ/mol
# GULP energy per Si atom -5583.247417 kJ/mol
# Density = 2.322715 g / cm^3
# Si number density = 23.280136 Si / 1000 Ang^3
#
#
#
# Elastic Constant Matrix: (Units=GPa)
#
#
# Indices 1 2 3 4 5 6 
#
# 1 62.9282 24.9189 22.7003 -0.2685 -1.1348 -14.8994
# 2 24.9189 128.6263 52.9085 29.0945 -5.7697 -32.9282
# 3 22.7003 52.9085 155.7106 13.9321 19.2645 -2.4422
# 4 -0.2685 29.0945 13.9321 33.2430 -8.7306 8.0139
# 5 -1.1348 -5.7697 19.2645 -8.7306 35.0114 -2.4251
# 6 -14.8994 -32.9282 -2.4422 8.0139 -2.4251 44.0333
#
#
#
# Elastic Compliance Matrix: (Units=1/GPa)
#
#
# Indices 1 2 3 4 5 6 
#
# 1 0.018671 -0.001847 -0.002570 0.002454 0.002638 0.004493
# 2 -0.001847 0.017898 -0.004288 -0.017138 0.002066 0.015754
# 3 -0.002570 -0.004288 0.009033 -0.000776 -0.006215 -0.003776
# 4 0.002454 -0.017138 -0.000776 0.053003 0.009434 -0.021155
# 5 0.002638 0.002066 -0.006215 0.009434 0.034920 0.002299
# 6 0.004493 0.015754 -0.003776 -0.021155 0.002299 0.039779
#
#
# Mechanical properties :
#
#
# Convention : Reuss Voigt Hill
#
# Bulk Modulus (GPa) = 35.46848 60.92451 48.19650
# Shear Modulus (GPa) = 24.98621 38.90670 31.94646
#
# Velocity S-wave (km/s) = 3.27966 4.09252 3.70842
# Velocity P-wave (km/s) = 5.44152 6.96840 6.25175
#
# Compressibility (1/GPa) = 0.02819404
#
# Stress axis : x y z
#
# Youngs Moduli (GPa) = 53.55821 55.87194 110.70741
#
# Poissons Ratio (x) = 0.10317 0.28452
# Poissons Ratio (y) = 0.09890 0.47466
# Poissons Ratio (z) = 0.13765 0.23955
#
# Static dielectric constant tensor:
#      x y z
#    x 1.891430 0.024240 -0.060630 
#    y 0.024240 2.056280 0.101110 
#    z -0.060630 0.101110 1.906570 
# 
# From -- ./inp_files/273898.got.cif
#   From: 2010.05.17/outbox.cif.g08.bks.cpg/sg2_137_cif.got.tgz:273898.got - 2010.06.03 11:33:40.
