data_PCOD9063906
_publ_section_title
;
Structure prediction by ZEFSAII (Michael W. Deem and Ramdas Pophale) SiO2 
 PCOD9063906
Probable space group: P -1
;
_chemical_formula_sum "Si O2"
_cell_formula_units_Z 16
_cell_length_a 9.809208
_cell_length_b 8.871760
_cell_length_c 14.138959
_cell_angle_alpha 67.222335
_cell_angle_beta 79.165375
_cell_angle_gamma 130.852246
_cell_volume 664.561948
_symmetry_space_group_name_H-M "P -1"
_symmetry_group_IT_number 2
_symmetry_cell_setting 'triclinic'
loop_
_space_group_symop_operation_xyz
x,y,z
-x,-y,-z
loop_
_atom_site_type_symbol
_atom_site_label
_atom_site_fract_x
_atom_site_fract_y
_atom_site_fract_z
Si Si1 0.557117 0.103671 0.073669
Si Si2 0.722460 0.935525 0.769267
Si Si3 0.142270 0.470287 0.481195
Si Si4 0.984908 0.824592 0.608287
Si Si5 0.821214 0.692758 0.870249
Si Si6 0.157200 0.946832 0.925500
Si Si7 0.504111 0.330127 0.483790
Si Si8 0.311306 0.444864 0.803129
O O1 0.693307 0.405164 0.984904
O O2 0.332304 0.946436 0.199989
O O3 0.708533 0.095673 0.092340
O O4 0.500000 0.000000 0.000000
O O5 0.721795 0.780758 0.878210
O O6 0.525490 0.721686 0.767201
O O7 0.974671 0.183560 0.628140
O O8 0.147213 0.423268 0.383393
O O9 0.000000 0.500000 0.500000
O O10 0.381879 0.689111 0.453160
O O11 0.849348 0.714068 0.749545
O O12 0.248386 0.035416 0.554232
O O13 0.000000 0.000000 0.500000
O O14 0.057053 0.905654 0.847169
O O15 0.307532 0.244567 0.866733
O O16 0.933856 0.724403 0.079646
O O17 0.500000 0.500000 0.500000
O O18 0.650955 0.483182 0.329987
#
# Coordination Sequence:
#
# PCOD9063906 Si02
#       8
#     2   2   2   2   2   2   2   2
#     4  12  29  45  71 107 150 189 242 306 373 429
#     4  12  25  49  72 102 145 196 243 301 368 446
#     4  12  29  47  71 112 151 190 252 310 369 438
#     4  12  24  49  77 108 142 192 255 303 363 448
#     4  12  25  47  75 104 144 191 245 301 365 444
#     4  11  26  46  69 113 141 191 243 304 368 438
#     4  12  24  46  78 106 141 199 247 300 366 436
#     4  11  24  44  79 100 149 189 250 296 368 445
#
# _framework density 24.076008999999999
#
# number of rings (size 3 to 8) (size 9 to 14) (size 15 to 20)
#    0.000    0.250    5.000    3.000    7.000    2.500 
#    0.000    0.000    0.000    0.000    0.000    0.000 
#    0.000    0.000    0.000    0.000    0.000    0.000 
#
# Total GULP energy -89601.772255 kJ/mol
# GULP energy per Si atom -5600.110766 kJ/mol
# Density = 2.402121 g / cm^3
# Si number density = 24.076009 Si / 1000 Ang^3
#
#
#
# Elastic Constant Matrix: (Units=GPa)
#
#
# Indices 1 2 3 4 5 6 
#
# 1 185.2851 47.1683 13.2922 23.7587 -1.5951 5.1048
# 2 47.1683 114.0469 19.0865 27.0766 3.7394 22.8651
# 3 13.2922 19.0865 73.2889 21.8832 -7.7246 2.4990
# 4 23.7587 27.0766 21.8832 50.6604 -4.5446 0.5889
# 5 -1.5951 3.7394 -7.7246 -4.5446 29.3524 -0.5050
# 6 5.1048 22.8651 2.4990 0.5889 -0.5050 48.0549
#
#
#
# Elastic Compliance Matrix: (Units=1/GPa)
#
#
# Indices 1 2 3 4 5 6 
#
# 1 0.006177 -0.002261 -0.000013 -0.001654 0.000372 0.000444
# 2 -0.002261 0.012367 -0.001397 -0.005147 -0.002958 -0.005539
# 3 -0.000013 -0.001397 0.016147 -0.005906 0.003511 -0.000064
# 4 -0.001654 -0.005147 -0.005906 0.026064 0.003092 0.002645
# 5 0.000372 -0.002958 0.003511 0.003092 0.035895 0.001525
# 6 0.000444 -0.005539 -0.000064 0.002645 0.001525 0.023385
#
#
# Mechanical properties :
#
#
# Convention : Reuss Voigt Hill
#
# Bulk Modulus (GPa) = 36.56574 59.07943 47.82258
# Shear Modulus (GPa) = 36.63226 45.15179 40.89202
#
# Velocity S-wave (km/s) = 3.90491 4.33527 4.12570
# Velocity P-wave (km/s) = 5.96252 7.04638 6.52698
#
# Compressibility (1/GPa) = 0.02734800
#
# Stress axis : x y z
#
# Youngs Moduli (GPa) = 161.89885 80.86230 61.93273
#
# Poissons Ratio (x) = 0.18282 0.00083
# Poissons Ratio (y) = 0.36603 0.08650
# Poissons Ratio (z) = 0.00218 0.11294
#
# Static dielectric constant tensor:
#      x y z
#    x 1.917370 -0.004380 -0.013770 
#    y -0.004380 1.888940 -0.042160 
#    z -0.013770 -0.042160 2.008780 
# 
# From -- ./inp_files/494665.got.cif
#   From: 2010.05.17/outbox.cif.g08.bks.cpg/sg2_248_cif.got.tgz:494665.got - 2010.06.03 11:33:40.
