data_PCOD9063451
_publ_section_title
;
Structure prediction by ZEFSAII (Michael W. Deem and Ramdas Pophale) SiO2 
 PCOD9063451
Probable space group: P -1
;
_chemical_formula_sum "Si O2"
_cell_formula_units_Z 13
_cell_length_a 9.677918
_cell_length_b 11.137244
_cell_length_c 13.469936
_cell_angle_alpha 67.988341
_cell_angle_beta 53.192664
_cell_angle_gamma 112.457654
_cell_volume 621.247264
_symmetry_space_group_name_H-M "P -1"
_symmetry_group_IT_number 2
_symmetry_cell_setting 'triclinic'
loop_
_space_group_symop_operation_xyz
x,y,z
-x,-y,-z
loop_
_atom_site_type_symbol
_atom_site_label
_atom_site_fract_x
_atom_site_fract_y
_atom_site_fract_z
Si Si1 0.117080 0.389445 0.388392
Si Si2 0.252473 0.979715 0.508088
Si Si3 0.334381 0.789600 0.199249
Si Si4 0.505863 0.601907 0.692420
Si Si5 0.500000 0.500000 0.500000
Si Si6 0.319618 0.133531 0.794151
Si Si7 0.142607 0.803060 0.820793
O O1 0.213933 0.593050 0.249156
O O2 0.393117 0.467569 0.274285
O O3 0.926776 0.302681 0.596516
O O4 0.914292 0.188404 0.460040
O O5 0.268542 0.144625 0.453165
O O6 0.597222 0.143756 0.310260
O O7 0.103056 0.833725 0.717772
O O8 0.548607 0.854938 0.169095
O O9 0.500000 0.000000 0.000000
O O10 0.511198 0.582157 0.578499
O O11 0.171487 0.430160 0.924886
O O12 0.513768 0.368412 0.593597
O O13 0.269097 0.994895 0.775974
O O14 0.000000 0.000000 0.000000
#
# Coordination Sequence:
#
# PCOD9063451 Si02
#       7
#     2   2   2   2   1   2   2
#     4  11  25  45  67 103 140 180 237 282 354 418
#     4  11  25  45  68  97 143 184 229 289 344 421
#     4  11  26  44  70 103 144 183 229 291 355 414
#     4  12  25  43  70 103 137 187 229 289 354 412
#     4  12  24  40  74 100 140 172 236 296 336 406
#     4  12  23  44  71 104 133 181 236 288 346 410
#     4  11  24  44  68  99 137 180 236 281 349 419
#
# _framework density 20.925644999999999
#
# number of rings (size 3 to 8) (size 9 to 14) (size 15 to 20)
#    0.000    0.615    6.154    0.923    2.154    3.077 
#    5.538    0.000    0.000    0.000    0.000    0.000 
#    0.000    0.000    0.000    0.000    0.000    0.000 
#
# Total GULP energy -72431.274258 kJ/mol
# GULP energy per Si atom -5571.636481 kJ/mol
# Density = 2.087802 g / cm^3
# Si number density = 20.925645 Si / 1000 Ang^3
#
#
#
# Elastic Constant Matrix: (Units=GPa)
#
#
# Indices 1 2 3 4 5 6 
#
# 1 80.7542 20.5155 45.4079 -4.6681 20.7865 -0.8769
# 2 20.5155 155.1249 53.2923 -8.0421 28.4996 -5.0652
# 3 45.4079 53.2923 68.5022 -10.5667 17.6850 -1.9661
# 4 -4.6681 -8.0421 -10.5667 25.5669 -13.5327 0.2277
# 5 20.7865 28.4996 17.6850 -13.5327 34.3881 -6.5449
# 6 -0.8769 -5.0652 -1.9661 0.2277 -6.5449 32.2381
#
#
#
# Elastic Compliance Matrix: (Units=1/GPa)
#
#
# Indices 1 2 3 4 5 6 
#
# 1 0.023864 0.004744 -0.017480 -0.008262 -0.013049 -0.002262
# 2 0.004744 0.010480 -0.009837 -0.004274 -0.008266 -0.000472
# 3 -0.017480 -0.009837 0.034073 0.010778 0.005651 0.001128
# 4 -0.008262 -0.004274 0.010778 0.053946 0.025073 0.004470
# 5 -0.013049 -0.008266 0.005651 0.025073 0.052526 0.009177
# 6 -0.002262 -0.000472 0.001128 0.004470 0.009177 0.032784
#
#
# Mechanical properties :
#
#
# Convention : Reuss Voigt Hill
#
# Bulk Modulus (GPa) = 42.96897 60.31255 51.64076
# Shear Modulus (GPa) = 19.18837 30.78300 24.98569
#
# Velocity S-wave (km/s) = 3.03145 3.83961 3.45921
# Velocity P-wave (km/s) = 5.72989 6.96719 6.37861
#
# Compressibility (1/GPa) = 0.02327261
#
# Stress axis : x y z
#
# Youngs Moduli (GPa) = 41.90496 95.42008 29.34848
#
# Poissons Ratio (x) = -0.45270 0.51300
# Poissons Ratio (y) = -0.19881 0.28869
# Poissons Ratio (z) = 0.73249 0.93861
#
# Static dielectric constant tensor:
#      x y z
#    x 1.747400 0.004130 -0.034450 
#    y 0.004130 1.747870 -0.034250 
#    z -0.034450 -0.034250 1.753870 
# 
# From -- ./inp_files/161975.got.cif
#   From: 2010.05.17/outbox.cif.g08.bks.cpg/sg2_81_cif.got.tgz:161975.got - 2010.06.03 11:33:40.
