data_PCOD9063286
_publ_section_title
;
Structure prediction by ZEFSAII (Michael W. Deem and Ramdas Pophale) SiO2 
 PCOD9063286
Probable space group: P -1
;
_chemical_formula_sum "Si O2"
_cell_formula_units_Z 14
_cell_length_a 9.241198
_cell_length_b 9.886177
_cell_length_c 7.386069
_cell_angle_alpha 78.530506
_cell_angle_beta 49.504880
_cell_angle_gamma 76.145224
_cell_volume 497.364272
_symmetry_space_group_name_H-M "P -1"
_symmetry_group_IT_number 2
_symmetry_cell_setting 'triclinic'
loop_
_space_group_symop_operation_xyz
x,y,z
-x,-y,-z
loop_
_atom_site_type_symbol
_atom_site_label
_atom_site_fract_x
_atom_site_fract_y
_atom_site_fract_z
Si Si1 0.278920 0.858878 0.284349
Si Si2 0.920741 0.341947 0.049783
Si Si3 0.725366 0.818445 0.325340
Si Si4 0.358393 0.578947 0.447222
Si Si5 0.840439 0.836017 0.621000
Si Si6 0.325182 0.865714 0.825889
Si Si7 0.206058 0.469008 0.240775
O O1 0.399384 0.736182 0.333152
O O2 0.054734 0.846185 0.511929
O O3 0.295925 0.019194 0.266569
O O4 0.316031 0.827943 0.052413
O O5 0.500000 0.500000 0.500000
O O6 0.850225 0.697508 0.143034
O O7 0.845882 0.404716 0.285075
O O8 0.840528 0.194999 0.131869
O O9 0.857187 0.827714 0.393181
O O10 0.523722 0.801579 0.585642
O O11 0.697228 0.967405 0.212575
O O12 0.344865 0.509764 0.278879
O O13 0.817265 0.436944 0.945418
O O14 0.763463 0.695797 0.780429
O O15 0.000000 0.500000 0.500000
#
# Coordination Sequence:
#
# PCOD9063286 Si02
#       7
#     2   2   2   2   2   2   2
#     4  11  24  50  80 118 154 221 267 343 409 489
#     4  12  26  49  83 111 169 215 267 346 409 488
#     4  11  24  43  74 120 153 212 273 330 409 490
#     4  12  29  49  81 124 159 217 282 325 423 499
#     4  11  24  46  81 112 162 203 284 327 409 494
#     4  11  24  45  79 114 167 209 270 343 412 481
#     4  12  24  52  75 120 162 215 269 339 409 489
#
# _framework density 28.148384
#
# number of rings (size 3 to 8) (size 9 to 14) (size 15 to 20)
#    0.000    0.571    5.714    1.286    6.000    2.857 
#    2.571    0.000    0.000    0.000    0.000    0.000 
#    0.000    0.000    0.000    0.000    0.000    0.000 
#
# Total GULP energy -78635.192915 kJ/mol
# GULP energy per Si atom -5616.799494 kJ/mol
# Density = 2.808432 g / cm^3
# Si number density = 28.148384 Si / 1000 Ang^3
#
#
#
# Elastic Constant Matrix: (Units=GPa)
#
#
# Indices 1 2 3 4 5 6 
#
# 1 117.6011 46.9036 49.1051 8.6149 18.9008 -26.6807
# 2 46.9036 210.2589 69.6859 -0.6431 7.5080 -14.1094
# 3 49.1051 69.6859 149.0684 20.8053 14.7781 -13.6470
# 4 8.6149 -0.6431 20.8053 27.1794 -9.0947 12.0080
# 5 18.9008 7.5080 14.7781 -9.0947 58.6860 -0.4237
# 6 -26.6807 -14.1094 -13.6470 12.0080 -0.4237 53.6920
#
#
#
# Elastic Compliance Matrix: (Units=1/GPa)
#
#
# Indices 1 2 3 4 5 6 
#
# 1 0.012709 -0.001852 -0.001038 -0.008129 -0.004802 0.007345
# 2 -0.001852 0.006054 -0.002942 0.003766 0.001140 -0.000910
# 3 -0.001038 -0.002942 0.010632 -0.010762 -0.003607 0.003792
# 4 -0.008129 0.003766 -0.010762 0.060963 0.014155 -0.019308
# 5 -0.004802 0.001140 -0.003607 0.014155 0.021499 -0.005999
# 6 0.007345 -0.000910 0.003792 -0.019308 -0.005999 0.027270
#
#
# Mechanical properties :
#
#
# Convention : Reuss Voigt Hill
#
# Bulk Modulus (GPa) = 56.39443 89.81306 73.10375
# Shear Modulus (GPa) = 31.90796 48.66041 40.28419
#
# Velocity S-wave (km/s) = 3.37050 4.16229 3.78714
# Velocity P-wave (km/s) = 5.93508 7.42131 6.71941
#
# Compressibility (1/GPa) = 0.01773225
#
# Stress axis : x y z
#
# Youngs Moduli (GPa) = 78.68543 165.18318 94.05345
#
# Poissons Ratio (x) = 0.30585 0.09761
# Poissons Ratio (y) = 0.14569 0.27670
# Poissons Ratio (z) = 0.08166 0.48597
#
# Static dielectric constant tensor:
#      x y z
#    x 2.177400 0.025080 -0.046370 
#    y 0.025080 2.215540 0.008440 
#    z -0.046370 0.008440 2.125050 
# 
# From -- ./inp_files/243268.got.cif
#   From: 2010.05.17/outbox.cif.g08.bks.cpg/sg2_122_cif.got.tgz:243268.got - 2010.06.03 11:33:40.
