data_PCOD9063059
_publ_section_title
;
Structure prediction by ZEFSAII (Michael W. Deem and Ramdas Pophale) SiO2 
 PCOD9063059
Probable space group: P -1
;
_chemical_formula_sum "Si O2"
_cell_formula_units_Z 16
_cell_length_a 12.900581
_cell_length_b 19.080346
_cell_length_c 8.518855
_cell_angle_alpha 149.804455
_cell_angle_beta 48.949191
_cell_angle_gamma 140.099314
_cell_volume 676.377127
_symmetry_space_group_name_H-M "P -1"
_symmetry_group_IT_number 2
_symmetry_cell_setting 'triclinic'
loop_
_space_group_symop_operation_xyz
x,y,z
-x,-y,-z
loop_
_atom_site_type_symbol
_atom_site_label
_atom_site_fract_x
_atom_site_fract_y
_atom_site_fract_z
Si Si1 0.522305 0.278386 0.620985
Si Si2 0.683361 0.652529 0.237247
Si Si3 0.157659 0.666541 0.115838
Si Si4 0.845608 0.338844 0.262069
Si Si5 0.994629 0.152115 0.867321
Si Si6 0.331496 0.328697 0.359071
Si Si7 0.496709 0.841752 0.258922
Si Si8 0.998425 0.155176 0.234912
O O1 0.396927 0.246743 0.546807
O O2 0.684939 0.301645 0.436415
O O3 0.470076 0.160270 0.593308
O O4 0.561460 0.456755 0.986504
O O5 0.826035 0.695398 0.057434
O O6 0.739600 0.696712 0.444712
O O7 0.313296 0.698626 0.120794
O O8 0.114738 0.802774 0.470637
O O9 0.175305 0.652145 0.885222
O O10 0.000000 0.500000 0.000000
O O11 0.000000 0.500000 0.500000
O O12 0.874188 0.190513 0.973669
O O13 0.954756 0.133981 0.054812
O O14 0.000000 0.000000 0.500000
O O15 0.500000 0.500000 0.500000
O O16 0.187115 0.302438 0.341300
O O17 0.379529 0.194666 0.020228
O O18 0.500000 0.000000 0.500000
O O19 0.000000 0.000000 0.000000
#
# Coordination Sequence:
#
# PCOD9063059 Si02
#       8
#     2   2   2   2   2   2   2   2
#     4  11  24  43  70 100 138 185 229 286 349 411
#     4  11  24  43  70 101 138 181 236 285 343 419
#     4  12  26  44  70 104 138 182 230 286 347 414
#     4  12  24  44  70 101 140 181 236 288 344 416
#     4  12  26  45  71 103 141 185 230 287 353 416
#     4  12  24  43  71 103 138 185 238 283 346 422
#     4  12  26  46  69 103 143 183 231 294 355 416
#     4  12  26  46  69 101 142 184 229 284 348 415
#
# _framework density 23.655441
#
# number of rings (size 3 to 8) (size 9 to 14) (size 15 to 20)
#    0.000    0.250    2.500    7.500    1.750    2.000 
#    0.000    1.875    0.000    0.000    0.000    0.000 
#    0.000    0.000    0.000    0.000    0.000    0.000 
#
# Total GULP energy -89636.522156 kJ/mol
# GULP energy per Si atom -5602.282635 kJ/mol
# Density = 2.360160 g / cm^3
# Si number density = 23.655441 Si / 1000 Ang^3
#
#
#
# Elastic Constant Matrix: (Units=GPa)
#
#
# Indices 1 2 3 4 5 6 
#
# 1 84.9456 0.2587 2.1674 -4.0810 -12.6838 -10.3159
# 2 0.2587 68.0474 3.0369 -2.5386 1.5157 -22.1688
# 3 2.1674 3.0369 90.4810 -6.8227 -14.4185 -11.6472
# 4 -4.0810 -2.5386 -6.8227 43.0604 -1.9660 -1.7958
# 5 -12.6838 1.5157 -14.4185 -1.9660 45.2751 -6.5845
# 6 -10.3159 -22.1688 -11.6472 -1.7958 -6.5845 51.7695
#
#
#
# Elastic Compliance Matrix: (Units=1/GPa)
#
#
# Indices 1 2 3 4 5 6 
#
# 1 0.012997 0.001163 0.001030 0.001838 0.004587 0.003967
# 2 0.001163 0.017305 0.000742 0.001638 0.001221 0.008021
# 3 0.001030 0.000742 0.012502 0.002517 0.004944 0.004052
# 4 0.001838 0.001638 0.002517 0.024134 0.002719 0.002817
# 5 0.004587 0.001221 0.004944 0.002719 0.025887 0.005936
# 6 0.003967 0.008021 0.004052 0.002817 0.005936 0.025306
#
#
# Mechanical properties :
#
#
# Convention : Reuss Voigt Hill
#
# Bulk Modulus (GPa) = 20.54459 28.26667 24.40563
# Shear Modulus (GPa) = 38.91467 43.88840 41.40153
#
# Velocity S-wave (km/s) = 4.06034 4.31201 4.18807
# Velocity P-wave (km/s) = 5.53946 6.06354 5.80741
#
# Compressibility (1/GPa) = 0.04867462
#
# Stress axis : x y z
#
# Youngs Moduli (GPa) = 76.93826 57.78594 79.98997
#
# Poissons Ratio (x) = -0.06723 -0.08238
# Poissons Ratio (y) = -0.08951 -0.05934
# Poissons Ratio (z) = -0.07924 -0.04287
#
# Static dielectric constant tensor:
#      x y z
#    x 1.958660 0.050430 0.094900 
#    y 0.050430 1.905950 0.075800 
#    z 0.094900 0.075800 1.946540 
# 
# From -- ./inp_files/280218.got.cif
#   From: 2010.05.17/outbox.cif.g08.bks.cpg/sg2_141_cif.got.tgz:280218.got - 2010.06.03 11:33:40.
