data_PCOD9063507
_publ_section_title
;
Structure prediction by ZEFSAII (Michael W. Deem and Ramdas Pophale) SiO2 
 PCOD9063507
Probable space group: P -1
;
_chemical_formula_sum "Si O2"
_cell_formula_units_Z 16
_cell_length_a 8.992367
_cell_length_b 14.464653
_cell_length_c 18.849729
_cell_angle_alpha 20.893273
_cell_angle_beta 113.858395
_cell_angle_gamma 103.505461
_cell_volume 717.091587
_symmetry_space_group_name_H-M "P -1"
_symmetry_group_IT_number 2
_symmetry_cell_setting 'triclinic'
loop_
_space_group_symop_operation_xyz
x,y,z
-x,-y,-z
loop_
_atom_site_type_symbol
_atom_site_label
_atom_site_fract_x
_atom_site_fract_y
_atom_site_fract_z
Si Si1 0.429696 0.730614 0.385038
Si Si2 0.213441 0.233464 0.547570
Si Si3 0.666090 0.652073 0.717470
Si Si4 0.038333 0.111633 0.000673
Si Si5 0.309522 0.763002 0.488929
Si Si6 0.929925 0.981159 0.220761
Si Si7 0.201264 0.378349 0.085094
Si Si8 0.813556 0.073327 0.370067
O O1 0.500000 0.500000 0.500000
O O2 0.583104 0.811755 0.385662
O O3 0.375251 0.625851 0.522605
O O4 0.251684 0.005581 0.127186
O O5 0.196138 0.164202 0.675698
O O6 0.171718 0.021743 0.640987
O O7 0.082766 0.548676 0.268350
O O8 0.481717 0.647237 0.657116
O O9 0.664874 0.712784 0.756865
O O10 0.715684 0.892070 0.516597
O O11 0.825727 0.325389 0.970360
O O12 0.980534 0.972831 0.154849
O O13 0.000000 0.000000 0.000000
O O14 0.110985 0.778019 0.447091
O O15 0.238233 0.110114 0.233569
O O16 0.000000 0.500000 0.000000
O O17 0.253993 0.586886 0.897392
O O18 0.000000 0.000000 0.500000
#
# Coordination Sequence:
#
# PCOD9063507 Si02
#       8
#     2   2   2   2   2   2   2   2
#     4  11  24  46  73 103 140 181 235 293 347 416
#     4  12  24  47  70 103 138 185 233 288 352 413
#     4  12  23  43  68  95 141 185 228 283 344 410
#     4  11  24  45  74  99 138 184 230 290 357 407
#     4  11  24  44  69  99 140 187 229 288 350 410
#     4  11  24  44  71  99 141 178 235 290 342 419
#     4  12  23  43  65 100 140 180 231 288 339 413
#     4  12  23  39  70  98 140 190 225 276 350 412
#
# _framework density 22.312353000000002
#
# number of rings (size 3 to 8) (size 9 to 14) (size 15 to 20)
#    0.000    0.500    7.500    0.375    1.750    2.000 
#    0.000    0.625    0.000    0.000    0.000    0.000 
#    0.000    0.000    0.000    0.000    0.000    0.000 
#
# Total GULP energy -89158.782486 kJ/mol
# GULP energy per Si atom -5572.423905 kJ/mol
# Density = 2.226157 g / cm^3
# Si number density = 22.312353 Si / 1000 Ang^3
#
#
#
# Elastic Constant Matrix: (Units=GPa)
#
#
# Indices 1 2 3 4 5 6 
#
# 1 58.5177 -19.3393 30.8901 10.0829 1.1029 -6.0081
# 2 -19.3393 72.5119 11.9852 2.2095 15.3640 -1.8751
# 3 30.8901 11.9852 32.7554 50.3846 17.3651 6.2813
# 4 10.0829 2.2095 50.3846 14.1273 -8.8141 6.9210
# 5 1.1029 15.3640 17.3651 -8.8141 36.9744 13.4974
# 6 -6.0081 -1.8751 6.2813 6.9210 13.4974 32.5970
#
#
#
# Elastic Compliance Matrix: (Units=1/GPa)
#
#
# Indices 1 2 3 4 5 6 
#
# 1 0.028618 0.011980 -0.006407 -0.014083 -0.011662 0.015017
# 2 0.011980 0.020833 -0.005139 -0.006166 -0.011962 0.010659
# 3 -0.006407 -0.005139 -0.001184 0.022881 0.012448 -0.011261
# 4 -0.014083 -0.006166 0.022881 -0.001944 -0.006705 -0.004171
# 5 -0.011662 -0.011962 0.012448 -0.006705 0.030997 -0.016647
# 6 0.015017 0.010659 -0.011261 -0.004171 -0.016647 0.044007
#
#
# Mechanical properties :
#
#
# Convention : Reuss Voigt Hill
#
# Bulk Modulus (GPa) = 20.35138 23.42855 21.88996
# Shear Modulus (GPa) = 36.53952 26.08969 31.31460
#
# Velocity S-wave (km/s) = 4.05116 3.42320 3.75035
# Velocity P-wave (km/s) = 5.56987 5.11346 5.34654
#
# Compressibility (1/GPa) = 0.04913673
#
# Stress axis : x y z
#
# Youngs Moduli (GPa) = 34.94273 48.00010 -844.75267
#
# Poissons Ratio (x) = -0.57504 -5.41207
# Poissons Ratio (y) = -0.41861 -4.34105
# Poissons Ratio (z) = 0.22387 0.24666
#
# Static dielectric constant tensor:
#      x y z
#    x 2.055370 0.010320 -0.012460 
#    y 0.010320 1.809180 0.017040 
#    z -0.012460 0.017040 2.011630 
# 
# From -- ./inp_files/590426.got.cif
#   From: 2010.05.17/outbox.cif.g08.bks.cpg/sg2_296_cif.got.tgz:590426.got - 2010.06.03 11:33:40.
