data_PCOD9063927
_publ_section_title
;
Structure prediction by ZEFSAII (Michael W. Deem and Ramdas Pophale) SiO2 
 PCOD9063927
Probable space group: P -1
;
_chemical_formula_sum "Si O2"
_cell_formula_units_Z 16
_cell_length_a 17.121547
_cell_length_b 8.537912
_cell_length_c 5.357259
_cell_angle_alpha 121.770404
_cell_angle_beta 80.483081
_cell_angle_gamma 98.637397
_cell_volume 654.767716
_symmetry_space_group_name_H-M "P -1"
_symmetry_group_IT_number 2
_symmetry_cell_setting 'triclinic'
loop_
_space_group_symop_operation_xyz
x,y,z
-x,-y,-z
loop_
_atom_site_type_symbol
_atom_site_label
_atom_site_fract_x
_atom_site_fract_y
_atom_site_fract_z
Si Si1 0.204338 0.051726 0.089066
Si Si2 0.830095 0.264997 0.795138
Si Si3 0.059724 0.165671 0.006301
Si Si4 0.528071 0.211892 0.684968
Si Si5 0.700748 0.221598 0.438097
Si Si6 0.752364 0.560509 0.367894
Si Si7 0.429689 0.500172 0.735170
Si Si8 0.003904 0.323129 0.663685
O O1 0.149665 0.112553 0.944057
O O2 0.222521 0.233247 0.393919
O O3 0.158205 0.881338 0.114604
O O4 0.282524 0.958997 0.879153
O O5 0.747700 0.195474 0.647921
O O6 0.911136 0.273006 0.606872
O O7 0.813036 0.468479 0.073724
O O8 0.048397 0.318438 0.366748
O O9 0.040106 0.194780 0.749937
O O10 0.000000 0.000000 0.000000
O O11 0.608127 0.248030 0.511845
O O12 0.457305 0.341868 0.774999
O O13 0.500000 0.000000 0.500000
O O14 0.561585 0.290653 0.994315
O O15 0.745377 0.410026 0.468271
O O16 0.661875 0.551342 0.313037
O O17 0.500000 0.500000 0.500000
O O18 0.000000 0.500000 0.000000
#
# Coordination Sequence:
#
# PCOD9063927 Si02
#       8
#     2   2   2   2   2   2   2   2
#     4  11  27  42  71  98 135 184 230 282 357 417
#     4  11  25  46  66  99 141 178 229 290 344 424
#     4  12  25  48  71 105 142 189 243 300 357 429
#     4  11  26  43  69 100 133 179 226 279 346 416
#     4  11  25  44  65 100 138 173 227 287 343 417
#     4  11  25  45  67  99 136 180 226 283 351 415
#     4  11  24  45  66  95 135 173 224 280 336 412
#     4  12  27  45  75 103 145 189 243 300 365 426
#
# _framework density 24.436143999999999
#
# number of rings (size 3 to 8) (size 9 to 14) (size 15 to 20)
#    0.000    0.750    3.750    2.250    8.750    1.500 
#    0.000    0.000    0.000    0.000    0.000    0.000 
#    0.000    0.000    0.000    0.000    0.000    0.000 
#
# Total GULP energy -89373.918004 kJ/mol
# GULP energy per Si atom -5585.869875 kJ/mol
# Density = 2.438053 g / cm^3
# Si number density = 24.436144 Si / 1000 Ang^3
#
#
#
# Elastic Constant Matrix: (Units=GPa)
#
#
# Indices 1 2 3 4 5 6 
#
# 1 133.5114 13.5542 28.9259 -0.2275 -10.5736 -16.6245
# 2 13.5542 43.8174 27.0213 15.4938 2.3509 -14.7985
# 3 28.9259 27.0213 143.8540 34.3295 -11.4195 -1.7188
# 4 -0.2275 15.4938 34.3295 47.3052 3.8727 4.4278
# 5 -10.5736 2.3509 -11.4195 3.8727 43.8046 -1.2319
# 6 -16.6245 -14.7985 -1.7188 4.4278 -1.2319 32.3800
#
#
#
# Elastic Compliance Matrix: (Units=1/GPa)
#
#
# Indices 1 2 3 4 5 6 
#
# 1 0.008539 -0.000762 -0.001623 0.000966 0.001703 0.003882
# 2 -0.000762 0.034662 -0.003933 -0.009908 -0.001729 0.016531
# 3 -0.001623 -0.003933 0.009611 -0.005810 0.002804 -0.001219
# 4 0.000966 -0.009908 -0.005810 0.029701 -0.003616 -0.008540
# 5 0.001703 -0.001729 0.002804 -0.003616 0.024430 0.001657
# 6 0.003882 0.016531 -0.001219 -0.008540 0.001657 0.041597
#
#
# Mechanical properties :
#
#
# Convention : Reuss Voigt Hill
#
# Bulk Modulus (GPa) = 24.89007 51.13171 38.01089
# Shear Modulus (GPa) = 28.64213 41.47672 35.05942
#
# Velocity S-wave (km/s) = 3.42734 4.12436 3.79190
# Velocity P-wave (km/s) = 5.08626 6.60685 5.89579
#
# Compressibility (1/GPa) = 0.04017666
#
# Stress axis : x y z
#
# Youngs Moduli (GPa) = 117.11183 28.84978 104.04722
#
# Poissons Ratio (x) = 0.02199 0.16883
# Poissons Ratio (y) = 0.08928 0.40920
# Poissons Ratio (z) = 0.19003 0.11346
#
# Static dielectric constant tensor:
#      x y z
#    x 2.015860 -0.008300 -0.024650 
#    y -0.008300 2.041540 -0.047260 
#    z -0.024650 -0.047260 2.071020 
# 
# From -- ./inp_files/53875.got.cif
#   From: 2010.05.17/outbox.cif.g08.bks.cpg/sg2_27_cif.got.tgz:53875.got - 2010.06.03 11:33:40.
