data_PCOD9063830
_publ_section_title
;
Structure prediction by ZEFSAII (Michael W. Deem and Ramdas Pophale) SiO2 
 PCOD9063830
Probable space group: P -1
;
_chemical_formula_sum "Si O2"
_cell_formula_units_Z 16
_cell_length_a 15.950360
_cell_length_b 8.825193
_cell_length_c 9.611272
_cell_angle_alpha 74.202129
_cell_angle_beta 46.704308
_cell_angle_gamma 103.981182
_cell_volume 749.658763
_symmetry_space_group_name_H-M "P -1"
_symmetry_group_IT_number 2
_symmetry_cell_setting 'triclinic'
loop_
_space_group_symop_operation_xyz
x,y,z
-x,-y,-z
loop_
_atom_site_type_symbol
_atom_site_label
_atom_site_fract_x
_atom_site_fract_y
_atom_site_fract_z
Si Si1 0.552689 0.770406 0.467148
Si Si2 0.125261 0.217406 0.248168
Si Si3 0.068690 0.652472 0.509106
Si Si4 0.376740 0.031952 0.957422
Si Si5 0.139939 0.565459 0.737112
Si Si6 0.268449 0.370472 0.764895
Si Si7 0.613648 0.703729 0.901334
Si Si8 0.603532 0.975831 0.644842
O O1 0.615209 0.916187 0.226878
O O2 0.396194 0.573227 0.648573
O O3 0.655852 0.705292 0.387139
O O4 0.548466 0.867820 0.586571
O O5 0.261912 0.302002 0.172852
O O6 0.055050 0.330948 0.302058
O O7 0.172063 0.219443 0.037039
O O8 0.000000 0.000000 0.500000
O O9 0.112670 0.575894 0.604022
O O10 0.000000 0.500000 0.500000
O O11 0.213975 0.864252 0.238840
O O12 0.473345 0.955510 0.879013
O O13 0.440032 0.232743 0.923327
O O14 0.181265 0.421417 0.759682
O O15 0.272426 0.790297 0.573647
O O16 0.000000 0.500000 0.000000
O O17 0.662543 0.878392 0.691727
O O18 0.500000 0.500000 0.000000
#
# Coordination Sequence:
#
# PCOD9063830 Si02
#       8
#     2   2   2   2   2   2   2   2
#     4  11  25  45  73 107 138 195 238 302 369 432
#     4  12  23  49  71 101 148 194 237 308 363 436
#     4  12  29  45  74 105 144 194 242 295 377 438
#     4  12  25  49  71 107 147 191 247 303 361 443
#     4  12  26  47  72 103 147 190 238 306 364 440
#     4  11  24  44  75 101 146 185 248 294 366 438
#     4  12  27  45  76 107 145 192 249 304 366 430
#     4  12  27  44  75 107 148 185 248 304 364 434
#
# _framework density 21.343043999999999
#
# number of rings (size 3 to 8) (size 9 to 14) (size 15 to 20)
#    0.000    0.250    6.250    1.500    7.000    1.000 
#    0.000    0.625    0.000    0.000    0.000    0.000 
#    0.000    0.000    0.000    0.000    0.000    0.000 
#
# Total GULP energy -89567.305997 kJ/mol
# GULP energy per Si atom -5597.956625 kJ/mol
# Density = 2.129447 g / cm^3
# Si number density = 21.343044 Si / 1000 Ang^3
#
#
#
# Elastic Constant Matrix: (Units=GPa)
#
#
# Indices 1 2 3 4 5 6 
#
# 1 126.5374 50.7254 31.2354 8.4057 3.6448 -22.1854
# 2 50.7254 98.9578 21.9281 18.2079 -5.6248 15.5586
# 3 31.2354 21.9281 79.6890 7.0779 4.2892 -2.7550
# 4 8.4057 18.2079 7.0779 33.9028 -6.3761 6.4564
# 5 3.6448 -5.6248 4.2892 -6.3761 38.8585 1.1321
# 6 -22.1854 15.5586 -2.7550 6.4564 1.1321 41.0848
#
#
#
# Elastic Compliance Matrix: (Units=1/GPa)
#
#
# Indices 1 2 3 4 5 6 
#
# 1 0.013800 -0.008131 -0.002570 -0.001037 -0.002667 0.010595
# 2 -0.008131 0.017264 -0.001703 -0.004339 0.003042 -0.010444
# 3 -0.002570 -0.001703 0.014317 -0.001906 -0.001915 0.000570
# 4 -0.001037 -0.004339 -0.001906 0.034383 0.005455 -0.004598
# 5 -0.002667 0.003042 -0.001915 0.005455 0.027658 -0.004340
# 6 0.010595 -0.010444 0.000570 -0.004598 -0.004340 0.034897
#
#
# Mechanical properties :
#
#
# Convention : Reuss Voigt Hill
#
# Bulk Modulus (GPa) = 48.60627 56.99577 52.80102
# Shear Modulus (GPa) = 28.73840 36.18892 32.46366
#
# Velocity S-wave (km/s) = 3.67345 4.12221 3.90428
# Velocity P-wave (km/s) = 6.38871 7.02990 6.71696
#
# Compressibility (1/GPa) = 0.02057348
#
# Stress axis : x y z
#
# Youngs Moduli (GPa) = 72.46430 57.92424 69.84862
#
# Poissons Ratio (x) = 0.47097 0.17950
# Poissons Ratio (y) = 0.58919 0.11895
# Poissons Ratio (z) = 0.18622 0.09864
#
# Static dielectric constant tensor:
#      x y z
#    x 1.775120 -0.028240 0.010750 
#    y -0.028240 1.752040 -0.006850 
#    z 0.010750 -0.006850 1.778680 
# 
# From -- ./inp_files/297795.got.cif
#   From: 2010.05.17/outbox.cif.g08.bks.cpg/sg2_149_cif.got.tgz:297795.got - 2010.06.03 11:33:40.
