data_PCOD9063302
_publ_section_title
;
Structure prediction by ZEFSAII (Michael W. Deem and Ramdas Pophale) SiO2 
 PCOD9063302
Probable space group: P -1
;
_chemical_formula_sum "Si O2"
_cell_formula_units_Z 16
_cell_length_a 11.711593
_cell_length_b 10.895236
_cell_length_c 10.765269
_cell_angle_alpha 125.544351
_cell_angle_beta 62.534825
_cell_angle_gamma 140.155058
_cell_volume 715.829653
_symmetry_space_group_name_H-M "P -1"
_symmetry_group_IT_number 2
_symmetry_cell_setting 'triclinic'
loop_
_space_group_symop_operation_xyz
x,y,z
-x,-y,-z
loop_
_atom_site_type_symbol
_atom_site_label
_atom_site_fract_x
_atom_site_fract_y
_atom_site_fract_z
Si Si1 0.199261 0.796511 0.526738
Si Si2 0.807681 0.549825 0.603019
Si Si3 0.100522 0.159677 0.661411
Si Si4 0.716374 0.089217 0.161607
Si Si5 0.112879 0.071963 0.111986
Si Si6 0.649989 0.068117 0.713673
Si Si7 0.545345 0.682096 0.505969
Si Si8 0.957960 0.538859 0.175984
O O1 0.190734 0.607564 0.418712
O O2 0.236676 0.879204 0.696837
O O3 0.353568 0.964095 0.452088
O O4 0.005861 0.708620 0.536523
O O5 0.793752 0.691194 0.772045
O O6 0.639894 0.413775 0.516538
O O7 0.295220 0.241778 0.619071
O O8 0.114054 0.349483 0.738264
O O9 0.000000 0.000000 0.500000
O O10 0.999023 0.052542 0.779511
O O11 0.829636 0.320864 0.185665
O O12 0.508033 0.956025 0.177017
O O13 0.765695 0.974892 0.001886
O O14 0.000000 0.000000 0.000000
O O15 0.844943 0.289044 0.764677
O O16 0.622703 0.878897 0.669017
O O17 0.500000 0.500000 0.500000
O O18 0.000000 0.500000 0.000000
#
# Coordination Sequence:
#
# PCOD9063302 Si02
#       8
#     2   2   2   2   2   2   2   2
#     4  11  24  46  79 107 145 195 253 303 372 446
#     4  11  24  43  75 107 146 196 253 303 369 453
#     4  12  26  47  75 104 147 199 254 304 370 451
#     4  12  26  49  75 108 151 196 245 306 381 452
#     4  12  27  47  71 109 155 197 237 314 391 438
#     4  12  27  45  79 111 145 197 253 311 364 455
#     4  12  26  42  74 113 145 188 261 312 366 444
#     4  12  27  49  73 106 149 198 247 305 378 442
#
# _framework density 22.351689
#
# number of rings (size 3 to 8) (size 9 to 14) (size 15 to 20)
#    0.000    0.250    5.000    4.125    3.500    1.500 
#    0.000    1.250    0.000    0.000    0.000    0.000 
#    0.000    0.000    0.000    0.000    0.000    0.000 
#
# Total GULP energy -89548.966856 kJ/mol
# GULP energy per Si atom -5596.810429 kJ/mol
# Density = 2.230082 g / cm^3
# Si number density = 22.351689 Si / 1000 Ang^3
#
#
#
# Elastic Constant Matrix: (Units=GPa)
#
#
# Indices 1 2 3 4 5 6 
#
# 1 128.3767 42.2825 48.0030 -10.2451 -37.6253 12.8584
# 2 42.2825 62.8387 38.8022 -9.4418 -17.6145 1.8446
# 3 48.0030 38.8022 137.4605 -8.6740 -33.5618 -8.2783
# 4 -10.2451 -9.4418 -8.6740 38.3171 -5.3146 -6.5797
# 5 -37.6253 -17.6145 -33.5618 -5.3146 57.0843 -3.3042
# 6 12.8584 1.8446 -8.2783 -6.5797 -3.3042 37.8316
#
#
#
# Elastic Compliance Matrix: (Units=1/GPa)
#
#
# Indices 1 2 3 4 5 6 
#
# 1 0.012215 -0.005392 -0.001504 0.001766 0.005469 -0.003433
# 2 -0.005392 0.022949 -0.003940 0.003649 0.001587 0.000625
# 3 -0.001504 -0.003940 0.010319 0.002195 0.004280 0.003717
# 4 0.001766 0.003649 0.002195 0.029832 0.006675 0.005473
# 5 0.005469 0.001587 0.004280 0.006675 0.024885 0.002335
# 6 -0.003433 0.000625 0.003717 0.005473 0.002335 0.029539
#
#
# Mechanical properties :
#
#
# Convention : Reuss Voigt Hill
#
# Bulk Modulus (GPa) = 41.99281 65.20569 53.59925
# Shear Modulus (GPa) = 31.37777 39.95248 35.66512
#
# Velocity S-wave (km/s) = 3.75082 4.23241 3.99887
# Velocity P-wave (km/s) = 6.13077 7.28837 6.73449
#
# Compressibility (1/GPa) = 0.02381360
#
# Stress axis : x y z
#
# Youngs Moduli (GPa) = 81.86327 43.57423 96.90517
#
# Poissons Ratio (x) = 0.23494 0.14573
# Poissons Ratio (y) = 0.44138 0.38180
# Poissons Ratio (z) = 0.12311 0.17168
#
# Static dielectric constant tensor:
#      x y z
#    x 1.868010 -0.020550 0.054600 
#    y -0.020550 1.867650 0.017060 
#    z 0.054600 0.017060 1.883910 
# 
# From -- ./inp_files/426681.got.cif
#   From: 2010.05.17/outbox.cif.g08.bks.cpg/sg2_214_cif.got.tgz:426681.got - 2010.06.03 11:33:40.
