data_PCOD9063986
_publ_section_title
;
Structure prediction by ZEFSAII (Michael W. Deem and Ramdas Pophale) SiO2 
 PCOD9063986
Probable space group: P -1
;
_chemical_formula_sum "Si O2"
_cell_formula_units_Z 15
_cell_length_a 11.142856
_cell_length_b 11.897668
_cell_length_c 11.746226
_cell_angle_alpha 53.738039
_cell_angle_beta 40.965948
_cell_angle_gamma 87.002274
_cell_volume 548.268281
_symmetry_space_group_name_H-M "P -1"
_symmetry_group_IT_number 2
_symmetry_cell_setting 'triclinic'
loop_
_space_group_symop_operation_xyz
x,y,z
-x,-y,-z
loop_
_atom_site_type_symbol
_atom_site_label
_atom_site_fract_x
_atom_site_fract_y
_atom_site_fract_z
Si Si1 0.301062 0.735343 0.783632
Si Si2 0.500000 0.500000 0.500000
Si Si3 0.132516 0.122676 0.187218
Si Si4 0.151137 0.750780 0.631721
Si Si5 0.375367 0.581433 0.188720
Si Si6 0.010610 0.752349 0.161903
Si Si7 0.398765 0.281391 0.286223
Si Si8 0.594125 0.818972 0.255510
O O1 0.263506 0.778803 0.660794
O O2 0.586792 0.826104 0.562505
O O3 0.089731 0.486990 0.092194
O O4 0.222906 0.800160 0.897187
O O5 0.747761 0.634998 0.343776
O O6 0.383759 0.586308 0.595598
O O7 0.969657 0.163112 0.326129
O O8 0.899387 0.881863 0.462594
O O9 0.373393 0.211010 0.044305
O O10 0.294473 0.238242 0.881443
O O11 0.419827 0.848393 0.310893
O O12 0.098824 0.413674 0.560125
O O13 0.455631 0.463684 0.187181
O O14 0.392893 0.641551 0.010738
O O15 0.155264 0.967983 0.987421
#
# Coordination Sequence:
#
# PCOD9063986 Si02
#       8
#     2   1   2   2   2   2   2   2
#     4  11  24  45  68  99 142 180 226 287 348 404
#     4  12  24  40  66 102 136 178 222 276 342 402
#     4  12  23  46  74 101 139 184 225 290 348 407
#     4  11  25  43  69 104 142 178 226 288 345 415
#     4  11  24  45  69  98 138 178 235 286 335 409
#     4  12  25  44  69  99 138 182 230 281 346 412
#     4  11  25  43  71  99 131 187 232 283 344 406
#     4  12  26  42  69 103 140 184 226 274 352 416
#
# _framework density 27.358868000000001
#
# number of rings (size 3 to 8) (size 9 to 14) (size 15 to 20)
#    0.000    0.533    5.333    2.400    3.733    3.733 
#    0.000    0.000    0.000    4.000    0.000    0.000 
#    0.000    0.000    0.000    0.000    0.000    0.000 
#
# Total GULP energy -83813.795982 kJ/mol
# GULP energy per Si atom -5587.586399 kJ/mol
# Density = 2.729660 g / cm^3
# Si number density = 27.358868 Si / 1000 Ang^3
#
#
#
# Elastic Constant Matrix: (Units=GPa)
#
#
# Indices 1 2 3 4 5 6 
#
# 1 49.6334 20.1433 17.5323 0.7080 11.9944 9.9730
# 2 20.1433 168.9657 58.2770 -22.9136 -14.9292 6.6760
# 3 17.5323 58.2770 92.2118 -15.3009 -4.4359 8.1102
# 4 0.7080 -22.9136 -15.3009 58.3573 9.0308 -10.4452
# 5 11.9944 -14.9292 -4.4359 9.0308 42.6760 7.4086
# 6 9.9730 6.6760 8.1102 -10.4452 7.4086 35.9429
#
#
#
# Elastic Compliance Matrix: (Units=1/GPa)
#
#
# Indices 1 2 3 4 5 6 
#
# 1 0.025071 -0.002504 -0.003422 -0.001965 -0.007021 -0.004843
# 2 -0.002504 0.008161 -0.004274 0.001703 0.002741 0.000073
# 3 -0.003422 -0.004274 0.014649 0.001869 0.000799 -0.001184
# 4 -0.001965 0.001703 0.001869 0.020103 -0.004037 0.006481
# 5 -0.007021 0.002741 0.000799 -0.004037 0.028300 -0.005748
# 6 -0.004843 0.000073 -0.001184 0.006481 -0.005748 0.032487
#
#
# Mechanical properties :
#
#
# Convention : Reuss Voigt Hill
#
# Bulk Modulus (GPa) = 36.38852 55.85734 46.12293
# Shear Modulus (GPa) = 31.57941 41.71913 36.64927
#
# Velocity S-wave (km/s) = 3.40113 3.90921 3.66399
# Velocity P-wave (km/s) = 5.36218 6.39037 5.89872
#
# Compressibility (1/GPa) = 0.02748119
#
# Stress axis : x y z
#
# Youngs Moduli (GPa) = 39.88731 122.53139 68.26504
#
# Poissons Ratio (x) = 0.30682 0.23361
# Poissons Ratio (y) = 0.09988 0.29174
# Poissons Ratio (z) = 0.13650 0.52366
#
# Static dielectric constant tensor:
#      x y z
#    x 2.236040 -0.035050 0.189040 
#    y -0.035050 2.206690 0.098000 
#    z 0.189040 0.098000 2.402790 
# 
# From -- ./inp_files/425599.got.cif
#   From: 2010.05.17/outbox.cif.g08.bks.cpg/sg2_213_cif.got.tgz:425599.got - 2010.06.03 11:33:40.
