data_PCOD9063549
_publ_section_title
;
Structure prediction by ZEFSAII (Michael W. Deem and Ramdas Pophale) SiO2 
 PCOD9063549
Probable space group: P -1
;
_chemical_formula_sum "Si O2"
_cell_formula_units_Z 16
_cell_length_a 9.064365
_cell_length_b 12.723906
_cell_length_c 8.802739
_cell_angle_alpha 124.195270
_cell_angle_beta 62.979537
_cell_angle_gamma 122.789975
_cell_volume 689.332812
_symmetry_space_group_name_H-M "P -1"
_symmetry_group_IT_number 2
_symmetry_cell_setting 'triclinic'
loop_
_space_group_symop_operation_xyz
x,y,z
-x,-y,-z
loop_
_atom_site_type_symbol
_atom_site_label
_atom_site_fract_x
_atom_site_fract_y
_atom_site_fract_z
Si Si1 0.803877 0.838857 0.042991
Si Si2 0.481084 0.133126 0.192979
Si Si3 0.819910 0.631961 0.089420
Si Si4 0.984879 0.473368 0.663211
Si Si5 0.907472 0.908227 0.735078
Si Si6 0.631183 0.446978 0.300728
Si Si7 0.875461 0.206104 0.673759
Si Si8 0.476996 0.017052 0.701139
O O1 0.733199 0.719614 0.103752
O O2 0.670098 0.918117 0.150225
O O3 0.847569 0.804343 0.823911
O O4 0.989757 0.944523 0.114907
O O5 0.271103 0.104155 0.277510
O O6 0.564466 0.281592 0.195767
O O7 0.568152 0.128318 0.311246
O O8 0.500000 0.000000 0.000000
O O9 0.677830 0.517246 0.170258
O O10 0.983377 0.723123 0.199485
O O11 0.909000 0.569517 0.870358
O O12 0.181813 0.500015 0.654895
O O13 0.000000 0.500000 0.500000
O O14 0.867446 0.320463 0.652668
O O15 0.042161 0.883463 0.535992
O O16 0.500000 0.500000 0.500000
O O17 0.674313 0.118308 0.747475
O O18 0.500000 0.000000 0.500000
#
# Coordination Sequence:
#
# PCOD9063549 Si02
#       8
#     2   2   2   2   2   2   2   2
#     4  11  25  44  69 107 145 189 240 300 354 431
#     4  12  27  45  74 105 147 189 243 301 366 434
#     4  11  26  47  74 102 146 193 245 294 365 442
#     4  11  26  46  74 101 141 193 238 301 361 440
#     4  11  24  44  70 104 145 191 237 292 369 428
#     4  11  27  47  73 106 147 194 245 298 367 439
#     4  11  24  44  71 102 144 186 241 291 364 430
#     4  12  27  43  70 110 143 183 241 303 358 427
#
# _framework density 23.210849
#
# number of rings (size 3 to 8) (size 9 to 14) (size 15 to 20)
#    0.000    0.750    2.500    4.500   10.500    1.000 
#    0.000    1.875    0.000    0.000    0.000    0.000 
#    0.000    0.000    0.000    0.000    0.000    0.000 
#
# Total GULP energy -89540.485047 kJ/mol
# GULP energy per Si atom -5596.280315 kJ/mol
# Density = 2.315802 g / cm^3
# Si number density = 23.210849 Si / 1000 Ang^3
#
#
#
# Elastic Constant Matrix: (Units=GPa)
#
#
# Indices 1 2 3 4 5 6 
#
# 1 91.2537 56.2435 20.8290 -17.8781 -10.9237 -17.5024
# 2 56.2435 150.8431 37.4450 -24.8897 1.4988 -27.2936
# 3 20.8290 37.4450 126.7504 -26.7414 -7.0947 -11.3794
# 4 -17.8781 -24.8897 -26.7414 34.0913 -1.2967 6.4660
# 5 -10.9237 1.4988 -7.0947 -1.2967 27.5068 -11.3417
# 6 -17.5024 -27.2936 -11.3794 6.4660 -11.3417 41.7527
#
#
#
# Elastic Compliance Matrix: (Units=1/GPa)
#
#
# Indices 1 2 3 4 5 6 
#
# 1 0.017113 -0.004661 0.000837 0.005425 0.010102 0.006259
# 2 -0.004661 0.009792 -0.001254 0.003048 -0.001201 0.003307
# 3 0.000837 -0.001254 0.010082 0.007152 0.004303 0.002340
# 4 0.005425 0.003048 0.007152 0.039919 0.006451 0.001786
# 5 0.010102 -0.001201 0.004303 0.006451 0.048806 0.016881
# 6 0.006259 0.003307 0.002340 0.001786 0.016881 0.033683
#
#
# Mechanical properties :
#
#
# Convention : Reuss Voigt Hill
#
# Bulk Modulus (GPa) = 37.27204 66.43135 51.85169
# Shear Modulus (GPa) = 28.01181 37.62547 32.81864
#
# Velocity S-wave (km/s) = 3.47773 4.03057 3.76431
# Velocity P-wave (km/s) = 5.67618 7.09532 6.42505
#
# Compressibility (1/GPa) = 0.02682977
#
# Stress axis : x y z
#
# Youngs Moduli (GPa) = 58.43559 102.12480 99.18388
#
# Poissons Ratio (x) = 0.47603 -0.08298
# Poissons Ratio (y) = 0.27238 0.12438
# Poissons Ratio (z) = -0.04889 0.12807
#
# Static dielectric constant tensor:
#      x y z
#    x 1.841350 -0.034750 0.044540 
#    y -0.034750 1.967840 0.002930 
#    z 0.044540 0.002930 1.887030 
# 
# From -- ./inp_files/189921.got.cif
#   From: 2010.05.17/outbox.cif.g08.bks.cpg/sg2_95_cif.got.tgz:189921.got - 2010.06.03 11:33:40.
