data_PCOD9063199
_publ_section_title
;
Structure prediction by ZEFSAII (Michael W. Deem and Ramdas Pophale) SiO2 
 PCOD9063199
Probable space group: P -1
;
_chemical_formula_sum "Si O2"
_cell_formula_units_Z 16
_cell_length_a 23.807062
_cell_length_b 9.617489
_cell_length_c 9.601838
_cell_angle_alpha 132.815826
_cell_angle_beta 42.252470
_cell_angle_gamma 149.726796
_cell_volume 739.912418
_symmetry_space_group_name_H-M "P -1"
_symmetry_group_IT_number 2
_symmetry_cell_setting 'triclinic'
loop_
_space_group_symop_operation_xyz
x,y,z
-x,-y,-z
loop_
_atom_site_type_symbol
_atom_site_label
_atom_site_fract_x
_atom_site_fract_y
_atom_site_fract_z
Si Si1 0.813371 0.667664 0.506278
Si Si2 0.384600 0.384382 0.222196
Si Si3 0.289088 0.881711 0.722451
Si Si4 0.188538 0.143768 0.083232
Si Si5 0.632663 0.277299 0.007092
Si Si6 0.250733 0.795077 0.039193
Si Si7 0.525472 0.378101 0.479821
Si Si8 0.037118 0.181601 0.922385
O O1 0.673197 0.511751 0.645529
O O2 0.808753 0.431833 0.367821
O O3 0.863568 0.862231 0.679772
O O4 0.882632 0.807507 0.327848
O O5 0.425217 0.457884 0.356126
O O6 0.271762 0.052211 0.190854
O O7 0.500000 0.500000 0.000000
O O8 0.401810 0.066957 0.537367
O O9 0.322251 0.871627 0.813055
O O10 0.245527 0.028027 0.912123
O O11 0.288427 0.466701 0.070989
O O12 0.082913 0.957809 0.036057
O O13 0.615606 0.384920 0.244604
O O14 0.700413 0.214311 0.913545
O O15 0.500000 0.000000 0.000000
O O16 0.118483 0.492651 0.038576
O O17 0.500000 0.500000 0.500000
O O18 0.000000 0.000000 0.000000
#
# Coordination Sequence:
#
# PCOD9063199 Si02
#       8
#     2   2   2   2   2   2   2   2
#     4  11  26  45  74 106 140 193 246 299 371 427
#     4  12  25  44  72 107 150 186 242 302 365 448
#     4  11  24  43  72 106 142 193 240 296 366 437
#     4  12  24  49  73 103 148 188 249 304 360 434
#     4  12  26  41  71 106 147 185 239 307 369 437
#     4  11  24  45  70 103 139 193 237 295 365 426
#     4  12  23  39  66 104 146 187 232 294 373 433
#     4  11  25  50  73 103 148 193 245 307 357 431
#
# _framework density 21.624182000000001
#
# number of rings (size 3 to 8) (size 9 to 14) (size 15 to 20)
#    0.000    0.500    5.000    3.375    3.500    3.000 
#    2.250    0.625    0.000    0.000    0.000    0.000 
#    0.000    0.000    0.000    0.000    0.000    0.000 
#
# Total GULP energy -89377.934710 kJ/mol
# GULP energy per Si atom -5586.120919 kJ/mol
# Density = 2.157496 g / cm^3
# Si number density = 21.624182 Si / 1000 Ang^3
#
#
#
# Elastic Constant Matrix: (Units=GPa)
#
#
# Indices 1 2 3 4 5 6 
#
# 1 115.3023 40.1470 16.3945 6.4246 19.5763 -0.1060
# 2 40.1470 123.0101 30.3456 5.2874 11.2820 -4.3649
# 3 16.3945 30.3456 93.7756 -2.7727 15.0405 -11.3624
# 4 6.4246 5.2874 -2.7727 40.0846 0.4295 6.2396
# 5 19.5763 11.2820 15.0405 0.4295 39.1292 6.1192
# 6 -0.1060 -4.3649 -11.3624 6.2396 6.1192 37.8028
#
#
#
# Elastic Compliance Matrix: (Units=1/GPa)
#
#
# Indices 1 2 3 4 5 6 
#
# 1 0.010542 -0.002915 -0.000154 -0.001360 -0.004452 0.000592
# 2 -0.002915 0.009823 -0.002550 -0.001096 -0.000478 0.000618
# 3 -0.000154 -0.002550 0.012813 0.000641 -0.004781 0.004225
# 4 -0.001360 -0.001096 0.000641 0.026030 0.001156 -0.004421
# 5 -0.004452 -0.000478 -0.004781 0.001156 0.030791 -0.006680
# 6 0.000592 0.000618 0.004225 -0.004421 -0.006680 0.029607
#
#
# Mechanical properties :
#
#
# Convention : Reuss Voigt Hill
#
# Bulk Modulus (GPa) = 45.57820 56.20690 50.89255
# Shear Modulus (GPa) = 36.19076 39.75006 37.97041
#
# Velocity S-wave (km/s) = 4.09543 4.29210 4.19492
# Velocity P-wave (km/s) = 6.59444 7.11420 6.85925
#
# Compressibility (1/GPa) = 0.02194032
#
# Stress axis : x y z
#
# Youngs Moduli (GPa) = 94.85976 101.80578 78.04324
#
# Poissons Ratio (x) = 0.29674 0.01204
# Poissons Ratio (y) = 0.27649 0.19900
# Poissons Ratio (z) = 0.01463 0.25959
#
# Static dielectric constant tensor:
#      x y z
#    x 2.071740 -0.129360 -0.117500 
#    y -0.129360 1.942680 0.080990 
#    z -0.117500 0.080990 1.825020 
# 
# From -- ./inp_files/296430.got.cif
#   From: 2010.05.17/outbox.cif.g08.bks.cpg/sg2_149_cif.got.tgz:296430.got - 2010.06.03 11:33:40.
