data_PCOD9063928
_publ_section_title
;
Structure prediction by ZEFSAII (Michael W. Deem and Ramdas Pophale) SiO2 
 PCOD9063928
Probable space group: P -1
;
_chemical_formula_sum "Si O2"
_cell_formula_units_Z 16
_cell_length_a 5.752930
_cell_length_b 9.769655
_cell_length_c 20.068712
_cell_angle_alpha 123.994522
_cell_angle_beta 102.718883
_cell_angle_gamma 47.376954
_cell_volume 664.506199
_symmetry_space_group_name_H-M "P -1"
_symmetry_group_IT_number 2
_symmetry_cell_setting 'triclinic'
loop_
_space_group_symop_operation_xyz
x,y,z
-x,-y,-z
loop_
_atom_site_type_symbol
_atom_site_label
_atom_site_fract_x
_atom_site_fract_y
_atom_site_fract_z
Si Si1 0.651492 0.183766 0.189959
Si Si2 0.896505 0.716196 0.516829
Si Si3 0.792379 0.323605 0.751420
Si Si4 0.900940 0.926739 0.688530
Si Si5 0.457734 0.036827 0.791808
Si Si6 0.111510 0.121004 0.572078
Si Si7 0.728073 0.547538 0.047434
Si Si8 0.137473 0.096138 0.996861
O O1 0.477248 0.407067 0.197044
O O2 0.865221 0.966706 0.096586
O O3 0.842686 0.162844 0.260495
O O4 0.418640 0.159366 0.202898
O O5 0.049046 0.787996 0.592310
O O6 0.984079 0.697383 0.440096
O O7 0.000000 0.500000 0.500000
O O8 0.503726 0.928217 0.551899
O O9 0.078027 0.218262 0.794888
O O10 0.943721 0.237171 0.663406
O O11 0.688042 0.189048 0.728578
O O12 0.653970 0.917563 0.704206
O O13 0.490447 0.198151 0.872146
O O14 0.000000 0.000000 0.500000
O O15 0.500000 0.500000 0.000000
O O16 0.000000 0.500000 0.000000
O O17 0.925525 0.360704 0.067129
O O18 0.500000 0.000000 0.000000
O O19 0.000000 0.000000 0.000000
#
# Coordination Sequence:
#
# PCOD9063928 Si02
#       8
#     2   2   2   2   2   2   2   2
#     4  11  27  44  71 101 139 185 232 293 359 429
#     4  11  26  43  69 102 135 183 235 285 352 423
#     4  11  25  45  68 101 138 185 227 289 360 418
#     4  11  25  44  67 102 138 176 235 286 351 433
#     4  11  25  46  69  99 140 179 234 285 357 430
#     4  11  24  45  66  96 141 177 230 288 343 422
#     4  12  25  46  74  99 143 190 234 303 365 424
#     4  12  27  47  72 109 144 188 252 300 364 443
#
# _framework density 24.078029000000001
#
# number of rings (size 3 to 8) (size 9 to 14) (size 15 to 20)
#    0.000    0.750    3.750    2.250    8.750    1.500 
#    0.000    0.000    0.000    0.000    0.000    0.000 
#    0.000    0.000    0.000    0.000    0.000    0.000 
#
# Total GULP energy -89310.724308 kJ/mol
# GULP energy per Si atom -5581.920269 kJ/mol
# Density = 2.402323 g / cm^3
# Si number density = 24.078029 Si / 1000 Ang^3
#
#
#
# Elastic Constant Matrix: (Units=GPa)
#
#
# Indices 1 2 3 4 5 6 
#
# 1 81.8765 23.9054 9.2738 -13.2397 6.8250 16.6725
# 2 23.9054 125.1033 -7.5970 2.0220 11.1611 27.3253
# 3 9.2738 -7.5970 68.4871 -16.9780 9.0811 0.5505
# 4 -13.2397 2.0220 -16.9780 38.7989 6.9294 2.2831
# 5 6.8250 11.1611 9.0811 6.9294 40.4575 -11.0461
# 6 16.6725 27.3253 0.5505 2.2831 -11.0461 49.7674
#
#
#
# Elastic Compliance Matrix: (Units=1/GPa)
#
#
# Indices 1 2 3 4 5 6 
#
# 1 0.015226 -0.001306 0.000113 0.006534 -0.004931 -0.005779
# 2 -0.001306 0.010218 0.002373 0.001349 -0.005108 -0.006395
# 3 0.000113 0.002373 0.018182 0.009396 -0.007348 -0.003604
# 4 0.006534 0.001349 0.009396 0.034511 -0.011449 -0.007158
# 5 -0.004931 -0.005108 -0.007348 -0.011449 0.034012 0.012612
# 6 -0.005779 -0.006395 -0.003604 -0.007158 0.012612 0.028708
#
#
# Mechanical properties :
#
#
# Convention : Reuss Voigt Hill
#
# Bulk Modulus (GPa) = 21.74500 36.29236 29.01868
# Shear Modulus (GPa) = 32.50461 42.46375 37.48418
#
# Velocity S-wave (km/s) = 3.67818 4.20407 3.94988
# Velocity P-wave (km/s) = 5.20474 6.21861 5.73413
#
# Compressibility (1/GPa) = 0.04598758
#
# Stress axis : x y z
#
# Youngs Moduli (GPa) = 65.67507 97.86940 55.00027
#
# Poissons Ratio (x) = 0.12782 -0.00624
# Poissons Ratio (y) = 0.08577 -0.13054
# Poissons Ratio (z) = -0.00745 -0.23228
#
# Static dielectric constant tensor:
#      x y z
#    x 2.101900 -0.031470 0.048180 
#    y -0.031470 1.926410 -0.030870 
#    z 0.048180 -0.030870 1.901030 
# 
# From -- ./inp_files/48061.got.cif
#   From: 2010.05.17/outbox.cif.g08.bks.cpg/sg2_25_cif.got.tgz:48061.got - 2010.06.03 11:33:40.
