data_PCOD9063662
_publ_section_title
;
Structure prediction by ZEFSAII (Michael W. Deem and Ramdas Pophale) SiO2 
 PCOD9063662
Probable space group: P -1
;
_chemical_formula_sum "Si O2"
_cell_formula_units_Z 16
_cell_length_a 8.881212
_cell_length_b 21.152091
_cell_length_c 12.685866
_cell_angle_alpha 39.084879
_cell_angle_beta 45.314131
_cell_angle_gamma 27.662706
_cell_volume 696.545067
_symmetry_space_group_name_H-M "P -1"
_symmetry_group_IT_number 2
_symmetry_cell_setting 'triclinic'
loop_
_space_group_symop_operation_xyz
x,y,z
-x,-y,-z
loop_
_atom_site_type_symbol
_atom_site_label
_atom_site_fract_x
_atom_site_fract_y
_atom_site_fract_z
Si Si1 0.289540 0.894815 0.860459
Si Si2 0.641096 0.402003 0.452196
Si Si3 0.230448 0.201046 0.091817
Si Si4 0.371694 0.462551 0.032584
Si Si5 0.513918 0.094883 0.693057
Si Si6 0.419833 0.811899 0.243499
Si Si7 0.331005 0.247314 0.358517
Si Si8 0.787192 0.295226 0.852828
O O1 0.469949 0.903888 0.838164
O O2 0.426069 0.854273 0.727436
O O3 0.342919 0.763871 0.050147
O O4 0.909576 0.045560 0.840972
O O5 0.500000 0.500000 0.500000
O O6 0.565363 0.312597 0.596839
O O7 0.434313 0.534111 0.296167
O O8 0.018558 0.294879 0.414401
O O9 0.216099 0.089195 0.213586
O O10 0.305163 0.235539 0.903032
O O11 0.942012 0.364543 0.081079
O O12 0.254664 0.394129 0.214207
O O13 0.500000 0.500000 0.000000
O O14 0.686596 0.325932 0.983839
O O15 0.591754 0.138328 0.697615
O O16 0.462416 0.165375 0.513698
O O17 0.161553 0.175024 0.795867
#
# Coordination Sequence:
#
# PCOD9063662 Si02
#       8
#     2   2   2   2   2   2   2   2
#     4  11  25  46  73 102 139 186 239 291 345 421
#     4  12  24  43  71 102 139 181 235 291 343 412
#     4  12  25  46  75 104 138 188 242 286 351 420
#     4  11  26  45  74 103 144 181 231 288 357 419
#     4  12  27  45  73 105 145 184 235 291 352 427
#     4  12  27  43  72 106 143 185 236 291 355 412
#     4  11  26  47  70 107 142 184 236 290 354 418
#     4  11  24  44  72 103 139 183 234 290 353 411
#
# _framework density 22.970516
#
# number of rings (size 3 to 8) (size 9 to 14) (size 15 to 20)
#    0.000    0.500    2.500    5.250    5.250    6.000 
#    0.000    0.000    0.000    0.000    0.000    0.000 
#    0.000    0.000    0.000    0.000    0.000    0.000 
#
# Total GULP energy -89444.186738 kJ/mol
# GULP energy per Si atom -5590.261671 kJ/mol
# Density = 2.291823 g / cm^3
# Si number density = 22.970516 Si / 1000 Ang^3
#
#
#
# Elastic Constant Matrix: (Units=GPa)
#
#
# Indices 1 2 3 4 5 6 
#
# 1 97.9251 -0.7642 19.5169 -8.0443 -4.6584 21.9274
# 2 -0.7642 84.9436 27.6617 0.2314 -4.7537 9.4257
# 3 19.5169 27.6617 95.6822 -17.7378 -4.9160 13.9860
# 4 -8.0443 0.2314 -17.7378 36.2513 4.8438 -1.5319
# 5 -4.6584 -4.7537 -4.9160 4.8438 28.9423 -10.8557
# 6 21.9274 9.4257 13.9860 -1.5319 -10.8557 42.0149
#
#
#
# Elastic Compliance Matrix: (Units=1/GPa)
#
#
# Indices 1 2 3 4 5 6 
#
# 1 0.012031 0.001282 -0.001651 0.001690 -0.000720 -0.006141
# 2 0.001282 0.013448 -0.004175 -0.002103 0.001293 -0.002039
# 3 -0.001651 -0.004175 0.013505 0.006250 -0.000697 -0.002650
# 4 0.001690 -0.002103 0.006250 0.031628 -0.005323 -0.002713
# 5 -0.000720 0.001293 -0.000697 -0.005323 0.039273 0.010271
# 6 -0.006141 -0.002039 -0.002650 -0.002713 0.010271 0.030900
#
#
# Mechanical properties :
#
#
# Convention : Reuss Voigt Hill
#
# Bulk Modulus (GPa) = 33.44763 41.26442 37.35603
# Shear Modulus (GPa) = 31.28191 36.91747 34.09969
#
# Velocity S-wave (km/s) = 3.69430 4.01330 3.85710
# Velocity P-wave (km/s) = 5.72624 6.28319 6.01117
#
# Compressibility (1/GPa) = 0.02989749
#
# Stress axis : x y z
#
# Youngs Moduli (GPa) = 83.12107 74.36106 74.04711
#
# Poissons Ratio (x) = -0.09536 0.12222
# Poissons Ratio (y) = -0.10659 0.30913
# Poissons Ratio (z) = 0.13720 0.31044
#
# Static dielectric constant tensor:
#      x y z
#    x 1.795740 -0.119760 -0.057760 
#    y -0.119760 2.319290 0.106190 
#    z -0.057760 0.106190 2.060980 
# 
# From -- ./inp_files/333714.got.cif
#   From: 2010.05.17/outbox.cif.g08.bks.cpg/sg2_167_cif.got.tgz:333714.got - 2010.06.03 11:33:40.
