data_PCOD9063005
_publ_section_title
;
Structure prediction by ZEFSAII (Michael W. Deem and Ramdas Pophale) SiO2 
 PCOD9063005
Probable space group: P -1
;
_chemical_formula_sum "Si O2"
_cell_formula_units_Z 16
_cell_length_a 22.026047
_cell_length_b 18.237048
_cell_length_c 5.278230
_cell_angle_alpha 87.495894
_cell_angle_beta 94.164290
_cell_angle_gamma 162.923790
_cell_volume 618.542890
_symmetry_space_group_name_H-M "P -1"
_symmetry_group_IT_number 2
_symmetry_cell_setting 'triclinic'
loop_
_space_group_symop_operation_xyz
x,y,z
-x,-y,-z
loop_
_atom_site_type_symbol
_atom_site_label
_atom_site_fract_x
_atom_site_fract_y
_atom_site_fract_z
Si Si1 0.883782 0.058576 0.415808
Si Si2 0.677166 0.672710 0.339177
Si Si3 0.769340 0.558511 0.158981
Si Si4 0.091056 0.664796 0.306052
Si Si5 0.602590 0.864776 0.499665
Si Si6 0.781126 0.718008 0.871865
Si Si7 0.291403 0.768444 0.123508
Si Si8 0.275178 0.593843 0.219388
O O1 0.003087 0.171451 0.690489
O O2 0.066643 0.315892 0.302776
O O3 0.814766 0.903449 0.291304
O O4 0.684836 0.882223 0.415412
O O5 0.500000 0.500000 0.500000
O O6 0.632030 0.582798 0.067279
O O7 0.772434 0.726693 0.569876
O O8 0.572714 0.349419 0.307996
O O9 0.756861 0.603521 0.924454
O O10 0.749055 0.450805 0.079972
O O11 0.281343 0.837052 0.225818
O O12 0.000000 0.500000 0.500000
O O13 0.186704 0.851031 0.396235
O O14 0.913611 0.473243 0.075199
O O15 0.485435 0.791321 0.308899
O O16 0.000000 0.000000 0.000000
O O17 0.284025 0.686976 0.303260
O O18 0.500000 0.000000 0.000000
#
# Coordination Sequence:
#
# PCOD9063005 Si02
#       8
#     2   2   2   2   2   2   2   2
#     4  11  25  44  67  96 138 179 230 285 353 416
#     4  12  27  46  71 107 139 191 242 303 361 430
#     4  11  25  43  69  95 137 182 226 290 348 421
#     4  11  24  43  69 100 136 174 223 280 339 412
#     4  11  25  43  66 100 135 176 228 281 347 416
#     4  12  25  46  74 100 145 186 245 297 365 427
#     4  11  24  43  69 100 135 176 225 276 341 414
#     4  11  25  43  67  99 133 179 225 281 347 416
#
# _framework density 25.867245
#
# number of rings (size 3 to 8) (size 9 to 14) (size 15 to 20)
#    0.000    0.750    1.250    5.250    5.250    8.000 
#    0.000    0.000    0.000    0.000    0.000    0.000 
#    0.000    0.000    0.000    0.000    0.000    0.000 
#
# Total GULP energy -89469.468184 kJ/mol
# GULP energy per Si atom -5591.841762 kJ/mol
# Density = 2.580837 g / cm^3
# Si number density = 25.867245 Si / 1000 Ang^3
#
#
#
# Elastic Constant Matrix: (Units=GPa)
#
#
# Indices 1 2 3 4 5 6 
#
# 1 147.4044 16.0346 26.0260 -1.4239 2.2673 6.3571
# 2 16.0346 68.8825 8.2331 -2.0549 5.6172 13.5542
# 3 26.0260 8.2331 64.6565 -5.1924 6.4673 6.7073
# 4 -1.4239 -2.0549 -5.1924 34.2138 0.5013 -6.8106
# 5 2.2673 5.6172 6.4673 0.5013 40.1411 -3.1306
# 6 6.3571 13.5542 6.7073 -6.8106 -3.1306 56.8570
#
#
#
# Elastic Compliance Matrix: (Units=1/GPa)
#
#
# Indices 1 2 3 4 5 6 
#
# 1 0.007438 -0.001381 -0.002841 -0.000244 0.000219 -0.000185
# 2 -0.001381 0.015845 -0.000850 0.000074 -0.002287 -0.003640
# 3 -0.002841 -0.000850 0.017306 0.002217 -0.002646 -0.001402
# 4 -0.000244 0.000074 0.002217 0.030231 -0.000471 0.003343
# 5 0.000219 -0.002287 -0.002646 -0.000471 0.025823 0.002198
# 6 -0.000185 -0.003640 -0.001402 0.003343 0.002198 0.019163
#
#
# Mechanical properties :
#
#
# Convention : Reuss Voigt Hill
#
# Bulk Modulus (GPa) = 32.84337 42.39234 37.61785
# Shear Modulus (GPa) = 36.73814 41.61902 39.17858
#
# Velocity S-wave (km/s) = 3.77272 4.01552 3.89601
# Velocity P-wave (km/s) = 5.63048 6.15818 5.90023
#
# Compressibility (1/GPa) = 0.03044755
#
# Stress axis : x y z
#
# Youngs Moduli (GPa) = 134.44423 63.10979 57.78325
#
# Poissons Ratio (x) = 0.08714 0.16414
# Poissons Ratio (y) = 0.18564 0.04909
# Poissons Ratio (z) = 0.38191 0.05362
#
# Static dielectric constant tensor:
#      x y z
#    x 2.096720 0.067570 -0.029740 
#    y 0.067570 2.070220 -0.001140 
#    z -0.029740 -0.001140 2.171910 
# 
# From -- ./inp_files/120056.got.cif
#   From: 2010.05.17/outbox.cif.g08.bks.cpg/sg2_61_cif.got.tgz:120056.got - 2010.06.03 11:33:40.
