data_PCOD9063969
_publ_section_title
;
Structure prediction by ZEFSAII (Michael W. Deem and Ramdas Pophale) SiO2 
 PCOD9063969
Probable space group: P -1
;
_chemical_formula_sum "Si O2"
_cell_formula_units_Z 15
_cell_length_a 13.931082
_cell_length_b 9.419259
_cell_length_c 9.177414
_cell_angle_alpha 53.751365
_cell_angle_beta 71.867941
_cell_angle_gamma 40.317271
_cell_volume 605.460947
_symmetry_space_group_name_H-M "P -1"
_symmetry_group_IT_number 2
_symmetry_cell_setting 'triclinic'
loop_
_space_group_symop_operation_xyz
x,y,z
-x,-y,-z
loop_
_atom_site_type_symbol
_atom_site_label
_atom_site_fract_x
_atom_site_fract_y
_atom_site_fract_z
Si Si1 0.578163 0.285520 0.716839
Si Si2 0.881176 0.072998 0.697323
Si Si3 0.000000 0.000000 0.000000
Si Si4 0.869155 0.428766 0.291034
Si Si5 0.670648 0.621395 0.723305
Si Si6 0.823035 0.727883 0.395262
Si Si7 0.423281 0.671197 0.787007
Si Si8 0.632153 0.829108 0.921161
O O1 0.500000 0.500000 0.500000
O O2 0.733381 0.169726 0.772672
O O3 0.445837 0.476479 0.786598
O O4 0.637937 0.029447 0.772142
O O5 0.991369 0.975770 0.838765
O O6 0.831810 0.312900 0.485288
O O7 0.959700 0.841107 0.681693
O O8 0.824512 0.312587 0.881090
O O9 0.833671 0.648510 0.270964
O O10 0.776450 0.568902 0.100637
O O11 0.730749 0.702350 0.546001
O O12 0.536849 0.680867 0.677183
O O13 0.601690 0.780421 0.811720
O O14 0.000000 0.500000 0.500000
O O15 0.739989 0.023921 0.284529
O O16 0.500000 0.500000 0.000000
O O17 0.500000 0.000000 0.000000
#
# Coordination Sequence:
#
# PCOD9063969 Si02
#       8
#     2   2   1   2   2   2   2   2
#     4  12  26  46  72 104 142 188 245 300 368 445
#     4  11  25  45  74 103 145 190 242 304 373 439
#     4  12  22  48  74 110 136 202 250 302 380 448
#     4  11  24  45  68 105 143 185 237 301 364 439
#     4  12  26  48  76 104 151 200 246 309 380 448
#     4  12  28  46  73 108 147 193 251 307 377 451
#     4  12  27  48  75 105 146 196 249 310 372 450
#     4  12  26  46  72 106 145 192 243 303 370 446
#
# _framework density 24.774512999999999
#
# number of rings (size 3 to 8) (size 9 to 14) (size 15 to 20)
#    0.000    0.267    4.000    4.400    5.600    1.600 
#    0.000    0.000    0.000    0.000    0.000    0.000 
#    0.000    0.000    0.000    0.000    0.000    0.000 
#
# Total GULP energy -83644.580935 kJ/mol
# GULP energy per Si atom -5576.305396 kJ/mol
# Density = 2.471812 g / cm^3
# Si number density = 24.774513 Si / 1000 Ang^3
#
#
#
# Elastic Constant Matrix: (Units=GPa)
#
#
# Indices 1 2 3 4 5 6 
#
# 1 46.7118 6.1691 -2.1516 -7.4987 -3.5920 3.9456
# 2 6.1691 177.1601 -4.5626 -8.8399 -2.6059 17.9113
# 3 -2.1516 -4.5626 78.7388 -12.5789 7.0828 0.2061
# 4 -7.4987 -8.8399 -12.5789 57.8896 -0.5126 15.4678
# 5 -3.5920 -2.6059 7.0828 -0.5126 20.1254 6.3648
# 6 3.9456 17.9113 0.2061 15.4678 6.3648 30.8488
#
#
#
# Elastic Compliance Matrix: (Units=1/GPa)
#
#
# Indices 1 2 3 4 5 6 
#
# 1 0.023325 0.000276 0.000943 0.005206 0.006227 -0.007045
# 2 0.000276 0.006385 0.000591 0.002657 0.002505 -0.005596
# 3 0.000943 0.000591 0.013693 0.003556 -0.004005 -0.001512
# 4 0.005206 0.002657 0.003556 0.023169 0.005340 -0.014951
# 5 0.006227 0.002505 -0.004005 0.005340 0.058005 -0.016870
# 6 -0.007045 -0.005596 -0.001512 -0.014951 -0.016870 0.047553
#
#
# Mechanical properties :
#
#
# Convention : Reuss Voigt Hill
#
# Bulk Modulus (GPa) = 21.26626 33.50227 27.38427
# Shear Modulus (GPa) = 27.14680 41.98315 34.56497
#
# Velocity S-wave (km/s) = 3.31381 4.12103 3.73927
# Velocity P-wave (km/s) = 4.82124 6.01632 5.45163
#
# Compressibility (1/GPa) = 0.04702284
#
# Stress axis : x y z
#
# Youngs Moduli (GPa) = 42.87336 156.60813 73.03199
#
# Poissons Ratio (x) = -0.04317 -0.06889
# Poissons Ratio (y) = -0.01182 -0.04318
# Poissons Ratio (z) = -0.04044 -0.09259
#
# Static dielectric constant tensor:
#      x y z
#    x 2.477000 0.354010 -0.414950 
#    y 0.354010 2.388140 -0.357390 
#    z -0.414950 -0.357390 2.230380 
# 
# From -- ./inp_files/157429.got.cif
#   From: 2010.05.17/outbox.cif.g08.bks.cpg/sg2_79_cif.got.tgz:157429.got - 2010.06.03 11:33:40.
