data_PCOD9063420
_publ_section_title
;
Structure prediction by ZEFSAII (Michael W. Deem and Ramdas Pophale) SiO2 
 PCOD9063420
Probable space group: P -1
;
_chemical_formula_sum "Si O2"
_cell_formula_units_Z 12
_cell_length_a 10.024224
_cell_length_b 10.949817
_cell_length_c 10.430665
_cell_angle_alpha 152.690568
_cell_angle_beta 64.391262
_cell_angle_gamma 112.658222
_cell_volume 473.676086
_symmetry_space_group_name_H-M "P -1"
_symmetry_group_IT_number 2
_symmetry_cell_setting 'triclinic'
loop_
_space_group_symop_operation_xyz
x,y,z
-x,-y,-z
loop_
_atom_site_type_symbol
_atom_site_label
_atom_site_fract_x
_atom_site_fract_y
_atom_site_fract_z
Si Si1 0.766541 0.380217 0.957533
Si Si2 0.207755 0.359676 0.161023
Si Si3 0.645604 0.389623 0.268904
Si Si4 0.961472 0.765616 0.107425
Si Si5 0.827141 0.851350 0.738653
Si Si6 0.655648 0.121998 0.505117
O O1 0.733632 0.208181 0.686310
O O2 0.906439 0.281869 0.890423
O O3 0.631722 0.364552 0.097984
O O4 0.817051 0.670678 0.158305
O O5 0.166797 0.279253 0.246011
O O6 0.322077 0.604126 0.329000
O O7 0.063872 0.404456 0.171895
O O8 0.275142 0.102578 0.822969
O O9 0.500000 0.500000 0.500000
O O10 0.760235 0.630875 0.467200
O O11 0.715337 0.110789 0.029954
O O12 0.018437 0.038915 0.276911
O O13 0.500000 0.000000 0.500000
#
# Coordination Sequence:
#
# PCOD9063420 Si02
#       6
#     2   2   2   2   2   2
#     4   9  22  44  72 102 134 179 234 286 338 405
#     4  11  24  44  68 103 138 179 227 284 344 408
#     4  11  25  44  69  99 140 188 226 279 340 408
#     4   9  21  43  70 102 135 177 232 284 345 398
#     4  11  24  44  68 103 138 179 227 284 344 408
#     4  11  25  44  69  99 140 188 226 279 340 408
#
# _framework density 25.333766000000001
#
# number of rings (size 3 to 8) (size 9 to 14) (size 15 to 20)
#    0.000    1.667    0.000    2.500    2.333   13.333 
#   12.000    8.333    0.000    0.000    0.000    0.000 
#    0.000    0.000    0.000    0.000    0.000    0.000 
#
# Total GULP energy -67030.639505 kJ/mol
# GULP energy per Si atom -5585.886625 kJ/mol
# Density = 2.527610 g / cm^3
# Si number density = 25.333766 Si / 1000 Ang^3
#
#
#
# Elastic Constant Matrix: (Units=GPa)
#
#
# Indices 1 2 3 4 5 6 
#
# 1 78.1457 43.3435 38.4038 16.4031 7.4134 8.3197
# 2 43.3435 213.7864 55.1774 19.0207 9.6666 -11.5055
# 3 38.4038 55.1774 157.9700 23.5960 3.4229 8.4440
# 4 16.4031 19.0207 23.5960 56.9148 9.3288 5.6809
# 5 7.4134 9.6666 3.4229 9.3288 30.0094 3.1562
# 6 8.3197 -11.5055 8.4440 5.6809 3.1562 42.3296
#
#
#
# Elastic Compliance Matrix: (Units=1/GPa)
#
#
# Indices 1 2 3 4 5 6 
#
# 1 0.016437 -0.002543 -0.002578 -0.002203 -0.001951 -0.002966
# 2 -0.002543 0.005808 -0.001419 -0.000687 -0.001134 0.002538
# 3 -0.002578 -0.001419 0.007804 -0.002055 0.000972 -0.001233
# 4 -0.002203 -0.000687 -0.002055 0.020296 -0.005132 -0.001685
# 5 -0.001951 -0.001134 0.000972 -0.005132 0.035876 -0.002105
# 6 -0.002966 0.002538 -0.001233 -0.001685 -0.002105 0.025526
#
#
# Mechanical properties :
#
#
# Convention : Reuss Voigt Hill
#
# Bulk Modulus (GPa) = 58.92578 80.41684 69.67131
# Shear Modulus (GPa) = 38.31882 46.71592 42.51737
#
# Velocity S-wave (km/s) = 3.89338 4.29886 4.10114
# Velocity P-wave (km/s) = 6.59708 7.51346 7.07014
#
# Compressibility (1/GPa) = 0.01697050
#
# Stress axis : x y z
#
# Youngs Moduli (GPa) = 60.83827 172.16504 128.13174
#
# Poissons Ratio (x) = 0.43774 0.33033
# Poissons Ratio (y) = 0.15468 0.18183
# Poissons Ratio (z) = 0.15684 0.24432
#
# Static dielectric constant tensor:
#      x y z
#    x 2.181560 -0.014170 -0.152100 
#    y -0.014170 1.972930 0.015100 
#    z -0.152100 0.015100 2.008580 
# 
# From -- ./inp_files/365063.got.cif
#   From: 2010.05.17/outbox.cif.g08.bks.cpg/sg2_183_cif.got.tgz:365063.got - 2010.06.03 11:33:40.
