data_PCOD9063838
_publ_section_title
;
Structure prediction by ZEFSAII (Michael W. Deem and Ramdas Pophale) SiO2 
 PCOD9063838
Probable space group: P -1
;
_chemical_formula_sum "Si O2"
_cell_formula_units_Z 14
_cell_length_a 11.820089
_cell_length_b 5.556518
_cell_length_c 13.026461
_cell_angle_alpha 89.080736
_cell_angle_beta 50.958384
_cell_angle_gamma 74.866306
_cell_volume 628.766372
_symmetry_space_group_name_H-M "P -1"
_symmetry_group_IT_number 2
_symmetry_cell_setting 'triclinic'
loop_
_space_group_symop_operation_xyz
x,y,z
-x,-y,-z
loop_
_atom_site_type_symbol
_atom_site_label
_atom_site_fract_x
_atom_site_fract_y
_atom_site_fract_z
Si Si1 0.432406 0.239754 0.109074
Si Si2 0.838146 0.458973 0.123415
Si Si3 0.732410 0.400826 0.961368
Si Si4 0.669817 0.799272 0.401868
Si Si5 0.878568 0.188116 0.492374
Si Si6 0.055421 0.961662 0.766515
Si Si7 0.278182 0.242179 0.404819
O O1 0.285087 0.415381 0.128060
O O2 0.390831 0.172966 0.245417
O O3 0.570279 0.352358 0.047892
O O4 0.500000 0.000000 0.000000
O O5 0.715064 0.626959 0.275784
O O6 0.901304 0.194880 0.151958
O O7 0.751107 0.492488 0.064521
O O8 0.000000 0.500000 0.000000
O O9 0.884326 0.158581 0.865163
O O10 0.669644 0.680276 0.515324
O O11 0.500000 0.000000 0.500000
O O12 0.814556 0.904172 0.318872
O O13 0.935015 0.196554 0.342794
O O14 0.835141 0.472908 0.560417
O O15 0.762096 0.019824 0.554798
O O16 0.000000 0.000000 0.500000
#
# Coordination Sequence:
#
# PCOD9063838 Si02
#       7
#     2   2   2   2   2   2   2
#     4  11  29  47  73 107 147 204 250 318 380 457
#     4  12  26  45  78 108 151 198 252 316 388 458
#     4  11  27  46  74 106 150 194 261 306 387 458
#     4  11  27  46  72 110 147 200 248 316 390 456
#     4  11  24  44  75 104 147 195 248 316 382 452
#     4  11  25  46  70 110 146 192 254 314 380 463
#     4  11  26  47  71 106 149 192 256 309 382 453
#
# _framework density 22.265822
#
# number of rings (size 3 to 8) (size 9 to 14) (size 15 to 20)
#    0.000    0.857    2.857    1.714   12.000    2.857 
#    0.000    0.000    0.000    0.000    0.000    0.000 
#    0.000    0.000    0.000    0.000    0.000    0.000 
#
# Total GULP energy -77962.274487 kJ/mol
# GULP energy per Si atom -5568.733892 kJ/mol
# Density = 2.221514 g / cm^3
# Si number density = 22.265822 Si / 1000 Ang^3
#
#
#
# Elastic Constant Matrix: (Units=GPa)
#
#
# Indices 1 2 3 4 5 6 
#
# 1 120.1307 18.1662 49.3751 4.6530 20.3741 -19.6196
# 2 18.1662 55.3492 28.8872 7.5562 -3.1908 -18.3100
# 3 49.3751 28.8872 163.1665 12.1103 29.2944 -3.9292
# 4 4.6530 7.5562 12.1103 42.1733 -1.3676 1.9214
# 5 20.3741 -3.1908 29.2944 -1.3676 24.9921 7.1117
# 6 -19.6196 -18.3100 -3.9292 1.9214 7.1117 36.9939
#
#
#
# Elastic Compliance Matrix: (Units=1/GPa)
#
#
# Indices 1 2 3 4 5 6 
#
# 1 0.012238 -0.001179 -0.001201 -0.001517 -0.011075 0.007987
# 2 -0.001179 0.025177 -0.004828 -0.003240 0.006757 0.010193
# 3 -0.001201 -0.004828 0.009461 -0.002081 -0.010892 0.000180
# 4 -0.001517 -0.003240 -0.002081 0.025489 0.006116 -0.005129
# 5 -0.011075 0.006757 -0.010892 0.006116 0.067857 -0.017048
# 6 0.007987 0.010193 0.000180 -0.005129 -0.017048 0.039875
#
#
# Mechanical properties :
#
#
# Convention : Reuss Voigt Hill
#
# Bulk Modulus (GPa) = 30.80664 59.05596 44.93130
# Shear Modulus (GPa) = 24.35064 36.97973 30.66518
#
# Velocity S-wave (km/s) = 3.31060 4.07975 3.71513
# Velocity P-wave (km/s) = 5.33660 6.98378 6.21500
#
# Compressibility (1/GPa) = 0.03246053
#
# Stress axis : x y z
#
# Youngs Moduli (GPa) = 81.71485 39.71809 105.69378
#
# Poissons Ratio (x) = 0.04682 0.12697
# Poissons Ratio (y) = 0.09632 0.51028
# Poissons Ratio (z) = 0.09816 0.19175
#
# Static dielectric constant tensor:
#      x y z
#    x 1.829050 -0.007640 0.051210 
#    y -0.007640 1.854490 0.024140 
#    z 0.051210 0.024140 1.842470 
# 
# From -- ./inp_files/93857.got.cif
#   From: 2010.05.17/outbox.cif.g08.bks.cpg/sg2_47_cif.got.tgz:93857.got - 2010.06.03 11:33:40.
