data_PCOD9063424
_publ_section_title
;
Structure prediction by ZEFSAII (Michael W. Deem and Ramdas Pophale) SiO2 
 PCOD9063424
Probable space group: P -1
;
_chemical_formula_sum "Si O2"
_cell_formula_units_Z 14
_cell_length_a 16.464669
_cell_length_b 12.503474
_cell_length_c 10.080321
_cell_angle_alpha 52.010298
_cell_angle_beta 43.675377
_cell_angle_gamma 25.326623
_cell_volume 607.880575
_symmetry_space_group_name_H-M "P -1"
_symmetry_group_IT_number 2
_symmetry_cell_setting 'triclinic'
loop_
_space_group_symop_operation_xyz
x,y,z
-x,-y,-z
loop_
_atom_site_type_symbol
_atom_site_label
_atom_site_fract_x
_atom_site_fract_y
_atom_site_fract_z
Si Si1 0.459031 0.421638 0.003376
Si Si2 0.329730 0.333246 0.891824
Si Si3 0.954519 0.835418 0.285694
Si Si4 0.668578 0.371530 0.284793
Si Si5 0.730225 0.656020 0.355617
Si Si6 0.181916 0.202092 0.282498
Si Si7 0.322986 0.984157 0.763894
O O1 0.626962 0.142992 0.062527
O O2 0.213856 0.599331 0.165445
O O3 0.500000 0.500000 0.000000
O O4 0.465376 0.479336 0.806831
O O5 0.235776 0.574153 0.834358
O O6 0.314094 0.304000 0.779104
O O7 0.587970 0.088322 0.806887
O O8 0.224631 0.320357 0.118164
O O9 0.874481 0.789849 0.508334
O O10 0.844405 0.081804 0.279483
O O11 0.859623 0.901907 0.201465
O O12 0.500000 0.500000 0.500000
O O13 0.541764 0.766175 0.579340
O O14 0.971344 0.364967 0.321992
O O15 0.726609 0.813118 0.294601
#
# Coordination Sequence:
#
# PCOD9063424 Si02
#       7
#     2   2   2   2   2   2   2
#     4  12  28  48  75 106 144 193 245 294 367 439
#     4  11  26  45  67 105 152 185 243 295 367 425
#     4  12  25  49  74 107 145 191 245 300 363 427
#     4  12  26  48  75 105 148 191 236 306 363 427
#     4  11  24  44  68 104 144 189 236 298 357 433
#     4  11  24  44  71 101 143 193 235 299 357 425
#     4  11  25  42  72 104 139 185 245 294 355 430
#
# _framework density 23.030840000000001
#
# number of rings (size 3 to 8) (size 9 to 14) (size 15 to 20)
#    0.000    0.571    5.714    0.857    6.000    0.571 
#    2.571    1.429    0.000    0.000    0.000    0.000 
#    0.000    0.000    0.000    0.000    0.000    0.000 
#
# Total GULP energy -78415.269247 kJ/mol
# GULP energy per Si atom -5601.090661 kJ/mol
# Density = 2.297842 g / cm^3
# Si number density = 23.030840 Si / 1000 Ang^3
#
#
#
# Elastic Constant Matrix: (Units=GPa)
#
#
# Indices 1 2 3 4 5 6 
#
# 1 107.1221 36.3652 37.8545 12.8442 6.9887 -5.2715
# 2 36.3652 71.4139 37.1344 -0.3883 6.1683 -22.9223
# 3 37.8545 37.1344 153.9018 -11.5086 13.5254 -10.4168
# 4 12.8442 -0.3883 -11.5086 29.0959 -9.9965 -4.0781
# 5 6.9887 6.1683 13.5254 -9.9965 30.1937 -2.1941
# 6 -5.2715 -22.9223 -10.4168 -4.0781 -2.1941 44.5601
#
#
#
# Elastic Compliance Matrix: (Units=1/GPa)
#
#
# Indices 1 2 3 4 5 6 
#
# 1 0.013465 -0.006412 -0.002293 -0.008732 -0.003905 -0.003233
# 2 -0.006412 0.022013 -0.002792 0.003504 0.000142 0.010241
# 3 -0.002293 -0.002792 0.008166 0.003845 -0.001248 0.000492
# 4 -0.008732 0.003504 0.003845 0.045972 0.015285 0.006628
# 5 -0.003905 0.000142 -0.001248 0.015285 0.039809 0.002678
# 6 -0.003233 0.010241 0.000492 0.006628 0.002678 0.028181
#
#
# Mechanical properties :
#
#
# Convention : Reuss Voigt Hill
#
# Bulk Modulus (GPa) = 48.42583 61.68286 55.05435
# Shear Modulus (GPa) = 26.66919 35.50884 31.08901
#
# Velocity S-wave (km/s) = 3.40660 3.93083 3.67807
# Velocity P-wave (km/s) = 6.04528 6.88787 6.48028
#
# Compressibility (1/GPa) = 0.02065014
#
# Stress axis : x y z
#
# Youngs Moduli (GPa) = 74.26746 45.42691 122.46120
#
# Poissons Ratio (x) = 0.29127 0.28084
# Poissons Ratio (y) = 0.47620 0.34188
# Poissons Ratio (z) = 0.17032 0.12682
#
# Static dielectric constant tensor:
#      x y z
#    x 1.824530 0.009820 -0.004320 
#    y 0.009820 1.864550 -0.011240 
#    z -0.004320 -0.011240 1.894620 
# 
# From -- ./inp_files/306693.got.cif
#   From: 2010.05.17/outbox.cif.g08.bks.cpg/sg2_154_cif.got.tgz:306693.got - 2010.06.03 11:33:40.
