data_PCOD9063532
_publ_section_title
;
Structure prediction by ZEFSAII (Michael W. Deem and Ramdas Pophale) SiO2 
 PCOD9063532
Probable space group: P -1
;
_chemical_formula_sum "Si O2"
_cell_formula_units_Z 15
_cell_length_a 14.019391
_cell_length_b 14.745727
_cell_length_c 9.270737
_cell_angle_alpha 40.984915
_cell_angle_beta 149.966880
_cell_angle_gamma 143.361603
_cell_volume 560.673798
_symmetry_space_group_name_H-M "P -1"
_symmetry_group_IT_number 2
_symmetry_cell_setting 'triclinic'
loop_
_space_group_symop_operation_xyz
x,y,z
-x,-y,-z
loop_
_atom_site_type_symbol
_atom_site_label
_atom_site_fract_x
_atom_site_fract_y
_atom_site_fract_z
Si Si1 0.406695 0.780797 0.365069
Si Si2 0.198639 0.179302 0.368551
Si Si3 0.453378 0.374643 0.711178
Si Si4 0.380028 0.833464 0.765795
Si Si5 0.018038 0.337824 0.727234
Si Si6 0.500000 0.000000 0.500000
Si Si7 0.150303 0.853767 0.706949
Si Si8 0.772974 0.573199 0.397355
O O1 0.582289 0.777450 0.487379
O O2 0.268685 0.603379 0.449167
O O3 0.510626 0.889561 0.508615
O O4 0.248275 0.830897 0.010534
O O5 0.259797 0.231374 0.551185
O O6 0.088169 0.993406 0.446824
O O7 0.089661 0.275998 0.034571
O O8 0.500000 0.500000 0.500000
O O9 0.415008 0.420900 0.762984
O O10 0.647181 0.332647 0.025661
O O11 0.336450 0.900684 0.771606
O O12 0.212894 0.808169 0.445346
O O13 0.585887 0.915539 0.837384
O O14 0.177700 0.355600 0.782685
O O15 0.000000 0.500000 0.500000
O O16 0.975719 0.688104 0.619454
#
# Coordination Sequence:
#
# PCOD9063532 Si02
#       8
#     2   2   2   2   2   1   2   2
#     4  12  24  46  74 115 147 199 245 313 374 452
#     4  12  25  45  78 105 154 195 248 314 379 439
#     4  12  24  44  73 110 142 196 249 307 372 447
#     4  11  24  44  70 101 150 192 240 306 368 442
#     4  11  27  48  70 106 153 197 247 307 379 444
#     4  12  26  40  74 108 148 192 250 296 380 448
#     4  11  24  49  75 109 151 197 250 312 377 446
#     4  11  27  45  79 109 153 193 257 308 381 447
#
# _framework density 26.753525
#
# number of rings (size 3 to 8) (size 9 to 14) (size 15 to 20)
#    0.000    0.533    4.000    3.200    1.867    8.533 
#    0.000    0.000    0.000    0.000    0.000    0.000 
#    0.000    0.000    0.000    0.000    0.000    0.000 
#
# Total GULP energy -83720.411623 kJ/mol
# GULP energy per Si atom -5581.360775 kJ/mol
# Density = 2.669263 g / cm^3
# Si number density = 26.753525 Si / 1000 Ang^3
#
#
#
# Elastic Constant Matrix: (Units=GPa)
#
#
# Indices 1 2 3 4 5 6 
#
# 1 149.2211 15.4608 22.1533 -8.7473 -24.7918 -16.5732
# 2 15.4608 144.2044 46.6765 3.4619 -1.9922 -28.4512
# 3 22.1533 46.6765 138.7232 -5.2490 -16.8845 -19.6937
# 4 -8.7473 3.4619 -5.2490 47.1551 -7.0227 -4.1131
# 5 -24.7918 -1.9922 -16.8845 -7.0227 33.8695 1.6882
# 6 -16.5732 -28.4512 -19.6937 -4.1131 1.6882 44.7940
#
#
#
# Elastic Compliance Matrix: (Units=1/GPa)
#
#
# Indices 1 2 3 4 5 6 
#
# 1 0.008295 -0.000323 0.000100 0.002802 0.006538 0.002919
# 2 -0.000323 0.008594 -0.002427 -0.000786 -0.001315 0.004249
# 3 0.000100 -0.002427 0.009018 0.002123 0.004743 0.002477
# 4 0.002802 -0.000786 0.002123 0.023467 0.007763 0.003333
# 5 0.006538 -0.001315 0.004743 0.007763 0.038061 0.002947
# 6 0.002919 0.004249 0.002477 0.003333 0.002947 0.027387
#
#
# Mechanical properties :
#
#
# Convention : Reuss Voigt Hill
#
# Bulk Modulus (GPa) = 48.52410 66.74777 57.63593
# Shear Modulus (GPa) = 39.37325 48.35425 43.86375
#
# Velocity S-wave (km/s) = 3.84044 4.25596 4.05353
# Velocity P-wave (km/s) = 6.15160 7.01101 6.59532
#
# Compressibility (1/GPa) = 0.02060832
#
# Stress axis : x y z
#
# Youngs Moduli (GPa) = 120.55915 116.36349 110.88519
#
# Poissons Ratio (x) = 0.03756 -0.01110
# Poissons Ratio (y) = 0.03892 0.26907
# Poissons Ratio (z) = -0.01207 0.28236
#
# Static dielectric constant tensor:
#      x y z
#    x 2.029850 -0.022520 0.028900 
#    y -0.022520 2.177570 -0.118750 
#    z 0.028900 -0.118750 2.074000 
# 
# From -- ./inp_files/314548.got.cif
#   From: 2010.05.17/outbox.cif.g08.bks.cpg/sg2_158_cif.got.tgz:314548.got - 2010.06.03 11:33:40.
