data_PCOD9063881
_publ_section_title
;
Structure prediction by ZEFSAII (Michael W. Deem and Ramdas Pophale) SiO2 
 PCOD9063881
Probable space group: P -1
;
_chemical_formula_sum "Si O2"
_cell_formula_units_Z 14
_cell_length_a 16.429478
_cell_length_b 9.573683
_cell_length_c 15.932486
_cell_angle_alpha 143.595877
_cell_angle_beta 34.541135
_cell_angle_gamma 155.096722
_cell_volume 580.580715
_symmetry_space_group_name_H-M "P -1"
_symmetry_group_IT_number 2
_symmetry_cell_setting 'triclinic'
loop_
_space_group_symop_operation_xyz
x,y,z
-x,-y,-z
loop_
_atom_site_type_symbol
_atom_site_label
_atom_site_fract_x
_atom_site_fract_y
_atom_site_fract_z
Si Si1 0.367614 0.427996 0.818586
Si Si2 0.822435 0.295584 0.429487
Si Si3 0.685640 0.672655 0.989372
Si Si4 0.239031 0.361151 0.471359
Si Si5 0.652576 0.458458 0.347381
Si Si6 0.742618 0.252337 0.672871
Si Si7 0.933937 0.641794 0.065347
O O1 0.596423 0.651032 0.694026
O O2 0.251086 0.518043 0.922174
O O3 0.239180 0.033834 0.714052
O O4 0.378446 0.451711 0.921384
O O5 0.720583 0.385676 0.507926
O O6 0.756552 0.221572 0.547149
O O7 0.069643 0.655286 0.395455
O O8 0.795346 0.578957 0.809761
O O9 0.500000 0.500000 0.000000
O O10 0.860472 0.077812 0.028936
O O11 0.283677 0.516053 0.600251
O O12 0.000000 0.000000 0.500000
O O13 0.500000 0.500000 0.500000
O O14 0.852131 0.723712 0.247387
O O15 0.496079 0.076890 0.258637
O O16 0.000000 0.500000 0.000000
#
# Coordination Sequence:
#
# PCOD9063881 Si02
#       7
#     2   2   2   2   2   2   2
#     4  12  26  52  76 112 154 206 258 313 378 472
#     4  11  24  44  76 107 148 197 255 305 379 452
#     4  12  28  48  76 109 154 203 260 307 385 470
#     4  12  27  43  76 114 151 193 257 322 383 448
#     4  12  25  48  75 109 154 193 255 322 385 440
#     4  11  24  45  72 108 147 195 248 310 372 456
#     4  12  28  49  76 108 156 207 253 320 392 451
#
# _framework density 24.113788
#
# number of rings (size 3 to 8) (size 9 to 14) (size 15 to 20)
#    0.000    0.286    4.286    3.429   10.000    0.000 
#    0.000    2.857    0.000    0.000    0.000    0.000 
#    0.000    0.000    0.000    0.000    0.000    0.000 
#
# Total GULP energy -78211.766367 kJ/mol
# GULP energy per Si atom -5586.554741 kJ/mol
# Density = 2.405890 g / cm^3
# Si number density = 24.113788 Si / 1000 Ang^3
#
#
#
# Elastic Constant Matrix: (Units=GPa)
#
#
# Indices 1 2 3 4 5 6 
#
# 1 184.1102 40.3746 48.3460 -18.3943 2.4846 4.8319
# 2 40.3746 116.5082 11.5210 -27.1477 -4.1459 20.0047
# 3 48.3460 11.5210 65.3374 -9.9083 -0.2356 10.6881
# 4 -18.3943 -27.1477 -9.9083 35.6056 3.1376 -7.4795
# 5 2.4846 -4.1459 -0.2356 3.1376 37.6763 2.1911
# 6 4.8319 20.0047 10.6881 -7.4795 2.1911 34.7480
#
#
#
# Elastic Compliance Matrix: (Units=1/GPa)
#
#
# Indices 1 2 3 4 5 6 
#
# 1 0.007358 -0.002146 -0.005232 0.001247 -0.000983 0.002152
# 2 -0.002146 0.011811 0.001480 0.007046 0.001184 -0.005515
# 3 -0.005232 0.001480 0.020292 0.002786 0.000741 -0.005813
# 4 0.001247 0.007046 0.002786 0.035667 -0.002419 0.002743
# 5 -0.000983 0.001184 0.000741 -0.002419 0.027118 -0.003004
# 6 0.002152 -0.005515 -0.005813 0.002743 -0.003004 0.034222
#
#
# Mechanical properties :
#
#
# Convention : Reuss Voigt Hill
#
# Bulk Modulus (GPa) = 36.14756 62.93766 49.54261
# Shear Modulus (GPa) = 31.74907 39.32027 35.53467
#
# Velocity S-wave (km/s) = 3.63248 4.04247 3.84295
# Velocity P-wave (km/s) = 5.71106 6.92428 6.34673
#
# Compressibility (1/GPa) = 0.02766438
#
# Stress axis : x y z
#
# Youngs Moduli (GPa) = 135.91551 84.66493 49.28104
#
# Poissons Ratio (x) = 0.18171 0.25785
# Poissons Ratio (y) = 0.29170 -0.07295
# Poissons Ratio (z) = 0.71113 -0.12533
#
# Static dielectric constant tensor:
#      x y z
#    x 2.085200 0.113160 -0.190100 
#    y 0.113160 2.122520 -0.027960 
#    z -0.190100 -0.027960 2.035990 
# 
# From -- ./inp_files/530231.got.cif
#   From: 2010.05.17/outbox.cif.g08.bks.cpg/sg2_266_cif.got.tgz:530231.got - 2010.06.03 11:33:40.
