data_PCOD9063854
_publ_section_title
;
Structure prediction by ZEFSAII (Michael W. Deem and Ramdas Pophale) SiO2 
 PCOD9063854
Probable space group: P -1
;
_chemical_formula_sum "Si O2"
_cell_formula_units_Z 15
_cell_length_a 8.787638
_cell_length_b 8.907753
_cell_length_c 12.172448
_cell_angle_alpha 122.910962
_cell_angle_beta 55.207777
_cell_angle_gamma 96.843244
_cell_volume 631.238349
_symmetry_space_group_name_H-M "P -1"
_symmetry_group_IT_number 2
_symmetry_cell_setting 'triclinic'
loop_
_space_group_symop_operation_xyz
x,y,z
-x,-y,-z
loop_
_atom_site_type_symbol
_atom_site_label
_atom_site_fract_x
_atom_site_fract_y
_atom_site_fract_z
Si Si1 0.652676 0.265980 0.914059
Si Si2 0.500000 0.500000 0.500000
Si Si3 0.948062 0.975671 0.387212
Si Si4 0.383361 0.205835 0.588232
Si Si5 0.949420 0.717014 0.634863
Si Si6 0.149224 0.105065 0.022912
Si Si7 0.648090 0.671850 0.110049
Si Si8 0.482277 0.231354 0.201785
O O1 0.553001 0.224863 0.826818
O O2 0.856925 0.124304 0.797970
O O3 0.692764 0.464970 0.963215
O O4 0.511374 0.277138 0.079984
O O5 0.467688 0.309783 0.500606
O O6 0.500258 0.395402 0.339618
O O7 0.812393 0.840765 0.385446
O O8 0.000000 0.000000 0.500000
O O9 0.897401 0.182462 0.438220
O O10 0.357377 0.326637 0.757367
O O11 0.500000 0.000000 0.500000
O O12 0.939019 0.760776 0.785941
O O13 0.730842 0.795267 0.710174
O O14 0.000000 0.500000 0.500000
O O15 0.198203 0.226480 0.953431
O O16 0.346246 0.952907 0.916086
O O17 0.000000 0.000000 0.000000
#
# Coordination Sequence:
#
# PCOD9063854 Si02
#       8
#     2   1   2   2   2   2   2   2
#     4  11  24  47  77 106 148 203 255 321 389 474
#     4  12  28  48  80 114 158 212 256 328 404 472
#     4  12  27  47  72 113 153 199 262 325 393 467
#     4  12  27  49  76 110 158 201 257 322 398 465
#     4  12  28  46  77 111 155 208 268 321 388 477
#     4  12  26  46  75 113 153 200 261 327 402 472
#     4  11  24  44  75 107 144 196 254 312 386 471
#     4  12  25  50  75 110 157 208 262 321 401 476
#
# _framework density 23.762815
#
# number of rings (size 3 to 8) (size 9 to 14) (size 15 to 20)
#    0.000    0.267    4.000    4.400    5.600    1.600 
#    0.000    0.000    0.000    0.000    0.000    0.000 
#    0.000    0.000    0.000    0.000    0.000    0.000 
#
# Total GULP energy -83733.363134 kJ/mol
# GULP energy per Si atom -5582.224209 kJ/mol
# Density = 2.370873 g / cm^3
# Si number density = 23.762815 Si / 1000 Ang^3
#
#
#
# Elastic Constant Matrix: (Units=GPa)
#
#
# Indices 1 2 3 4 5 6 
#
# 1 102.5313 40.7259 43.3400 -1.9219 21.3954 19.3351
# 2 40.7259 178.8893 29.8459 -22.0678 -5.2871 22.0597
# 3 43.3400 29.8459 69.5713 -4.4996 23.4377 6.5409
# 4 -1.9219 -22.0678 -4.4996 43.0237 -3.1198 11.9184
# 5 21.3954 -5.2871 23.4377 -3.1198 35.4991 -0.7321
# 6 19.3351 22.0597 6.5409 11.9184 -0.7321 34.1331
#
#
#
# Elastic Compliance Matrix: (Units=1/GPa)
#
#
# Indices 1 2 3 4 5 6 
#
# 1 0.015610 -0.001717 -0.006455 0.000637 -0.005487 -0.006836
# 2 -0.001717 0.007976 -0.003032 0.005537 0.004600 -0.005436
# 3 -0.006455 -0.003032 0.023686 -0.000530 -0.012225 0.001000
# 4 0.000637 0.005537 -0.000530 0.030255 0.003154 -0.014334
# 5 -0.005487 0.004600 -0.012225 0.003154 0.040557 0.002247
# 6 -0.006836 -0.005436 0.001000 -0.014334 0.002247 0.041544
#
#
# Mechanical properties :
#
#
# Convention : Reuss Voigt Hill
#
# Bulk Modulus (GPa) = 40.22131 64.31283 52.26707
# Shear Modulus (GPa) = 26.27079 38.33651 32.30365
#
# Velocity S-wave (km/s) = 3.32858 4.02095 3.69103
# Velocity P-wave (km/s) = 5.63342 6.97715 6.34098
#
# Compressibility (1/GPa) = 0.02486244
#
# Stress axis : x y z
#
# Youngs Moduli (GPa) = 64.06215 125.37372 42.21875
#
# Poissons Ratio (x) = 0.21532 0.27253
# Poissons Ratio (y) = 0.11002 0.12802
# Poissons Ratio (z) = 0.41353 0.38017
#
# Static dielectric constant tensor:
#      x y z
#    x 1.974860 0.008190 -0.052990 
#    y 0.008190 2.013610 0.115940 
#    z -0.052990 0.115940 1.988960 
# 
# From -- ./inp_files/383078.got.cif
#   From: 2010.05.17/outbox.cif.g08.bks.cpg/sg2_192_cif.got.tgz:383078.got - 2010.06.03 11:33:40.
