data_PCOD9063661
_publ_section_title
;
Structure prediction by ZEFSAII (Michael W. Deem and Ramdas Pophale) SiO2 
 PCOD9063661
Probable space group: P -1
;
_chemical_formula_sum "Si O2"
_cell_formula_units_Z 12
_cell_length_a 11.471245
_cell_length_b 8.469527
_cell_length_c 7.817484
_cell_angle_alpha 93.509751
_cell_angle_beta 132.207597
_cell_angle_gamma 66.582852
_cell_volume 492.021496
_symmetry_space_group_name_H-M "P -1"
_symmetry_group_IT_number 2
_symmetry_cell_setting 'triclinic'
loop_
_space_group_symop_operation_xyz
x,y,z
-x,-y,-z
loop_
_atom_site_type_symbol
_atom_site_label
_atom_site_fract_x
_atom_site_fract_y
_atom_site_fract_z
Si Si1 0.569464 0.226771 0.731109
Si Si2 0.835201 0.622622 0.168743
Si Si3 0.498980 0.414177 0.179586
Si Si4 0.787812 0.068458 0.600426
Si Si5 0.813563 0.695522 0.538331
Si Si6 0.109959 0.031612 0.766473
O O1 0.566145 0.416810 0.747338
O O2 0.673792 0.111429 0.663250
O O3 0.362488 0.274658 0.534856
O O4 0.683824 0.117145 0.004071
O O5 0.818902 0.602098 0.356125
O O6 0.887137 0.780422 0.215731
O O7 0.986166 0.444175 0.211118
O O8 0.636800 0.665340 0.925756
O O9 0.690938 0.251278 0.405712
O O10 0.500000 0.500000 0.000000
O O11 0.992674 0.024529 0.808709
O O12 0.789763 0.894214 0.505557
O O13 0.000000 0.000000 0.500000
#
# Coordination Sequence:
#
# PCOD9063661 Si02
#       6
#     2   2   2   2   2   2
#     4  12  26  46  70 105 145 183 226 286 354 413
#     4  11  25  44  71 106 134 179 241 293 329 407
#     4  12  25  44  74 103 138 183 235 286 340 411
#     4  12  26  46  70 105 145 183 226 286 354 413
#     4  11  24  44  72 102 142 181 232 285 348 404
#     4  12  25  44  74 103 138 183 235 286 340 411
#
# _framework density 24.38918
#
# number of rings (size 3 to 8) (size 9 to 14) (size 15 to 20)
#    0.000    0.333    3.333    5.500    4.667    1.333 
#    0.000    2.500    0.000    0.000    0.000    0.000 
#    0.000    0.000    0.000    0.000    0.000    0.000 
#
# Total GULP energy -67056.380271 kJ/mol
# GULP energy per Si atom -5588.031689 kJ/mol
# Density = 2.433367 g / cm^3
# Si number density = 24.389180 Si / 1000 Ang^3
#
#
#
# Elastic Constant Matrix: (Units=GPa)
#
#
# Indices 1 2 3 4 5 6 
#
# 1 99.2670 1.6119 17.8596 13.0444 24.9731 -12.8028
# 2 1.6119 121.9020 18.9965 -12.7046 4.2785 2.5303
# 3 17.8596 18.9965 61.9643 -14.6898 10.7820 -2.2514
# 4 13.0444 -12.7046 -14.6898 28.5598 5.7512 15.7870
# 5 24.9731 4.2785 10.7820 5.7512 48.7135 -2.5240
# 6 -12.8028 2.5303 -2.2514 15.7870 -2.5240 43.8915
#
#
#
# Elastic Compliance Matrix: (Units=1/GPa)
#
#
# Indices 1 2 3 4 5 6 
#
# 1 0.015630 -0.000808 -0.006875 -0.015517 -0.004091 0.009599
# 2 -0.000808 0.009070 -0.001166 0.005584 -0.000933 -0.002881
# 3 -0.006875 -0.001166 0.023772 0.020329 -0.004464 -0.008287
# 4 -0.015517 0.005584 0.020329 0.073449 -0.007294 -0.030643
# 5 -0.004091 -0.000933 -0.004464 -0.007294 0.024695 0.002675
# 6 0.009599 -0.002881 -0.008287 -0.030643 0.002675 0.036500
#
#
# Mechanical properties :
#
#
# Convention : Reuss Voigt Hill
#
# Bulk Modulus (GPa) = 32.49544 40.00771 36.25158
# Shear Modulus (GPa) = 23.68835 40.54398 32.11616
#
# Velocity S-wave (km/s) = 3.11989 4.08165 3.63274
# Velocity P-wave (km/s) = 5.13137 6.21712 5.70016
#
# Compressibility (1/GPa) = 0.03077354
#
# Stress axis : x y z
#
# Youngs Moduli (GPa) = 63.97917 110.25043 42.06549
#
# Poissons Ratio (x) = 0.08910 0.28921
# Poissons Ratio (y) = 0.05170 0.04906
# Poissons Ratio (z) = 0.43987 0.12858
#
# Static dielectric constant tensor:
#      x y z
#    x 1.986330 -0.047830 -0.079950 
#    y -0.047830 1.878570 0.003970 
#    z -0.079950 0.003970 2.033950 
# 
# From -- ./inp_files/146985.got.cif
#   From: 2010.05.17/outbox.cif.g08.bks.cpg/sg2_74_cif.got.tgz:146985.got - 2010.06.03 11:33:40.
