data_PCOD9063895
_publ_section_title
;
Structure prediction by ZEFSAII (Michael W. Deem and Ramdas Pophale) SiO2 
 PCOD9063895
Probable space group: P -1
;
_chemical_formula_sum "Si O2"
_cell_formula_units_Z 14
_cell_length_a 9.003793
_cell_length_b 9.665793
_cell_length_c 11.923362
_cell_angle_alpha 53.957143
_cell_angle_beta 44.684637
_cell_angle_gamma 54.343373
_cell_volume 564.757703
_symmetry_space_group_name_H-M "P -1"
_symmetry_group_IT_number 2
_symmetry_cell_setting 'triclinic'
loop_
_space_group_symop_operation_xyz
x,y,z
-x,-y,-z
loop_
_atom_site_type_symbol
_atom_site_label
_atom_site_fract_x
_atom_site_fract_y
_atom_site_fract_z
Si Si1 0.192035 0.467103 0.612170
Si Si2 0.273577 0.160185 0.532061
Si Si3 0.100989 0.575965 0.017311
Si Si4 0.558705 0.264438 0.671199
Si Si5 0.798149 0.914366 0.633502
Si Si6 0.928797 0.999208 0.911074
Si Si7 0.550046 0.758125 0.011643
O O1 0.255656 0.331173 0.539077
O O2 0.356365 0.410360 0.657275
O O3 0.237493 0.652295 0.464748
O O4 0.975567 0.457258 0.798980
O O5 0.229393 0.198755 0.405531
O O6 0.500000 0.000000 0.500000
O O7 0.074985 0.085224 0.713499
O O8 0.360246 0.459592 0.934485
O O9 0.000000 0.500000 0.000000
O O10 0.008013 0.787407 0.944619
O O11 0.604411 0.100678 0.639804
O O12 0.493239 0.199451 0.854940
O O13 0.746030 0.820354 0.818582
O O14 0.000000 0.000000 0.500000
O O15 0.677662 0.126484 0.976994
O O16 0.000000 0.000000 0.000000
#
# Coordination Sequence:
#
# PCOD9063895 Si02
#       7
#     2   2   2   2   2   2   2
#     4  11  24  48  71 117 155 202 263 328 395 476
#     4  12  26  48  78 108 163 208 258 332 407 466
#     4  12  27  46  80 115 153 204 262 328 397 477
#     4  11  24  44  77 108 155 202 264 328 391 471
#     4  12  26  46  75 113 150 211 262 319 397 479
#     4  12  28  52  76 115 161 210 265 329 401 477
#     4  12  28  50  79 116 160 204 266 331 399 469
#
# _framework density 24.789393
#
# number of rings (size 3 to 8) (size 9 to 14) (size 15 to 20)
#    0.000    0.286    4.286    3.857    8.000    0.571 
#    2.571    2.143    0.000    0.000    0.000    0.000 
#    0.000    0.000    0.000    0.000    0.000    0.000 
#
# Total GULP energy -78205.732131 kJ/mol
# GULP energy per Si atom -5586.123724 kJ/mol
# Density = 2.473297 g / cm^3
# Si number density = 24.789393 Si / 1000 Ang^3
#
#
#
# Elastic Constant Matrix: (Units=GPa)
#
#
# Indices 1 2 3 4 5 6 
#
# 1 118.3062 55.5343 36.1282 7.1861 21.3303 -8.6974
# 2 55.5343 163.9774 8.6365 0.4897 9.6636 8.7609
# 3 36.1282 8.6365 119.0722 -7.4996 21.7899 13.9053
# 4 7.1861 0.4897 -7.4996 36.6843 4.1239 1.6900
# 5 21.3303 9.6636 21.7899 4.1239 37.0632 14.9817
# 6 -8.6974 8.7609 13.9053 1.6900 14.9817 59.4740
#
#
#
# Elastic Compliance Matrix: (Units=1/GPa)
#
#
# Indices 1 2 3 4 5 6 
#
# 1 0.013029 -0.004130 -0.003265 -0.002695 -0.006188 0.004912
# 2 -0.004130 0.007522 0.000894 0.000917 0.000640 -0.002109
# 3 -0.003265 0.000894 0.010525 0.003333 -0.004046 -0.002146
# 4 -0.002695 0.000917 0.003333 0.028892 -0.003341 -0.001288
# 5 -0.006188 0.000640 -0.004046 -0.003341 0.036862 -0.009244
# 6 0.004912 -0.002109 -0.002146 -0.001288 -0.009244 0.020710
#
#
# Mechanical properties :
#
#
# Convention : Reuss Voigt Hill
#
# Bulk Modulus (GPa) = 55.32549 66.88374 61.10462
# Shear Modulus (GPa) = 36.61245 46.71475 41.66360
#
# Velocity S-wave (km/s) = 3.84727 4.34575 4.10409
# Velocity P-wave (km/s) = 6.48860 7.22635 6.86739
#
# Compressibility (1/GPa) = 0.01807485
#
# Stress axis : x y z
#
# Youngs Moduli (GPa) = 76.75240 132.93821 95.01438
#
# Poissons Ratio (x) = 0.54908 0.31019
# Poissons Ratio (y) = 0.31701 -0.08498
# Poissons Ratio (z) = 0.25057 -0.11890
#
# Static dielectric constant tensor:
#      x y z
#    x 1.961350 -0.042600 -0.136150 
#    y -0.042600 2.063470 -0.003550 
#    z -0.136150 -0.003550 1.969290 
# 
# From -- ./inp_files/381173.got.cif
#   From: 2010.05.17/outbox.cif.g08.bks.cpg/sg2_191_cif.got.tgz:381173.got - 2010.06.03 11:33:40.
