data_PCOD9063165
_publ_section_title
;
Structure prediction by ZEFSAII (Michael W. Deem and Ramdas Pophale) SiO2 
 PCOD9063165
Probable space group: P -1
;
_chemical_formula_sum "Si O2"
_cell_formula_units_Z 16
_cell_length_a 8.360933
_cell_length_b 16.907692
_cell_length_c 5.082061
_cell_angle_alpha 76.885783
_cell_angle_beta 90.578676
_cell_angle_gamma 57.315618
_cell_volume 581.135829
_symmetry_space_group_name_H-M "P -1"
_symmetry_group_IT_number 2
_symmetry_cell_setting 'triclinic'
loop_
_space_group_symop_operation_xyz
x,y,z
-x,-y,-z
loop_
_atom_site_type_symbol
_atom_site_label
_atom_site_fract_x
_atom_site_fract_y
_atom_site_fract_z
Si Si1 0.315763 0.554081 0.258587
Si Si2 0.940891 0.607022 0.492840
Si Si3 0.988793 0.930128 0.837248
Si Si4 0.813257 0.778279 0.691766
Si Si5 0.470227 0.646318 0.811187
Si Si6 0.583123 0.761252 0.085632
Si Si7 0.878631 0.187723 0.564672
Si Si8 0.557229 0.061262 0.778459
O O1 0.500000 0.500000 0.500000
O O2 0.345397 0.460401 0.174528
O O3 0.112014 0.610402 0.356459
O O4 0.348187 0.619671 0.013944
O O5 0.910201 0.661805 0.726839
O O6 0.000000 0.500000 0.500000
O O7 0.719498 0.674416 0.346596
O O8 0.057028 0.842024 0.112337
O O9 0.106985 0.890683 0.593116
O O10 0.763468 0.983087 0.717435
O O11 0.000000 0.000000 0.000000
O O12 0.731104 0.789654 0.970202
O O13 0.972637 0.794549 0.588949
O O14 0.617203 0.861640 0.471861
O O15 0.520567 0.715179 0.904372
O O16 0.332037 0.713241 0.522357
O O17 0.411539 0.863794 0.114246
O O18 0.500000 0.000000 0.000000
#
# Coordination Sequence:
#
# PCOD9063165 Si02
#       8
#     2   2   2   2   2   2   2   2
#     4  11  24  43  71  96 143 185 233 294 360 434
#     4  11  24  44  69 103 140 181 234 295 358 432
#     4  12  28  47  73 104 144 190 241 299 365 426
#     4  11  25  42  71 101 138 188 233 294 358 423
#     4  11  26  43  67 104 136 188 236 296 361 428
#     4  11  25  43  69 101 140 179 238 296 356 426
#     4  12  27  46  74 104 145 190 240 300 360 434
#     4  11  24  45  69 100 137 184 235 293 355 424
#
# _framework density 27.532291000000001
#
# number of rings (size 3 to 8) (size 9 to 14) (size 15 to 20)
#    0.000    0.750    1.250    4.875    8.750    6.000 
#    0.000    0.000    0.000    0.000    0.000    0.000 
#    0.000    0.000    0.000    0.000    0.000    0.000 
#
# Total GULP energy -89553.652775 kJ/mol
# GULP energy per Si atom -5597.103298 kJ/mol
# Density = 2.746963 g / cm^3
# Si number density = 27.532291 Si / 1000 Ang^3
#
#
#
# Elastic Constant Matrix: (Units=GPa)
#
#
# Indices 1 2 3 4 5 6 
#
# 1 97.3855 27.4567 6.3584 -7.2896 -2.9606 -14.0006
# 2 27.4567 187.1551 29.7896 -2.4351 1.9319 -13.2187
# 3 6.3584 29.7896 79.7688 -1.7062 -1.2218 -6.4083
# 4 -7.2896 -2.4351 -1.7062 39.7420 -0.2949 -3.8075
# 5 -2.9606 1.9319 -1.2218 -0.2949 40.4104 3.2435
# 6 -14.0006 -13.2187 -6.4083 -3.8075 3.2435 61.8186
#
#
#
# Elastic Compliance Matrix: (Units=1/GPa)
#
#
# Indices 1 2 3 4 5 6 
#
# 1 0.011200 -0.001441 -0.000111 0.002188 0.000716 0.002314
# 2 -0.001441 0.005941 -0.002049 0.000081 -0.000512 0.000764
# 3 -0.000111 -0.002049 0.013403 0.000522 0.000424 0.000936
# 4 0.002188 0.000081 0.000522 0.025798 0.000188 0.002146
# 5 0.000716 -0.000512 0.000424 0.000188 0.024934 -0.001200
# 6 0.002314 0.000764 0.000936 0.002146 -0.001200 0.017156
#
#
# Mechanical properties :
#
#
# Convention : Reuss Voigt Hill
#
# Bulk Modulus (GPa) = 42.83899 54.61320 48.72609
# Shear Modulus (GPa) = 44.08640 48.44119 46.26380
#
# Velocity S-wave (km/s) = 4.00592 4.19911 4.10365
# Velocity P-wave (km/s) = 6.08193 6.58704 6.33952
#
# Compressibility (1/GPa) = 0.02334322
#
# Stress axis : x y z
#
# Youngs Moduli (GPa) = 89.28373 168.32488 74.61032
#
# Poissons Ratio (x) = 0.24255 0.00828
# Poissons Ratio (y) = 0.12865 0.15284
# Poissons Ratio (z) = 0.00991 0.34482
#
# Static dielectric constant tensor:
#      x y z
#    x 2.195880 0.128250 0.035540 
#    y 0.128250 2.211660 0.023510 
#    z 0.035540 0.023510 2.195920 
# 
# From -- ./inp_files/47463.got.cif
#   From: 2010.05.17/outbox.cif.g08.bks.cpg/sg2_24_cif.got.tgz:47463.got - 2010.06.03 11:33:40.
