data_PCOD9063174
_publ_section_title
;
Structure prediction by ZEFSAII (Michael W. Deem and Ramdas Pophale) SiO2 
 PCOD9063174
Probable space group: P -1
;
_chemical_formula_sum "Si O2"
_cell_formula_units_Z 16
_cell_length_a 18.701238
_cell_length_b 5.637544
_cell_length_c 9.565820
_cell_angle_alpha 82.504968
_cell_angle_beta 133.797082
_cell_angle_gamma 87.603328
_cell_volume 709.320374
_symmetry_space_group_name_H-M "P -1"
_symmetry_group_IT_number 2
_symmetry_cell_setting 'triclinic'
loop_
_space_group_symop_operation_xyz
x,y,z
-x,-y,-z
loop_
_atom_site_type_symbol
_atom_site_label
_atom_site_fract_x
_atom_site_fract_y
_atom_site_fract_z
Si Si1 0.562011 0.477789 0.943725
Si Si2 0.290563 0.202807 0.962625
Si Si3 0.154226 0.933221 0.279729
Si Si4 0.579053 0.541412 0.488373
Si Si5 0.226552 0.872692 0.689471
Si Si6 0.959753 0.304820 0.055501
Si Si7 0.686138 0.984290 0.694643
Si Si8 0.090732 0.594255 0.697681
O O1 0.487786 0.382606 0.743830
O O2 0.500000 0.500000 0.000000
O O3 0.602067 0.716456 0.922729
O O4 0.669794 0.305297 0.119628
O O5 0.196222 0.404942 0.868151
O O6 0.248834 0.121539 0.765286
O O7 0.302232 0.013740 0.121644
O O8 0.213482 0.859021 0.507506
O O9 0.211004 0.097650 0.247112
O O10 0.137388 0.733217 0.159788
O O11 0.045847 0.064649 0.178235
O O12 0.500000 0.500000 0.500000
O O13 0.626984 0.768262 0.589970
O O14 0.642913 0.265908 0.571006
O O15 0.129533 0.805982 0.644067
O O16 0.942887 0.349888 0.192754
O O17 0.000000 0.500000 0.000000
O O18 0.000000 0.500000 0.500000
#
# Coordination Sequence:
#
# PCOD9063174 Si02
#       8
#     2   2   2   2   2   2   2   2
#     4  11  26  45  68 100 140 184 234 294 360 427
#     4  11  25  43  70 101 136 188 233 292 356 429
#     4  11  26  43  68 105 135 190 232 297 358 426
#     4  12  26  47  74 104 140 190 241 302 359 430
#     4  11  25  45  68  98 141 179 239 287 362 428
#     4  11  24  43  71  99 143 180 237 294 355 428
#     4  12  27  45  75 106 144 187 244 298 362 427
#     4  11  24  44  70 101 140 184 229 295 355 433
#
# _framework density 22.556802000000001
#
# number of rings (size 3 to 8) (size 9 to 14) (size 15 to 20)
#    0.000    0.750    1.250    4.875    8.750    5.500 
#    0.000    0.000    0.000    0.000    0.000    0.000 
#    0.000    0.000    0.000    0.000    0.000    0.000 
#
# Total GULP energy -89293.126406 kJ/mol
# GULP energy per Si atom -5580.820400 kJ/mol
# Density = 2.250546 g / cm^3
# Si number density = 22.556802 Si / 1000 Ang^3
#
#
#
# Elastic Constant Matrix: (Units=GPa)
#
#
# Indices 1 2 3 4 5 6 
#
# 1 157.3129 24.9253 32.1890 28.2745 -11.9950 -7.8584
# 2 24.9253 66.9892 27.6388 20.5746 4.5561 -3.0982
# 3 32.1890 27.6388 113.3861 27.4545 -22.0942 -4.0291
# 4 28.2745 20.5746 27.4545 40.3700 -2.5814 3.6532
# 5 -11.9950 4.5561 -22.0942 -2.5814 46.0627 9.7018
# 6 -7.8584 -3.0982 -4.0291 3.6532 9.7018 36.5163
#
#
#
# Elastic Compliance Matrix: (Units=1/GPa)
#
#
# Indices 1 2 3 4 5 6 
#
# 1 0.007633 -0.001306 -0.000466 -0.004422 0.001314 0.001574
# 2 -0.001306 0.019577 -0.003508 -0.007273 -0.005009 0.003051
# 3 -0.000466 -0.003508 0.012380 -0.005934 0.005828 0.000013
# 4 -0.004422 -0.007273 -0.005934 0.036136 -0.000025 -0.005832
# 5 0.001314 -0.005009 0.005828 -0.000025 0.026731 -0.006599
# 6 0.001574 0.003051 0.000013 -0.005832 -0.006599 0.030321
#
#
# Mechanical properties :
#
#
# Convention : Reuss Voigt Hill
#
# Bulk Modulus (GPa) = 34.44812 56.35496 45.40154
# Shear Modulus (GPa) = 32.67701 41.45213 37.06457
#
# Velocity S-wave (km/s) = 3.81025 4.29146 4.05800
# Velocity P-wave (km/s) = 5.88746 7.04226 6.49059
#
# Compressibility (1/GPa) = 0.02902916
#
# Stress axis : x y z
#
# Youngs Moduli (GPa) = 131.01774 51.08093 80.77836
#
# Poissons Ratio (x) = 0.06673 0.03762
# Poissons Ratio (y) = 0.17116 0.28335
# Poissons Ratio (z) = 0.06102 0.17918
#
# Static dielectric constant tensor:
#      x y z
#    x 1.150890 0.204430 0.511650 
#    y 0.204430 1.835080 -0.219190 
#    z 0.511650 -0.219190 1.425920 
# 
# From -- ./inp_files/37979.got.cif
#   From: 2010.05.17/outbox.cif.g08.bks.cpg/sg2_19_cif.got.tgz:37979.got - 2010.06.03 11:33:40.
