data_PCOD9063552
_publ_section_title
;
Structure prediction by ZEFSAII (Michael W. Deem and Ramdas Pophale) SiO2 
 PCOD9063552
Probable space group: P -1
;
_chemical_formula_sum "Si O2"
_cell_formula_units_Z 16
_cell_length_a 4.936038
_cell_length_b 11.651707
_cell_length_c 25.582301
_cell_angle_alpha 28.647561
_cell_angle_beta 67.060382
_cell_angle_gamma 65.794620
_cell_volume 641.855586
_symmetry_space_group_name_H-M "P -1"
_symmetry_group_IT_number 2
_symmetry_cell_setting 'triclinic'
loop_
_space_group_symop_operation_xyz
x,y,z
-x,-y,-z
loop_
_atom_site_type_symbol
_atom_site_label
_atom_site_fract_x
_atom_site_fract_y
_atom_site_fract_z
Si Si1 0.549766 0.171960 0.299203
Si Si2 0.436053 0.510506 0.265218
Si Si3 0.746021 0.970242 0.897348
Si Si4 0.587322 0.561415 0.410470
Si Si5 0.764051 0.687487 0.540679
Si Si6 0.176271 0.316191 0.178249
Si Si7 0.613233 0.084478 0.156312
Si Si8 0.905572 0.767294 0.072747
O O1 0.382481 0.366557 0.274748
O O2 0.332161 0.133427 0.284027
O O3 0.838958 0.270164 0.214547
O O4 0.674391 0.936243 0.417349
O O5 0.432353 0.331092 0.385576
O O6 0.735393 0.619546 0.185562
O O7 0.218357 0.752993 0.201246
O O8 0.502606 0.965581 0.872991
O O9 0.697748 0.852516 0.003990
O O10 0.059941 0.846692 0.899861
O O11 0.500000 0.500000 0.500000
O O12 0.319281 0.516466 0.410929
O O13 0.637792 0.834635 0.287172
O O14 0.888150 0.380568 0.445150
O O15 0.162388 0.576415 0.102929
O O16 0.373633 0.273450 0.129272
O O17 0.000000 0.000000 0.000000
#
# Coordination Sequence:
#
# PCOD9063552 Si02
#       8
#     2   2   2   2   2   2   2   2
#     4  11  24  44  70 105 143 186 230 288 354 419
#     4  11  24  46  70 104 142 182 236 295 346 422
#     4  12  25  44  72 101 140 183 236 292 350 408
#     4  12  24  42  68 100 144 188 231 279 342 424
#     4  12  24  42  70 105 139 185 235 282 353 415
#     4  11  26  47  71 103 144 183 233 290 352 417
#     4  12  24  45  68 102 143 180 233 291 343 420
#     4  11  26  48  77 104 137 189 238 296 358 415
#
# _framework density 24.927723
#
# number of rings (size 3 to 8) (size 9 to 14) (size 15 to 20)
#    0.000    0.500    2.500    5.625    0.000    7.000 
#    0.000    4.375    0.000    0.000    0.000    0.000 
#    0.000    0.000    0.000    0.000    0.000    0.000 
#
# Total GULP energy -89663.884837 kJ/mol
# GULP energy per Si atom -5603.992802 kJ/mol
# Density = 2.487099 g / cm^3
# Si number density = 24.927723 Si / 1000 Ang^3
#
#
#
# Elastic Constant Matrix: (Units=GPa)
#
#
# Indices 1 2 3 4 5 6 
#
# 1 80.6467 4.3695 13.6286 13.3691 13.2722 -2.5220
# 2 4.3695 124.1035 20.6160 10.7092 0.0154 -13.9363
# 3 13.6286 20.6160 107.8413 10.5476 -0.7137 -12.4114
# 4 13.3691 10.7092 10.5476 45.5853 -4.4569 3.9295
# 5 13.2722 0.0154 -0.7137 -4.4569 35.9827 2.4684
# 6 -2.5220 -13.9363 -12.4114 3.9295 2.4684 27.8532
#
#
#
# Elastic Compliance Matrix: (Units=1/GPa)
#
#
# Indices 1 2 3 4 5 6 
#
# 1 0.014458 0.000353 -0.001214 -0.004826 -0.006103 0.002167
# 2 0.000353 0.008922 -0.001005 -0.002426 -0.000760 0.004458
# 3 -0.001214 -0.001005 0.010323 -0.002157 0.000092 0.004283
# 4 -0.004826 -0.002426 -0.002157 0.025521 0.005358 -0.006687
# 5 -0.006103 -0.000760 0.000092 0.005358 0.031010 -0.004396
# 6 0.002167 0.004458 0.004283 -0.006687 -0.004396 0.041571
#
#
# Mechanical properties :
#
#
# Convention : Reuss Voigt Hill
#
# Bulk Modulus (GPa) = 33.36453 43.31331 38.33892
# Shear Modulus (GPa) = 34.35787 40.14941 37.25364
#
# Velocity S-wave (km/s) = 3.71657 4.01762 3.87003
# Velocity P-wave (km/s) = 5.64188 6.23979 5.94835
#
# Compressibility (1/GPa) = 0.02997195
#
# Stress axis : x y z
#
# Youngs Moduli (GPa) = 69.16616 112.07824 96.87199
#
# Poissons Ratio (x) = -0.03957 0.11757
# Poissons Ratio (y) = -0.02442 0.09736
# Poissons Ratio (z) = 0.08394 0.11264
#
# Static dielectric constant tensor:
#      x y z
#    x 1.920780 -0.037530 0.020270 
#    y -0.037530 1.970520 -0.026220 
#    z 0.020270 -0.026220 2.012690 
# 
# From -- ./inp_files/604365.got.cif
#   From: 2010.05.17/outbox.cif.g08.bks.cpg/sg2_303_cif.got.tgz:604365.got - 2010.06.03 11:33:40.
