data_PCOD9063313
_publ_section_title
;
Structure prediction by ZEFSAII (Michael W. Deem and Ramdas Pophale) SiO2 
 PCOD9063313
Probable space group: P -1
;
_chemical_formula_sum "Si O2"
_cell_formula_units_Z 16
_cell_length_a 12.724008
_cell_length_b 18.613661
_cell_length_c 21.470795
_cell_angle_alpha 19.180029
_cell_angle_beta 37.433307
_cell_angle_gamma 27.101478
_cell_volume 723.060841
_symmetry_space_group_name_H-M "P -1"
_symmetry_group_IT_number 2
_symmetry_cell_setting 'triclinic'
loop_
_space_group_symop_operation_xyz
x,y,z
-x,-y,-z
loop_
_atom_site_type_symbol
_atom_site_label
_atom_site_fract_x
_atom_site_fract_y
_atom_site_fract_z
Si Si1 0.866327 0.597968 0.134509
Si Si2 0.325716 0.120667 0.777388
Si Si3 0.599166 0.061226 0.578875
Si Si4 0.232715 0.340753 0.407404
Si Si5 0.439014 0.697889 0.806960
Si Si6 0.310120 0.471336 0.608937
Si Si7 0.688551 0.486538 0.190230
Si Si8 0.061388 0.831595 0.790019
O O1 0.702337 0.684877 0.199615
O O2 0.775412 0.541001 0.164712
O O3 0.145110 0.279762 0.277235
O O4 0.890099 0.827494 0.914563
O O5 0.478301 0.044200 0.707289
O O6 0.342002 0.306882 0.665931
O O7 0.043861 0.346082 0.707800
O O8 0.447091 0.808773 0.010942
O O9 0.415722 0.224089 0.473647
O O10 0.649672 0.267865 0.403304
O O11 0.332926 0.384180 0.264974
O O12 0.259604 0.057244 0.614655
O O13 0.312998 0.651751 0.854018
O O14 0.500000 0.500000 0.000000
O O15 0.500000 0.500000 0.500000
O O16 0.058404 0.826259 0.440046
O O17 0.887911 0.315550 0.180901
#
# Coordination Sequence:
#
# PCOD9063313 Si02
#       8
#     2   2   2   2   2   2   2   2
#     4  12  26  45  78 102 142 188 242 289 352 430
#     4  12  28  45  70 108 149 179 237 301 351 417
#     4  12  25  46  75 101 142 192 237 290 358 416
#     4  11  25  47  69 106 146 183 236 299 350 422
#     4  11  24  43  76 105 139 186 240 288 358 420
#     4  12  27  47  71 107 146 183 234 301 356 414
#     4  12  26  45  71 107 140 190 238 287 355 429
#     4  12  24  46  74 104 137 190 241 282 357 431
#
# _framework density 22.128150999999999
#
# number of rings (size 3 to 8) (size 9 to 14) (size 15 to 20)
#    0.000    0.250    5.000    3.375    5.250    4.500 
#    0.000    0.000    0.000    0.000    0.000    0.000 
#    0.000    0.000    0.000    0.000    0.000    0.000 
#
# Total GULP energy -89618.653163 kJ/mol
# GULP energy per Si atom -5601.165823 kJ/mol
# Density = 2.207779 g / cm^3
# Si number density = 22.128151 Si / 1000 Ang^3
#
#
#
# Elastic Constant Matrix: (Units=GPa)
#
#
# Indices 1 2 3 4 5 6 
#
# 1 77.6010 7.0719 0.9647 9.7599 9.1161 4.3225
# 2 7.0719 92.9341 20.0207 10.9403 19.3666 0.6716
# 3 0.9647 20.0207 95.0634 15.0298 4.4766 -2.1675
# 4 9.7599 10.9403 15.0298 39.4681 0.5347 3.0527
# 5 9.1161 19.3666 4.4766 0.5347 33.9163 -1.2586
# 6 4.3225 0.6716 -2.1675 3.0527 -1.2586 29.4533
#
#
#
# Elastic Compliance Matrix: (Units=1/GPa)
#
#
# Indices 1 2 3 4 5 6 
#
# 1 0.013861 0.000049 0.000535 -0.003453 -0.003837 -0.001802
# 2 0.000049 0.012997 -0.001981 -0.002727 -0.007148 -0.000472
# 3 0.000535 -0.001981 0.011628 -0.004100 -0.000437 0.001229
# 4 -0.003453 -0.002727 -0.004100 0.028676 0.002478 -0.002599
# 5 -0.003837 -0.007148 -0.000437 0.002478 0.034687 0.001919
# 6 -0.001802 -0.000472 0.001229 -0.002599 0.001919 0.034669
#
#
# Mechanical properties :
#
#
# Convention : Reuss Voigt Hill
#
# Bulk Modulus (GPa) = 28.01759 35.74590 31.88175
# Shear Modulus (GPa) = 33.06682 36.40364 34.73523
#
# Velocity S-wave (km/s) = 3.86985 4.06042 3.96628
# Velocity P-wave (km/s) = 5.71460 6.17833 5.95099
#
# Compressibility (1/GPa) = 0.03569186
#
# Stress axis : x y z
#
# Youngs Moduli (GPa) = 72.14637 76.93897 86.00016
#
# Poissons Ratio (x) = -0.00378 -0.04597
# Poissons Ratio (y) = -0.00355 0.17035
# Poissons Ratio (z) = -0.03857 0.15240
#
# Static dielectric constant tensor:
#      x y z
#    x 1.810740 -0.030440 0.041050 
#    y -0.030440 1.813020 -0.038680 
#    z 0.041050 -0.038680 1.821670 
# 
# From -- ./inp_files/188240.got.cif
#   From: 2010.05.17/outbox.cif.g08.bks.cpg/sg2_95_cif.got.tgz:188240.got - 2010.06.03 11:33:40.
