data_PCOD9063430
_publ_section_title
;
Structure prediction by ZEFSAII (Michael W. Deem and Ramdas Pophale) SiO2 
 PCOD9063430
Probable space group: P -1
;
_chemical_formula_sum "Si O2"
_cell_formula_units_Z 16
_cell_length_a 5.774180
_cell_length_b 9.169671
_cell_length_c 14.950077
_cell_angle_alpha 61.989238
_cell_angle_beta 90.409473
_cell_angle_gamma 93.181378
_cell_volume 697.604369
_symmetry_space_group_name_H-M "P -1"
_symmetry_group_IT_number 2
_symmetry_cell_setting 'triclinic'
loop_
_space_group_symop_operation_xyz
x,y,z
-x,-y,-z
loop_
_atom_site_type_symbol
_atom_site_label
_atom_site_fract_x
_atom_site_fract_y
_atom_site_fract_z
Si Si1 0.532350 0.548249 0.590921
Si Si2 0.177969 0.826505 0.720772
Si Si3 0.696466 0.634362 0.931397
Si Si4 0.950166 0.528844 0.129445
Si Si5 0.484263 0.010583 0.202465
Si Si6 0.949873 0.268406 0.445623
Si Si7 0.276868 0.278132 0.770335
Si Si8 0.945681 0.121220 0.680320
O O1 0.500000 0.500000 0.500000
O O2 0.297224 0.645791 0.577384
O O3 0.486454 0.407545 0.707114
O O4 0.795632 0.630837 0.580284
O O5 0.209037 0.640651 0.805905
O O6 0.405170 0.939867 0.713779
O O7 0.078220 0.822029 0.623040
O O8 0.002553 0.929182 0.749074
O O9 0.595102 0.814541 0.881737
O O10 0.807531 0.557936 0.863559
O O11 0.500000 0.500000 0.000000
O O12 0.892436 0.626426 0.011273
O O13 0.886561 0.647416 0.176532
O O14 0.641662 0.909525 0.163943
O O15 0.287001 0.874056 0.267470
O O16 0.939595 0.159149 0.565749
O O17 0.129629 0.251523 0.686592
#
# Coordination Sequence:
#
# PCOD9063430 Si02
#       8
#     2   2   2   2   2   2   2   2
#     4  12  25  45  70 105 150 202 252 300 367 433
#     4  11  24  44  68 106 141 188 248 303 366 439
#     4  11  24  46  78 102 139 183 240 310 377 448
#     4  11  24  45  72 110 136 185 244 304 376 444
#     4  11  25  45  72 102 145 192 240 304 377 435
#     4  12  27  42  73 106 146 203 256 304 356 442
#     4  11  26  44  71 106 150 192 242 304 366 440
#     4  11  25  45  67 103 152 195 237 307 367 430
#
# _framework density 22.935635999999999
#
# number of rings (size 3 to 8) (size 9 to 14) (size 15 to 20)
#    0.000    0.750    5.000    1.500    5.250    3.000 
#    0.000    1.250    0.000    0.000    0.000    0.000 
#    0.000    0.000    0.000    0.000    0.000    0.000 
#
# Total GULP energy -89079.702764 kJ/mol
# GULP energy per Si atom -5567.481423 kJ/mol
# Density = 2.288343 g / cm^3
# Si number density = 22.935636 Si / 1000 Ang^3
#
#
#
# Elastic Constant Matrix: (Units=GPa)
#
#
# Indices 1 2 3 4 5 6 
#
# 1 77.9258 54.4273 2.5340 -22.6986 -2.8691 -41.4014
# 2 54.4273 151.3271 48.5034 -0.8704 -2.7971 -46.1829
# 3 2.5340 48.5034 67.4948 -4.8305 5.0668 -27.2098
# 4 -22.6986 -0.8704 -4.8305 27.3724 -0.0560 -18.8693
# 5 -2.8691 -2.7971 5.0668 -0.0560 33.2177 7.3329
# 6 -41.4014 -46.1829 -27.2098 -18.8693 7.3329 6.4655
#
#
#
# Elastic Compliance Matrix: (Units=1/GPa)
#
#
# Indices 1 2 3 4 5 6 
#
# 1 0.009105 -0.007281 -0.001721 -0.003386 0.003763 -0.015098
# 2 -0.007281 0.013117 -0.007438 -0.003505 0.000507 0.004972
# 3 -0.001721 -0.007438 0.016269 -0.005097 -0.001247 -0.009141
# 4 -0.003386 -0.003505 -0.005097 0.017928 0.004958 -0.021465
# 5 0.003763 0.000507 -0.001247 0.004958 0.030037 0.002873
# 6 -0.015098 0.004972 -0.009141 -0.021465 0.002873 -0.010873
#
#
# Mechanical properties :
#
#
# Convention : Reuss Voigt Hill
#
# Bulk Modulus (GPa) = 178.19311 56.40857 117.30084
# Shear Modulus (GPa) = 45.31760 26.16331 35.74045
#
# Velocity S-wave (km/s) = 4.44989 3.38113 3.95181
# Velocity P-wave (km/s) = 10.21094 6.31588 8.48981
#
# Compressibility (1/GPa) = 0.00561189
#
# Stress axis : x y z
#
# Youngs Moduli (GPa) = 109.83555 76.23595 61.46600
#
# Poissons Ratio (x) = 0.55504 0.10580
# Poissons Ratio (y) = 0.79967 0.45716
# Poissons Ratio (z) = 0.18907 0.56701
#
# Static dielectric constant tensor:
#      x y z
#    x 2.060530 -0.062150 0.041710 
#    y -0.062150 1.867020 -0.029930 
#    z 0.041710 -0.029930 1.863740 
# 
# From -- ./inp_files/323694.got.cif
#   From: 2010.05.17/outbox.cif.g08.bks.cpg/sg2_162_cif.got.tgz:323694.got - 2010.06.03 11:33:40.
