data_PCOD9063090
_publ_section_title
;
Structure prediction by ZEFSAII (Michael W. Deem and Ramdas Pophale) SiO2 
 PCOD9063090
Probable space group: P -1
;
_chemical_formula_sum "Si O2"
_cell_formula_units_Z 14
_cell_length_a 28.374623
_cell_length_b 5.201222
_cell_length_c 26.030144
_cell_angle_alpha 71.892880
_cell_angle_beta 9.524177
_cell_angle_gamma 72.008265
_cell_volume 604.097947
_symmetry_space_group_name_H-M "P -1"
_symmetry_group_IT_number 2
_symmetry_cell_setting 'triclinic'
loop_
_space_group_symop_operation_xyz
x,y,z
-x,-y,-z
loop_
_atom_site_type_symbol
_atom_site_label
_atom_site_fract_x
_atom_site_fract_y
_atom_site_fract_z
Si Si1 0.643767 0.947868 0.524698
Si Si2 0.296357 0.345011 0.690980
Si Si3 0.789036 0.237073 0.532375
Si Si4 0.306076 0.359031 0.296350
Si Si5 0.731790 0.185269 0.769224
Si Si6 0.426187 0.355752 0.817909
Si Si7 0.698194 0.087954 0.203699
O O1 0.492673 0.671164 0.720736
O O2 0.483843 0.043561 0.638283
O O3 0.589352 0.179539 0.610552
O O4 0.979581 0.871755 0.163644
O O5 0.500000 0.500000 0.500000
O O6 0.467365 0.313843 0.456134
O O7 0.246363 0.065536 0.792266
O O8 0.000000 0.500000 0.000000
O O9 0.706435 0.454813 0.651417
O O10 0.543161 0.249826 0.753304
O O11 0.827499 0.932244 0.531350
O O12 0.088585 0.316796 0.180291
O O13 0.185288 0.555011 0.369583
O O14 0.608581 0.281218 0.950377
O O15 0.000000 0.000000 0.500000
O O16 0.500000 0.000000 0.000000
#
# Coordination Sequence:
#
# PCOD9063090 Si02
#       7
#     2   2   2   2   2   2   2
#     4  12  26  47  74 102 144 187 238 302 352 418
#     4  11  24  43  70 107 143 182 232 287 346 449
#     4  12  26  47  74 102 144 187 238 302 352 418
#     4  11  26  47  76 108 146 189 234 289 366 420
#     4  11  26  46  71 113 145 186 234 288 347 451
#     4  12  28  48  72 106 138 186 252 294 352 416
#     4  11  26  43  72 108 140 187 234 287 364 420
#
# _framework density 23.175049999999999
#
# number of rings (size 3 to 8) (size 9 to 14) (size 15 to 20)
#    0.000    0.571    1.429    5.143    8.000    6.857 
#    0.000    0.000    0.000    0.000    0.000    0.000 
#    0.000    0.000    0.000    0.000    0.000    0.000 
#
# Total GULP energy -78310.756712 kJ/mol
# GULP energy per Si atom -5593.625479 kJ/mol
# Density = 2.312230 g / cm^3
# Si number density = 23.175050 Si / 1000 Ang^3
#
#
#
# Elastic Constant Matrix: (Units=GPa)
#
#
# Indices 1 2 3 4 5 6 
#
# 1 -115.9865 -8.4743 268.1673 -40.2455 31.4292 38.8371
# 2 -8.4743 119.7834 52.7882 7.2070 7.0309 0.2730
# 3 268.1673 52.7882 -177.6274 99.3509 -41.6228 -25.3352
# 4 -40.2455 7.2070 99.3509 17.8347 7.1646 4.8849
# 5 31.4292 7.0309 -41.6228 7.1646 38.2752 4.8294
# 6 38.8371 0.2730 -25.3352 4.8849 4.8294 36.2658
#
#
#
# Elastic Compliance Matrix: (Units=1/GPa)
#
#
# Indices 1 2 3 4 5 6 
#
# 1 0.008777 -0.001362 0.005912 -0.012430 0.002289 -0.003890
# 2 -0.001362 0.008784 -0.000747 -0.002415 -0.001023 0.001332
# 3 0.005912 -0.000747 0.002964 -0.001502 -0.000713 -0.003957
# 4 -0.012430 -0.002415 -0.001502 0.034700 0.001589 0.007395
# 5 0.002289 -0.001023 -0.000713 0.001589 0.024166 -0.006374
# 6 -0.003890 0.001332 -0.003957 0.007395 -0.006374 0.028818
#
#
# Mechanical properties :
#
#
# Convention : Reuss Voigt Hill
#
# Bulk Modulus (GPa) = 35.54903 50.12575 42.83739
# Shear Modulus (GPa) = 45.46248 -13.94565 15.75842
#
# Velocity S-wave (km/s) = 4.43391 -2.45573 2.61046
# Velocity P-wave (km/s) = 6.44868 3.69261 5.25456
#
# Compressibility (1/GPa) = 0.02813016
#
# Stress axis : x y z
#
# Youngs Moduli (GPa) = 113.93750 113.84857 337.33045
#
# Poissons Ratio (x) = 0.15505 -1.99416
# Poissons Ratio (y) = 0.15518 0.25198
# Poissons Ratio (z) = -0.67355 0.08504
#
# Static dielectric constant tensor:
#      x y z
#    x 1.894580 -0.052190 0.043290 
#    y -0.052190 1.911230 -0.031110 
#    z 0.043290 -0.031110 1.860890 
# 
# From -- ./inp_files/614293.got.cif
#   From: 2010.05.17/outbox.cif.g08.bks.cpg/sg2_308_cif.got.tgz:614293.got - 2010.06.03 11:33:40.
