data_PCOD9063272
_publ_section_title
;
Structure prediction by ZEFSAII (Michael W. Deem and Ramdas Pophale) SiO2 
 PCOD9063272
Probable space group: P -1
;
_chemical_formula_sum "Si O2"
_cell_formula_units_Z 14
_cell_length_a 11.357691
_cell_length_b 14.061827
_cell_length_c 5.473008
_cell_angle_alpha 73.868564
_cell_angle_beta 115.016379
_cell_angle_gamma 134.044026
_cell_volume 569.185436
_symmetry_space_group_name_H-M "P -1"
_symmetry_group_IT_number 2
_symmetry_cell_setting 'triclinic'
loop_
_space_group_symop_operation_xyz
x,y,z
-x,-y,-z
loop_
_atom_site_type_symbol
_atom_site_label
_atom_site_fract_x
_atom_site_fract_y
_atom_site_fract_z
Si Si1 0.067759 0.878638 0.759984
Si Si2 0.739548 0.831579 0.498414
Si Si3 0.528220 0.427352 0.878856
Si Si4 0.866951 0.597701 0.783957
Si Si5 0.901737 0.402265 0.705430
Si Si6 0.554629 0.258086 0.314391
Si Si7 0.423316 0.006284 0.176479
O O1 0.895370 0.844219 0.739540
O O2 0.978357 0.738772 0.643271
O O3 0.166751 0.017982 0.606004
O O4 0.216363 0.911787 0.042849
O O5 0.639238 0.713679 0.287316
O O6 0.594564 0.785721 0.600509
O O7 0.669865 0.527757 0.724508
O O8 0.500000 0.500000 0.000000
O O9 0.622398 0.389938 0.148098
O O10 0.868370 0.484913 0.776702
O O11 0.987503 0.636399 0.095198
O O12 0.705819 0.274876 0.567287
O O13 0.000000 0.500000 0.500000
O O14 0.485150 0.151100 0.124298
O O15 0.500000 0.000000 0.500000
O O16 0.500000 0.000000 0.000000
#
# Coordination Sequence:
#
# PCOD9063272 Si02
#       7
#     2   2   2   2   2   2   2
#     4  11  26  49  76 110 150 205 257 325 390 472
#     4  11  26  52  74 108 158 202 262 323 396 469
#     4  12  26  46  75 110 148 203 259 319 395 469
#     4  11  25  45  72 109 148 189 266 314 393 464
#     4  11  24  43  74 106 145 200 245 328 381 464
#     4  12  25  48  76 104 153 199 258 321 392 465
#     4  12  28  50  80 114 156 209 261 325 401 478
#
# _framework density 24.596551999999999
#
# number of rings (size 3 to 8) (size 9 to 14) (size 15 to 20)
#    0.000    0.571    4.286    2.571    4.000    1.714 
#   12.857    0.000    0.000    0.000    0.000    0.000 
#    0.000    0.000    0.000    0.000    0.000    0.000 
#
# Total GULP energy -78096.423482 kJ/mol
# GULP energy per Si atom -5578.315963 kJ/mol
# Density = 2.454057 g / cm^3
# Si number density = 24.596552 Si / 1000 Ang^3
#
#
#
# Elastic Constant Matrix: (Units=GPa)
#
#
# Indices 1 2 3 4 5 6 
#
# 1 129.1337 53.9927 44.2998 25.1300 2.8754 20.3948
# 2 53.9927 184.1200 22.9476 6.1614 -0.2736 -10.6317
# 3 44.2998 22.9476 67.7470 2.6541 13.3712 12.3742
# 4 25.1300 6.1614 2.6541 31.2196 3.0472 5.2580
# 5 2.8754 -0.2736 13.3712 3.0472 47.7488 14.3392
# 6 20.3948 -10.6317 12.3742 5.2580 14.3392 50.4750
#
#
#
# Elastic Compliance Matrix: (Units=1/GPa)
#
#
# Indices 1 2 3 4 5 6 
#
# 1 0.014210 -0.003135 -0.007677 -0.009737 0.003226 -0.004422
# 2 -0.003135 0.006565 -0.000629 0.000849 -0.000511 0.002860
# 3 -0.007677 -0.000629 0.021078 0.005244 -0.005416 -0.001205
# 4 -0.009737 0.000849 0.005244 0.039639 -0.003297 -0.000365
# 5 0.003226 -0.000511 -0.005416 -0.003297 0.024483 -0.006695
# 6 -0.004422 0.002860 -0.001205 -0.000365 -0.006695 0.024436
#
#
# Mechanical properties :
#
#
# Convention : Reuss Voigt Hill
#
# Bulk Modulus (GPa) = 52.71362 69.27566 60.99464
# Shear Modulus (GPa) = 31.32513 43.20605 37.26559
#
# Velocity S-wave (km/s) = 3.57257 4.19572 3.89662
# Velocity P-wave (km/s) = 6.20447 7.19013 6.71541
#
# Compressibility (1/GPa) = 0.01897043
#
# Stress axis : x y z
#
# Youngs Moduli (GPa) = 70.37420 152.32642 47.44327
#
# Poissons Ratio (x) = 0.47751 0.36424
# Poissons Ratio (y) = 0.22061 0.02983
# Poissons Ratio (z) = 0.54030 0.09577
#
# Static dielectric constant tensor:
#      x y z
#    x 1.893530 -0.214730 -0.061310 
#    y -0.214730 1.705340 0.117150 
#    z -0.061310 0.117150 2.133730 
# 
# From -- ./inp_files/77469.got.cif
#   From: 2010.05.17/outbox.cif.g08.bks.cpg/sg2_39_cif.got.tgz:77469.got - 2010.06.03 11:33:40.
