data_PCOD9063621
_publ_section_title
;
Structure prediction by ZEFSAII (Michael W. Deem and Ramdas Pophale) SiO2 
 PCOD9063621
Probable space group: P -1
;
_chemical_formula_sum "Si O2"
_cell_formula_units_Z 13
_cell_length_a 12.778044
_cell_length_b 6.941027
_cell_length_c 9.319267
_cell_angle_alpha 120.904360
_cell_angle_beta 54.623258
_cell_angle_gamma 89.343928
_cell_volume 518.876971
_symmetry_space_group_name_H-M "P -1"
_symmetry_group_IT_number 2
_symmetry_cell_setting 'triclinic'
loop_
_space_group_symop_operation_xyz
x,y,z
-x,-y,-z
loop_
_atom_site_type_symbol
_atom_site_label
_atom_site_fract_x
_atom_site_fract_y
_atom_site_fract_z
Si Si1 0.552707 0.141169 0.304992
Si Si2 0.952345 0.393143 0.219223
Si Si3 0.500000 0.500000 0.000000
Si Si4 0.045060 0.744192 0.143946
Si Si5 0.325406 0.358327 0.320045
Si Si6 0.635393 0.607638 0.187921
Si Si7 0.827853 0.908800 0.837343
O O1 0.444146 0.195842 0.279630
O O2 0.473078 0.333443 0.569644
O O3 0.587062 0.870646 0.242788
O O4 0.702044 0.114590 0.113833
O O5 0.939446 0.661384 0.278679
O O6 0.068657 0.300546 0.216105
O O7 0.802518 0.423419 0.409671
O O8 0.996775 0.220946 0.976930
O O9 0.612381 0.536824 0.814489
O O10 0.386648 0.564605 0.979268
O O11 0.075052 0.970541 0.259836
O O12 0.201305 0.503683 0.935887
O O13 0.251518 0.198737 0.245702
#
# Coordination Sequence:
#
# PCOD9063621 Si02
#       7
#     2   2   1   2   2   2   2
#     4  11  24  45  73 102 143 191 235 292 359 420
#     4  11  25  49  70 102 146 191 235 297 351 428
#     4  12  26  44  72 106 142 184 234 298 356 414
#     4  11  24  45  73 103 140 190 243 288 355 425
#     4  12  26  47  71 107 148 184 238 297 360 417
#     4  11  24  44  71 106 142 186 239 295 353 425
#     4  12  25  44  72 105 144 187 240 292 350 428
#
# _framework density 25.054109
#
# number of rings (size 3 to 8) (size 9 to 14) (size 15 to 20)
#    0.000    0.615    4.615    2.308    4.308    1.846 
#    2.769    0.000    0.000    0.000    0.000    0.000 
#    0.000    0.000    0.000    0.000    0.000    0.000 
#
# Total GULP energy -72589.520812 kJ/mol
# GULP energy per Si atom -5583.809293 kJ/mol
# Density = 2.499708 g / cm^3
# Si number density = 25.054109 Si / 1000 Ang^3
#
#
#
# Elastic Constant Matrix: (Units=GPa)
#
#
# Indices 1 2 3 4 5 6 
#
# 1 131.6673 28.5810 7.8215 -18.8811 6.0901 -16.8863
# 2 28.5810 95.1071 31.9881 -29.9858 1.5784 -12.8323
# 3 7.8215 31.9881 85.3540 -34.9505 2.5533 -3.0803
# 4 -18.8811 -29.9858 -34.9505 40.1131 -0.3693 -11.0009
# 5 6.0901 1.5784 2.5533 -0.3693 24.5913 -12.8865
# 6 -16.8863 -12.8323 -3.0803 -11.0009 -12.8865 40.5923
#
#
#
# Elastic Compliance Matrix: (Units=1/GPa)
#
#
# Indices 1 2 3 4 5 6 
#
# 1 0.009576 -0.000161 0.003081 0.008989 0.001096 0.006951
# 2 -0.000161 0.016938 0.000578 0.016249 0.005084 0.011350
# 3 0.003081 0.000578 0.020855 0.022843 0.002661 0.010082
# 4 0.008989 0.016249 0.022843 0.070642 0.013210 0.033948
# 5 0.001096 0.005084 0.002661 0.013210 0.051643 0.022240
# 6 0.006951 0.011350 0.010082 0.033948 0.022240 0.048140
#
#
# Mechanical properties :
#
#
# Convention : Reuss Voigt Hill
#
# Bulk Modulus (GPa) = 18.39348 49.87881 34.13615
# Shear Modulus (GPa) = 21.84167 37.30854 29.57510
#
# Velocity S-wave (km/s) = 2.95579 3.86310 3.43949
# Velocity P-wave (km/s) = 4.35963 6.31266 5.42476
#
# Compressibility (1/GPa) = 0.05436709
#
# Stress axis : x y z
#
# Youngs Moduli (GPa) = 104.42307 59.03716 47.95066
#
# Poissons Ratio (x) = 0.00948 -0.14775
# Poissons Ratio (y) = 0.01677 -0.02771
# Poissons Ratio (z) = -0.32176 -0.03412
#
# Static dielectric constant tensor:
#      x y z
#    x 1.944840 0.056010 0.058860 
#    y 0.056010 2.034590 0.048810 
#    z 0.058860 0.048810 1.977950 
# 
# From -- ./inp_files/240115.got.cif
#   From: 2010.05.17/outbox.cif.g08.bks.cpg/sg2_121_cif.got.tgz:240115.got - 2010.06.03 11:33:40.
