data_PCOD9063665
_publ_section_title
;
Structure prediction by ZEFSAII (Michael W. Deem and Ramdas Pophale) SiO2 
 PCOD9063665
Probable space group: P -1
;
_chemical_formula_sum "Si O2"
_cell_formula_units_Z 12
_cell_length_a 9.085583
_cell_length_b 14.409296
_cell_length_c 6.542521
_cell_angle_alpha 81.336619
_cell_angle_beta 49.880089
_cell_angle_gamma 53.042452
_cell_volume 482.489600
_symmetry_space_group_name_H-M "P -1"
_symmetry_group_IT_number 2
_symmetry_cell_setting 'triclinic'
loop_
_space_group_symop_operation_xyz
x,y,z
-x,-y,-z
loop_
_atom_site_type_symbol
_atom_site_label
_atom_site_fract_x
_atom_site_fract_y
_atom_site_fract_z
Si Si1 0.099769 0.903437 0.629027
Si Si2 0.199612 0.117351 0.778252
Si Si3 0.645948 0.779588 0.102975
Si Si4 0.980712 0.766896 0.534060
Si Si5 0.542307 0.507705 0.695416
Si Si6 0.718360 0.574954 0.817818
O O1 0.377824 0.856444 0.436738
O O2 0.125838 0.796574 0.526830
O O3 0.000000 0.000000 0.500000
O O4 0.921094 0.930434 0.969348
O O5 0.175882 0.223802 0.890668
O O6 0.052902 0.183829 0.677451
O O7 0.500000 0.000000 0.500000
O O8 0.693903 0.837059 0.853671
O O9 0.679278 0.670546 0.988133
O O10 0.166312 0.619185 0.463159
O O11 0.500000 0.500000 0.500000
O O12 0.534677 0.615019 0.766708
O O13 0.343552 0.500935 0.981707
O O14 0.000000 0.500000 0.500000
#
# Coordination Sequence:
#
# PCOD9063665 Si02
#       6
#     2   2   2   2   2   2
#     4  11  24  44  72 103 145 185 239 294 356 427
#     4  11  26  45  73 106 145 188 236 297 359 422
#     4  11  24  45  70 106 141 190 235 292 356 428
#     4  11  24  47  67 106 145 183 238 295 351 427
#     4  11  26  47  71 102 146 187 239 298 352 419
#     4  11  24  47  70 104 143 188 240 294 350 430
#
# _framework density 24.871003000000002
#
# number of rings (size 3 to 8) (size 9 to 14) (size 15 to 20)
#    0.000    1.000    3.333    2.000    0.000   14.000 
#    0.000    0.000    0.000    0.000    0.000    0.000 
#    0.000    0.000    0.000    0.000    0.000    0.000 
#
# Total GULP energy -66866.935026 kJ/mol
# GULP energy per Si atom -5572.244585 kJ/mol
# Density = 2.481440 g / cm^3
# Si number density = 24.871003 Si / 1000 Ang^3
#
#
#
# Elastic Constant Matrix: (Units=GPa)
#
#
# Indices 1 2 3 4 5 6 
#
# 1 130.1717 25.4365 79.3393 -9.1254 -2.9128 26.2331
# 2 25.4365 52.7559 29.1783 3.7951 -8.8933 2.9264
# 3 79.3393 29.1783 220.8862 -19.2671 -25.2326 -13.4256
# 4 -9.1254 3.7951 -19.2671 35.9502 9.9712 6.4250
# 5 -2.9128 -8.8933 -25.2326 9.9712 63.3143 -4.7524
# 6 26.2331 2.9264 -13.4256 6.4250 -4.7524 50.3938
#
#
#
# Elastic Compliance Matrix: (Units=1/GPa)
#
#
# Indices 1 2 3 4 5 6 
#
# 1 0.013387 -0.004081 -0.004840 0.003671 -0.003124 -0.008784
# 2 -0.004081 0.022646 -0.001531 -0.005426 0.003343 0.001409
# 3 -0.004840 -0.001531 0.007147 0.001232 0.002562 0.004597
# 4 0.003671 -0.005426 0.001232 0.032625 -0.005688 -0.005964
# 5 -0.003124 0.003343 0.002562 -0.005688 0.018380 0.004573
# 6 -0.008784 0.001409 0.004597 -0.005964 0.004573 0.026751
#
#
# Mechanical properties :
#
#
# Convention : Reuss Voigt Hill
#
# Bulk Modulus (GPa) = 44.89241 74.63577 59.76409
# Shear Modulus (GPa) = 33.49725 47.92230 40.70978
#
# Velocity S-wave (km/s) = 3.67391 4.39433 4.05017
# Velocity P-wave (km/s) = 6.00717 7.47136 6.77891
#
# Compressibility (1/GPa) = 0.02227548
#
# Stress axis : x y z
#
# Youngs Moduli (GPa) = 74.69788 44.15839 139.91105
#
# Poissons Ratio (x) = 0.18022 0.67715
# Poissons Ratio (y) = 0.30487 0.21424
# Poissons Ratio (z) = 0.36153 0.06762
#
# Static dielectric constant tensor:
#      x y z
#    x 1.945420 -0.000520 0.028690 
#    y -0.000520 2.118880 0.072750 
#    z 0.028690 0.072750 2.082570 
# 
# From -- ./inp_files/37744.got.cif
#   From: 2010.05.17/outbox.cif.g08.bks.cpg/sg2_19_cif.got.tgz:37744.got - 2010.06.03 11:33:40.
