data_PCOD9063772
_publ_section_title
;
Structure prediction by ZEFSAII (Michael W. Deem and Ramdas Pophale) SiO2 
 PCOD9063772
Probable space group: P -1
;
_chemical_formula_sum "Si O2"
_cell_formula_units_Z 16
_cell_length_a 12.749922
_cell_length_b 9.678834
_cell_length_c 9.440346
_cell_angle_alpha 103.281331
_cell_angle_beta 127.608799
_cell_angle_gamma 55.579044
_cell_volume 749.370976
_symmetry_space_group_name_H-M "P -1"
_symmetry_group_IT_number 2
_symmetry_cell_setting 'triclinic'
loop_
_space_group_symop_operation_xyz
x,y,z
-x,-y,-z
loop_
_atom_site_type_symbol
_atom_site_label
_atom_site_fract_x
_atom_site_fract_y
_atom_site_fract_z
Si Si1 0.320742 0.148682 0.341938
Si Si2 0.837803 0.042907 0.303070
Si Si3 0.701238 0.360306 0.765323
Si Si4 0.655287 0.370408 0.411684
Si Si5 0.156277 0.966837 0.036798
Si Si6 0.836478 0.718739 0.269801
Si Si7 0.205086 0.423471 0.538020
Si Si8 0.175306 0.419780 0.065957
O O1 0.227229 0.269505 0.426107
O O2 0.307822 0.287703 0.254439
O O3 0.500000 0.000000 0.500000
O O4 0.221201 0.079328 0.173361
O O5 0.709253 0.228158 0.303400
O O6 0.799726 0.906519 0.293501
O O7 0.856529 0.028367 0.143704
O O8 0.000000 0.000000 0.500000
O O9 0.737456 0.299564 0.616997
O O10 0.528338 0.528767 0.679253
O O11 0.713312 0.221988 0.846809
O O12 0.816344 0.418707 0.918147
O O13 0.694504 0.505456 0.421844
O O14 0.000000 0.000000 0.000000
O O15 0.751950 0.659251 0.291592
O O16 0.024625 0.586085 0.421777
O O17 0.803117 0.686657 0.078373
O O18 0.000000 0.500000 0.000000
#
# Coordination Sequence:
#
# PCOD9063772 Si02
#       8
#     2   2   2   2   2   2   2   2
#     4  12  26  46  72 104 146 186 240 300 361 423
#     4  12  26  45  71 104 148 186 237 303 361 425
#     4  11  26  44  73 102 137 189 239 288 366 429
#     4  11  24  47  69 100 143 185 232 296 361 430
#     4  12  28  44  73 109 143 189 246 298 359 439
#     4  11  25  43  70 105 134 184 243 291 355 419
#     4  11  24  44  73  96 139 187 236 295 355 422
#     4  12  23  47  74 101 140 191 247 295 349 438
#
# _framework density 21.351241000000002
#
# number of rings (size 3 to 8) (size 9 to 14) (size 15 to 20)
#    0.000    0.500    5.000    2.250    7.000    0.500 
#    2.250    1.250    0.000    0.000    0.000    0.000 
#    0.000    0.000    0.000    0.000    0.000    0.000 
#
# Total GULP energy -89400.666393 kJ/mol
# GULP energy per Si atom -5587.541650 kJ/mol
# Density = 2.130264 g / cm^3
# Si number density = 21.351241 Si / 1000 Ang^3
#
#
#
# Elastic Constant Matrix: (Units=GPa)
#
#
# Indices 1 2 3 4 5 6 
#
# 1 82.9365 29.2991 36.6823 3.7458 -13.5488 7.5549
# 2 29.2991 122.3999 43.5717 12.9225 -9.4351 3.2141
# 3 36.6823 43.5717 87.1503 9.4250 -18.5925 -3.2438
# 4 3.7458 12.9225 9.4250 36.3863 5.0041 -10.1309
# 5 -13.5488 -9.4351 -18.5925 5.0041 27.0077 -0.8068
# 6 7.5549 3.2141 -3.2438 -10.1309 -0.8068 26.6775
#
#
#
# Elastic Compliance Matrix: (Units=1/GPa)
#
#
# Indices 1 2 3 4 5 6 
#
# 1 0.016132 -0.001315 -0.005223 -0.002005 0.004240 -0.005678
# 2 -0.001315 0.010478 -0.004308 -0.003284 0.000565 -0.002644
# 3 -0.005223 -0.004308 0.018203 -0.002956 0.009054 0.003363
# 4 -0.002005 -0.003284 -0.002956 0.034789 -0.010231 0.013506
# 5 0.004240 0.000565 0.009054 -0.010231 0.047401 -0.002619
# 6 -0.005678 -0.002644 0.003363 0.013506 -0.002619 0.044870
#
#
# Mechanical properties :
#
#
# Convention : Reuss Voigt Hill
#
# Bulk Modulus (GPa) = 43.24838 56.84366 50.04602
# Shear Modulus (GPa) = 24.84203 30.20988 27.52596
#
# Velocity S-wave (km/s) = 3.41470 3.76560 3.59443
# Velocity P-wave (km/s) = 5.98720 6.75183 6.38098
#
# Compressibility (1/GPa) = 0.02312225
#
# Stress axis : x y z
#
# Youngs Moduli (GPa) = 61.98686 95.43968 54.93565
#
# Poissons Ratio (x) = 0.12548 0.28692
# Poissons Ratio (y) = 0.08150 0.23666
# Poissons Ratio (z) = 0.32375 0.41115
#
# Static dielectric constant tensor:
#      x y z
#    x 1.445040 0.381740 -0.223390 
#    y 0.381740 1.342120 0.273080 
#    z -0.223390 0.273080 1.685670 
# 
# From -- ./inp_files/244723.got.cif
#   From: 2010.05.17/outbox.cif.g08.bks.cpg/sg2_123_cif.got.tgz:244723.got - 2010.06.03 11:33:40.
