data_PCOD9063602
_publ_section_title
;
Structure prediction by ZEFSAII (Michael W. Deem and Ramdas Pophale) SiO2 
 PCOD9063602
Probable space group: P -1
;
_chemical_formula_sum "Si O2"
_cell_formula_units_Z 16
_cell_length_a 9.439914
_cell_length_b 22.545580
_cell_length_c 4.917582
_cell_angle_alpha 91.523755
_cell_angle_beta 99.646504
_cell_angle_gamma 143.921665
_cell_volume 583.477158
_symmetry_space_group_name_H-M "P -1"
_symmetry_group_IT_number 2
_symmetry_cell_setting 'triclinic'
loop_
_space_group_symop_operation_xyz
x,y,z
-x,-y,-z
loop_
_atom_site_type_symbol
_atom_site_label
_atom_site_fract_x
_atom_site_fract_y
_atom_site_fract_z
Si Si1 0.846061 0.545203 0.670472
Si Si2 0.670935 0.681496 0.294891
Si Si3 0.050363 0.736442 0.703755
Si Si4 0.837623 0.357006 0.733681
Si Si5 0.474622 0.864975 0.472993
Si Si6 0.597086 0.729920 0.754900
Si Si7 0.000826 0.058406 0.824035
Si Si8 0.283037 0.913958 0.135963
O O1 0.571756 0.429134 0.646485
O O2 0.886091 0.627998 0.761763
O O3 0.924424 0.570614 0.383730
O O4 0.053807 0.584168 0.937580
O O5 0.895201 0.710179 0.395109
O O6 0.750883 0.763891 0.531424
O O7 0.590614 0.675993 0.971630
O O8 0.335820 0.813666 0.718668
O O9 0.083643 0.802070 0.920192
O O10 0.677182 0.241850 0.719188
O O11 0.658362 0.337024 0.488504
O O12 0.776042 0.960526 0.527049
O O13 0.408242 0.910733 0.387998
O O14 0.714478 0.822079 0.992269
O O15 0.860592 0.073884 0.847215
O O16 0.000000 0.000000 0.000000
O O17 0.500000 0.000000 0.000000
#
# Coordination Sequence:
#
# PCOD9063602 Si02
#       8
#     2   2   2   2   2   2   2   2
#     4  11  25  46  75 102 141 188 248 306 367 426
#     4  12  27  46  72 106 143 190 242 314 362 432
#     4  11  24  44  71 104 141 188 245 302 362 435
#     4  11  24  47  72 105 140 193 243 299 361 444
#     4  11  24  45  71 101 145 192 242 295 365 440
#     4  12  27  46  71 105 149 189 242 297 371 439
#     4  12  25  45  70 108 148 190 236 301 366 440
#     4  12  24  43  74 102 141 196 246 296 366 445
#
# _framework density 27.421811000000002
#
# number of rings (size 3 to 8) (size 9 to 14) (size 15 to 20)
#    0.000    0.500    5.000    3.000    1.750    3.000 
#    2.250    4.375    0.000    0.000    0.000    0.000 
#    0.000    0.000    0.000    0.000    0.000    0.000 
#
# Total GULP energy -89275.176643 kJ/mol
# GULP energy per Si atom -5579.698540 kJ/mol
# Density = 2.735940 g / cm^3
# Si number density = 27.421811 Si / 1000 Ang^3
#
#
#
# Elastic Constant Matrix: (Units=GPa)
#
#
# Indices 1 2 3 4 5 6 
#
# 1 53.0349 17.2093 12.2853 -17.2572 22.6179 2.5679
# 2 17.2093 130.6670 24.8342 -6.1442 -0.6266 -6.3721
# 3 12.2853 24.8342 143.1664 -16.3766 16.0395 0.5152
# 4 -17.2572 -6.1442 -16.3766 46.6047 -0.2507 6.3423
# 5 22.6179 -0.6266 16.0395 -0.2507 46.1210 -4.5630
# 6 2.5679 -6.3721 0.5152 6.3423 -4.5630 43.5335
#
#
#
# Elastic Compliance Matrix: (Units=1/GPa)
#
#
# Indices 1 2 3 4 5 6 
#
# 1 0.031065 -0.004131 0.001281 0.012127 -0.016256 -0.005923
# 2 -0.004131 0.008555 -0.001600 -0.001220 0.002889 0.001995
# 3 0.001281 -0.001600 0.007915 0.003194 -0.003507 -0.001236
# 4 0.012127 -0.001220 0.003194 0.027651 -0.007493 -0.005745
# 5 -0.016256 0.002889 -0.003507 -0.007493 0.031447 0.005811
# 6 -0.005923 0.001995 -0.001236 -0.005745 0.005811 0.025073
#
#
# Mechanical properties :
#
#
# Convention : Reuss Voigt Hill
#
# Bulk Modulus (GPa) = 25.88395 48.39178 37.13787
# Shear Modulus (GPa) = 32.57636 45.42112 38.99874
#
# Velocity S-wave (km/s) = 3.45044 4.07429 3.77527
# Velocity P-wave (km/s) = 5.03326 6.31020 5.70755
#
# Compressibility (1/GPa) = 0.03863397
#
# Stress axis : x y z
#
# Youngs Moduli (GPa) = 32.19061 116.89028 126.33796
#
# Poissons Ratio (x) = 0.48291 -0.16179
# Poissons Ratio (y) = 0.13299 0.20213
# Poissons Ratio (z) = -0.04122 0.18702
#
# Static dielectric constant tensor:
#      x y z
#    x 2.206850 0.010680 -0.004150 
#    y 0.010680 2.184530 0.068910 
#    z -0.004150 0.068910 2.312050 
# 
# From -- ./inp_files/84814.got.cif
#   From: 2010.05.17/outbox.cif.g08.bks.cpg/sg2_43_cif.got.tgz:84814.got - 2010.06.03 11:33:40.
