data_PCOD9063477
_publ_section_title
;
Structure prediction by ZEFSAII (Michael W. Deem and Ramdas Pophale) SiO2 
 PCOD9063477
Probable space group: P -1
;
_chemical_formula_sum "Si O2"
_cell_formula_units_Z 15
_cell_length_a 15.857716
_cell_length_b 21.321107
_cell_length_c 9.509803
_cell_angle_alpha 130.669279
_cell_angle_beta 131.241863
_cell_angle_gamma 17.804799
_cell_volume 735.222557
_symmetry_space_group_name_H-M "P -1"
_symmetry_group_IT_number 2
_symmetry_cell_setting 'triclinic'
loop_
_space_group_symop_operation_xyz
x,y,z
-x,-y,-z
loop_
_atom_site_type_symbol
_atom_site_label
_atom_site_fract_x
_atom_site_fract_y
_atom_site_fract_z
Si Si1 0.785520 0.704563 0.643840
Si Si2 0.864330 0.383527 0.585537
Si Si3 0.221064 0.990683 0.435197
Si Si4 0.000000 0.000000 0.000000
Si Si5 0.208960 0.159262 0.358996
Si Si6 0.968730 0.450435 0.011907
Si Si7 0.679081 0.099347 0.995015
Si Si8 0.277280 0.866483 0.611431
O O1 0.847631 0.752426 0.716924
O O2 0.000000 0.500000 0.500000
O O3 0.831083 0.673229 0.815630
O O4 0.476820 0.880233 0.523370
O O5 0.542338 0.627882 0.582673
O O6 0.942053 0.235756 0.481982
O O7 0.990135 0.322175 0.481807
O O8 0.002892 0.343122 0.804361
O O9 0.179863 0.945417 0.213065
O O10 0.292957 0.902949 0.535430
O O11 0.145847 0.942447 0.934783
O O12 0.500000 0.000000 0.500000
O O13 0.226037 0.050865 0.187398
O O14 0.654700 0.665146 0.043694
O O15 0.000000 0.500000 0.000000
O O16 0.728291 0.065616 0.167098
O O17 0.000000 0.000000 0.500000
#
# Coordination Sequence:
#
# PCOD9063477 Si02
#       8
#     2   2   2   1   2   2   2   2
#     4  12  24  41  71 105 141 184 229 290 362 427
#     4  11  25  44  70 105 138 184 231 294 351 417
#     4  12  25  44  72 100 142 185 237 287 356 421
#     4  12  22  46  70 100 136 190 234 290 356 406
#     4  12  22  42  68 103 141 177 233 289 355 419
#     4  11  24  44  69 104 143 182 232 292 360 421
#     4  11  24  44  71  99 140 184 227 297 351 420
#     4  11  25  48  68  96 140 184 237 288 344 419
#
# _framework density 20.401986999999998
#
# number of rings (size 3 to 8) (size 9 to 14) (size 15 to 20)
#    0.000    0.533    4.000    5.600    1.867    1.067 
#    0.000    4.000    0.000    0.000    0.000    0.000 
#    0.000    0.000    0.000    0.000    0.000    0.000 
#
# Total GULP energy -83603.615393 kJ/mol
# GULP energy per Si atom -5573.574360 kJ/mol
# Density = 2.035555 g / cm^3
# Si number density = 20.401987 Si / 1000 Ang^3
#
#
#
# Elastic Constant Matrix: (Units=GPa)
#
#
# Indices 1 2 3 4 5 6 
#
# 1 57.0427 26.0492 17.1992 -6.6407 -2.5367 9.4872
# 2 26.0492 71.5609 36.6146 -1.6385 2.6420 -5.4489
# 3 17.1992 36.6146 134.4038 -15.9106 -23.0087 -2.1617
# 4 -6.6407 -1.6385 -15.9106 29.6555 -0.4199 -6.3286
# 5 -2.5367 2.6420 -23.0087 -0.4199 36.9824 -12.5042
# 6 9.4872 -5.4489 -2.1617 -6.3286 -12.5042 29.0890
#
#
#
# Elastic Compliance Matrix: (Units=1/GPa)
#
#
# Indices 1 2 3 4 5 6 
#
# 1 0.023568 -0.008827 -0.000719 0.002363 -0.001375 -0.009470
# 2 -0.008827 0.020336 -0.005416 -0.002997 -0.004162 0.003845
# 3 -0.000719 -0.005416 0.011579 0.007112 0.009562 0.005738
# 4 0.002363 -0.002997 0.007112 0.040602 0.009333 0.012042
# 5 -0.001375 -0.004162 0.009562 0.009333 0.039914 0.019568
# 6 -0.009470 0.003845 0.005738 0.012042 0.019568 0.049644
#
#
# Mechanical properties :
#
#
# Convention : Reuss Voigt Hill
#
# Bulk Modulus (GPa) = 39.12635 46.97037 43.04836
# Shear Modulus (GPa) = 22.31284 31.35501 26.83393
#
# Velocity S-wave (km/s) = 3.31064 3.92453 3.63059
# Velocity P-wave (km/s) = 5.81663 6.60366 6.22260
#
# Compressibility (1/GPa) = 0.02555822
#
# Stress axis : x y z
#
# Youngs Moduli (GPa) = 42.43093 49.17332 86.36408
#
# Poissons Ratio (x) = 0.43407 0.06211
# Poissons Ratio (y) = 0.37455 0.46774
# Poissons Ratio (z) = 0.03051 0.26632
#
# Static dielectric constant tensor:
#      x y z
#    x 1.653480 0.012500 -0.002920 
#    y 0.012500 1.731560 0.006070 
#    z -0.002920 0.006070 1.712960 
# 
# From -- ./inp_files/258099.got.cif
#   From: 2010.05.17/outbox.cif.g08.bks.cpg/sg2_130_cif.got.tgz:258099.got - 2010.06.03 11:33:40.
