data_PCOD9063534
_publ_section_title
;
Structure prediction by ZEFSAII (Michael W. Deem and Ramdas Pophale) SiO2 
 PCOD9063534
Probable space group: P -1
;
_chemical_formula_sum "Si O2"
_cell_formula_units_Z 14
_cell_length_a 8.403271
_cell_length_b 21.148124
_cell_length_c 10.895055
_cell_angle_alpha 26.015525
_cell_angle_beta 39.406123
_cell_angle_gamma 39.294153
_cell_volume 516.652800
_symmetry_space_group_name_H-M "P -1"
_symmetry_group_IT_number 2
_symmetry_cell_setting 'triclinic'
loop_
_space_group_symop_operation_xyz
x,y,z
-x,-y,-z
loop_
_atom_site_type_symbol
_atom_site_label
_atom_site_fract_x
_atom_site_fract_y
_atom_site_fract_z
Si Si1 0.427264 0.916499 0.077118
Si Si2 0.590714 0.969883 0.656531
Si Si3 0.090603 0.840332 0.142214
Si Si4 0.633427 0.450361 0.638782
Si Si5 0.083145 0.559987 0.138337
Si Si6 0.033118 0.762972 0.592711
Si Si7 0.505434 0.318974 0.175149
O O1 0.659014 0.893268 0.882403
O O2 0.346613 0.901954 0.890500
O O3 0.322202 0.779100 0.417792
O O4 0.500000 0.000000 0.000000
O O5 0.165616 0.033173 0.969335
O O6 0.539214 0.147954 0.406504
O O7 0.811958 0.902480 0.542556
O O8 0.172274 0.713659 0.214138
O O9 0.033188 0.770039 0.431118
O O10 0.500000 0.500000 0.500000
O O11 0.454928 0.425248 0.898754
O O12 0.824924 0.550033 0.378894
O O13 0.240314 0.654129 0.957032
O O14 0.996822 0.631885 0.929576
O O15 0.277833 0.395319 0.274755
#
# Coordination Sequence:
#
# PCOD9063534 Si02
#       7
#     2   2   2   2   2   2   2
#     4  11  25  42  64 100 139 176 224 279 339 405
#     4  11  24  45  74 102 134 180 230 284 346 405
#     4  11  26  45  70 105 141 178 226 290 345 403
#     4  12  26  44  71 104 139 184 233 280 340 415
#     4  11  26  47  69  99 140 184 230 282 342 409
#     4  11  24  44  70 102 138 179 231 284 341 407
#     4  11  26  47  71  98 137 186 230 283 345 405
#
# _framework density 27.097501999999999
#
# number of rings (size 3 to 8) (size 9 to 14) (size 15 to 20)
#    0.000    0.857    0.000    6.429    0.000   17.714 
#    0.000    0.000    0.000    0.000    0.000    0.000 
#    0.000    0.000    0.000    0.000    0.000    0.000 
#
# Total GULP energy -78295.347976 kJ/mol
# GULP energy per Si atom -5592.524855 kJ/mol
# Density = 2.703583 g / cm^3
# Si number density = 27.097502 Si / 1000 Ang^3
#
#
#
# Elastic Constant Matrix: (Units=GPa)
#
#
# Indices 1 2 3 4 5 6 
#
# 1 92.5747 5.0455 27.3872 13.6019 -16.2207 15.4831
# 2 5.0455 117.2069 34.1112 3.3952 -2.6122 9.9850
# 3 27.3872 34.1112 134.7855 10.1099 -15.6779 3.0314
# 4 13.6019 3.3952 10.1099 58.9826 5.9048 7.8768
# 5 -16.2207 -2.6122 -15.6779 5.9048 44.2589 3.2552
# 6 15.4831 9.9850 3.0314 7.8768 3.2552 31.5161
#
#
#
# Elastic Compliance Matrix: (Units=1/GPa)
#
#
# Indices 1 2 3 4 5 6 
#
# 1 0.013766 0.000764 -0.002049 -0.002489 0.005191 -0.006722
# 2 0.000764 0.009491 -0.002472 0.000109 0.000185 -0.003191
# 3 -0.002049 -0.002472 0.008802 -0.001262 0.002315 0.001019
# 4 -0.002489 0.000109 -0.001262 0.018492 -0.003604 -0.002939
# 5 0.005191 0.000185 0.002315 -0.003604 0.026149 -0.004632
# 6 -0.006722 -0.003191 0.001019 -0.002939 -0.004632 0.037158
#
#
# Mechanical properties :
#
#
# Convention : Reuss Voigt Hill
#
# Bulk Modulus (GPa) = 40.74022 53.07276 46.90649
# Shear Modulus (GPa) = 38.59389 45.48638 42.04013
#
# Velocity S-wave (km/s) = 3.77803 4.10154 3.94310
# Velocity P-wave (km/s) = 5.83941 6.48526 6.17079
#
# Compressibility (1/GPa) = 0.02454577
#
# Stress axis : x y z
#
# Youngs Moduli (GPa) = 72.64194 105.35923 113.60921
#
# Poissons Ratio (x) = -0.08051 0.23277
# Poissons Ratio (y) = -0.05551 0.28087
# Poissons Ratio (z) = 0.14883 0.26047
#
# Static dielectric constant tensor:
#      x y z
#    x 2.183250 0.014370 0.023770 
#    y 0.014370 2.200750 -0.063540 
#    z 0.023770 -0.063540 2.205810 
# 
# From -- ./inp_files/404425.got.cif
#   From: 2010.05.17/outbox.cif.g08.bks.cpg/sg2_203_cif.got.tgz:404425.got - 2010.06.03 11:33:40.
