data_PCOD9063700
_publ_section_title
;
Structure prediction by ZEFSAII (Michael W. Deem and Ramdas Pophale) SiO2 
 PCOD9063700
Probable space group: P -1
;
_chemical_formula_sum "Si O2"
_cell_formula_units_Z 14
_cell_length_a 6.733309
_cell_length_b 9.493735
_cell_length_c 18.290701
_cell_angle_alpha 132.157934
_cell_angle_beta 121.904787
_cell_angle_gamma 48.359506
_cell_volume 640.509021
_symmetry_space_group_name_H-M "P -1"
_symmetry_group_IT_number 2
_symmetry_cell_setting 'triclinic'
loop_
_space_group_symop_operation_xyz
x,y,z
-x,-y,-z
loop_
_atom_site_type_symbol
_atom_site_label
_atom_site_fract_x
_atom_site_fract_y
_atom_site_fract_z
Si Si1 0.243522 0.858860 0.443664
Si Si2 0.149664 0.342077 0.904858
Si Si3 0.972353 0.019826 0.291742
Si Si4 0.077190 0.659838 0.870622
Si Si5 0.223917 0.295777 0.426605
Si Si6 0.356942 0.377254 0.324873
Si Si7 0.649917 0.087370 0.006585
O O1 0.514502 0.846371 0.522284
O O2 0.315459 0.607900 0.370830
O O3 0.130197 0.957425 0.377235
O O4 0.000000 0.000000 0.500000
O O5 0.007683 0.196140 0.813884
O O6 0.455212 0.183810 0.933082
O O7 0.161324 0.459412 0.873146
O O8 0.000000 0.500000 0.000000
O O9 0.657075 0.187344 0.300250
O O10 0.101119 0.148204 0.321033
O O11 0.866736 0.657755 0.772060
O O12 0.920839 0.867020 0.965515
O O13 0.289172 0.717196 0.892245
O O14 0.311393 0.383645 0.404834
O O15 0.000000 0.500000 0.500000
O O16 0.500000 0.000000 0.000000
#
# Coordination Sequence:
#
# PCOD9063700 Si02
#       7
#     2   2   2   2   2   2   2
#     4  12  24  48  73 103 146 188 239 300 366 434
#     4  12  25  47  71 104 147 190 245 302 353 432
#     4  12  26  46  73 105 146 192 245 299 365 435
#     4  11  25  44  70 101 136 192 231 295 361 422
#     4  12  26  46  76 106 145 191 241 304 367 437
#     4  12  25  46  72 102 146 185 241 298 368 435
#     4  11  24  44  72  98 139 182 241 295 355 416
#
# _framework density 21.857614000000002
#
# number of rings (size 3 to 8) (size 9 to 14) (size 15 to 20)
#    0.000    0.286    7.143    2.143    2.000    0.000 
#    7.714    0.000    0.000    0.000    0.000    0.000 
#    0.000    0.000    0.000    0.000    0.000    0.000 
#
# Total GULP energy -78244.688490 kJ/mol
# GULP energy per Si atom -5588.906321 kJ/mol
# Density = 2.180786 g / cm^3
# Si number density = 21.857614 Si / 1000 Ang^3
#
#
#
# Elastic Constant Matrix: (Units=GPa)
#
#
# Indices 1 2 3 4 5 6 
#
# 1 83.7437 33.9453 39.9731 6.4625 26.9936 5.3013
# 2 33.9453 127.7228 28.4165 -12.9591 13.3663 3.6537
# 3 39.9731 28.4165 95.5804 4.3512 37.9821 4.6139
# 4 6.4625 -12.9591 4.3512 46.6443 -2.0725 6.9752
# 5 26.9936 13.3663 37.9821 -2.0725 46.2980 6.4669
# 6 5.3013 3.6537 4.6139 6.9752 6.4669 35.0493
#
#
#
# Elastic Compliance Matrix: (Units=1/GPa)
#
#
# Indices 1 2 3 4 5 6 
#
# 1 0.017354 -0.003499 -0.003541 -0.003335 -0.006358 0.000043
# 2 -0.003499 0.009451 -0.001934 0.003513 0.001212 -0.001124
# 3 -0.003541 -0.001934 0.017259 -0.002347 -0.011796 0.001109
# 4 -0.003335 0.003513 -0.002347 0.024081 0.004660 -0.005205
# 5 -0.006358 0.001212 -0.011796 0.004660 0.035555 -0.005099
# 6 0.000043 -0.001124 0.001109 -0.005205 -0.005099 0.030473
#
#
# Mechanical properties :
#
#
# Convention : Reuss Voigt Hill
#
# Bulk Modulus (GPa) = 38.28956 56.85741 47.57348
# Shear Modulus (GPa) = 31.08951 39.24578 35.16765
#
# Velocity S-wave (km/s) = 3.77552 4.24195 4.01551
# Velocity P-wave (km/s) = 6.04663 7.07540 6.58115
#
# Compressibility (1/GPa) = 0.02611678
#
# Stress axis : x y z
#
# Youngs Moduli (GPa) = 57.62481 105.80530 57.93984
#
# Poissons Ratio (x) = 0.37016 0.20517
# Poissons Ratio (y) = 0.20160 0.11207
# Poissons Ratio (z) = 0.20405 0.20465
#
# Static dielectric constant tensor:
#      x y z
#    x 1.867280 0.058100 0.051340 
#    y 0.058100 1.796070 0.022780 
#    z 0.051340 0.022780 1.813540 
# 
# From -- ./inp_files/38297.got.cif
#   From: 2010.05.17/outbox.cif.g08.bks.cpg/sg2_20_cif.got.tgz:38297.got - 2010.06.03 11:33:40.
