data_PCOD9063871
_publ_section_title
;
Structure prediction by ZEFSAII (Michael W. Deem and Ramdas Pophale) SiO2 
 PCOD9063871
Probable space group: P -1
;
_chemical_formula_sum "Si O2"
_cell_formula_units_Z 10
_cell_length_a 8.284991
_cell_length_b 6.467508
_cell_length_c 8.637290
_cell_angle_alpha 112.443959
_cell_angle_beta 103.840655
_cell_angle_gamma 99.652736
_cell_volume 397.663058
_symmetry_space_group_name_H-M "P -1"
_symmetry_group_IT_number 2
_symmetry_cell_setting 'triclinic'
loop_
_space_group_symop_operation_xyz
x,y,z
-x,-y,-z
loop_
_atom_site_type_symbol
_atom_site_label
_atom_site_fract_x
_atom_site_fract_y
_atom_site_fract_z
Si Si1 0.432726 0.823280 0.709510
Si Si2 0.790439 0.816668 0.824823
Si Si3 0.927929 0.755715 0.129321
Si Si4 0.626394 0.337746 0.001910
Si Si5 0.906706 0.392974 0.604306
O O1 0.597451 0.727102 0.690574
O O2 0.357286 0.718105 0.829041
O O3 0.283326 0.767312 0.532793
O O4 0.530417 0.096983 0.828167
O O5 0.883390 0.615904 0.757477
O O6 0.794437 0.854313 0.023075
O O7 0.898711 0.060076 0.845784
O O8 0.813903 0.480834 0.016577
O O9 0.983358 0.749534 0.318872
O O10 0.500000 0.500000 0.000000
O O11 0.000000 0.500000 0.500000
#
# Coordination Sequence:
#
# PCOD9063871 Si02
#       5
#     2   2   2   2   2
#     4  11  26  45  72 108 139 184 238 288 352 418
#     4  11  27  45  74 105 143 186 239 285 351 421
#     4  11  26  45  75 101 142 189 234 288 351 417
#     4  11  24  44  76 101 144 187 232 285 357 424
#     4  12  27  46  72 106 146 183 236 295 351 411
#
# _framework density 25.146917999999999
#
# number of rings (size 3 to 8) (size 9 to 14) (size 15 to 20)
#    0.000    0.800    4.000    1.200   11.200    3.200 
#    0.000    0.000    0.000    0.000    0.000    0.000 
#    0.000    0.000    0.000    0.000    0.000    0.000 
#
# Total GULP energy -55779.436192 kJ/mol
# GULP energy per Si atom -5577.943619 kJ/mol
# Density = 2.508968 g / cm^3
# Si number density = 25.146918 Si / 1000 Ang^3
#
#
#
# Elastic Constant Matrix: (Units=GPa)
#
#
# Indices 1 2 3 4 5 6 
#
# 1 86.6481 40.8347 42.1944 6.8811 14.1257 26.1455
# 2 40.8347 143.3328 60.8261 -7.2383 -0.4967 46.3140
# 3 42.1944 60.8261 109.3659 -6.4560 43.0807 8.8422
# 4 6.8811 -7.2383 -6.4560 46.8440 -0.6753 6.5916
# 5 14.1257 -0.4967 43.0807 -0.6753 45.5390 10.9026
# 6 26.1455 46.3140 8.8422 6.5916 10.9026 56.3965
#
#
#
# Elastic Compliance Matrix: (Units=1/GPa)
#
#
# Indices 1 2 3 4 5 6 
#
# 1 0.017071 0.001669 -0.009037 -0.002203 0.005307 -0.008637
# 2 0.001669 0.022499 -0.020944 0.003679 0.024663 -0.021165
# 3 -0.009037 -0.020944 0.037533 -0.000527 -0.038446 0.022999
# 4 -0.002203 0.003679 -0.000527 0.022930 0.002792 -0.005137
# 5 0.005307 0.024663 -0.038446 0.002792 0.064030 -0.029391
# 6 -0.008637 -0.021165 0.022999 -0.005137 -0.029391 0.041793
#
#
# Mechanical properties :
#
#
# Convention : Reuss Voigt Hill
#
# Bulk Modulus (GPa) = 48.83050 69.67302 59.25176
# Shear Modulus (GPa) = 18.56624 42.78867 30.67746
#
# Velocity S-wave (km/s) = 2.72014 4.12946 3.49654
# Velocity P-wave (km/s) = 5.41533 7.10655 6.31779
#
# Compressibility (1/GPa) = 0.02047900
#
# Stress axis : x y z
#
# Youngs Moduli (GPa) = 58.58035 44.44550 26.64353
#
# Poissons Ratio (x) = -0.07420 0.24077
# Poissons Ratio (y) = -0.09780 0.55803
# Poissons Ratio (z) = 0.52938 0.93088
#
# Static dielectric constant tensor:
#      x y z
#    x 2.093900 -0.061700 -0.056230 
#    y -0.061700 1.948630 0.000500 
#    z -0.056230 0.000500 2.034050 
# 
# From -- ./inp_files/16328.got.cif
#   From: 2010.05.17/outbox.cif.g08.bks.cpg/sg2_9_cif.got.tgz:16328.got - 2010.06.03 11:33:40.
