data_PCOD9063177
_publ_section_title
;
Structure prediction by ZEFSAII (Michael W. Deem and Ramdas Pophale) SiO2 
 PCOD9063177
Probable space group: P -1
;
_chemical_formula_sum "Si O2"
_cell_formula_units_Z 14
_cell_length_a 12.380441
_cell_length_b 7.942941
_cell_length_c 8.428107
_cell_angle_alpha 74.294938
_cell_angle_beta 55.234492
_cell_angle_gamma 50.524219
_cell_volume 520.002835
_symmetry_space_group_name_H-M "P -1"
_symmetry_group_IT_number 2
_symmetry_cell_setting 'triclinic'
loop_
_space_group_symop_operation_xyz
x,y,z
-x,-y,-z
loop_
_atom_site_type_symbol
_atom_site_label
_atom_site_fract_x
_atom_site_fract_y
_atom_site_fract_z
Si Si1 0.473599 0.761154 0.376269
Si Si2 0.951497 0.072613 0.784031
Si Si3 0.061078 0.527998 0.273629
Si Si4 0.794373 0.605059 0.282782
Si Si5 0.243075 0.685803 0.435176
Si Si6 0.419821 0.165507 0.171209
Si Si7 0.318783 0.906170 0.803200
O O1 0.674558 0.606203 0.253868
O O2 0.397905 0.685269 0.336796
O O3 0.397084 0.015639 0.343521
O O4 0.402864 0.769724 0.606938
O O5 0.004477 0.222934 0.752333
O O6 0.839600 0.195111 0.690162
O O7 0.160150 0.929275 0.991056
O O8 0.108159 0.838037 0.648342
O O9 0.256077 0.375444 0.175894
O O10 0.000000 0.500000 0.500000
O O11 0.989497 0.474329 0.198054
O O12 0.737711 0.538123 0.502250
O O13 0.729316 0.853299 0.250286
O O14 0.548873 0.191902 0.138217
O O15 0.500000 0.000000 0.000000
#
# Coordination Sequence:
#
# PCOD9063177 Si02
#       7
#     2   2   2   2   2   2   2
#     4  11  24  47  70 103 145 189 227 297 360 418
#     4  11  26  44  72 108 139 186 239 295 350 419
#     4  12  23  45  76 103 140 189 240 287 353 428
#     4  11  24  43  72 100 138 187 233 287 355 411
#     4  11  24  44  73 101 144 185 241 290 348 427
#     4  11  25  46  76 106 143 189 241 292 351 424
#     4  11  25  46  70 105 146 182 234 296 360 422
#
# _framework density 26.922930999999998
#
# number of rings (size 3 to 8) (size 9 to 14) (size 15 to 20)
#    0.000    0.857    1.429    6.429    4.000    3.429 
#   10.286    0.000    0.000    0.000    0.000    0.000 
#    0.000    0.000    0.000    0.000    0.000    0.000 
#
# Total GULP energy -78378.314003 kJ/mol
# GULP energy per Si atom -5598.451000 kJ/mol
# Density = 2.686165 g / cm^3
# Si number density = 26.922931 Si / 1000 Ang^3
#
#
#
# Elastic Constant Matrix: (Units=GPa)
#
#
# Indices 1 2 3 4 5 6 
#
# 1 224.8499 28.9380 18.8485 -10.9731 2.6116 -26.9858
# 2 28.9380 103.8731 15.5966 -17.0361 -14.0155 -7.9843
# 3 18.8485 15.5966 118.9271 -12.6186 -3.1775 1.7398
# 4 -10.9731 -17.0361 -12.6186 37.1736 3.3634 -5.1140
# 5 2.6116 -14.0155 -3.1775 3.3634 38.8731 -14.3243
# 6 -26.9858 -7.9843 1.7398 -5.1140 -14.3243 53.1962
#
#
#
# Elastic Compliance Matrix: (Units=1/GPa)
#
#
# Indices 1 2 3 4 5 6 
#
# 1 0.004975 -0.000885 -0.000578 0.001206 0.000139 0.002563
# 2 -0.000885 0.011689 -0.000796 0.004808 0.004944 0.003125
# 3 -0.000578 -0.000796 0.008869 0.002405 0.000105 -0.000443
# 4 0.001206 0.004808 0.002405 0.030813 0.000818 0.004438
# 5 0.000139 0.004944 0.000105 0.000818 0.030821 0.009187
# 6 0.002563 0.003125 -0.000443 0.004438 0.009187 0.023483
#
#
# Mechanical properties :
#
#
# Convention : Reuss Voigt Hill
#
# Bulk Modulus (GPa) = 47.58798 63.82402 55.70600
# Shear Modulus (GPa) = 40.92536 51.46639 46.19588
#
# Velocity S-wave (km/s) = 3.90307 4.37695 4.14678
# Velocity P-wave (km/s) = 6.16652 7.02148 6.60784
#
# Compressibility (1/GPa) = 0.02101371
#
# Stress axis : x y z
#
# Youngs Moduli (GPa) = 201.01722 85.54883 112.75263
#
# Poissons Ratio (x) = 0.07575 0.06518
# Poissons Ratio (y) = 0.17798 0.08976
# Poissons Ratio (z) = 0.11620 0.06811
#
# Static dielectric constant tensor:
#      x y z
#    x 2.097170 -0.020330 0.031930 
#    y -0.020330 2.158900 -0.008840 
#    z 0.031930 -0.008840 2.165650 
# 
# From -- ./inp_files/238292.got.cif
#   From: 2010.05.17/outbox.cif.g08.bks.cpg/sg2_120_cif.got.tgz:238292.got - 2010.06.03 11:33:40.
