data_PCOD9063092
_publ_section_title
;
Structure prediction by ZEFSAII (Michael W. Deem and Ramdas Pophale) SiO2 
 PCOD9063092
Probable space group: P -1
;
_chemical_formula_sum "Si O2"
_cell_formula_units_Z 14
_cell_length_a 4.949413
_cell_length_b 22.749869
_cell_length_c 6.595786
_cell_angle_alpha 98.729591
_cell_angle_beta 131.593596
_cell_angle_gamma 79.483503
_cell_volume 545.623352
_symmetry_space_group_name_H-M "P -1"
_symmetry_group_IT_number 2
_symmetry_cell_setting 'triclinic'
loop_
_space_group_symop_operation_xyz
x,y,z
-x,-y,-z
loop_
_atom_site_type_symbol
_atom_site_label
_atom_site_fract_x
_atom_site_fract_y
_atom_site_fract_z
Si Si1 0.563880 0.659668 0.967092
Si Si2 0.171552 0.576369 0.013314
Si Si3 0.960377 0.258148 0.509452
Si Si4 0.500000 0.500000 0.500000
Si Si5 0.464124 0.177254 0.451508
Si Si6 0.088082 0.896125 0.028853
Si Si7 0.094439 0.986514 0.768136
Si Si8 0.000000 0.500000 0.500000
O O1 0.347184 0.690307 0.686560
O O2 0.317803 0.627118 0.981233
O O3 0.876993 0.609385 0.027820
O O4 0.742047 0.711964 0.199140
O O5 0.498275 0.537522 0.277459
O O6 0.969468 0.529138 0.752206
O O7 0.781272 0.208826 0.522589
O O8 0.141870 0.227143 0.383541
O O9 0.764429 0.449817 0.467267
O O10 0.620705 0.147154 0.724309
O O11 0.287472 0.133844 0.182434
O O12 0.083469 0.919681 0.807281
O O13 0.127682 0.959818 0.189981
O O14 0.000000 0.000000 0.500000
O O15 0.500000 0.000000 0.000000
#
# Coordination Sequence:
#
# PCOD9063092 Si02
#       8
#     2   2   2   1   2   2   2   1
#     4  12  28  51  80 110 151 205 251 314 387 450
#     4  12  28  48  82 111 160 200 246 307 383 458
#     4  12  28  52  76 111 145 194 268 322 379 446
#     4  12  26  48  72 120 150 198 242 304 358 474
#     4  12  26  47  80 108 149 196 254 336 375 442
#     4  11  26  43  72 115 145 202 253 304 396 444
#     4  11  24  43  70 107 159 200 246 305 364 495
#     4  12  26  48  72 120 150 198 242 304 358 474
#
# _framework density 25.658726999999999
#
# number of rings (size 3 to 8) (size 9 to 14) (size 15 to 20)
#    0.000    0.286    0.000    7.714   12.000    2.286 
#    0.000    0.000    0.000    0.000    0.000    0.000 
#    0.000    0.000    0.000    0.000    0.000    0.000 
#
# Total GULP energy -78146.443194 kJ/mol
# GULP energy per Si atom -5581.888800 kJ/mol
# Density = 2.560033 g / cm^3
# Si number density = 25.658727 Si / 1000 Ang^3
#
#
#
# Elastic Constant Matrix: (Units=GPa)
#
#
# Indices 1 2 3 4 5 6 
#
# 1 120.4314 14.5456 -0.1417 4.8910 -20.3756 12.7960
# 2 14.5456 85.2929 27.2502 -2.0261 9.7474 18.1805
# 3 -0.1417 27.2502 144.0323 -17.5644 20.3588 13.5739
# 4 4.8910 -2.0261 -17.5644 46.8463 -2.2250 3.2043
# 5 -20.3756 9.7474 20.3588 -2.2250 33.1043 9.0697
# 6 12.7960 18.1805 13.5739 3.2043 9.0697 49.4288
#
#
#
# Elastic Compliance Matrix: (Units=1/GPa)
#
#
# Indices 1 2 3 4 5 6 
#
# 1 0.010259 -0.001810 -0.000569 -0.000758 0.008039 -0.003260
# 2 -0.001810 0.013718 -0.001807 0.000201 -0.003060 -0.003532
# 3 -0.000569 -0.001807 0.008366 0.002960 -0.004532 -0.000846
# 4 -0.000758 0.000201 0.002960 0.022677 -0.000242 -0.002116
# 5 0.008039 -0.003060 -0.004532 -0.000242 0.040795 -0.007181
# 6 -0.003260 -0.003532 -0.000846 -0.002116 -0.007181 0.024061
#
#
# Mechanical properties :
#
#
# Convention : Reuss Voigt Hill
#
# Bulk Modulus (GPa) = 41.71817 48.11831 44.91824
# Shear Modulus (GPa) = 36.70070 46.41605 41.55838
#
# Velocity S-wave (km/s) = 3.78609 4.25782 4.02886
# Velocity P-wave (km/s) = 5.95036 6.55484 6.25990
#
# Compressibility (1/GPa) = 0.02397037
#
# Stress axis : x y z
#
# Youngs Moduli (GPa) = 97.47887 72.89859 119.53762
#
# Poissons Ratio (x) = 0.13191 0.06803
# Poissons Ratio (y) = 0.17639 0.21602
# Poissons Ratio (z) = 0.05547 0.13174
#
# Static dielectric constant tensor:
#      x y z
#    x -10.901200 4.043380 -4.064580 
#    y 4.043380 0.879560 1.282100 
#    z -4.064580 1.282100 0.911580 
# 
# From -- ./inp_files/12067.got.cif
#   From: 2010.05.17/outbox.cif.g08.bks.cpg/sg2_7_cif.got.tgz:12067.got - 2010.06.03 11:33:40.
