data_PCOD9063953
_publ_section_title
;
Structure prediction by ZEFSAII (Michael W. Deem and Ramdas Pophale) SiO2 
 PCOD9063953
Probable space group: P -1
;
_chemical_formula_sum "Si O2"
_cell_formula_units_Z 16
_cell_length_a 15.372317
_cell_length_b 4.968110
_cell_length_c 14.961430
_cell_angle_alpha 98.010122
_cell_angle_beta 143.972950
_cell_angle_gamma 90.306274
_cell_volume 651.686204
_symmetry_space_group_name_H-M "P -1"
_symmetry_group_IT_number 2
_symmetry_cell_setting 'triclinic'
loop_
_space_group_symop_operation_xyz
x,y,z
-x,-y,-z
loop_
_atom_site_type_symbol
_atom_site_label
_atom_site_fract_x
_atom_site_fract_y
_atom_site_fract_z
Si Si1 0.741494 0.468038 0.675835
Si Si2 0.284921 0.767271 0.917371
Si Si3 0.943715 0.021252 0.853859
Si Si4 0.799105 0.059191 0.461449
Si Si5 0.484639 0.774209 0.238753
Si Si6 0.888275 0.768582 0.165749
Si Si7 0.175772 0.485566 0.632780
Si Si8 0.430362 0.289797 0.301107
O O1 0.593477 0.364894 0.488751
O O2 0.683997 0.610665 0.721492
O O3 0.821747 0.218018 0.756195
O O4 0.863214 0.711968 0.742219
O O5 0.171916 0.551570 0.876788
O O6 0.269403 0.627560 0.801364
O O7 0.228197 0.054369 0.883686
O O8 0.442076 0.792684 0.100520
O O9 0.078232 0.157332 0.905949
O O10 0.000000 0.000000 0.000000
O O11 0.659740 0.914252 0.399032
O O12 0.816177 0.831959 0.390319
O O13 0.770598 0.335113 0.402593
O O14 0.952561 0.132724 0.647540
O O15 0.444429 0.469448 0.230983
O O16 0.397002 0.968523 0.232590
O O17 0.000000 0.500000 0.500000
#
# Coordination Sequence:
#
# PCOD9063953 Si02
#       8
#     2   2   2   2   2   2   2   2
#     4  11  24  45  68 100 128 190 230 288 341 408
#     4  12  27  43  70 101 140 180 225 284 350 413
#     4  12  27  42  68 103 145 176 232 290 341 401
#     4  12  24  43  75  99 136 180 231 285 333 414
#     4  12  27  44  68 106 136 181 227 294 342 407
#     4  12  24  44  69  99 135 186 230 277 344 415
#     4  12  23  45  71 105 135 179 229 279 346 413
#     4  11  24  45  73  91 141 179 236 279 346 416
#
# _framework density 24.551691999999999
#
# number of rings (size 3 to 8) (size 9 to 14) (size 15 to 20)
#    0.000    0.250    2.500    6.750    5.250    3.000 
#    0.000    0.000    0.000    0.000    0.000    0.000 
#    0.000    0.000    0.000    0.000    0.000    0.000 
#
# Total GULP energy -89786.524605 kJ/mol
# GULP energy per Si atom -5611.657788 kJ/mol
# Density = 2.449581 g / cm^3
# Si number density = 24.551692 Si / 1000 Ang^3
#
#
#
# Elastic Constant Matrix: (Units=GPa)
#
#
# Indices 1 2 3 4 5 6 
#
# 1 47.8066 2.7496 -9.4688 -1.6433 -7.6978 0.4216
# 2 2.7496 109.6809 19.1390 -4.4357 -1.4352 0.4565
# 3 -9.4688 19.1390 96.3348 -10.6058 -15.5057 -9.2340
# 4 -1.6433 -4.4357 -10.6058 36.6349 4.3651 -1.1235
# 5 -7.6978 -1.4352 -15.5057 4.3651 40.5397 4.3678
# 6 0.4216 0.4565 -9.2340 -1.1235 4.3678 38.7229
#
#
#
# Elastic Compliance Matrix: (Units=1/GPa)
#
#
# Indices 1 2 3 4 5 6 
#
# 1 0.022575 -0.001045 0.003437 0.001234 0.005430 0.000009
# 2 -0.001045 0.009524 -0.002089 0.000566 -0.000666 -0.000507
# 3 0.003437 -0.002089 0.012472 0.003023 0.004753 0.002513
# 4 0.001234 0.000566 0.003023 0.028569 -0.001853 0.001739
# 5 0.005430 -0.000666 0.004753 -0.001853 0.027921 -0.002121
# 6 0.000009 -0.000507 0.002513 0.001739 -0.002121 0.026719
#
#
# Mechanical properties :
#
#
# Convention : Reuss Voigt Hill
#
# Bulk Modulus (GPa) = 22.13391 30.96245 26.54818
# Shear Modulus (GPa) = 35.15372 39.27301 37.21337
#
# Velocity S-wave (km/s) = 3.78805 4.00385 3.89744
# Velocity P-wave (km/s) = 5.30728 5.83206 5.57585
#
# Compressibility (1/GPa) = 0.04517955
#
# Stress axis : x y z
#
# Youngs Moduli (GPa) = 44.29625 104.99510 80.18031
#
# Poissons Ratio (x) = 0.10970 -0.27561
# Poissons Ratio (y) = 0.04628 0.16746
# Poissons Ratio (z) = -0.15226 0.21928
#
# Static dielectric constant tensor:
#      x y z
#    x 1.962280 0.005650 0.009180 
#    y 0.005650 1.871650 -0.005250 
#    z 0.009180 -0.005250 1.942210 
# 
# From -- ./inp_files/525952.got.cif
#   From: 2010.05.17/outbox.cif.g08.bks.cpg/sg2_263_cif.got.tgz:525952.got - 2010.06.03 11:33:40.
