data_PCOD9063473
_publ_section_title
;
Structure prediction by ZEFSAII (Michael W. Deem and Ramdas Pophale) SiO2 
 PCOD9063473
Probable space group: P -1
;
_chemical_formula_sum "Si O2"
_cell_formula_units_Z 16
_cell_length_a 11.945654
_cell_length_b 22.862400
_cell_length_c 9.997984
_cell_angle_alpha 35.958712
_cell_angle_beta 42.201192
_cell_angle_gamma 27.521169
_cell_volume 738.221826
_symmetry_space_group_name_H-M "P -1"
_symmetry_group_IT_number 2
_symmetry_cell_setting 'triclinic'
loop_
_space_group_symop_operation_xyz
x,y,z
-x,-y,-z
loop_
_atom_site_type_symbol
_atom_site_label
_atom_site_fract_x
_atom_site_fract_y
_atom_site_fract_z
Si Si1 0.514073 0.512409 0.307169
Si Si2 0.016003 0.779694 0.639359
Si Si3 0.974692 0.671520 0.128595
Si Si4 0.723289 0.847534 0.522440
Si Si5 0.145961 0.938347 0.624605
Si Si6 0.996817 0.205542 0.876569
Si Si7 0.697692 0.641470 0.606544
Si Si8 0.796134 0.597572 0.886774
O O1 0.500000 0.500000 0.500000
O O2 0.690446 0.354924 0.372448
O O3 0.247836 0.635755 0.253721
O O4 0.638935 0.566382 0.080293
O O5 0.941014 0.778451 0.559642
O O6 0.902328 0.934147 0.498580
O O7 0.929994 0.733186 0.906832
O O8 0.785348 0.673237 0.350126
O O9 0.959327 0.770670 0.059106
O O10 0.236828 0.501558 0.219033
O O11 0.661840 0.757980 0.743215
O O12 0.793210 0.855221 0.299634
O O13 0.500000 0.000000 0.500000
O O14 0.426004 0.788376 0.619028
O O15 0.045941 0.893447 0.890173
O O16 0.000000 0.000000 0.500000
O O17 0.870289 0.583356 0.692591
O O18 0.000000 0.500000 0.000000
#
# Coordination Sequence:
#
# PCOD9063473 Si02
#       8
#     2   2   2   2   2   2   2   2
#     4  12  25  45  73 104 137 176 233 289 339 408
#     4  12  25  45  69 100 137 180 230 281 345 407
#     4  11  24  44  74  99 133 178 238 283 343 402
#     4  12  27  45  70  99 138 182 225 280 343 410
#     4  12  27  44  68 101 145 183 225 280 353 414
#     4  12  25  46  72 101 138 182 229 289 343 406
#     4  11  24  44  69 103 136 181 226 290 342 412
#     4  12  21  44  71  99 134 176 232 283 338 401
#
# _framework density 21.673701000000001
#
# number of rings (size 3 to 8) (size 9 to 14) (size 15 to 20)
#    0.000    0.250    7.500    0.750    1.750    4.000 
#    0.000    0.000    0.000    0.000    0.000    0.000 
#    0.000    0.000    0.000    0.000    0.000    0.000 
#
# Total GULP energy -89443.363603 kJ/mol
# GULP energy per Si atom -5590.210225 kJ/mol
# Density = 2.162437 g / cm^3
# Si number density = 21.673701 Si / 1000 Ang^3
#
#
#
# Elastic Constant Matrix: (Units=GPa)
#
#
# Indices 1 2 3 4 5 6 
#
# 1 36.4132 5.9997 -4.1128 -0.4620 5.5829 11.8525
# 2 5.9997 136.5765 43.4738 -11.7933 -19.6052 12.6052
# 3 -4.1128 43.4738 114.0538 -3.0789 -8.0593 12.5712
# 4 -0.4620 -11.7933 -3.0789 33.7066 13.1094 -2.1398
# 5 5.5829 -19.6052 -8.0593 13.1094 43.3494 -6.2220
# 6 11.8525 12.6052 12.5712 -2.1398 -6.2220 35.6597
#
#
#
# Elastic Compliance Matrix: (Units=1/GPa)
#
#
# Indices 1 2 3 4 5 6 
#
# 1 0.033309 -0.002089 0.002926 0.001951 -0.007072 -0.012481
# 2 -0.002089 0.009094 -0.003191 0.001567 0.003208 -0.000741
# 3 0.002926 -0.003191 0.010458 -0.000223 -0.000325 -0.003601
# 4 0.001951 0.001567 -0.000223 0.034060 -0.010003 -0.000825
# 5 -0.007072 0.003208 -0.000325 -0.010003 0.029232 0.005831
# 6 -0.012481 -0.000741 -0.003601 -0.000825 0.005831 0.034691
#
#
# Mechanical properties :
#
#
# Convention : Reuss Voigt Hill
#
# Bulk Modulus (GPa) = 20.76761 41.97389 31.37075
# Shear Modulus (GPa) = 29.13716 38.65532 33.89624
#
# Velocity S-wave (km/s) = 3.67052 4.22775 3.95895
# Velocity P-wave (km/s) = 5.25037 6.57572 5.95006
#
# Compressibility (1/GPa) = 0.04815191
#
# Stress axis : x y z
#
# Youngs Moduli (GPa) = 30.02187 109.96709 95.62502
#
# Poissons Ratio (x) = 0.22978 -0.27982
# Poissons Ratio (y) = 0.06273 0.30513
# Poissons Ratio (z) = -0.08785 0.35089
#
# Static dielectric constant tensor:
#      x y z
#    x 1.874310 -0.035970 0.015750 
#    y -0.035970 1.823930 -0.034420 
#    z 0.015750 -0.034420 1.791440 
# 
# From -- ./inp_files/184341.got.cif
#   From: 2010.05.17/outbox.cif.g08.bks.cpg/sg2_93_cif.got.tgz:184341.got - 2010.06.03 11:33:40.
