data_PCOD9063525
_publ_section_title
;
Structure prediction by ZEFSAII (Michael W. Deem and Ramdas Pophale) SiO2 
 PCOD9063525
Probable space group: P -1
;
_chemical_formula_sum "Si O2"
_cell_formula_units_Z 16
_cell_length_a 20.039194
_cell_length_b 7.973028
_cell_length_c 11.549638
_cell_angle_alpha 57.973346
_cell_angle_beta 137.306218
_cell_angle_gamma 145.847679
_cell_volume 687.584321
_symmetry_space_group_name_H-M "P -1"
_symmetry_group_IT_number 2
_symmetry_cell_setting 'triclinic'
loop_
_space_group_symop_operation_xyz
x,y,z
-x,-y,-z
loop_
_atom_site_type_symbol
_atom_site_label
_atom_site_fract_x
_atom_site_fract_y
_atom_site_fract_z
Si Si1 0.528239 0.767805 0.188557
Si Si2 0.652614 0.836867 0.712417
Si Si3 0.923245 0.088714 0.848987
Si Si4 0.618176 0.192679 0.471838
Si Si5 0.944105 0.745902 0.610538
Si Si6 0.128522 0.716204 0.490006
Si Si7 0.562031 0.956452 0.921105
Si Si8 0.162346 0.777053 0.968882
O O1 0.485329 0.493530 0.290009
O O2 0.707673 0.064166 0.325941
O O3 0.441463 0.824244 0.112647
O O4 0.496692 0.724855 0.026814
O O5 0.623847 0.965284 0.536784
O O6 0.759370 0.840549 0.788221
O O7 0.745024 0.078643 0.846928
O O8 0.026289 0.411305 0.926424
O O9 0.898963 0.123057 0.674140
O O10 0.000000 0.000000 0.000000
O O11 0.792111 0.540282 0.571463
O O12 0.542473 0.193987 0.270103
O O13 0.500000 0.000000 0.500000
O O14 0.895408 0.492779 0.557051
O O15 0.086320 0.874922 0.815594
O O16 0.000000 0.000000 0.500000
O O17 0.000000 0.500000 0.500000
O O18 0.723402 0.119028 0.024903
#
# Coordination Sequence:
#
# PCOD9063525 Si02
#       8
#     2   2   2   2   2   2   2   2
#     4  11  25  43  72 102 148 190 240 297 370 433
#     4  12  25  43  69 105 143 189 233 304 369 430
#     4  11  24  44  70 101 141 186 243 294 368 423
#     4  12  25  47  72 108 146 190 244 303 367 434
#     4  11  26  47  74 100 145 192 241 301 364 430
#     4  11  24  48  69 101 141 187 246 296 357 441
#     4  11  24  45  70 102 143 188 246 295 358 441
#     4  11  24  44  70 101 142 183 242 297 356 434
#
# _framework density 23.269874999999999
#
# number of rings (size 3 to 8) (size 9 to 14) (size 15 to 20)
#    0.000    0.750    5.000    2.625    1.750    7.500 
#    0.000    0.000    0.000    0.000    0.000    0.000 
#    0.000    0.000    0.000    0.000    0.000    0.000 
#
# Total GULP energy -89479.783943 kJ/mol
# GULP energy per Si atom -5592.486496 kJ/mol
# Density = 2.321691 g / cm^3
# Si number density = 23.269875 Si / 1000 Ang^3
#
#
#
# Elastic Constant Matrix: (Units=GPa)
#
#
# Indices 1 2 3 4 5 6 
#
# 1 88.9399 21.9910 27.0767 0.0592 5.0800 39.1724
# 2 21.9910 93.1583 24.4999 -13.7836 10.6449 28.0036
# 3 27.0767 24.4999 114.9534 -9.7048 13.8056 10.4355
# 4 0.0592 -13.7836 -9.7048 36.6889 -1.6502 5.4093
# 5 5.0800 10.6449 13.8056 -1.6502 38.8206 0.5373
# 6 39.1724 28.0036 10.4355 5.4093 0.5373 34.8415
#
#
#
# Elastic Compliance Matrix: (Units=1/GPa)
#
#
# Indices 1 2 3 4 5 6 
#
# 1 0.025962 0.006360 -0.003450 0.006335 -0.003172 -0.034202
# 2 0.006360 0.018586 -0.002031 0.009610 -0.004481 -0.022903
# 3 -0.003450 -0.002031 0.010173 0.001482 -0.002578 0.002274
# 4 0.006335 0.009610 0.001482 0.034179 -0.002254 -0.020562
# 5 -0.003172 -0.004481 -0.002578 -0.002254 0.028116 0.007856
# 6 -0.034202 -0.022903 0.002274 -0.020562 0.007856 0.087954
#
#
# Mechanical properties :
#
#
# Convention : Reuss Voigt Hill
#
# Bulk Modulus (GPa) = 17.70560 49.35407 33.52984
# Shear Modulus (GPa) = 22.51872 36.96915 29.74394
#
# Velocity S-wave (km/s) = 3.11419 3.99019 3.57909
# Velocity P-wave (km/s) = 4.53390 6.51800 5.61429
#
# Compressibility (1/GPa) = 0.05647929
#
# Stress axis : x y z
#
# Youngs Moduli (GPa) = 38.51741 53.80414 98.29983
#
# Poissons Ratio (x) = -0.34218 0.33914
# Poissons Ratio (y) = -0.24496 0.19960
# Poissons Ratio (z) = 0.13289 0.10925
#
# Static dielectric constant tensor:
#      x y z
#    x 1.893310 0.006060 -0.001280 
#    y 0.006060 1.845220 -0.006480 
#    z -0.001280 -0.006480 1.904190 
# 
# From -- ./inp_files/469859.got.cif
#   From: 2010.05.17/outbox.cif.g08.bks.cpg/sg2_235_cif.got.tgz:469859.got - 2010.06.03 11:33:40.
