data_PCOD9063870
_publ_section_title
;
Structure prediction by ZEFSAII (Michael W. Deem and Ramdas Pophale) SiO2 
 PCOD9063870
Probable space group: P -1
;
_chemical_formula_sum "Si O2"
_cell_formula_units_Z 14
_cell_length_a 9.986695
_cell_length_b 20.266564
_cell_length_c 8.075583
_cell_angle_alpha 144.691071
_cell_angle_beta 50.848221
_cell_angle_gamma 142.183220
_cell_volume 578.822740
_symmetry_space_group_name_H-M "P -1"
_symmetry_group_IT_number 2
_symmetry_cell_setting 'triclinic'
loop_
_space_group_symop_operation_xyz
x,y,z
-x,-y,-z
loop_
_atom_site_type_symbol
_atom_site_label
_atom_site_fract_x
_atom_site_fract_y
_atom_site_fract_z
Si Si1 0.284175 0.966862 0.815257
Si Si2 0.247658 0.394934 0.926661
Si Si3 0.816157 0.680848 0.534791
Si Si4 0.104395 0.448110 0.479522
Si Si5 0.805351 0.883339 0.530450
Si Si6 0.543864 0.264104 0.055754
Si Si7 0.367478 0.754452 0.420015
O O1 0.390806 0.901299 0.687139
O O2 0.213725 0.033016 0.138409
O O3 0.441927 0.100366 0.844739
O O4 0.061542 0.828382 0.627563
O O5 0.230724 0.416138 0.788412
O O6 0.162288 0.230471 0.662619
O O7 0.500000 0.500000 0.000000
O O8 0.124821 0.411174 0.201997
O O9 0.810116 0.609718 0.567670
O O10 0.644258 0.715266 0.746434
O O11 0.265238 0.619731 0.732066
O O12 0.854371 0.363375 0.552486
O O13 0.577931 0.791159 0.421023
O O14 0.000000 0.000000 0.500000
O O15 0.640751 0.294337 0.859670
#
# Coordination Sequence:
#
# PCOD9063870 Si02
#       7
#     2   2   2   2   2   2   2
#     4  11  24  45  65 107 137 182 234 291 347 407
#     4  12  25  46  73 108 137 183 239 290 344 415
#     4  11  24  44  76 101 143 180 239 290 344 412
#     4  11  25  48  68 106 142 186 230 291 354 412
#     4  12  25  46  73 100 138 184 235 290 351 419
#     4  12  22  44  71 100 139 183 235 283 346 418
#     4  11  26  44  68 100 146 183 229 287 358 413
#
# _framework density 24.187024000000001
#
# number of rings (size 3 to 8) (size 9 to 14) (size 15 to 20)
#    0.000    0.571    2.857    5.571    4.000    0.000 
#    5.143    1.429    0.000    0.000    0.000    0.000 
#    0.000    0.000    0.000    0.000    0.000    0.000 
#
# Total GULP energy -78551.176286 kJ/mol
# GULP energy per Si atom -5610.798306 kJ/mol
# Density = 2.413197 g / cm^3
# Si number density = 24.187024 Si / 1000 Ang^3
#
#
#
# Elastic Constant Matrix: (Units=GPa)
#
#
# Indices 1 2 3 4 5 6 
#
# 1 100.0808 47.0426 29.3791 2.4598 10.8677 -7.7248
# 2 47.0426 225.1223 18.7688 9.6429 40.8108 12.4540
# 3 29.3791 18.7688 132.0774 -17.6030 11.9018 -23.4788
# 4 2.4598 9.6429 -17.6030 55.9455 0.8692 1.0820
# 5 10.8677 40.8108 11.9018 0.8692 72.4360 20.2123
# 6 -7.7248 12.4540 -23.4788 1.0820 20.2123 47.7798
#
#
#
# Elastic Compliance Matrix: (Units=1/GPa)
#
#
# Indices 1 2 3 4 5 6 
#
# 1 0.011886 -0.002257 -0.002049 -0.000803 -0.000669 0.001804
# 2 -0.002257 0.005470 -0.000338 -0.000895 -0.002422 -0.000912
# 3 -0.002049 -0.000338 0.009736 0.003145 -0.002706 0.005615
# 4 -0.000803 -0.000895 0.003145 0.019034 -0.000522 0.001439
# 5 -0.000669 -0.002422 -0.002706 -0.000522 0.018077 -0.008442
# 6 0.001804 -0.000912 0.005615 0.001439 -0.008442 0.027756
#
#
# Mechanical properties :
#
#
# Convention : Reuss Voigt Hill
#
# Bulk Modulus (GPa) = 56.17023 71.96241 64.06632
# Shear Modulus (GPa) = 46.64918 59.37160 53.01039
#
# Velocity S-wave (km/s) = 4.39645 4.95986 4.68662
# Velocity P-wave (km/s) = 7.00324 7.91311 7.47204
#
# Compressibility (1/GPa) = 0.01780303
#
# Stress axis : x y z
#
# Youngs Moduli (GPa) = 84.13250 182.82268 102.70707
#
# Poissons Ratio (x) = 0.41265 0.21047
# Poissons Ratio (y) = 0.18990 0.03474
# Poissons Ratio (z) = 0.17240 0.06185
#
# Static dielectric constant tensor:
#      x y z
#    x 1.960230 -0.018690 -0.034050 
#    y -0.018690 1.949310 0.014060 
#    z -0.034050 0.014060 1.901840 
# 
# From -- ./inp_files/285229.got.cif
#   From: 2010.05.17/outbox.cif.g08.bks.cpg/sg2_143_cif.got.tgz:285229.got - 2010.06.03 11:33:40.
