data_PCOD9063856
_publ_section_title
;
Structure prediction by ZEFSAII (Michael W. Deem and Ramdas Pophale) SiO2 
 PCOD9063856
Probable space group: P -1
;
_chemical_formula_sum "Si O2"
_cell_formula_units_Z 16
_cell_length_a 13.618111
_cell_length_b 11.109740
_cell_length_c 11.086362
_cell_angle_alpha 74.516575
_cell_angle_beta 56.352684
_cell_angle_gamma 32.407884
_cell_volume 668.234489
_symmetry_space_group_name_H-M "P -1"
_symmetry_group_IT_number 2
_symmetry_cell_setting 'triclinic'
loop_
_space_group_symop_operation_xyz
x,y,z
-x,-y,-z
loop_
_atom_site_type_symbol
_atom_site_label
_atom_site_fract_x
_atom_site_fract_y
_atom_site_fract_z
Si Si1 0.793756 0.987713 0.406854
Si Si2 0.377542 0.239407 0.707633
Si Si3 0.647183 0.177559 0.968478
Si Si4 0.675742 0.927457 0.827879
Si Si5 0.938710 0.629888 0.260912
Si Si6 0.916982 0.324505 0.055930
Si Si7 0.255937 0.647531 0.270055
Si Si8 0.406483 0.608531 0.672372
O O1 0.874290 0.774660 0.377502
O O2 0.979534 0.864761 0.412542
O O3 0.513791 0.223036 0.549917
O O4 0.792719 0.099129 0.279011
O O5 0.297187 0.195397 0.697345
O O6 0.139789 0.516363 0.850117
O O7 0.557213 0.050684 0.745404
O O8 0.719182 0.243766 0.844914
O O9 0.672092 0.056889 0.874071
O O10 0.396945 0.423211 0.143783
O O11 0.834560 0.964234 0.999969
O O12 0.919290 0.625772 0.736167
O O13 0.500000 0.000000 0.000000
O O14 0.078400 0.600317 0.089236
O O15 0.716794 0.402184 0.185403
O O16 0.388253 0.538737 0.336197
O O17 0.500000 0.500000 0.500000
#
# Coordination Sequence:
#
# PCOD9063856 Si02
#       8
#     2   2   2   2   2   2   2   2
#     4  12  28  48  73 109 151 193 243 304 375 434
#     4  12  26  47  73 108 146 195 246 303 363 442
#     4  11  24  44  75 108 146 188 246 307 361 424
#     4  12  24  43  73 106 143 195 244 298 363 429
#     4  12  27  46  74 108 148 195 252 300 360 437
#     4  12  23  47  77 106 144 191 249 303 360 438
#     4  11  27  46  71 110 148 189 243 306 364 433
#     4  12  27  48  75 109 150 196 237 302 378 442
#
# _framework density 23.943691000000001
#
# number of rings (size 3 to 8) (size 9 to 14) (size 15 to 20)
#    0.000    0.250    5.000    3.750    3.500    5.000 
#    0.000    0.000    0.000    0.000    0.000    0.000 
#    0.000    0.000    0.000    0.000    0.000    0.000 
#
# Total GULP energy -89460.516717 kJ/mol
# GULP energy per Si atom -5591.282295 kJ/mol
# Density = 2.388919 g / cm^3
# Si number density = 23.943691 Si / 1000 Ang^3
#
#
#
# Elastic Constant Matrix: (Units=GPa)
#
#
# Indices 1 2 3 4 5 6 
#
# 1 140.6128 46.4239 18.8973 -4.5294 4.8173 -8.3247
# 2 46.4239 118.8763 2.5320 4.7953 14.5806 1.6351
# 3 18.8973 2.5320 49.7030 -1.7049 -5.1904 9.4663
# 4 -4.5294 4.7953 -1.7049 30.0601 5.3729 4.4720
# 5 4.8173 14.5806 -5.1904 5.3729 27.2254 5.0596
# 6 -8.3247 1.6351 9.4663 4.4720 5.0596 39.7083
#
#
#
# Elastic Compliance Matrix: (Units=1/GPa)
#
#
# Indices 1 2 3 4 5 6 
#
# 1 0.009022 -0.003371 -0.003919 0.001480 -0.001383 0.002974
# 2 -0.003371 0.010335 0.000332 -0.001254 -0.004536 -0.000492
# 3 -0.003919 0.000332 0.023670 0.000674 0.006261 -0.007352
# 4 0.001480 -0.001254 0.000674 0.035223 -0.005852 -0.003020
# 5 -0.001383 -0.004536 0.006261 -0.005852 0.042944 -0.006409
# 6 0.002974 -0.000492 -0.007352 -0.003020 -0.006409 0.028737
#
#
# Mechanical properties :
#
#
# Convention : Reuss Voigt Hill
#
# Bulk Modulus (GPa) = 34.34982 49.43317 41.89149
# Shear Modulus (GPa) = 28.81007 35.48801 32.14904
#
# Velocity S-wave (km/s) = 3.47254 3.85404 3.66825
# Velocity P-wave (km/s) = 5.51863 6.36359 5.95611
#
# Compressibility (1/GPa) = 0.02911223
#
# Stress axis : x y z
#
# Youngs Moduli (GPa) = 110.83470 96.75654 42.24822
#
# Poissons Ratio (x) = 0.32616 0.16556
# Poissons Ratio (y) = 0.37362 -0.01403
# Poissons Ratio (z) = 0.43433 -0.03214
#
# Static dielectric constant tensor:
#      x y z
#    x 1.899090 0.029020 0.027800 
#    y 0.029020 1.862600 0.153550 
#    z 0.027800 0.153550 1.739560 
# 
# From -- ./inp_files/452267.got.cif
#   From: 2010.05.17/outbox.cif.g08.bks.cpg/sg2_227_cif.got.tgz:452267.got - 2010.06.03 11:33:40.
