data_PCOD9063483
_publ_section_title
;
Structure prediction by ZEFSAII (Michael W. Deem and Ramdas Pophale) SiO2 
 PCOD9063483
Probable space group: P -1
;
_chemical_formula_sum "Si O2"
_cell_formula_units_Z 16
_cell_length_a 12.384444
_cell_length_b 5.734887
_cell_length_c 13.812919
_cell_angle_alpha 79.182365
_cell_angle_beta 56.844911
_cell_angle_gamma 108.721153
_cell_volume 691.448726
_symmetry_space_group_name_H-M "P -1"
_symmetry_group_IT_number 2
_symmetry_cell_setting 'triclinic'
loop_
_space_group_symop_operation_xyz
x,y,z
-x,-y,-z
loop_
_atom_site_type_symbol
_atom_site_label
_atom_site_fract_x
_atom_site_fract_y
_atom_site_fract_z
Si Si1 0.878626 0.185118 0.076647
Si Si2 0.918780 0.948679 0.880391
Si Si3 0.406854 0.241141 0.497691
Si Si4 0.895517 0.569169 0.609906
Si Si5 0.574494 0.495620 0.065467
Si Si6 0.920062 0.938286 0.394410
Si Si7 0.429078 0.934446 0.683340
Si Si8 0.442696 0.833813 0.215411
O O1 0.940776 0.058468 0.136629
O O2 0.720238 0.153113 0.178431
O O3 0.000000 0.500000 0.000000
O O4 0.879449 0.089882 0.974967
O O5 0.757701 0.666869 0.962874
O O6 0.981747 0.097476 0.734382
O O7 0.500000 0.500000 0.500000
O O8 0.242453 0.165461 0.559290
O O9 0.385316 0.991417 0.595589
O O10 0.507224 0.265012 0.354200
O O11 0.882245 0.777536 0.526732
O O12 0.727764 0.316647 0.728477
O O13 0.000000 0.500000 0.500000
O O14 0.982224 0.738241 0.649451
O O15 0.520823 0.670153 0.146115
O O16 0.516071 0.167818 0.137972
O O17 0.500000 0.500000 0.000000
O O18 0.555954 0.185144 0.665975
#
# Coordination Sequence:
#
# PCOD9063483 Si02
#       8
#     2   2   2   2   2   2   2   2
#     4  11  24  44  70 105 144 195 245 305 380 450
#     4  11  25  45  73 105 150 195 248 311 377 458
#     4  11  25  42  72 105 147 189 245 307 376 450
#     4  11  27  46  74 103 145 200 248 321 380 450
#     4  12  28  49  76 113 148 204 251 316 379 452
#     4  11  25  47  71 109 148 191 254 310 387 456
#     4  11  24  44  69 106 142 195 242 308 372 452
#     4  12  27  49  80 105 153 194 261 311 378 457
#
# _framework density 23.139824000000001
#
# number of rings (size 3 to 8) (size 9 to 14) (size 15 to 20)
#    0.000    0.750    2.500    3.375   10.500    2.000 
#    0.000    0.000    0.000    0.000    0.000    0.000 
#    0.000    0.000    0.000    0.000    0.000    0.000 
#
# Total GULP energy -89253.535104 kJ/mol
# GULP energy per Si atom -5578.345944 kJ/mol
# Density = 2.308716 g / cm^3
# Si number density = 23.139824 Si / 1000 Ang^3
#
#
#
# Elastic Constant Matrix: (Units=GPa)
#
#
# Indices 1 2 3 4 5 6 
#
# 1 96.3676 45.9397 38.9565 -5.0182 -21.3950 28.6914
# 2 45.9397 120.7484 60.8617 3.6429 -19.7275 24.1570
# 3 38.9565 60.8617 112.0098 19.3829 -32.5409 5.4548
# 4 -5.0182 3.6429 19.3829 38.8734 4.5868 -1.0764
# 5 -21.3950 -19.7275 -32.5409 4.5868 49.5828 -6.1791
# 6 28.6914 24.1570 5.4548 -1.0764 -6.1791 44.0567
#
#
#
# Elastic Compliance Matrix: (Units=1/GPa)
#
#
# Indices 1 2 3 4 5 6 
#
# 1 0.016282 -0.002189 -0.004151 0.003904 0.002009 -0.008512
# 2 -0.002189 0.013393 -0.006854 0.001846 -0.000927 -0.005154
# 3 -0.004151 -0.006854 0.018148 -0.009854 0.008956 0.005230
# 4 0.003904 0.001846 -0.009854 0.031760 -0.007308 -0.002584
# 5 0.002009 -0.000927 0.008956 -0.007308 0.027439 0.001761
# 6 -0.008512 -0.005154 0.005230 -0.002584 0.001761 0.030604
#
#
# Mechanical properties :
#
#
# Convention : Reuss Voigt Hill
#
# Bulk Modulus (GPa) = 46.65151 68.96015 57.80583
# Shear Modulus (GPa) = 29.21268 38.72712 33.96990
#
# Velocity S-wave (km/s) = 3.55694 4.09542 3.83564
# Velocity P-wave (km/s) = 6.08881 7.22700 6.68218
#
# Compressibility (1/GPa) = 0.02143553
#
# Stress axis : x y z
#
# Youngs Moduli (GPa) = 61.41744 74.66522 55.10298
#
# Poissons Ratio (x) = 0.16345 0.22872
# Poissons Ratio (y) = 0.13445 0.37766
# Poissons Ratio (z) = 0.25493 0.51174
#
# Static dielectric constant tensor:
#      x y z
#    x 1.912580 -0.044080 0.140690 
#    y -0.044080 1.924310 -0.046080 
#    z 0.140690 -0.046080 1.890540 
# 
# From -- ./inp_files/371079.got.cif
#   From: 2010.05.17/outbox.cif.g08.bks.cpg/sg2_186_cif.got.tgz:371079.got - 2010.06.03 11:33:40.
