data_PCOD9063076
_publ_section_title
;
Structure prediction by ZEFSAII (Michael W. Deem and Ramdas Pophale) SiO2 
 PCOD9063076
Probable space group: P -1
;
_chemical_formula_sum "Si O2"
_cell_formula_units_Z 14
_cell_length_a 16.302096
_cell_length_b 12.592792
_cell_length_c 23.463133
_cell_angle_alpha 156.122904
_cell_angle_beta 18.803830
_cell_angle_gamma 144.685010
_cell_volume 581.209919
_symmetry_space_group_name_H-M "P -1"
_symmetry_group_IT_number 2
_symmetry_cell_setting 'triclinic'
loop_
_space_group_symop_operation_xyz
x,y,z
-x,-y,-z
loop_
_atom_site_type_symbol
_atom_site_label
_atom_site_fract_x
_atom_site_fract_y
_atom_site_fract_z
Si Si1 0.372027 0.763636 0.959962
Si Si2 0.823892 0.940781 0.252463
Si Si3 0.417007 0.622048 0.051102
Si Si4 0.833042 0.720699 0.316412
Si Si5 0.617036 0.340336 0.487879
Si Si6 0.778757 0.355739 0.579179
Si Si7 0.210809 0.269556 0.515768
O O1 0.049592 0.868032 0.235281
O O2 0.456742 0.592077 0.761196
O O3 0.515831 0.537318 0.803025
O O4 0.500000 0.000000 0.000000
O O5 0.844742 0.110396 0.264923
O O6 0.901678 0.070083 0.321077
O O7 0.500000 0.000000 0.500000
O O8 0.998945 0.611032 0.970717
O O9 0.108251 0.652724 0.253017
O O10 0.394578 0.946927 0.217643
O O11 0.500000 0.500000 0.000000
O O12 0.643277 0.409998 0.756802
O O13 0.574033 0.807554 0.487339
O O14 0.757828 0.737713 0.440385
O O15 0.709583 0.493558 0.451515
O O16 0.000000 0.500000 0.500000
#
# Coordination Sequence:
#
# PCOD9063076 Si02
#       7
#     2   2   2   2   2   2   2
#     4  11  24  43  70 103 141 184 241 298 347 423
#     4  11  24  45  70 103 143 178 242 298 349 422
#     4  11  26  47  72 102 150 191 237 300 361 421
#     4  12  25  48  70 105 147 189 236 300 358 426
#     4  11  26  43  73 104 141 196 233 292 363 425
#     4  11  25  44  70 105 135 185 240 296 348 418
#     4  11  26  47  69 107 149 187 244 292 358 439
#
# _framework density 24.087683999999999
#
# number of rings (size 3 to 8) (size 9 to 14) (size 15 to 20)
#    0.000    0.857    4.286    1.714   10.000    2.857 
#    0.000    0.000    0.000    0.000    0.000    0.000 
#    0.000    0.000    0.000    0.000    0.000    0.000 
#
# Total GULP energy -78433.276284 kJ/mol
# GULP energy per Si atom -5602.376877 kJ/mol
# Density = 2.403286 g / cm^3
# Si number density = 24.087684 Si / 1000 Ang^3
#
#
#
# Elastic Constant Matrix: (Units=GPa)
#
#
# Indices 1 2 3 4 5 6 
#
# 1 174.6374 39.1978 35.7319 -13.9906 13.8912 -5.9949
# 2 39.1978 123.9382 21.3811 -7.7463 11.9458 12.1063
# 3 35.7319 21.3811 93.0651 18.3016 4.1059 7.4981
# 4 -13.9906 -7.7463 18.3016 40.3625 -6.5041 1.9472
# 5 13.8912 11.9458 4.1059 -6.5041 36.1126 7.1804
# 6 -5.9949 12.1063 7.4981 1.9472 7.1804 45.8737
#
#
#
# Elastic Compliance Matrix: (Units=1/GPa)
#
#
# Indices 1 2 3 4 5 6 
#
# 1 0.007177 -0.001560 -0.003118 0.003231 -0.001704 0.001989
# 2 -0.001560 0.009330 -0.001665 0.001869 -0.001516 -0.002236
# 3 -0.003118 -0.001665 0.014048 -0.007829 -0.000901 -0.001791
# 4 0.003231 0.001869 -0.007829 0.030602 0.004705 -0.000827
# 5 -0.001704 -0.001516 -0.000901 0.004705 0.030729 -0.004685
# 6 0.001989 -0.002236 -0.001791 -0.000827 -0.004685 0.023710
#
#
# Mechanical properties :
#
#
# Convention : Reuss Voigt Hill
#
# Bulk Modulus (GPa) = 55.95917 64.91804 60.43861
# Shear Modulus (GPa) = 37.24685 44.15842 40.70263
#
# Velocity S-wave (km/s) = 3.93657 4.28628 4.11514
# Velocity P-wave (km/s) = 6.62903 7.17673 6.90831
#
# Compressibility (1/GPa) = 0.01787017
#
# Stress axis : x y z
#
# Youngs Moduli (GPa) = 139.33690 107.17543 71.18274
#
# Poissons Ratio (x) = 0.16720 0.22192
# Poissons Ratio (y) = 0.21737 0.11852
# Poissons Ratio (z) = 0.43440 0.17845
#
# Static dielectric constant tensor:
#      x y z
#    x 1.948220 -0.013190 -0.038430 
#    y -0.013190 1.992930 0.041630 
#    z -0.038430 0.041630 1.939080 
# 
# From -- ./inp_files/598008.got.cif
#   From: 2010.05.17/outbox.cif.g08.bks.cpg/sg2_300_cif.got.tgz:598008.got - 2010.06.03 11:33:40.
