data_PCOD9063180
_publ_section_title
;
Structure prediction by ZEFSAII (Michael W. Deem and Ramdas Pophale) SiO2 
 PCOD9063180
Probable space group: P -1
;
_chemical_formula_sum "Si O2"
_cell_formula_units_Z 14
_cell_length_a 9.027286
_cell_length_b 13.655380
_cell_length_c 10.843830
_cell_angle_alpha 129.134113
_cell_angle_beta 121.722781
_cell_angle_gamma 32.220444
_cell_volume 552.725451
_symmetry_space_group_name_H-M "P -1"
_symmetry_group_IT_number 2
_symmetry_cell_setting 'triclinic'
loop_
_space_group_symop_operation_xyz
x,y,z
-x,-y,-z
loop_
_atom_site_type_symbol
_atom_site_label
_atom_site_fract_x
_atom_site_fract_y
_atom_site_fract_z
Si Si1 0.299839 0.161677 0.352997
Si Si2 0.258508 0.833613 0.889877
Si Si3 0.443651 0.823623 0.722333
Si Si4 0.164824 0.502650 0.986915
Si Si5 0.497862 0.802699 0.293809
Si Si6 0.691058 0.468754 0.405505
Si Si7 0.851284 0.204063 0.742127
O O1 0.404896 0.146445 0.254320
O O2 0.445243 0.167880 0.524891
O O3 0.968660 0.362575 0.377350
O O4 0.394441 0.969512 0.286996
O O5 0.357626 0.882382 0.873939
O O6 0.522927 0.664008 0.957152
O O7 0.233969 0.721520 0.704722
O O8 0.000000 0.000000 0.000000
O O9 0.629062 0.593646 0.593892
O O10 0.143370 0.983002 0.651073
O O11 0.066800 0.701583 0.102182
O O12 0.214324 0.414961 0.805492
O O13 0.000000 0.500000 0.000000
O O14 0.275454 0.816999 0.226872
O O15 0.406611 0.636245 0.336809
#
# Coordination Sequence:
#
# PCOD9063180 Si02
#       7
#     2   2   2   2   2   2   2
#     4  11  25  43  73 105 141 185 232 298 343 419
#     4  11  26  47  72 101 143 186 232 293 354 422
#     4  12  24  45  69 107 138 183 236 287 353 414
#     4  11  25  45  69 101 138 187 237 289 350 420
#     4  11  24  45  70 100 148 182 235 285 360 411
#     4  11  24  44  71 105 141 182 236 286 355 415
#     4  11  24  43  72 101 140 183 234 289 353 416
#
# _framework density 25.329032000000002
#
# number of rings (size 3 to 8) (size 9 to 14) (size 15 to 20)
#    0.000    0.857    1.429    5.143    2.000    1.143 
#    0.000    5.000    0.000    0.000    0.000    0.000 
#    0.000    0.000    0.000    0.000    0.000    0.000 
#
# Total GULP energy -78321.359910 kJ/mol
# GULP energy per Si atom -5594.382851 kJ/mol
# Density = 2.527138 g / cm^3
# Si number density = 25.329032 Si / 1000 Ang^3
#
#
#
# Elastic Constant Matrix: (Units=GPa)
#
#
# Indices 1 2 3 4 5 6 
#
# 1 194.3139 18.7221 73.4051 36.6091 -12.2576 -10.3983
# 2 18.7221 94.0476 24.0066 23.6868 -11.8981 -8.4691
# 3 73.4051 24.0066 94.0798 32.9416 6.9947 6.6764
# 4 36.6091 23.6868 32.9416 39.3358 -1.8585 -3.4850
# 5 -12.2576 -11.8981 6.9947 -1.8585 43.8119 10.8337
# 6 -10.3983 -8.4691 6.6764 -3.4850 10.8337 45.6022
#
#
#
# Elastic Compliance Matrix: (Units=1/GPa)
#
#
# Indices 1 2 3 4 5 6 
#
# 1 0.008145 0.001211 -0.005983 -0.002980 0.002934 0.002033
# 2 0.001211 0.013331 -0.002326 -0.006884 0.003616 0.001707
# 3 -0.005983 -0.002326 0.020300 -0.010654 -0.004906 -0.004417
# 4 -0.002980 -0.006884 -0.010654 0.041512 0.000077 0.002756
# 5 0.002934 0.003616 -0.004906 0.000077 0.026458 -0.004221
# 6 0.002033 0.001707 -0.004417 0.002756 -0.004221 0.024569
#
#
# Mechanical properties :
#
#
# Convention : Reuss Voigt Hill
#
# Bulk Modulus (GPa) = 36.25894 68.30099 52.27996
# Shear Modulus (GPa) = 31.70501 43.50381 37.60441
#
# Velocity S-wave (km/s) = 3.54181 4.14883 3.85728
# Velocity P-wave (km/s) = 5.57424 7.06926 6.36579
#
# Compressibility (1/GPa) = 0.02757941
#
# Stress axis : x y z
#
# Youngs Moduli (GPa) = 122.77131 75.01516 49.26193
#
# Poissons Ratio (x) = -0.09082 0.29473
# Poissons Ratio (y) = -0.14863 0.11457
# Poissons Ratio (z) = 0.73454 0.17446
#
# Static dielectric constant tensor:
#      x y z
#    x 1.990100 0.035830 0.042610 
#    y 0.035830 2.008810 -0.034910 
#    z 0.042610 -0.034910 2.088150 
# 
# From -- ./inp_files/160247.got.cif
#   From: 2010.05.17/outbox.cif.g08.bks.cpg/sg2_81_cif.got.tgz:160247.got - 2010.06.03 11:33:40.
