data_PCOD9063215
_publ_section_title
;
Structure prediction by ZEFSAII (Michael W. Deem and Ramdas Pophale) SiO2 
 PCOD9063215
Probable space group: P -1
;
_chemical_formula_sum "Si O2"
_cell_formula_units_Z 16
_cell_length_a 12.075336
_cell_length_b 9.220259
_cell_length_c 12.428834
_cell_angle_alpha 123.770858
_cell_angle_beta 91.077189
_cell_angle_gamma 126.489386
_cell_volume 788.383859
_symmetry_space_group_name_H-M "P -1"
_symmetry_group_IT_number 2
_symmetry_cell_setting 'triclinic'
loop_
_space_group_symop_operation_xyz
x,y,z
-x,-y,-z
loop_
_atom_site_type_symbol
_atom_site_label
_atom_site_fract_x
_atom_site_fract_y
_atom_site_fract_z
Si Si1 0.608418 0.879410 0.437838
Si Si2 0.955637 0.651830 0.549192
Si Si3 0.555194 0.961962 0.879495
Si Si4 0.228202 0.238263 0.876451
Si Si5 0.887901 0.525868 0.054676
Si Si6 0.531134 0.602953 0.874047
Si Si7 0.970080 0.165374 0.595727
Si Si8 0.388417 0.781137 0.573131
O O1 0.491486 0.609892 0.267534
O O2 0.525630 0.841447 0.531804
O O3 0.782177 0.995329 0.510217
O O4 0.630075 0.060107 0.427430
O O5 0.789824 0.506437 0.546974
O O6 0.000000 0.500000 0.500000
O O7 0.929685 0.629319 0.411813
O O8 0.094469 0.949925 0.708390
O O9 0.558866 0.770096 0.846937
O O10 0.444264 0.859495 0.729931
O O11 0.500000 0.000000 0.000000
O O12 0.724972 0.237983 0.962294
O O13 0.156016 0.343760 0.955996
O O14 0.364175 0.441752 0.872048
O O15 0.324617 0.246726 0.975273
O O16 0.970116 0.701774 0.234277
O O17 0.000000 0.500000 0.000000
O O18 0.000000 0.000000 0.500000
#
# Coordination Sequence:
#
# PCOD9063215 Si02
#       8
#     2   2   2   2   2   2   2   2
#     4  11  24  47  68  97 139 183 215 280 355 405
#     4  12  24  42  72 103 131 179 235 288 333 410
#     4  12  26  43  70 102 131 178 232 279 330 407
#     4  11  24  45  68 101 139 179 230 281 347 411
#     4  12  26  45  68 101 143 181 222 286 349 405
#     4  11  24  43  72  98 133 179 228 285 339 407
#     4  12  24  44  71  99 135 181 235 279 341 408
#     4  11  26  44  69 101 138 174 229 279 342 415
#
# _framework density 20.294684
#
# number of rings (size 3 to 8) (size 9 to 14) (size 15 to 20)
#    0.000    0.500    5.000    2.250    7.000    2.500 
#    0.000    1.250    0.000    0.000    0.000    0.000 
#    0.000    0.000    0.000    0.000    0.000    0.000 
#
# Total GULP energy -89340.648442 kJ/mol
# GULP energy per Si atom -5583.790528 kJ/mol
# Density = 2.024849 g / cm^3
# Si number density = 20.294684 Si / 1000 Ang^3
#
#
#
# Elastic Constant Matrix: (Units=GPa)
#
#
# Indices 1 2 3 4 5 6 
#
# 1 133.2573 51.9645 39.5413 5.6205 -0.7011 15.2362
# 2 51.9645 97.5516 35.5324 6.3708 12.1857 9.3031
# 3 39.5413 35.5324 104.9558 5.4442 13.1787 16.6484
# 4 5.6205 6.3708 5.4442 33.3870 -2.8056 6.5456
# 5 -0.7011 12.1857 13.1787 -2.8056 30.5014 3.2150
# 6 15.2362 9.3031 16.6484 6.5456 3.2150 20.7898
#
#
#
# Elastic Compliance Matrix: (Units=1/GPa)
#
#
# Indices 1 2 3 4 5 6 
#
# 1 0.010565 -0.004935 -0.002066 0.000725 0.003666 -0.004675
# 2 -0.004935 0.014470 -0.002366 -0.002068 -0.005112 0.000478
# 3 -0.002066 -0.002366 0.012706 -0.000241 -0.003884 -0.006925
# 4 0.000725 -0.002068 -0.000241 0.032749 0.005067 -0.010507
# 5 0.003666 -0.005112 -0.003884 0.005067 0.037551 -0.004691
# 6 -0.004675 0.000478 -0.006925 -0.010507 -0.004691 0.060893
#
#
# Mechanical properties :
#
#
# Convention : Reuss Voigt Hill
#
# Bulk Modulus (GPa) = 52.61279 65.53789 59.07534
# Shear Modulus (GPa) = 25.77284 30.85074 28.31179
#
# Velocity S-wave (km/s) = 3.56747 3.90313 3.73907
# Velocity P-wave (km/s) = 6.55361 7.25781 6.91468
#
# Compressibility (1/GPa) = 0.01900679
#
# Stress axis : x y z
#
# Youngs Moduli (GPa) = 94.65282 69.11049 78.70321
#
# Poissons Ratio (x) = 0.34104 0.16260
# Poissons Ratio (y) = 0.46709 0.18622
# Poissons Ratio (z) = 0.19555 0.16352
#
# Static dielectric constant tensor:
#      x y z
#    x 1.783780 -0.036890 -0.001110 
#    y -0.036890 1.738430 0.023810 
#    z -0.001110 0.023810 1.698230 
# 
# From -- ./inp_files/419752.got.cif
#   From: 2010.05.17/outbox.cif.g08.bks.cpg/sg2_210_cif.got.tgz:419752.got - 2010.06.03 11:33:40.
