data_PCOD9063416
_publ_section_title
;
Structure prediction by ZEFSAII (Michael W. Deem and Ramdas Pophale) SiO2 
 PCOD9063416
Probable space group: P -1
;
_chemical_formula_sum "Si O2"
_cell_formula_units_Z 16
_cell_length_a 14.191490
_cell_length_b 12.607127
_cell_length_c 8.140692
_cell_angle_alpha 50.115082
_cell_angle_beta 78.796281
_cell_angle_gamma 116.659862
_cell_volume 710.423562
_symmetry_space_group_name_H-M "P -1"
_symmetry_group_IT_number 2
_symmetry_cell_setting 'triclinic'
loop_
_space_group_symop_operation_xyz
x,y,z
-x,-y,-z
loop_
_atom_site_type_symbol
_atom_site_label
_atom_site_fract_x
_atom_site_fract_y
_atom_site_fract_z
Si Si1 0.595119 0.729533 0.170709
Si Si2 0.358423 0.257106 0.233967
Si Si3 0.409199 0.016184 0.616774
Si Si4 0.917590 0.114379 0.812591
Si Si5 0.425167 0.781018 0.307871
Si Si6 0.888376 0.561167 0.090707
Si Si7 0.045299 0.980410 0.751400
Si Si8 0.103650 0.557910 0.147869
O O1 0.500000 0.500000 0.500000
O O2 0.476670 0.722880 0.219957
O O3 0.650615 0.755111 0.946298
O O4 0.740612 0.928177 0.029597
O O5 0.213250 0.166861 0.449254
O O6 0.371394 0.111460 0.430668
O O7 0.500000 0.500000 0.000000
O O8 0.500000 0.000000 0.500000
O O9 0.502577 0.169111 0.588680
O O10 0.254942 0.775907 0.961897
O O11 0.977585 0.054845 0.738097
O O12 0.001783 0.346007 0.501777
O O13 0.953884 0.106052 0.992652
O O14 0.252551 0.602713 0.579970
O O15 0.500000 0.000000 0.000000
O O16 0.011359 0.589999 0.088227
O O17 0.853805 0.475734 0.001884
O O18 0.949971 0.783859 0.854008
#
# Coordination Sequence:
#
# PCOD9063416 Si02
#       8
#     2   2   2   2   2   2   2   2
#     4  12  26  47  70 102 140 182 238 291 349 415
#     4  12  27  47  74  98 139 187 235 293 347 419
#     4  12  25  46  70 108 141 186 236 285 351 422
#     4  11  26  44  70 104 138 182 229 295 349 418
#     4  12  26  43  71 103 143 184 233 285 351 410
#     4  11  24  44  68 102 139 183 228 289 339 419
#     4  11  25  46  69 102 139 179 239 282 355 415
#     4  11  25  44  72 102 144 179 236 281 350 417
#
# _framework density 22.521777
#
# number of rings (size 3 to 8) (size 9 to 14) (size 15 to 20)
#    0.000    0.500    2.500    5.250    5.250    4.500 
#    0.000    0.000    0.000    0.000    0.000    0.000 
#    0.000    0.000    0.000    0.000    0.000    0.000 
#
# Total GULP energy -89665.498600 kJ/mol
# GULP energy per Si atom -5604.093663 kJ/mol
# Density = 2.247052 g / cm^3
# Si number density = 22.521777 Si / 1000 Ang^3
#
#
#
# Elastic Constant Matrix: (Units=GPa)
#
#
# Indices 1 2 3 4 5 6 
#
# 1 46.6328 3.3648 20.6896 4.6112 -14.0730 -17.6546
# 2 3.3648 58.5370 0.2713 -3.1366 -10.3538 -15.7356
# 3 20.6896 0.2713 131.2193 -14.9119 -15.2404 -14.1319
# 4 4.6112 -3.1366 -14.9119 43.7485 -0.8285 -1.6926
# 5 -14.0730 -10.3538 -15.2404 -0.8285 49.2177 3.8103
# 6 -17.6546 -15.7356 -14.1319 -1.6926 3.8103 39.8028
#
#
#
# Elastic Compliance Matrix: (Units=1/GPa)
#
#
# Indices 1 2 3 4 5 6 
#
# 1 0.029717 0.002728 -0.002900 -0.003310 0.007157 0.012404
# 2 0.002728 0.020400 0.001331 0.002082 0.004793 0.009377
# 3 -0.002900 0.001331 0.008985 0.003596 0.002109 0.002381
# 4 -0.003310 0.002082 0.003596 0.024660 0.000897 0.001595
# 5 0.007157 0.004793 0.002109 0.000897 0.023764 0.003581
# 6 0.012404 0.009377 0.002381 0.001595 0.003581 0.034903
#
#
# Mechanical properties :
#
#
# Convention : Reuss Voigt Hill
#
# Bulk Modulus (GPa) = 16.28117 31.67117 23.97617
# Shear Modulus (GPa) = 31.13595 40.69135 35.91365
#
# Velocity S-wave (km/s) = 3.72221 4.25521 3.99760
# Velocity P-wave (km/s) = 5.07128 6.18348 5.65479
#
# Compressibility (1/GPa) = 0.06142064
#
# Stress axis : x y z
#
# Youngs Moduli (GPa) = 33.65054 49.01892 111.29149
#
# Poissons Ratio (x) = -0.13373 0.32277
# Poissons Ratio (y) = -0.09181 -0.14811
# Poissons Ratio (z) = 0.09759 -0.06524
#
# Static dielectric constant tensor:
#      x y z
#    x 1.811180 0.028780 -0.001220 
#    y 0.028780 1.856640 0.011900 
#    z -0.001220 0.011900 1.785400 
# 
# From -- ./inp_files/306503.got.cif
#   From: 2010.05.17/outbox.cif.g08.bks.cpg/sg2_154_cif.got.tgz:306503.got - 2010.06.03 11:33:40.
