data_PCOD9063351
_publ_section_title
;
Structure prediction by ZEFSAII (Michael W. Deem and Ramdas Pophale) SiO2 
 PCOD9063351
Probable space group: P -1
;
_chemical_formula_sum "Si O2"
_cell_formula_units_Z 15
_cell_length_a 12.898030
_cell_length_b 8.101150
_cell_length_c 6.634866
_cell_angle_alpha 82.788414
_cell_angle_beta 69.551168
_cell_angle_gamma 80.706390
_cell_volume 639.263315
_symmetry_space_group_name_H-M "P -1"
_symmetry_group_IT_number 2
_symmetry_cell_setting 'triclinic'
loop_
_space_group_symop_operation_xyz
x,y,z
-x,-y,-z
loop_
_atom_site_type_symbol
_atom_site_label
_atom_site_fract_x
_atom_site_fract_y
_atom_site_fract_z
Si Si1 0.141408 0.420722 0.316158
Si Si2 0.739336 0.454757 0.422435
Si Si3 0.000000 0.500000 0.000000
Si Si4 0.547060 0.359769 0.828932
Si Si5 0.886911 0.188817 0.097783
Si Si6 0.899144 0.934353 0.460991
Si Si7 0.312274 0.264067 0.901195
Si Si8 0.258106 0.913990 0.124409
O O1 0.177060 0.541448 0.447059
O O2 0.058484 0.491804 0.186520
O O3 0.099022 0.262494 0.479400
O O4 0.253373 0.352128 0.126162
O O5 0.618824 0.435962 0.594623
O O6 0.786927 0.307055 0.263621
O O7 0.739586 0.626052 0.269099
O O8 0.987477 0.297261 0.048915
O O9 0.442656 0.280007 0.822251
O O10 0.500000 0.500000 0.000000
O O11 0.634391 0.220625 0.899073
O O12 0.903726 0.010860 0.225203
O O13 0.839855 0.163746 0.913058
O O14 0.787629 0.018721 0.638540
O O15 0.000000 0.000000 0.500000
O O16 0.287979 0.073666 0.953579
#
# Coordination Sequence:
#
# PCOD9063351 Si02
#       8
#     2   2   1   2   2   2   2   2
#     4  11  24  44  65 100 136 175 231 280 336 401
#     4  12  24  44  71 101 137 178 228 286 334 413
#     4  12  24  42  70  98 136 174 226 286 334 398
#     4  12  23  45  73 100 138 180 226 288 341 397
#     4  12  25  44  67 104 137 179 231 277 345 401
#     4  11  24  45  67  97 136 185 221 276 341 405
#     4  11  24  45  67 101 135 179 227 277 345 402
#     4  11  26  46  68 101 142 177 228 287 331 414
#
# _framework density 23.464507000000001
#
# number of rings (size 3 to 8) (size 9 to 14) (size 15 to 20)
#    0.000    0.533    5.333    3.200    0.000    2.133 
#    0.000    1.333    0.000    0.000    0.000    0.000 
#    0.000    0.000    0.000    0.000    0.000    0.000 
#
# Total GULP energy -83821.099665 kJ/mol
# GULP energy per Si atom -5588.073311 kJ/mol
# Density = 2.341110 g / cm^3
# Si number density = 23.464507 Si / 1000 Ang^3
#
#
#
# Elastic Constant Matrix: (Units=GPa)
#
#
# Indices 1 2 3 4 5 6 
#
# 1 83.0694 14.1572 29.2506 0.2811 3.4792 7.7021
# 2 14.1572 80.3870 45.5651 -13.6356 -9.6452 2.1605
# 3 29.2506 45.5651 94.8715 -19.6638 2.9459 -1.6747
# 4 0.2811 -13.6356 -19.6638 54.9898 -5.0746 -1.8401
# 5 3.4792 -9.6452 2.9459 -5.0746 51.5859 -0.5635
# 6 7.7021 2.1605 -1.6747 -1.8401 -0.5635 48.7561
#
#
#
# Elastic Compliance Matrix: (Units=1/GPa)
#
#
# Indices 1 2 3 4 5 6 
#
# 1 0.013975 -0.000219 -0.004621 -0.001946 -0.000938 -0.002441
# 2 -0.000219 0.018034 -0.008357 0.001825 0.004033 -0.000936
# 3 -0.004621 -0.008357 0.016871 0.003877 -0.001813 0.001805
# 4 -0.001946 0.001825 0.003877 0.020281 0.002259 0.001151
# 5 -0.000938 0.004033 -0.001813 0.002259 0.020531 0.000230
# 6 -0.002441 -0.000936 0.001805 0.001151 0.000230 0.021045
#
#
# Mechanical properties :
#
#
# Convention : Reuss Voigt Hill
#
# Bulk Modulus (GPa) = 44.47327 48.47485 46.47406
# Shear Modulus (GPa) = 34.57163 42.35669 38.46416
#
# Velocity S-wave (km/s) = 3.84260 4.25330 4.05316
# Velocity P-wave (km/s) = 6.21948 6.69510 6.46167
#
# Compressibility (1/GPa) = 0.02248542
#
# Stress axis : x y z
#
# Youngs Moduli (GPa) = 71.55767 55.44982 59.27327
#
# Poissons Ratio (x) = 0.01214 0.27389
# Poissons Ratio (y) = 0.01567 0.49538
# Poissons Ratio (z) = 0.33066 0.46342
#
# Static dielectric constant tensor:
#      x y z
#    x 1.879870 -0.032010 -0.056060 
#    y -0.032010 1.862820 -0.013110 
#    z -0.056060 -0.013110 1.890690 
# 
# From -- ./inp_files/27271.got.cif
#   From: 2010.05.17/outbox.cif.g08.bks.cpg/sg2_14_cif.got.tgz:27271.got - 2010.06.03 11:33:40.
