data_PCOD9063008
_publ_section_title
;
Structure prediction by ZEFSAII (Michael W. Deem and Ramdas Pophale) SiO2 
 PCOD9063008
Probable space group: P -1
;
_chemical_formula_sum "Si O2"
_cell_formula_units_Z 16
_cell_length_a 9.003701
_cell_length_b 26.196281
_cell_length_c 26.237786
_cell_angle_alpha 11.195622
_cell_angle_beta 41.510653
_cell_angle_gamma 41.557832
_cell_volume 791.817678
_symmetry_space_group_name_H-M "P -1"
_symmetry_group_IT_number 2
_symmetry_cell_setting 'triclinic'
loop_
_space_group_symop_operation_xyz
x,y,z
-x,-y,-z
loop_
_atom_site_type_symbol
_atom_site_label
_atom_site_fract_x
_atom_site_fract_y
_atom_site_fract_z
Si Si1 0.991120 0.767878 0.771263
Si Si2 0.450382 0.348175 0.940444
Si Si3 0.553742 0.169215 0.610703
Si Si4 0.844208 0.762316 0.272473
Si Si5 0.098770 0.940000 0.282343
Si Si6 0.216675 0.512240 0.191633
Si Si7 0.500781 0.773673 0.262214
Si Si8 0.539477 0.267096 0.258063
O O1 0.208521 0.770066 0.748577
O O2 0.000000 0.000000 0.500000
O O3 0.000000 0.500000 0.000000
O O4 0.769987 0.750319 0.879340
O O5 0.412092 0.600551 0.664818
O O6 0.623875 0.414458 0.874831
O O7 0.527716 0.089374 0.141478
O O8 0.356008 0.242774 0.629946
O O9 0.780557 0.097071 0.656819
O O10 0.725896 0.755906 0.254829
O O11 0.000000 0.500000 0.500000
O O12 0.000000 0.000000 0.000000
O O13 0.297142 0.875183 0.253532
O O14 0.938077 0.714856 0.532840
O O15 0.949170 0.224807 0.038520
O O16 0.375243 0.372121 0.243656
O O17 0.500000 0.500000 0.500000
O O18 0.500000 0.000000 0.000000
O O19 0.500000 0.000000 0.500000
O O20 0.500000 0.500000 0.000000
#
# Coordination Sequence:
#
# PCOD9063008 Si02
#       8
#     2   2   2   2   2   2   2   2
#     4  12  26  48  70  97 137 175 224 283 338 394
#     4  12  26  44  71  98 134 180 223 277 341 399
#     4  11  26  45  67 101 136 178 225 270 341 401
#     4  11  24  43  69 100 137 176 223 280 326 395
#     4  11  26  45  68  99 141 176 221 279 333 398
#     4  12  26  45  68 100 136 175 224 281 333 399
#     4  11  24  43  69 101 135 180 224 270 335 398
#     4  12  28  46  70 102 132 175 231 276 337 404
#
# _framework density 20.206671
#
# number of rings (size 3 to 8) (size 9 to 14) (size 15 to 20)
#    0.000    0.500    1.250    6.000    7.000   10.000 
#    0.000    0.000    0.000    0.000    0.000    0.000 
#    0.000    0.000    0.000    0.000    0.000    0.000 
#
# Total GULP energy -89403.635997 kJ/mol
# GULP energy per Si atom -5587.727250 kJ/mol
# Density = 2.016068 g / cm^3
# Si number density = 20.206671 Si / 1000 Ang^3
#
#
#
# Elastic Constant Matrix: (Units=GPa)
#
#
# Indices 1 2 3 4 5 6 
#
# 1 184.4467 60.4826 83.4782 -3.9236 -5.7115 2.3386
# 2 60.4826 68.9087 36.2329 -6.6253 3.2983 -0.4026
# 3 83.4782 36.2329 185.3006 -10.4664 1.7856 6.2929
# 4 -3.9236 -6.6253 -10.4664 43.8333 6.0076 -3.5461
# 5 -5.7115 3.2983 1.7856 6.0076 45.3902 1.0665
# 6 2.3386 -0.4026 6.2929 -3.5461 1.0665 35.7523
#
#
#
# Elastic Compliance Matrix: (Units=1/GPa)
#
#
# Indices 1 2 3 4 5 6 
#
# 1 0.008854 -0.006506 -0.002788 -0.001137 0.001855 -0.000330
# 2 -0.006506 0.021194 -0.001068 0.002837 -0.002721 0.001215
# 3 -0.002788 -0.001068 0.006971 0.001275 -0.000695 -0.000909
# 4 -0.001137 0.002837 0.001275 0.024138 -0.003650 0.002385
# 5 0.001855 -0.002721 -0.000695 -0.003650 0.022998 -0.001078
# 6 -0.000330 0.001215 -0.000909 0.002385 -0.001078 0.028434
#
#
# Mechanical properties :
#
#
# Convention : Reuss Voigt Hill
#
# Bulk Modulus (GPa) = 61.36451 88.78258 75.07354
# Shear Modulus (GPa) = 36.03758 42.22598 39.13178
#
# Velocity S-wave (km/s) = 4.22767 4.57629 4.40543
# Velocity P-wave (km/s) = 7.36650 8.48268 7.94422
#
# Compressibility (1/GPa) = 0.01629607
#
# Stress axis : x y z
#
# Youngs Moduli (GPa) = 112.94425 47.18355 143.45369
#
# Poissons Ratio (x) = 0.30696 0.39988
# Poissons Ratio (y) = 0.73477 0.15323
# Poissons Ratio (z) = 0.31484 0.05040
#
# Static dielectric constant tensor:
#      x y z
#    x 1.684330 0.011360 0.018730 
#    y 0.011360 2.116070 0.055070 
#    z 0.018730 0.055070 1.683900 
# 
# From -- ./inp_files/617664.got.cif
#   From: 2010.05.17/outbox.cif.g08.bks.cpg/sg2_309_cif.got.tgz:617664.got - 2010.06.03 11:33:40.
