data_PCOD9063491
_publ_section_title
;
Structure prediction by ZEFSAII (Michael W. Deem and Ramdas Pophale) SiO2 
 PCOD9063491
Probable space group: P -1
;
_chemical_formula_sum "Si O2"
_cell_formula_units_Z 12
_cell_length_a 11.789260
_cell_length_b 6.476377
_cell_length_c 9.618867
_cell_angle_alpha 67.215208
_cell_angle_beta 62.538359
_cell_angle_gamma 103.572251
_cell_volume 518.513975
_symmetry_space_group_name_H-M "P -1"
_symmetry_group_IT_number 2
_symmetry_cell_setting 'triclinic'
loop_
_space_group_symop_operation_xyz
x,y,z
-x,-y,-z
loop_
_atom_site_type_symbol
_atom_site_label
_atom_site_fract_x
_atom_site_fract_y
_atom_site_fract_z
Si Si1 0.611890 0.932985 0.882348
Si Si2 0.638481 0.486824 0.045071
Si Si3 0.159257 0.589677 0.542529
Si Si4 0.676584 0.148464 0.332318
Si Si5 0.067523 0.264218 0.306144
Si Si6 0.094282 0.032460 0.797101
O O1 0.748890 0.195268 0.681258
O O2 0.522109 0.737243 0.856443
O O3 0.500000 0.000000 0.000000
O O4 0.643120 0.751654 0.013257
O O5 0.696208 0.368298 0.157308
O O6 0.756352 0.580334 0.828838
O O7 0.986965 0.823135 0.798501
O O8 0.243065 0.727046 0.601759
O O9 0.999601 0.563762 0.648422
O O10 0.146218 0.311857 0.624608
O O11 0.761455 0.003229 0.261755
O O12 0.500000 0.000000 0.500000
O O13 0.000000 0.000000 0.500000
O O14 0.000000 0.000000 0.000000
#
# Coordination Sequence:
#
# PCOD9063491 Si02
#       6
#     2   2   2   2   2   2
#     4  11  26  40  66  99 133 172 218 280 327 390
#     4  11  24  45  66  92 136 171 222 269 342 390
#     4  11  24  45  69  99 132 172 226 278 328 400
#     4  11  24  44  69  97 132 179 220 274 339 393
#     4  11  24  44  69  97 132 179 220 274 339 393
#     4  11  26  44  69 101 137 175 228 278 332 401
#
# _framework density 23.143060999999999
#
# number of rings (size 3 to 8) (size 9 to 14) (size 15 to 20)
#    0.000    1.000    3.333    2.000    4.667    8.000 
#    0.000    0.000    0.000    0.000    0.000    0.000 
#    0.000    0.000    0.000    0.000    0.000    0.000 
#
# Total GULP energy -67110.645125 kJ/mol
# GULP energy per Si atom -5592.553760 kJ/mol
# Density = 2.309039 g / cm^3
# Si number density = 23.143061 Si / 1000 Ang^3
#
#
#
# Elastic Constant Matrix: (Units=GPa)
#
#
# Indices 1 2 3 4 5 6 
#
# 1 105.9980 58.8765 45.8353 -2.2463 -9.8218 -37.2457
# 2 58.8765 133.1494 64.1313 -3.2172 2.0848 -44.3216
# 3 45.8353 64.1313 140.7253 -18.5211 -12.4731 -22.8052
# 4 -2.2463 -3.2172 -18.5211 38.5402 -9.3519 6.4058
# 5 -9.8218 2.0848 -12.4731 -9.3519 45.1286 -3.0197
# 6 -37.2457 -44.3216 -22.8052 6.4058 -3.0197 66.8212
#
#
#
# Elastic Compliance Matrix: (Units=1/GPa)
#
#
# Indices 1 2 3 4 5 6 
#
# 1 0.014439 -0.003836 -0.001941 -0.000516 0.003013 0.005027
# 2 -0.003836 0.013063 -0.004510 -0.002865 -0.002935 0.005129
# 3 -0.001941 -0.004510 0.010773 0.005764 0.003906 -0.000772
# 4 -0.000516 -0.002865 0.005764 0.030811 0.007809 -0.002822
# 5 0.003013 -0.002935 0.003906 0.007809 0.025747 0.001480
# 6 0.005027 0.005129 -0.000772 -0.002822 0.001480 0.021243
#
#
# Mechanical properties :
#
#
# Convention : Reuss Voigt Hill
#
# Bulk Modulus (GPa) = 56.49290 79.72876 68.11083
# Shear Modulus (GPa) = 35.07556 44.16664 39.62110
#
# Velocity S-wave (km/s) = 3.89729 4.37328 4.14213
# Velocity P-wave (km/s) = 6.68694 7.74764 7.23675
#
# Compressibility (1/GPa) = 0.01770134
#
# Stress axis : x y z
#
# Youngs Moduli (GPa) = 69.25824 76.55399 92.82537
#
# Poissons Ratio (x) = 0.29367 0.18016
# Poissons Ratio (y) = 0.26568 0.41860
# Poissons Ratio (z) = 0.13442 0.34522
#
# Static dielectric constant tensor:
#      x y z
#    x 1.850010 0.022410 -0.053480 
#    y 0.022410 1.870230 0.054400 
#    z -0.053480 0.054400 1.781800 
# 
# From -- ./inp_files/226599.got.cif
#   From: 2010.05.17/outbox.cif.g08.bks.cpg/sg2_114_cif.got.tgz:226599.got - 2010.06.03 11:33:40.
