data_PCOD9063989
_publ_section_title
;
Structure prediction by ZEFSAII (Michael W. Deem and Ramdas Pophale) SiO2 
 PCOD9063989
Probable space group: P -1
;
_chemical_formula_sum "Si O2"
_cell_formula_units_Z 16
_cell_length_a 8.833791
_cell_length_b 11.627900
_cell_length_c 15.008052
_cell_angle_alpha 129.958788
_cell_angle_beta 50.514730
_cell_angle_gamma 139.000692
_cell_volume 739.361866
_symmetry_space_group_name_H-M "P -1"
_symmetry_group_IT_number 2
_symmetry_cell_setting 'triclinic'
loop_
_space_group_symop_operation_xyz
x,y,z
-x,-y,-z
loop_
_atom_site_type_symbol
_atom_site_label
_atom_site_fract_x
_atom_site_fract_y
_atom_site_fract_z
Si Si1 0.375036 0.890264 0.258712
Si Si2 0.569126 0.655123 0.124389
Si Si3 0.505679 0.585140 0.314467
Si Si4 0.952042 0.557263 0.141763
Si Si5 0.366016 0.815947 0.824252
Si Si6 0.915996 0.026549 0.949117
Si Si7 0.695561 0.989350 0.475869
Si Si8 0.808654 0.805530 0.713619
O O1 0.503797 0.792480 0.185563
O O2 0.250229 0.903121 0.398703
O O3 0.181316 0.753466 0.188749
O O4 0.568632 0.100937 0.258397
O O5 0.449554 0.580366 0.228218
O O6 0.500000 0.500000 0.000000
O O7 0.859054 0.787398 0.087994
O O8 0.732403 0.574236 0.223822
O O9 0.298653 0.408396 0.358313
O O10 0.577296 0.773868 0.424283
O O11 0.857321 0.391673 0.167626
O O12 0.000000 0.500000 0.000000
O O13 0.607009 0.836103 0.774322
O O14 0.300098 0.949655 0.955859
O O15 0.848655 0.858776 0.828738
O O16 0.000000 0.000000 0.000000
O O17 0.941051 0.072653 0.370976
O O18 0.500000 0.000000 0.500000
#
# Coordination Sequence:
#
# PCOD9063989 Si02
#       8
#     2   2   2   2   2   2   2   2
#     4  12  26  45  72 101 140 192 235 289 355 415
#     4  12  23  43  66 104 144 181 231 292 356 415
#     4  11  24  45  69 100 138 184 235 289 349 414
#     4  11  26  44  71 108 146 181 230 293 357 426
#     4  11  26  43  69 107 143 180 233 288 362 424
#     4  12  22  40  67 104 144 179 232 291 354 424
#     4  12  26  51  70 100 144 190 245 291 342 426
#     4  11  26  44  71 101 138 190 235 291 357 417
#
# _framework density 21.640281999999999
#
# number of rings (size 3 to 8) (size 9 to 14) (size 15 to 20)
#    0.000    0.500    3.750    4.125    5.250    3.500 
#    0.000    2.500    0.000    0.000    0.000    0.000 
#    0.000    0.000    0.000    0.000    0.000    0.000 
#
# Total GULP energy -89431.017777 kJ/mol
# GULP energy per Si atom -5589.438611 kJ/mol
# Density = 2.159103 g / cm^3
# Si number density = 21.640282 Si / 1000 Ang^3
#
#
#
# Elastic Constant Matrix: (Units=GPa)
#
#
# Indices 1 2 3 4 5 6 
#
# 1 56.1119 30.5883 16.3952 10.0490 -7.5723 -17.1206
# 2 30.5883 120.0690 29.8720 8.3074 -12.6616 -14.7952
# 3 16.3952 29.8720 100.0388 19.8991 -1.5145 -2.3415
# 4 10.0490 8.3074 19.8991 32.8155 0.3426 -2.2004
# 5 -7.5723 -12.6616 -1.5145 0.3426 25.8557 -1.3240
# 6 -17.1206 -14.7952 -2.3415 -2.2004 -1.3240 34.5839
#
#
#
# Elastic Compliance Matrix: (Units=1/GPa)
#
#
# Indices 1 2 3 4 5 6 
#
# 1 0.025373 -0.003717 -0.001679 -0.005153 0.006132 0.010764
# 2 -0.003717 0.010651 -0.002460 0.000072 0.004121 0.002713
# 3 -0.001679 -0.002460 0.012222 -0.006365 -0.000973 -0.001498
# 4 -0.005153 0.000072 -0.006365 0.035867 -0.002361 -0.000759
# 5 0.006132 0.004121 -0.000973 -0.002361 0.042783 0.006221
# 6 0.010764 0.002713 -0.001498 -0.000759 0.006221 0.035493
#
#
# Mechanical properties :
#
#
# Convention : Reuss Voigt Hill
#
# Bulk Modulus (GPa) = 30.73563 47.77010 39.25286
# Shear Modulus (GPa) = 26.46288 31.94195 29.20241
#
# Velocity S-wave (km/s) = 3.50072 3.84610 3.67747
# Velocity P-wave (km/s) = 5.52937 6.46883 6.01746
#
# Compressibility (1/GPa) = 0.03253553
#
# Stress axis : x y z
#
# Youngs Moduli (GPa) = 39.41238 93.88583 81.81943
#
# Poissons Ratio (x) = 0.34895 0.13735
# Poissons Ratio (y) = 0.14648 0.20127
# Poissons Ratio (z) = 0.06616 0.23095
#
# Static dielectric constant tensor:
#      x y z
#    x 1.829300 -0.008720 0.018850 
#    y -0.008720 1.820980 -0.022880 
#    z 0.018850 -0.022880 1.770200 
# 
# From -- ./inp_files/446710.got.cif
#   From: 2010.05.17/outbox.cif.g08.bks.cpg/sg2_224_cif.got.tgz:446710.got - 2010.06.03 11:33:40.
