data_PCOD9063001
_publ_section_title
;
Structure prediction by ZEFSAII (Michael W. Deem and Ramdas Pophale) SiO2 
 PCOD9063001
Probable space group: P -1
;
_chemical_formula_sum "Si O2"
_cell_formula_units_Z 14
_cell_length_a 16.545769
_cell_length_b 16.358528
_cell_length_c 10.774140
_cell_angle_alpha 31.247689
_cell_angle_beta 148.626995
_cell_angle_gamma 157.158116
_cell_volume 554.883500
_symmetry_space_group_name_H-M "P -1"
_symmetry_group_IT_number 2
_symmetry_cell_setting 'triclinic'
loop_
_space_group_symop_operation_xyz
x,y,z
-x,-y,-z
loop_
_atom_site_type_symbol
_atom_site_label
_atom_site_fract_x
_atom_site_fract_y
_atom_site_fract_z
Si Si1 0.465242 0.898866 0.256206
Si Si2 0.841444 0.737630 0.126594
Si Si3 0.508631 0.456260 0.279456
Si Si4 0.626011 0.973719 0.811741
Si Si5 0.158127 0.702558 0.538879
Si Si6 0.135736 0.753665 0.811181
Si Si7 0.852683 0.845556 0.385930
O O1 0.480015 0.726097 0.467886
O O2 0.363474 0.861760 0.303805
O O3 0.710180 0.145487 0.238622
O O4 0.313666 0.889392 0.978074
O O5 0.671306 0.630172 0.156660
O O6 0.979232 0.678304 0.408342
O O7 0.722562 0.658751 0.937436
O O8 0.000000 0.000000 0.000000
O O9 0.606216 0.588314 0.368108
O O10 0.700772 0.063645 0.654898
O O11 0.368460 0.740297 0.794910
O O12 0.799581 0.974270 0.088810
O O13 0.000000 0.500000 0.500000
O O14 0.997624 0.813367 0.553887
O O15 0.000000 0.500000 0.000000
O O16 0.000000 0.000000 0.500000
#
# Coordination Sequence:
#
# PCOD9063001 Si02
#       7
#     2   2   2   2   2   2   2
#     4  11  24  44  71  98 137 188 243 295 347 437
#     4  11  24  44  74 108 142 190 243 305 363 421
#     4  11  25  43  73 111 143 188 253 294 357 450
#     4  11  25  44  67 105 143 179 243 290 355 439
#     4  11  24  43  68  99 143 186 229 296 366 414
#     4  11  25  47  70 100 136 189 244 292 358 430
#     4  12  25  47  71 104 150 189 235 303 360 430
#
# _framework density 25.230522000000001
#
# number of rings (size 3 to 8) (size 9 to 14) (size 15 to 20)
#    0.000    0.857    2.857    3.429    6.000    5.714 
#    0.000    1.429    0.000    0.000    0.000    0.000 
#    0.000    0.000    0.000    0.000    0.000    0.000 
#
# Total GULP energy -78027.959398 kJ/mol
# GULP energy per Si atom -5573.425671 kJ/mol
# Density = 2.517310 g / cm^3
# Si number density = 25.230522 Si / 1000 Ang^3
#
#
#
# Elastic Constant Matrix: (Units=GPa)
#
#
# Indices 1 2 3 4 5 6 
#
# 1 56.4838 24.0979 15.4181 -1.9523 18.3184 2.4235
# 2 24.0979 131.9025 45.0489 21.3517 13.3446 -2.9452
# 3 15.4181 45.0489 149.7734 39.9328 13.2025 -5.3847
# 4 -1.9523 21.3517 39.9328 69.0780 -5.0782 -9.1557
# 5 18.3184 13.3446 13.2025 -5.0782 25.6696 3.9420
# 6 2.4235 -2.9452 -5.3847 -9.1557 3.9420 39.7858
#
#
#
# Elastic Compliance Matrix: (Units=1/GPa)
#
#
# Indices 1 2 3 4 5 6 
#
# 1 0.024010 -0.002790 -0.000467 0.000678 -0.015300 -0.000060
# 2 -0.002790 0.009267 -0.001721 -0.002075 -0.002411 0.000385
# 3 -0.000467 -0.001721 0.008962 -0.004932 -0.004422 0.000417
# 4 0.000678 -0.002075 -0.004932 0.018836 0.006422 0.002836
# 5 -0.015300 -0.002411 -0.004422 0.006422 0.055263 -0.003843
# 6 -0.000060 0.000385 0.000417 0.002836 -0.003843 0.026257
#
#
# Mechanical properties :
#
#
# Convention : Reuss Voigt Hill
#
# Bulk Modulus (GPa) = 30.97494 56.36551 43.67022
# Shear Modulus (GPa) = 30.61635 43.81299 37.21467
#
# Velocity S-wave (km/s) = 3.48726 4.17166 3.84472
# Velocity P-wave (km/s) = 5.34023 6.75221 6.08730
#
# Compressibility (1/GPa) = 0.03228417
#
# Stress axis : x y z
#
# Youngs Moduli (GPa) = 41.64920 107.90806 111.58187
#
# Poissons Ratio (x) = 0.30110 0.05207
# Poissons Ratio (y) = 0.11622 0.19198
# Poissons Ratio (z) = 0.01944 0.18566
#
# Static dielectric constant tensor:
#      x y z
#    x 2.263070 -0.143040 -0.090650 
#    y -0.143040 2.163630 0.080830 
#    z -0.090650 0.080830 2.029160 
# 
# From -- ./inp_files/466565.got.cif
#   From: 2010.05.17/outbox.cif.g08.bks.cpg/sg2_234_cif.got.tgz:466565.got - 2010.06.03 11:33:40.
