data_PCOD9063223
_publ_section_title
;
Structure prediction by ZEFSAII (Michael W. Deem and Ramdas Pophale) SiO2 
 PCOD9063223
Probable space group: P -1
;
_chemical_formula_sum "Si O2"
_cell_formula_units_Z 16
_cell_length_a 11.629214
_cell_length_b 10.661758
_cell_length_c 12.036509
_cell_angle_alpha 40.609219
_cell_angle_beta 67.582383
_cell_angle_gamma 98.465684
_cell_volume 617.708355
_symmetry_space_group_name_H-M "P -1"
_symmetry_group_IT_number 2
_symmetry_cell_setting 'triclinic'
loop_
_space_group_symop_operation_xyz
x,y,z
-x,-y,-z
loop_
_atom_site_type_symbol
_atom_site_label
_atom_site_fract_x
_atom_site_fract_y
_atom_site_fract_z
Si Si1 0.917689 0.303493 0.531012
Si Si2 0.412608 0.441658 0.303301
Si Si3 0.478050 0.794443 0.728053
Si Si4 0.439572 0.987327 0.214172
Si Si5 0.056956 0.849510 0.851692
Si Si6 0.244343 0.230608 0.907548
Si Si7 0.230757 0.910124 0.960281
Si Si8 0.050511 0.277096 0.271281
O O1 0.849323 0.036574 0.798950
O O2 0.096302 0.626335 0.274438
O O3 0.962697 0.284065 0.402678
O O4 0.746065 0.251994 0.620341
O O5 0.459170 0.336520 0.261018
O O6 0.198955 0.185856 0.569256
O O7 0.464370 0.717685 0.072403
O O8 0.547491 0.526480 0.294914
O O9 0.588866 0.976289 0.673726
O O10 0.500000 0.000000 0.500000
O O11 0.267965 0.536790 0.012495
O O12 0.572845 0.958056 0.185384
O O13 0.867221 0.702334 0.072829
O O14 0.023146 0.747004 0.807144
O O15 0.163173 0.833141 0.909717
O O16 0.222858 0.117435 0.870178
O O17 0.000000 0.000000 0.500000
#
# Coordination Sequence:
#
# PCOD9063223 Si02
#       8
#     2   2   2   2   2   2   2   2
#     4  11  24  43  73 100 136 185 231 294 343 428
#     4  11  24  44  72  99 137 188 234 289 355 432
#     4  12  24  42  72 108 148 178 232 311 361 424
#     4  11  24  44  67 101 144 185 235 283 361 432
#     4  12  25  43  72 101 138 179 234 296 363 418
#     4  11  25  48  69  99 136 191 245 283 348 423
#     4  12  27  43  68 103 144 184 234 296 350 417
#     4  12  22  45  77 104 143 184 236 293 368 437
#
# _framework density 25.902190999999998
#
# number of rings (size 3 to 8) (size 9 to 14) (size 15 to 20)
#    0.000    0.500    3.750    4.875    1.750    5.000 
#    0.000    0.000    0.000    0.000    0.000    0.000 
#    0.000    0.000    0.000    0.000    0.000    0.000 
#
# Total GULP energy -89707.479512 kJ/mol
# GULP energy per Si atom -5606.717469 kJ/mol
# Density = 2.584324 g / cm^3
# Si number density = 25.902191 Si / 1000 Ang^3
#
#
#
# Elastic Constant Matrix: (Units=GPa)
#
#
# Indices 1 2 3 4 5 6 
#
# 1 110.8007 4.2227 21.2076 3.6919 -11.1609 6.2049
# 2 4.2227 77.4075 5.0552 2.8889 -7.9334 5.8687
# 3 21.2076 5.0552 74.7246 -0.0530 8.0940 0.3474
# 4 3.6919 2.8889 -0.0530 27.8605 4.0570 2.2282
# 5 -11.1609 -7.9334 8.0940 4.0570 30.5388 -7.4990
# 6 6.2049 5.8687 0.3474 2.2282 -7.4990 36.2690
#
#
#
# Elastic Compliance Matrix: (Units=1/GPa)
#
#
# Indices 1 2 3 4 5 6 
#
# 1 0.010270 0.000289 -0.003459 -0.002054 0.004861 -0.000639
# 2 0.000289 0.013570 -0.001423 -0.001919 0.003944 -0.001298
# 3 -0.003459 -0.001423 0.015116 0.001563 -0.006010 -0.000661
# 4 -0.002054 -0.001919 0.001563 0.037711 -0.007462 -0.003213
# 5 0.004861 0.003944 -0.006010 -0.007462 0.039924 0.007301
# 6 -0.000639 -0.001298 -0.000661 -0.003213 0.007301 0.029604
#
#
# Mechanical properties :
#
#
# Convention : Reuss Voigt Hill
#
# Bulk Modulus (GPa) = 33.59077 35.98932 34.79004
# Shear Modulus (GPa) = 30.24727 34.43012 32.33870
#
# Velocity S-wave (km/s) = 3.42094 3.64982 3.53723
# Velocity P-wave (km/s) = 5.34792 5.62904 5.49028
#
# Compressibility (1/GPa) = 0.02977008
#
# Stress axis : x y z
#
# Youngs Moduli (GPa) = 97.36832 73.69176 66.15626
#
# Poissons Ratio (x) = -0.02130 0.22886
# Poissons Ratio (y) = -0.02814 0.09411
# Poissons Ratio (z) = 0.33684 0.10483
#
# Static dielectric constant tensor:
#      x y z
#    x 2.016290 0.020400 0.046160 
#    y 0.020400 2.034430 0.008980 
#    z 0.046160 0.008980 2.040570 
# 
# From -- ./inp_files/357084.got.cif
#   From: 2010.05.17/outbox.cif.g08.bks.cpg/sg2_179_cif.got.tgz:357084.got - 2010.06.03 11:33:40.
