data_PCOD9063601
_publ_section_title
;
Structure prediction by ZEFSAII (Michael W. Deem and Ramdas Pophale) SiO2 
 PCOD9063601
Probable space group: P -1
;
_chemical_formula_sum "Si O2"
_cell_formula_units_Z 13
_cell_length_a 8.161337
_cell_length_b 9.114776
_cell_length_c 11.326642
_cell_angle_alpha 89.866534
_cell_angle_beta 59.228293
_cell_angle_gamma 49.036848
_cell_volume 469.146155
_symmetry_space_group_name_H-M "P -1"
_symmetry_group_IT_number 2
_symmetry_cell_setting 'triclinic'
loop_
_space_group_symop_operation_xyz
x,y,z
-x,-y,-z
loop_
_atom_site_type_symbol
_atom_site_label
_atom_site_fract_x
_atom_site_fract_y
_atom_site_fract_z
Si Si1 0.881533 0.463349 0.335822
Si Si2 0.916704 0.933955 0.870218
Si Si3 0.043299 0.728739 0.458147
Si Si4 0.558624 0.239149 0.683621
Si Si5 0.500000 0.000000 0.500000
Si Si6 0.297360 0.397020 0.010252
Si Si7 0.840644 0.907619 0.153708
O O1 0.569796 0.711706 0.402785
O O2 0.897974 0.432326 0.468493
O O3 0.908257 0.284113 0.272724
O O4 0.133987 0.398994 0.170945
O O5 0.641640 0.174406 0.910476
O O6 0.130655 0.937259 0.831636
O O7 0.789477 0.925887 0.032387
O O8 0.335778 0.656332 0.332212
O O9 0.831548 0.973144 0.597984
O O10 0.859434 0.793470 0.410625
O O11 0.302110 0.350217 0.869157
O O12 0.407145 0.009049 0.670221
O O13 0.146802 0.643746 0.064906
#
# Coordination Sequence:
#
# PCOD9063601 Si02
#       7
#     2   2   2   2   1   2   2
#     4  12  24  43  75 109 139 182 245 294 344 422
#     4  11  24  44  71 104 141 185 236 291 353 417
#     4  11  26  46  70 104 147 188 233 295 354 425
#     4  11  24  44  74 104 143 186 236 293 357 417
#     4  12  26  48  70 100 144 190 230 290 360 418
#     4  12  23  43  73 104 137 183 241 291 344 416
#     4  11  26  46  67 101 146 187 226 295 355 426
#
# _framework density 27.709913
#
# number of rings (size 3 to 8) (size 9 to 14) (size 15 to 20)
#    0.000    0.615    3.077    4.615    4.308    0.000 
#    2.769    3.846    0.000    0.000    0.000    0.000 
#    0.000    0.000    0.000    0.000    0.000    0.000 
#
# Total GULP energy -72721.334433 kJ/mol
# GULP energy per Si atom -5593.948803 kJ/mol
# Density = 2.764684 g / cm^3
# Si number density = 27.709913 Si / 1000 Ang^3
#
#
#
# Elastic Constant Matrix: (Units=GPa)
#
#
# Indices 1 2 3 4 5 6 
#
# 1 86.0551 18.0062 17.1644 -27.4968 -6.5457 -13.9280
# 2 18.0062 140.2344 33.8934 -14.1086 5.5433 -15.6043
# 3 17.1644 33.8934 136.2304 -18.9436 1.9572 -0.9595
# 4 -27.4968 -14.1086 -18.9436 53.5623 -6.5411 5.6705
# 5 -6.5457 5.5433 1.9572 -6.5411 31.1013 -0.0774
# 6 -13.9280 -15.6043 -0.9595 5.6705 -0.0774 53.9746
#
#
#
# Elastic Compliance Matrix: (Units=1/GPa)
#
#
# Indices 1 2 3 4 5 6 
#
# 1 0.015237 -0.000901 -0.000683 0.007654 0.005027 0.002862
# 2 -0.000901 0.008011 -0.001756 0.000650 -0.001365 0.001982
# 3 -0.000683 -0.001756 0.008158 0.002166 0.000109 -0.000766
# 4 0.007654 0.000650 0.002166 0.024365 0.006482 -0.000349
# 5 0.005027 -0.001365 0.000109 0.006482 0.034811 0.000273
# 6 0.002862 0.001982 -0.000766 -0.000349 0.000273 0.019862
#
#
# Mechanical properties :
#
#
# Convention : Reuss Voigt Hill
#
# Bulk Modulus (GPa) = 40.44562 55.62755 48.03659
# Shear Modulus (GPa) = 39.88334 47.29137 43.58736
#
# Velocity S-wave (km/s) = 3.79795 4.13565 3.97039
# Velocity P-wave (km/s) = 5.81896 6.55160 6.19612
#
# Compressibility (1/GPa) = 0.02472455
#
# Stress axis : x y z
#
# Youngs Moduli (GPa) = 65.63175 124.83065 122.58437
#
# Poissons Ratio (x) = 0.11253 0.08375
# Poissons Ratio (y) = 0.05917 0.21520
# Poissons Ratio (z) = 0.04484 0.21914
#
# Static dielectric constant tensor:
#      x y z
#    x 2.071150 -0.113400 -0.037500 
#    y -0.113400 1.946110 -0.080500 
#    z -0.037500 -0.080500 2.061790 
# 
# From -- ./inp_files/159440.got.cif
#   From: 2010.05.17/outbox.cif.g08.bks.cpg/sg2_80_cif.got.tgz:159440.got - 2010.06.03 11:33:40.
