data_PCOD9063726
_publ_section_title
;
Structure prediction by ZEFSAII (Michael W. Deem and Ramdas Pophale) SiO2 
 PCOD9063726
Probable space group: P -1
;
_chemical_formula_sum "Si O2"
_cell_formula_units_Z 16
_cell_length_a 9.489214
_cell_length_b 13.250402
_cell_length_c 9.026483
_cell_angle_alpha 49.219449
_cell_angle_beta 64.345962
_cell_angle_gamma 88.448085
_cell_volume 718.279939
_symmetry_space_group_name_H-M "P -1"
_symmetry_group_IT_number 2
_symmetry_cell_setting 'triclinic'
loop_
_space_group_symop_operation_xyz
x,y,z
-x,-y,-z
loop_
_atom_site_type_symbol
_atom_site_label
_atom_site_fract_x
_atom_site_fract_y
_atom_site_fract_z
Si Si1 0.487234 0.456284 0.245115
Si Si2 0.695197 0.138866 0.190421
Si Si3 0.450782 0.698724 0.359726
Si Si4 0.940026 0.973903 0.220012
Si Si5 0.378590 0.907558 0.413469
Si Si6 0.239906 0.113908 0.159030
Si Si7 0.731801 0.719655 0.714495
Si Si8 0.799065 0.413904 0.676036
O O1 0.521830 0.415406 0.432535
O O2 0.420116 0.318443 0.298979
O O3 0.329076 0.511193 0.273372
O O4 0.656367 0.569619 0.984540
O O5 0.701313 0.182563 0.317658
O O6 0.782074 0.022328 0.255372
O O7 0.512194 0.052677 0.286273
O O8 0.774309 0.275890 0.920278
O O9 0.454889 0.826422 0.344578
O O10 0.279066 0.634805 0.405323
O O11 0.600319 0.769135 0.106967
O O12 0.889955 0.808065 0.452624
O O13 0.078898 0.081513 0.161317
O O14 0.000000 0.000000 0.000000
O O15 0.259291 0.962302 0.317631
O O16 0.231941 0.169531 0.273397
O O17 0.000000 0.500000 0.500000
#
# Coordination Sequence:
#
# PCOD9063726 Si02
#       8
#     2   2   2   2   2   2   2   2
#     4  11  26  48  73  96 141 197 235 277 345 420
#     4  11  25  46  70 102 142 179 229 292 358 406
#     4  12  26  45  74 103 137 188 239 281 349 421
#     4  12  27  44  74 108 141 181 230 296 358 408
#     4  11  24  44  75 103 138 178 233 293 350 412
#     4  12  24  45  74 106 141 178 236 291 348 413
#     4  11  24  44  73 104 139 183 236 287 339 419
#     4  12  29  48  68 102 145 183 236 293 342 414
#
# _framework density 22.275437
#
# number of rings (size 3 to 8) (size 9 to 14) (size 15 to 20)
#    0.000    0.500    3.750    3.375   12.250    0.000 
#    0.000    0.625    0.000    0.000    0.000    0.000 
#    0.000    0.000    0.000    0.000    0.000    0.000 
#
# Total GULP energy -89313.160971 kJ/mol
# GULP energy per Si atom -5582.072561 kJ/mol
# Density = 2.222474 g / cm^3
# Si number density = 22.275437 Si / 1000 Ang^3
#
#
#
# Elastic Constant Matrix: (Units=GPa)
#
#
# Indices 1 2 3 4 5 6 
#
# 1 78.2365 8.2558 48.6942 -7.2856 8.9535 25.7172
# 2 8.2558 58.5895 52.2241 8.6987 -0.3508 15.7998
# 3 48.6942 52.2241 164.6630 15.3522 9.4585 26.3922
# 4 -7.2856 8.6987 15.3522 37.3954 6.3753 -0.9388
# 5 8.9535 -0.3508 9.4585 6.3753 31.4144 -1.2681
# 6 25.7172 15.7998 26.3922 -0.9388 -1.2681 30.1947
#
#
#
# Elastic Compliance Matrix: (Units=1/GPa)
#
#
# Indices 1 2 3 4 5 6 
#
# 1 0.023049 0.005928 -0.006100 0.006311 -0.006653 -0.017484
# 2 0.005928 0.027233 -0.008309 -0.002257 0.001088 -0.012060
# 3 -0.006100 -0.008309 0.010925 -0.003587 -0.000922 -0.000156
# 4 0.006311 -0.002257 -0.003587 0.031167 -0.007085 -0.000387
# 5 -0.006653 0.001088 -0.000922 -0.007085 0.035746 0.007184
# 6 -0.017484 -0.012060 -0.000156 -0.000387 0.007184 0.054747
#
#
# Mechanical properties :
#
#
# Convention : Reuss Voigt Hill
#
# Bulk Modulus (GPa) = 22.60201 57.75969 40.18085
# Shear Modulus (GPa) = 23.30163 32.62190 27.96176
#
# Velocity S-wave (km/s) = 3.23781 3.83100 3.54683
# Velocity P-wave (km/s) = 4.91391 6.74943 5.90344
#
# Compressibility (1/GPa) = 0.04424384
#
# Stress axis : x y z
#
# Youngs Moduli (GPa) = 43.38520 36.72035 91.53713
#
# Poissons Ratio (x) = -0.21766 0.55837
# Poissons Ratio (y) = -0.25717 0.76058
# Poissons Ratio (z) = 0.26465 0.30511
#
# Static dielectric constant tensor:
#      x y z
#    x 1.793300 -0.036810 -0.005880 
#    y -0.036810 1.864460 0.001420 
#    z -0.005880 0.001420 1.842520 
# 
# From -- ./inp_files/199505.got.cif
#   From: 2010.05.17/outbox.cif.g08.bks.cpg/sg2_100_cif.got.tgz:199505.got - 2010.06.03 11:33:40.
