data_PCOD9063755
_publ_section_title
;
Structure prediction by ZEFSAII (Michael W. Deem and Ramdas Pophale) SiO2 
 PCOD9063755
Probable space group: P -1
;
_chemical_formula_sum "Si O2"
_cell_formula_units_Z 14
_cell_length_a 19.791545
_cell_length_b 9.271644
_cell_length_c 5.494139
_cell_angle_alpha 73.428113
_cell_angle_beta 93.356228
_cell_angle_gamma 39.486962
_cell_volume 546.484808
_symmetry_space_group_name_H-M "P -1"
_symmetry_group_IT_number 2
_symmetry_cell_setting 'triclinic'
loop_
_space_group_symop_operation_xyz
x,y,z
-x,-y,-z
loop_
_atom_site_type_symbol
_atom_site_label
_atom_site_fract_x
_atom_site_fract_y
_atom_site_fract_z
Si Si1 0.655097 0.707418 0.704000
Si Si2 0.413800 0.990126 0.959755
Si Si3 0.265597 0.010055 0.177254
Si Si4 0.087675 0.977253 0.464614
Si Si5 0.876320 0.469321 0.875379
Si Si6 0.937755 0.765167 0.278048
Si Si7 0.656329 0.452927 0.481508
O O1 0.796388 0.470063 0.886914
O O2 0.625436 0.594110 0.662349
O O3 0.606808 0.865632 0.871852
O O4 0.621442 0.869490 0.374537
O O5 0.331492 0.995846 0.001837
O O6 0.551495 0.689982 0.159907
O O7 0.344067 0.727263 0.421225
O O8 0.209159 0.231009 0.251124
O O9 0.153432 0.126653 0.991391
O O10 0.210865 0.723967 0.467141
O O11 0.137069 0.993091 0.679020
O O12 0.000000 0.000000 0.500000
O O13 0.988347 0.266755 0.176856
O O14 0.947520 0.340899 0.703396
O O15 0.000000 0.500000 0.500000
#
# Coordination Sequence:
#
# PCOD9063755 Si02
#       7
#     2   2   2   2   2   2   2
#     4  11  27  48  80 103 150 199 248 308 369 438
#     4  11  27  53  75 108 150 200 246 306 374 437
#     4  11  24  44  73 108 147 194 246 306 366 443
#     4  12  28  43  72 110 147 188 244 310 367 444
#     4  11  24  47  67 103 151 189 241 298 381 433
#     4  12  22  40  69 101 144 192 237 292 371 442
#     4  12  26  47  74 111 144 192 253 309 363 443
#
# _framework density 25.618276999999999
#
# number of rings (size 3 to 8) (size 9 to 14) (size 15 to 20)
#    0.000    0.571    2.857    4.286    8.000    3.429 
#    0.000    4.286    0.000    0.000    0.000    0.000 
#    0.000    0.000    0.000    0.000    0.000    0.000 
#
# Total GULP energy -78164.739726 kJ/mol
# GULP energy per Si atom -5583.195695 kJ/mol
# Density = 2.555997 g / cm^3
# Si number density = 25.618277 Si / 1000 Ang^3
#
#
#
# Elastic Constant Matrix: (Units=GPa)
#
#
# Indices 1 2 3 4 5 6 
#
# 1 100.5831 21.2938 16.6012 -7.6135 -0.6238 1.9938
# 2 21.2938 112.0219 46.6082 1.4316 -7.4321 17.7944
# 3 16.6012 46.6082 101.7650 -12.0091 -3.5187 3.0306
# 4 -7.6135 1.4316 -12.0091 37.1976 1.8458 11.9753
# 5 -0.6238 -7.4321 -3.5187 1.8458 43.6143 -5.4311
# 6 1.9938 17.7944 3.0306 11.9753 -5.4311 42.3205
#
#
#
# Elastic Compliance Matrix: (Units=1/GPa)
#
#
# Indices 1 2 3 4 5 6 
#
# 1 0.010587 -0.001716 -0.000688 0.002150 -0.000335 -0.000379
# 2 -0.001716 0.012212 -0.005296 -0.001245 0.001162 -0.004173
# 3 -0.000688 -0.005296 0.012850 0.004163 -0.000032 0.000157
# 4 0.002150 -0.001245 0.004163 0.031783 -0.002332 -0.009169
# 5 -0.000335 0.001162 -0.000032 -0.002332 0.023619 0.003220
# 6 -0.000379 -0.004173 0.000157 -0.009169 0.003220 0.028398
#
#
# Mechanical properties :
#
#
# Convention : Reuss Voigt Hill
#
# Bulk Modulus (GPa) = 49.38221 53.70849 51.54535
# Shear Modulus (GPa) = 35.31142 39.95092 37.63117
#
# Velocity S-wave (km/s) = 3.71667 3.95330 3.83681
# Velocity P-wave (km/s) = 6.14298 6.46904 6.30812
#
# Compressibility (1/GPa) = 0.02025021
#
# Stress axis : x y z
#
# Youngs Moduli (GPa) = 94.45618 81.88491 77.82304
#
# Poissons Ratio (x) = 0.14048 0.05354
# Poissons Ratio (y) = 0.16205 0.41213
# Poissons Ratio (z) = 0.06498 0.43364
#
# Static dielectric constant tensor:
#      x y z
#    x 1.985740 -0.152530 -0.101080 
#    y -0.152530 2.028300 0.132430 
#    z -0.101080 0.132430 2.096510 
# 
# From -- ./inp_files/69481.got.cif
#   From: 2010.05.17/outbox.cif.g08.bks.cpg/sg2_35_cif.got.tgz:69481.got - 2010.06.03 11:33:40.
