data_PCOD9063901
_publ_section_title
;
Structure prediction by ZEFSAII (Michael W. Deem and Ramdas Pophale) SiO2 
 PCOD9063901
Probable space group: P -1
;
_chemical_formula_sum "Si O2"
_cell_formula_units_Z 14
_cell_length_a 12.127379
_cell_length_b 5.793736
_cell_length_c 12.346721
_cell_angle_alpha 61.662516
_cell_angle_beta 133.128035
_cell_angle_gamma 106.992232
_cell_volume 556.563465
_symmetry_space_group_name_H-M "P -1"
_symmetry_group_IT_number 2
_symmetry_cell_setting 'triclinic'
loop_
_space_group_symop_operation_xyz
x,y,z
-x,-y,-z
loop_
_atom_site_type_symbol
_atom_site_label
_atom_site_fract_x
_atom_site_fract_y
_atom_site_fract_z
Si Si1 0.263068 0.581654 0.140610
Si Si2 0.979654 0.007445 0.113876
Si Si3 0.512061 0.986184 0.139965
Si Si4 0.348416 0.379029 0.464052
Si Si5 0.741499 0.195524 0.512872
Si Si6 0.168940 0.860280 0.648615
Si Si7 0.275924 0.380698 0.973367
O O1 0.401452 0.776983 0.167036
O O2 0.243078 0.487786 0.270057
O O3 0.103658 0.720341 0.970737
O O4 0.290985 0.363812 0.117062
O O5 0.854299 0.805580 0.106952
O O6 0.127168 0.934753 0.295652
O O7 0.000000 0.000000 0.000000
O O8 0.690824 0.948509 0.291224
O O9 0.500000 0.000000 0.000000
O O10 0.437763 0.265500 0.067133
O O11 0.500000 0.500000 0.500000
O O12 0.313708 0.551658 0.510658
O O13 0.357609 0.060126 0.524632
O O14 0.804966 0.276726 0.420407
O O15 0.214582 0.657989 0.820751
O O16 0.000000 0.000000 0.500000
#
# Coordination Sequence:
#
# PCOD9063901 Si02
#       7
#     2   2   2   2   2   2   2
#     4  11  24  44  78 103 146 192 256 312 378 464
#     4  11  24  46  71 109 146 194 250 311 380 457
#     4  11  25  48  74 111 145 198 261 310 384 465
#     4  12  28  49  76 109 153 201 254 315 389 461
#     4  12  29  48  75 112 156 200 252 322 388 454
#     4  12  28  48  75 112 157 199 258 326 389 460
#     4  11  26  45  76 107 146 202 254 312 385 461
#
# _framework density 25.154364000000001
#
# number of rings (size 3 to 8) (size 9 to 14) (size 15 to 20)
#    0.000    0.571    2.857    3.429   10.000    2.857 
#    0.000    0.000    0.000    0.000    0.000    0.000 
#    0.000    0.000    0.000    0.000    0.000    0.000 
#
# Total GULP energy -78165.259737 kJ/mol
# GULP energy per Si atom -5583.232838 kJ/mol
# Density = 2.509711 g / cm^3
# Si number density = 25.154364 Si / 1000 Ang^3
#
#
#
# Elastic Constant Matrix: (Units=GPa)
#
#
# Indices 1 2 3 4 5 6 
#
# 1 117.1013 53.5154 37.4833 3.1780 4.1814 -30.2030
# 2 53.5154 124.9183 31.0893 1.4613 7.4734 -3.4774
# 3 37.4833 31.0893 99.0606 2.6220 10.8987 -9.2603
# 4 3.1780 1.4613 2.6220 40.5041 -2.8972 -7.2435
# 5 4.1814 7.4734 10.8987 -2.8972 65.1477 15.6964
# 6 -30.2030 -3.4774 -9.2603 -7.2435 15.6964 64.4618
#
#
#
# Elastic Compliance Matrix: (Units=1/GPa)
#
#
# Indices 1 2 3 4 5 6 
#
# 1 0.013122 -0.004687 -0.002823 0.000275 -0.001222 0.005818
# 2 -0.004687 0.010381 -0.001631 -0.000246 -0.000181 -0.001854
# 3 -0.002823 -0.001631 0.011953 -0.000500 -0.001821 0.000694
# 4 0.000275 -0.000246 -0.000500 0.025239 0.000555 0.002745
# 5 -0.001222 -0.000181 -0.001821 0.000555 0.016962 -0.004912
# 6 0.005818 -0.001854 0.000694 0.002745 -0.004912 0.019743
#
#
# Mechanical properties :
#
#
# Convention : Reuss Voigt Hill
#
# Bulk Modulus (GPa) = 58.22906 65.02846 61.62876
# Shear Modulus (GPa) = 41.18321 48.62219 44.90270
#
# Velocity S-wave (km/s) = 4.05065 4.40131 4.22961
# Velocity P-wave (km/s) = 6.71386 7.19281 6.95746
#
# Compressibility (1/GPa) = 0.01717356
#
# Stress axis : x y z
#
# Youngs Moduli (GPa) = 76.20717 96.32672 83.65766
#
# Poissons Ratio (x) = 0.45149 0.23618
# Poissons Ratio (y) = 0.35719 0.13648
# Poissons Ratio (z) = 0.21515 0.15715
#
# Static dielectric constant tensor:
#      x y z
#    x 2.047730 0.006350 -0.082110 
#    y 0.006350 2.088070 0.051650 
#    z -0.082110 0.051650 2.170440 
# 
# From -- ./inp_files/69291.got.cif
#   From: 2010.05.17/outbox.cif.g08.bks.cpg/sg2_35_cif.got.tgz:69291.got - 2010.06.03 11:33:40.
