data_PCOD9063353
_publ_section_title
;
Structure prediction by ZEFSAII (Michael W. Deem and Ramdas Pophale) SiO2 
 PCOD9063353
Probable space group: P -1
;
_chemical_formula_sum "Si O2"
_cell_formula_units_Z 14
_cell_length_a 8.543480
_cell_length_b 21.116950
_cell_length_c 20.823612
_cell_angle_alpha 19.688679
_cell_angle_beta 146.368854
_cell_angle_gamma 149.159596
_cell_volume 642.455082
_symmetry_space_group_name_H-M "P -1"
_symmetry_group_IT_number 2
_symmetry_cell_setting 'triclinic'
loop_
_space_group_symop_operation_xyz
x,y,z
-x,-y,-z
loop_
_atom_site_type_symbol
_atom_site_label
_atom_site_fract_x
_atom_site_fract_y
_atom_site_fract_z
Si Si1 0.743746 0.591655 0.320286
Si Si2 0.778484 0.794671 0.010360
Si Si3 0.885848 0.201733 0.205121
Si Si4 0.118759 0.241309 0.387430
Si Si5 0.173738 0.509251 0.892998
Si Si6 0.928574 0.449652 0.725042
Si Si7 0.758343 0.776509 0.288767
O O1 0.427267 0.414370 0.356637
O O2 0.713855 0.670860 0.304600
O O3 0.000000 0.500000 0.500000
O O4 0.840100 0.771032 0.128983
O O5 0.451384 0.810405 0.880312
O O6 0.028435 0.988721 0.874269
O O7 0.809930 0.599146 0.175092
O O8 0.087749 0.270601 0.272821
O O9 0.877179 0.981615 0.391350
O O10 0.014958 0.357219 0.042384
O O11 0.839115 0.276290 0.293917
O O12 0.984932 0.443176 0.825707
O O13 0.500000 0.500000 0.000000
O O14 0.921189 0.664864 0.495847
O O15 0.588951 0.282734 0.748546
#
# Coordination Sequence:
#
# PCOD9063353 Si02
#       7
#     2   2   2   2   2   2   2
#     4  12  23  42  71 100 135 179 225 283 332 395
#     4  12  24  42  73 100 134 178 233 276 338 404
#     4  11  26  45  74 101 129 180 231 285 336 395
#     4  11  25  47  70  99 140 170 234 286 328 401
#     4  12  26  44  72  98 140 181 222 278 345 403
#     4  11  25  43  64 102 139 181 220 278 341 403
#     4  11  24  44  65 100 140 181 222 277 341 400
#
# _framework density 21.791405999999998
#
# number of rings (size 3 to 8) (size 9 to 14) (size 15 to 20)
#    0.000    0.571    4.286    3.000    2.000    4.000 
#    0.000    0.000    0.000    0.000    0.000    0.000 
#    0.000    0.000    0.000    0.000    0.000    0.000 
#
# Total GULP energy -78355.273518 kJ/mol
# GULP energy per Si atom -5596.805251 kJ/mol
# Density = 2.174181 g / cm^3
# Si number density = 21.791406 Si / 1000 Ang^3
#
#
#
# Elastic Constant Matrix: (Units=GPa)
#
#
# Indices 1 2 3 4 5 6 
#
# 1 73.4413 2.3926 32.4731 5.3165 30.2297 8.0148
# 2 2.3926 41.3675 40.2510 9.3621 7.8832 0.2755
# 3 32.4731 40.2510 129.0893 19.3112 26.1201 17.2586
# 4 5.3165 9.3621 19.3112 25.4492 -1.3654 -3.9551
# 5 30.2297 7.8832 26.1201 -1.3654 50.3964 5.8157
# 6 8.0148 0.2755 17.2586 -3.9551 5.8157 33.2637
#
#
#
# Elastic Compliance Matrix: (Units=1/GPa)
#
#
# Indices 1 2 3 4 5 6 
#
# 1 0.020034 0.005492 -0.003712 -0.004213 -0.010888 -0.001544
# 2 0.005492 0.037575 -0.012254 -0.005125 -0.003505 0.004727
# 3 -0.003712 -0.012254 0.015237 -0.007575 -0.003121 -0.007265
# 4 -0.004213 -0.005125 -0.007575 0.049700 0.007495 0.009587
# 5 -0.010888 -0.003505 -0.003121 0.007495 0.028726 0.000140
# 6 -0.001544 0.004727 -0.007265 0.009587 0.000140 0.035280
#
#
# Mechanical properties :
#
#
# Convention : Reuss Voigt Hill
#
# Bulk Modulus (GPa) = 19.26842 43.79240 31.53041
# Shear Modulus (GPa) = 22.24191 33.07396 27.65793
#
# Velocity S-wave (km/s) = 3.19826 3.90006 3.56647
# Velocity P-wave (km/s) = 4.74341 6.35771 5.60894
#
# Compressibility (1/GPa) = 0.05189838
#
# Stress axis : x y z
#
# Youngs Moduli (GPa) = 49.91497 26.61315 65.62889
#
# Poissons Ratio (x) = -0.14616 0.24364
# Poissons Ratio (y) = -0.27414 0.80420
# Poissons Ratio (z) = 0.18531 0.32611
#
# Static dielectric constant tensor:
#      x y z
#    x 1.797390 0.019530 0.025400 
#    y 0.019530 1.795860 -0.004050 
#    z 0.025400 -0.004050 1.797670 
# 
# From -- ./inp_files/315799.got.cif
#   From: 2010.05.17/outbox.cif.g08.bks.cpg/sg2_158_cif.got.tgz:315799.got - 2010.06.03 11:33:40.
