data_PCOD9063934
_publ_section_title
;
Structure prediction by ZEFSAII (Michael W. Deem and Ramdas Pophale) SiO2 
 PCOD9063934
Probable space group: P -1
;
_chemical_formula_sum "Si O2"
_cell_formula_units_Z 12
_cell_length_a 6.852408
_cell_length_b 5.192670
_cell_length_c 23.305033
_cell_angle_alpha 93.514003
_cell_angle_beta 39.327230
_cell_angle_gamma 99.782306
_cell_volume 514.616687
_symmetry_space_group_name_H-M "P -1"
_symmetry_group_IT_number 2
_symmetry_cell_setting 'triclinic'
loop_
_space_group_symop_operation_xyz
x,y,z
-x,-y,-z
loop_
_atom_site_type_symbol
_atom_site_label
_atom_site_fract_x
_atom_site_fract_y
_atom_site_fract_z
Si Si1 0.299830 0.558674 0.780357
Si Si2 0.193052 0.664991 0.408037
Si Si3 0.272940 0.818227 0.150614
Si Si4 0.432246 0.229968 0.479742
Si Si5 0.775044 0.086726 0.303012
Si Si6 0.350535 0.632875 0.904584
O O1 0.623658 0.482341 0.681912
O O2 0.222320 0.783892 0.758485
O O3 0.340786 0.651748 0.837733
O O4 0.999525 0.314850 0.834943
O O5 0.000000 0.500000 0.500000
O O6 0.940945 0.828485 0.445696
O O7 0.475552 0.860090 0.374920
O O8 0.429688 0.577592 0.132172
O O9 0.535407 0.085602 0.084645
O O10 0.069436 0.951758 0.244317
O O11 0.500000 0.500000 0.500000
O O12 0.683512 0.287251 0.371499
O O13 0.500000 0.000000 0.500000
O O14 0.000000 0.500000 0.000000
#
# Coordination Sequence:
#
# PCOD9063934 Si02
#       6
#     2   2   2   2   2   2
#     4  11  27  48  78 109 154 205 246 318 377 438
#     4  11  24  45  67 101 145 202 252 299 365 439
#     4  11  27  51  76 111 155 190 255 311 378 462
#     4  12  28  40  66 103 143 193 250 305 356 428
#     4  11  25  48  70 103 152 202 250 307 377 433
#     4  12  29  51  82 116 148 195 251 312 391 465
#
# _framework density 23.318325000000002
#
# number of rings (size 3 to 8) (size 9 to 14) (size 15 to 20)
#    0.000    0.667    3.333    2.000   14.000    1.333 
#    0.000    0.000    0.000    0.000    0.000    0.000 
#    0.000    0.000    0.000    0.000    0.000    0.000 
#
# Total GULP energy -66987.993196 kJ/mol
# GULP energy per Si atom -5582.332766 kJ/mol
# Density = 2.326525 g / cm^3
# Si number density = 23.318325 Si / 1000 Ang^3
#
#
#
# Elastic Constant Matrix: (Units=GPa)
#
#
# Indices 1 2 3 4 5 6 
#
# 1 71.1793 26.5403 41.2569 6.2757 -18.1184 -25.7556
# 2 26.5403 104.9480 3.4021 -14.9791 -4.2163 -19.5312
# 3 41.2569 3.4021 84.2803 -9.7050 -21.2364 -12.1849
# 4 6.2757 -14.9791 -9.7050 45.7810 8.9860 -13.1441
# 5 -18.1184 -4.2163 -21.2364 8.9860 30.7617 0.5574
# 6 -25.7556 -19.5312 -12.1849 -13.1441 0.5574 46.0051
#
#
#
# Elastic Compliance Matrix: (Units=1/GPa)
#
#
# Indices 1 2 3 4 5 6 
#
# 1 0.029341 -0.006221 -0.011060 -0.008157 0.011024 0.008392
# 2 -0.006221 0.012997 0.003758 0.007735 -0.001643 0.005260
# 3 -0.011060 0.003758 0.019636 0.006492 0.005617 0.002391
# 4 -0.008157 0.007735 0.006492 0.031270 -0.008568 0.009475
# 5 0.011024 -0.001643 0.005617 -0.008568 0.045085 0.003968
# 6 0.008392 0.005260 0.002391 0.009475 0.003968 0.031960
#
#
# Mechanical properties :
#
#
# Convention : Reuss Voigt Hill
#
# Bulk Modulus (GPa) = 28.63099 44.75624 36.69361
# Shear Modulus (GPa) = 23.92585 37.12343 30.52464
#
# Velocity S-wave (km/s) = 3.20668 3.99435 3.62199
# Velocity P-wave (km/s) = 5.10053 6.36462 5.76731
#
# Compressibility (1/GPa) = 0.03492719
#
# Stress axis : x y z
#
# Youngs Moduli (GPa) = 34.08166 76.94217 50.92621
#
# Poissons Ratio (x) = 0.47867 0.56325
# Poissons Ratio (y) = 0.21203 -0.19137
# Poissons Ratio (z) = 0.37695 -0.28913
#
# Static dielectric constant tensor:
#      x y z
#    x 2.002110 0.043160 -0.132270 
#    y 0.043160 1.953940 0.058990 
#    z -0.132270 0.058990 2.179630 
# 
# From -- ./inp_files/548448.got.cif
#   From: 2010.05.17/outbox.cif.g08.bks.cpg/sg2_275_cif.got.tgz:548448.got - 2010.06.03 11:33:40.
