data_PCOD9063170
_publ_section_title
;
Structure prediction by ZEFSAII (Michael W. Deem and Ramdas Pophale) SiO2 
 PCOD9063170
Probable space group: P -1
;
_chemical_formula_sum "Si O2"
_cell_formula_units_Z 13
_cell_length_a 7.578890
_cell_length_b 12.522030
_cell_length_c 11.410250
_cell_angle_alpha 63.654821
_cell_angle_beta 121.442859
_cell_angle_gamma 66.488285
_cell_volume 468.382400
_symmetry_space_group_name_H-M "P -1"
_symmetry_group_IT_number 2
_symmetry_cell_setting 'triclinic'
loop_
_space_group_symop_operation_xyz
x,y,z
-x,-y,-z
loop_
_atom_site_type_symbol
_atom_site_label
_atom_site_fract_x
_atom_site_fract_y
_atom_site_fract_z
Si Si1 0.570526 0.933154 0.387280
Si Si2 0.258169 0.208913 0.744430
Si Si3 0.453164 0.661389 0.228653
Si Si4 0.781657 0.282937 0.135004
Si Si5 0.397564 0.322136 0.382271
Si Si6 0.500000 0.500000 0.500000
Si Si7 0.594392 0.723542 0.864137
O O1 0.771891 0.811178 0.392791
O O2 0.397640 0.888903 0.387193
O O3 0.837271 0.845581 0.628315
O O4 0.364432 0.154522 0.185424
O O5 0.440106 0.252842 0.792499
O O6 0.833236 0.424108 0.538573
O O7 0.500000 0.000000 0.000000
O O8 0.199138 0.735802 0.206553
O O9 0.338061 0.661947 0.066682
O O10 0.731093 0.173222 0.220907
O O11 0.500000 0.500000 0.000000
O O12 0.460929 0.412945 0.426104
O O13 0.449591 0.302921 0.270235
O O14 0.965765 0.499227 0.159590
#
# Coordination Sequence:
#
# PCOD9063170 Si02
#       7
#     2   2   2   2   2   1   2
#     4  12  24  45  71 104 135 178 234 283 341 411
#     4  11  24  43  71  99 134 181 230 283 342 405
#     4  11  25  46  66  99 140 180 227 282 344 405
#     4  12  22  44  72 100 136 176 230 285 338 401
#     4  11  25  47  67  98 141 181 227 278 348 409
#     4  12  26  46  70  94 142 190 222 280 342 414
#     4  11  25  44  72 102 135 178 225 289 344 404
#
# _framework density 27.755099000000001
#
# number of rings (size 3 to 8) (size 9 to 14) (size 15 to 20)
#    0.000    0.615    4.615    2.769    6.462    0.000 
#    0.000    1.538    0.000    0.000    0.000    0.000 
#    0.000    0.000    0.000    0.000    0.000    0.000 
#
# Total GULP energy -72772.389890 kJ/mol
# GULP energy per Si atom -5597.876145 kJ/mol
# Density = 2.769193 g / cm^3
# Si number density = 27.755099 Si / 1000 Ang^3
#
#
#
# Elastic Constant Matrix: (Units=GPa)
#
#
# Indices 1 2 3 4 5 6 
#
# 1 135.4564 56.5683 49.6250 8.8590 -20.4670 32.9543
# 2 56.5683 162.1528 63.8634 29.9325 -6.9849 24.1918
# 3 49.6250 63.8634 141.6392 3.0315 -26.5367 9.4737
# 4 8.8590 29.9325 3.0315 64.4592 -6.3414 -15.2020
# 5 -20.4670 -6.9849 -26.5367 -6.3414 47.7078 -10.0085
# 6 32.9543 24.1918 9.4737 -15.2020 -10.0085 56.3950
#
#
#
# Elastic Compliance Matrix: (Units=1/GPa)
#
#
# Indices 1 2 3 4 5 6 
#
# 1 0.010520 -0.001632 -0.002245 -0.001642 0.001714 -0.005209
# 2 -0.001632 0.009953 -0.004090 -0.005641 -0.003259 -0.004728
# 3 -0.002245 -0.004090 0.010409 0.002955 0.005260 0.003048
# 4 -0.001642 -0.005641 0.002955 0.020911 0.004861 0.009383
# 5 0.001714 -0.003259 0.005260 0.004861 0.025929 0.005425
# 6 -0.005209 -0.004728 0.003048 0.009383 0.005425 0.025784
#
#
# Mechanical properties :
#
#
# Convention : Reuss Voigt Hill
#
# Bulk Modulus (GPa) = 66.89377 86.59574 76.74476
# Shear Modulus (GPa) = 40.18520 51.65851 45.92185
#
# Velocity S-wave (km/s) = 3.80919 4.31887 4.07201
# Velocity P-wave (km/s) = 6.59548 7.49252 7.05827
#
# Compressibility (1/GPa) = 0.01494907
#
# Stress axis : x y z
#
# Youngs Moduli (GPa) = 95.05633 100.46881 96.06701
#
# Poissons Ratio (x) = 0.16392 0.21572
# Poissons Ratio (y) = 0.15508 0.39290
# Poissons Ratio (z) = 0.21345 0.41091
#
# Static dielectric constant tensor:
#      x y z
#    x 2.958960 -0.179340 -0.120940 
#    y -0.179340 2.159440 -0.109230 
#    z -0.120940 -0.109230 2.227450 
# 
# From -- ./inp_files/173825.got.cif
#   From: 2010.05.17/outbox.cif.g08.bks.cpg/sg2_87_cif.got.tgz:173825.got - 2010.06.03 11:33:40.
