data_PCOD9063301
_publ_section_title
;
Structure prediction by ZEFSAII (Michael W. Deem and Ramdas Pophale) SiO2 
 PCOD9063301
Probable space group: P -1
;
_chemical_formula_sum "Si O2"
_cell_formula_units_Z 15
_cell_length_a 19.919166
_cell_length_b 11.270567
_cell_length_c 16.541689
_cell_angle_alpha 148.472643
_cell_angle_beta 19.739838
_cell_angle_gamma 150.321880
_cell_volume 607.566169
_symmetry_space_group_name_H-M "P -1"
_symmetry_group_IT_number 2
_symmetry_cell_setting 'triclinic'
loop_
_space_group_symop_operation_xyz
x,y,z
-x,-y,-z
loop_
_atom_site_type_symbol
_atom_site_label
_atom_site_fract_x
_atom_site_fract_y
_atom_site_fract_z
Si Si1 0.986350 0.076885 0.179194
Si Si2 0.089079 0.324125 0.751953
Si Si3 0.813178 0.244521 0.322730
Si Si4 0.500000 0.000000 0.000000
Si Si5 0.443840 0.370141 0.862249
Si Si6 0.668628 0.932394 0.602505
Si Si7 0.958519 0.250310 0.684932
Si Si8 0.345482 0.113518 0.999282
O O1 0.831641 0.089255 0.289711
O O2 0.207313 0.313805 0.064464
O O3 0.864803 0.056413 0.389341
O O4 0.073914 0.859307 0.935000
O O5 0.301478 0.315060 0.546453
O O6 0.096627 0.388240 0.686963
O O7 0.000000 0.500000 0.000000
O O8 0.904103 0.050930 0.807513
O O9 0.577225 0.252658 0.588019
O O10 0.950874 0.529451 0.352774
O O11 0.297191 0.836870 0.077405
O O12 0.336928 0.949990 0.234977
O O13 0.407774 0.233767 0.910579
O O14 0.572941 0.657884 0.898201
O O15 0.471062 0.938798 0.777756
O O16 0.000000 0.000000 0.500000
#
# Coordination Sequence:
#
# PCOD9063301 Si02
#       8
#     2   2   2   1   2   2   2   2
#     4  11  25  47  71 106 148 190 241 304 377 435
#     4  12  26  48  74 104 149 198 244 304 373 441
#     4  11  26  45  71 108 147 193 242 304 367 449
#     4  12  28  44  72 106 140 192 244 306 358 442
#     4  11  24  43  75 107 142 189 242 306 360 443
#     4  12  25  48  72 106 144 188 245 307 366 432
#     4  12  26  47  71 106 148 192 251 302 364 438
#     4  11  25  43  73 107 142 188 248 300 369 432
#
# _framework density 24.688669000000001
#
# number of rings (size 3 to 8) (size 9 to 14) (size 15 to 20)
#    0.000    0.533    5.333    2.000    1.867    1.067 
#    2.400    0.000    0.000    0.000    0.000    0.000 
#    0.000    0.000    0.000    0.000    0.000    0.000 
#
# Total GULP energy -83501.797775 kJ/mol
# GULP energy per Si atom -5566.786518 kJ/mol
# Density = 2.463248 g / cm^3
# Si number density = 24.688669 Si / 1000 Ang^3
#
#
#
# Elastic Constant Matrix: (Units=GPa)
#
#
# Indices 1 2 3 4 5 6 
#
# 1 73.6825 -1.9563 42.4324 8.4380 -3.1427 -11.3660
# 2 -1.9563 56.7185 11.6122 7.8560 17.4926 -3.0917
# 3 42.4324 11.6122 113.6541 -8.3966 11.7652 -9.3900
# 4 8.4380 7.8560 -8.3966 40.1825 -2.6915 -1.9901
# 5 -3.1427 17.4926 11.7652 -2.6915 57.2496 0.0919
# 6 -11.3660 -3.0917 -9.3900 -1.9901 0.0919 30.0547
#
#
#
# Elastic Compliance Matrix: (Units=1/GPa)
#
#
# Indices 1 2 3 4 5 6 
#
# 1 0.019666 0.002913 -0.007835 -0.005993 0.001510 0.004887
# 2 0.002913 0.021042 -0.002871 -0.005624 -0.005947 0.002015
# 3 -0.007835 -0.002871 0.012654 0.004772 -0.001931 0.001017
# 4 -0.005993 -0.005624 0.004772 0.028384 0.001742 0.000520
# 5 0.001510 -0.005947 -0.001931 0.001742 0.019847 -0.000589
# 6 0.004887 0.002015 0.001017 0.000520 -0.000589 0.035682
#
#
# Mechanical properties :
#
#
# Convention : Reuss Voigt Hill
#
# Bulk Modulus (GPa) = 26.47182 38.69241 32.58212
# Shear Modulus (GPa) = 30.22011 38.29514 34.25763
#
# Velocity S-wave (km/s) = 3.50244 3.94270 3.72907
# Velocity P-wave (km/s) = 5.20592 6.03595 5.63623
#
# Compressibility (1/GPa) = 0.03777601
#
# Stress axis : x y z
#
# Youngs Moduli (GPa) = 50.84949 47.52356 79.02907
#
# Poissons Ratio (x) = -0.13845 0.61920
# Poissons Ratio (y) = -0.14814 0.22689
# Poissons Ratio (z) = 0.39841 0.13644
#
# Static dielectric constant tensor:
#      x y z
#    x 2.011980 0.022340 0.019280 
#    y 0.022340 1.965230 0.022630 
#    z 0.019280 0.022630 1.973170 
# 
# From -- ./inp_files/578032.got.cif
#   From: 2010.05.17/outbox.cif.g08.bks.cpg/sg2_290_cif.got.tgz:578032.got - 2010.06.03 11:33:40.
