data_PCOD9063003
_publ_section_title
;
Structure prediction by ZEFSAII (Michael W. Deem and Ramdas Pophale) SiO2 
 PCOD9063003
Probable space group: P -1
;
_chemical_formula_sum "Si O2"
_cell_formula_units_Z 16
_cell_length_a 26.407201
_cell_length_b 8.484217
_cell_length_c 26.909699
_cell_angle_alpha 43.386846
_cell_angle_beta 169.108035
_cell_angle_gamma 137.695309
_cell_volume 766.772935
_symmetry_space_group_name_H-M "P -1"
_symmetry_group_IT_number 2
_symmetry_cell_setting 'triclinic'
loop_
_space_group_symop_operation_xyz
x,y,z
-x,-y,-z
loop_
_atom_site_type_symbol
_atom_site_label
_atom_site_fract_x
_atom_site_fract_y
_atom_site_fract_z
Si Si1 0.794234 0.540851 0.749668
Si Si2 0.485507 0.254365 0.186005
Si Si3 0.597248 0.597219 0.125402
Si Si4 0.606334 0.626878 0.306117
Si Si5 0.847469 0.100181 0.375441
Si Si6 0.906845 0.939373 0.688643
Si Si7 0.977947 0.433902 0.196419
Si Si8 0.794797 0.164358 0.750212
O O1 0.500000 0.500000 0.500000
O O2 0.794170 0.351582 0.750038
O O3 0.865890 0.790627 0.734071
O O4 0.000000 0.500000 0.000000
O O5 0.590684 0.389858 0.205919
O O6 0.544308 0.439051 0.245194
O O7 0.643380 0.044736 0.396968
O O8 0.165716 0.149031 0.896099
O O9 0.904241 0.750091 0.387444
O O10 0.500000 0.500000 0.000000
O O11 0.369485 0.747438 0.887120
O O12 0.864439 0.590019 0.595343
O O13 0.678586 0.884907 0.293178
O O14 0.342315 0.595819 0.094249
O O15 0.000000 0.000000 0.500000
O O16 0.968597 0.766133 0.744369
O O17 0.103606 0.683566 0.235479
O O18 0.500000 0.000000 0.500000
O O19 0.000000 0.000000 0.000000
#
# Coordination Sequence:
#
# PCOD9063003 Si02
#       8
#     2   2   2   2   2   2   2   2
#     4  11  24  43  69 100 133 177 222 267 334 396
#     4  12  26  44  68  99 136 173 225 277 331 395
#     4  12  28  46  70 102 132 175 231 276 335 399
#     4  12  26  43  70  98 132 179 220 276 338 395
#     4  12  26  48  70  97 137 175 224 282 337 392
#     4  11  26  45  67  97 139 176 217 277 331 396
#     4  11  26  45  67 100 135 176 224 266 340 399
#     4  11  24  43  69 100 135 174 220 278 324 393
#
# _framework density 20.866672999999999
#
# number of rings (size 3 to 8) (size 9 to 14) (size 15 to 20)
#    0.000    0.500    1.250    6.000    7.000   10.000 
#    0.000    0.000    0.000    0.000    0.000    0.000 
#    0.000    0.000    0.000    0.000    0.000    0.000 
#
# Total GULP energy -89635.444337 kJ/mol
# GULP energy per Si atom -5602.215271 kJ/mol
# Density = 2.081918 g / cm^3
# Si number density = 20.866673 Si / 1000 Ang^3
#
#
#
# Elastic Constant Matrix: (Units=GPa)
#
#
# Indices 1 2 3 4 5 6 
#
# 1 72.7495 25.8560 -11.3817 -1.5671 -4.9404 11.7766
# 2 25.8560 84.1209 7.2185 7.5640 -2.7514 25.8515
# 3 -11.3817 7.2185 84.9934 -2.2934 2.2340 4.6159
# 4 -1.5671 7.5640 -2.2934 48.9135 1.2745 -4.3306
# 5 -4.9404 -2.7514 2.2340 1.2745 41.9097 3.7854
# 6 11.7766 25.8515 4.6159 -4.3306 3.7854 28.7196
#
#
#
# Elastic Compliance Matrix: (Units=1/GPa)
#
#
# Indices 1 2 3 4 5 6 
#
# 1 0.016375 -0.004242 0.002718 0.000958 0.001787 -0.003424
# 2 -0.004242 0.018670 -0.001479 -0.004555 0.002373 -0.015828
# 3 0.002718 -0.001479 0.012372 0.000761 -0.000313 -0.001615
# 4 0.000958 -0.004555 0.000761 0.021882 -0.001532 0.007087
# 5 0.001787 0.002373 -0.000313 -0.001532 0.024862 -0.006326
# 6 -0.003424 -0.015828 -0.001615 0.007087 -0.006326 0.052633
#
#
# Mechanical properties :
#
#
# Convention : Reuss Voigt Hill
#
# Bulk Modulus (GPa) = 24.14871 31.69439 27.92155
# Shear Modulus (GPa) = 30.01148 38.58662 34.29905
#
# Velocity S-wave (km/s) = 3.79654 4.30490 4.05868
# Velocity P-wave (km/s) = 5.55124 6.31914 5.94759
#
# Compressibility (1/GPa) = 0.04141007
#
# Stress axis : x y z
#
# Youngs Moduli (GPa) = 61.06909 53.56290 80.82950
#
# Poissons Ratio (x) = 0.22720 -0.21969
# Poissons Ratio (y) = 0.25903 0.11957
# Poissons Ratio (z) = -0.16598 0.07924
#
# Static dielectric constant tensor:
#      x y z
#    x 1.866840 0.161370 -0.230600 
#    y 0.161370 1.933310 -0.273600 
#    z -0.230600 -0.273600 2.050980 
# 
# From -- ./inp_files/352525.got.cif
#   From: 2010.05.17/outbox.cif.g08.bks.cpg/sg2_177_cif.got.tgz:352525.got - 2010.06.03 11:33:40.
