data_PCOD9063213
_publ_section_title
;
Structure prediction by ZEFSAII (Michael W. Deem and Ramdas Pophale) SiO2 
 PCOD9063213
Probable space group: P -1
;
_chemical_formula_sum "Si O2"
_cell_formula_units_Z 14
_cell_length_a 12.080422
_cell_length_b 9.714729
_cell_length_c 19.085573
_cell_angle_alpha 43.685543
_cell_angle_beta 150.939908
_cell_angle_gamma 144.634258
_cell_volume 629.275083
_symmetry_space_group_name_H-M "P -1"
_symmetry_group_IT_number 2
_symmetry_cell_setting 'triclinic'
loop_
_space_group_symop_operation_xyz
x,y,z
-x,-y,-z
loop_
_atom_site_type_symbol
_atom_site_label
_atom_site_fract_x
_atom_site_fract_y
_atom_site_fract_z
Si Si1 0.889601 0.383975 0.172382
Si Si2 0.823132 0.024705 0.637399
Si Si3 0.420262 0.458748 0.389854
Si Si4 0.446841 0.297193 0.848540
Si Si5 0.539565 0.894596 0.218216
Si Si6 0.508979 0.212387 0.330186
Si Si7 0.796043 0.086542 0.852283
O O1 0.110985 0.391727 0.240785
O O2 0.046259 0.650195 0.190936
O O3 0.788384 0.167665 0.249335
O O4 0.634113 0.338318 0.003272
O O5 0.756100 0.213298 0.502890
O O6 0.130056 0.114558 0.757095
O O7 0.606688 0.771933 0.572990
O O8 0.751961 0.969530 0.699716
O O9 0.500000 0.500000 0.500000
O O10 0.596242 0.709061 0.354976
O O11 0.533774 0.201107 0.866559
O O12 0.474644 0.542678 0.753686
O O13 0.309002 0.892986 0.137315
O O14 0.458399 0.100425 0.266481
O O15 0.000000 0.000000 0.000000
#
# Coordination Sequence:
#
# PCOD9063213 Si02
#       7
#     2   2   2   2   2   2   2
#     4  11  25  43  71 105 136 176 232 281 346 405
#     4  11  24  43  72  96 138 183 232 280 343 404
#     4  11  24  45  68 102 140 178 227 279 343 412
#     4  12  24  44  73 105 136 175 235 288 341 409
#     4  11  25  43  71 104 135 179 228 288 343 400
#     4  11  25  47  67  99 140 186 228 282 341 409
#     4  11  25  45  68  98 141 184 223 277 347 411
#
# _framework density 22.247821999999999
#
# number of rings (size 3 to 8) (size 9 to 14) (size 15 to 20)
#    0.000    0.857    4.286    2.571    2.000    4.571 
#    2.571    0.000    0.000    0.000    0.000    0.000 
#    0.000    0.000    0.000    0.000    0.000    0.000 
#
# Total GULP energy -78252.202044 kJ/mol
# GULP energy per Si atom -5589.443003 kJ/mol
# Density = 2.219718 g / cm^3
# Si number density = 22.247822 Si / 1000 Ang^3
#
#
#
# Elastic Constant Matrix: (Units=GPa)
#
#
# Indices 1 2 3 4 5 6 
#
# 1 95.1139 24.1490 18.1343 7.3140 8.5030 -6.5754
# 2 24.1490 126.4933 4.8890 -18.3378 12.3619 2.3210
# 3 18.1343 4.8890 44.0068 -3.6288 10.5400 -2.3257
# 4 7.3140 -18.3378 -3.6288 31.2519 -3.5510 -3.7388
# 5 8.5030 12.3619 10.5400 -3.5510 15.4757 -6.4153
# 6 -6.5754 2.3210 -2.3257 -3.7388 -6.4153 37.8282
#
#
#
# Elastic Compliance Matrix: (Units=1/GPa)
#
#
# Indices 1 2 3 4 5 6 
#
# 1 0.012849 -0.002846 -0.004822 -0.005346 -0.002230 0.001205
# 2 -0.002846 0.009930 0.002184 0.005732 -0.007216 -0.001627
# 3 -0.004822 0.002184 0.029205 0.003386 -0.019070 -0.002076
# 4 -0.005346 0.005732 0.003386 0.038184 0.006382 0.003784
# 5 -0.002230 -0.007216 -0.019070 0.006382 0.092349 0.015175
# 6 0.001205 -0.001627 -0.002076 0.003784 0.015175 0.029564
#
#
# Mechanical properties :
#
#
# Convention : Reuss Voigt Hill
#
# Bulk Modulus (GPa) = 24.37960 39.99540 32.18750
# Shear Modulus (GPa) = 21.12186 31.47395 26.29790
#
# Velocity S-wave (km/s) = 3.08456 3.76533 3.44182
# Velocity P-wave (km/s) = 4.86498 6.07617 5.50399
#
# Compressibility (1/GPa) = 0.04101790
#
# Stress axis : x y z
#
# Youngs Moduli (GPa) = 77.82471 100.70030 34.24072
#
# Poissons Ratio (x) = 0.28659 0.16511
# Poissons Ratio (y) = 0.22149 -0.07480
# Poissons Ratio (z) = 0.37526 -0.21997
#
# Static dielectric constant tensor:
#      x y z
#    x 1.815240 0.006050 0.001320 
#    y 0.006050 1.844910 -0.023200 
#    z 0.001320 -0.023200 1.802760 
# 
# From -- ./inp_files/566605.got.cif
#   From: 2010.05.17/outbox.cif.g08.bks.cpg/sg2_284_cif.got.tgz:566605.got - 2010.06.03 11:33:40.
