data_PCOD9063154
_publ_section_title
;
Structure prediction by ZEFSAII (Michael W. Deem and Ramdas Pophale) SiO2 
 PCOD9063154
Probable space group: P -1
;
_chemical_formula_sum "Si O2"
_cell_formula_units_Z 16
_cell_length_a 11.043273
_cell_length_b 21.052697
_cell_length_c 6.128077
_cell_angle_alpha 62.277242
_cell_angle_beta 75.926701
_cell_angle_gamma 31.268889
_cell_volume 616.523479
_symmetry_space_group_name_H-M "P -1"
_symmetry_group_IT_number 2
_symmetry_cell_setting 'triclinic'
loop_
_space_group_symop_operation_xyz
x,y,z
-x,-y,-z
loop_
_atom_site_type_symbol
_atom_site_label
_atom_site_fract_x
_atom_site_fract_y
_atom_site_fract_z
Si Si1 0.875338 0.627544 0.968634
Si Si2 0.883385 0.846084 0.499806
Si Si3 0.182299 0.843813 0.734496
Si Si4 0.062672 0.664744 0.080450
Si Si5 0.225352 0.986687 0.033210
Si Si6 0.678136 0.823245 0.368748
Si Si7 0.406593 0.628119 0.609297
Si Si8 0.492353 0.726916 0.165320
O O1 0.714885 0.747352 0.664523
O O2 0.723306 0.665954 0.169515
O O3 0.000000 0.500000 0.000000
O O4 0.054089 0.599744 0.028633
O O5 0.169497 0.699782 0.522168
O O6 0.690781 0.891705 0.383653
O O7 0.911852 0.802035 0.801252
O O8 0.802583 0.965527 0.272492
O O9 0.284870 0.737271 0.681837
O O10 0.414321 0.761373 0.892944
O O11 0.000000 0.000000 0.500000
O O12 0.024027 0.881683 0.930315
O O13 0.350803 0.539429 0.182661
O O14 0.912384 0.715072 0.277667
O O15 0.441128 0.919641 0.177680
O O16 0.286879 0.872594 0.157566
O O17 0.511986 0.637332 0.387584
#
# Coordination Sequence:
#
# PCOD9063154 Si02
#       8
#     2   2   2   2   2   2   2   2
#     4  11  24  43  71 107 141 179 232 287 352 420
#     4  11  27  48  68 103 141 191 238 282 340 421
#     4  12  24  42  69 106 144 181 227 285 359 412
#     4  11  26  47  71 101 141 188 235 284 349 413
#     4  12  24  47  70 103 145 181 235 290 350 412
#     4  11  26  48  70 105 138 189 235 287 347 412
#     4  12  26  46  73 105 142 184 233 291 350 417
#     4  12  24  43  71 109 140 176 230 292 353 412
#
# _framework density 25.951974
#
# number of rings (size 3 to 8) (size 9 to 14) (size 15 to 20)
#    0.000    0.500    3.750    4.125    3.500    3.000 
#    0.000    0.000    0.000    0.000    0.000    0.000 
#    0.000    0.000    0.000    0.000    0.000    0.000 
#
# Total GULP energy -89586.162973 kJ/mol
# GULP energy per Si atom -5599.135186 kJ/mol
# Density = 2.589291 g / cm^3
# Si number density = 25.951974 Si / 1000 Ang^3
#
#
#
# Elastic Constant Matrix: (Units=GPa)
#
#
# Indices 1 2 3 4 5 6 
#
# 1 92.7905 1.5140 14.7582 -4.0726 -1.3322 -14.2005
# 2 1.5140 83.3308 13.5700 8.2139 -3.5564 -8.7646
# 3 14.7582 13.5700 55.9771 -0.6991 -13.0262 -0.3079
# 4 -4.0726 8.2139 -0.6991 32.7671 -13.5057 1.4369
# 5 -1.3322 -3.5564 -13.0262 -13.5057 39.0537 0.1802
# 6 -14.2005 -8.7646 -0.3079 1.4369 0.1802 47.8502
#
#
#
# Elastic Compliance Matrix: (Units=1/GPa)
#
#
# Indices 1 2 3 4 5 6 
#
# 1 0.011882 0.000593 -0.003322 0.000963 -0.000332 0.003586
# 2 0.000593 0.013216 -0.003727 -0.004024 -0.001423 0.002699
# 3 -0.003322 -0.003727 0.021627 0.004486 0.008320 -0.001695
# 4 0.000963 -0.004024 0.004486 0.037664 0.014195 -0.001607
# 5 -0.000332 -0.001423 0.008320 0.014195 0.033153 -0.000857
# 6 0.003586 0.002699 -0.001695 -0.001607 -0.000857 0.022498
#
#
# Mechanical properties :
#
#
# Convention : Reuss Voigt Hill
#
# Bulk Modulus (GPa) = 29.57415 32.42029 30.99722
# Shear Modulus (GPa) = 30.44661 37.41795 33.93228
#
# Velocity S-wave (km/s) = 3.42890 3.80124 3.61986
# Velocity P-wave (km/s) = 5.20547 5.63786 5.42598
#
# Compressibility (1/GPa) = 0.03381331
#
# Stress axis : x y z
#
# Youngs Moduli (GPa) = 84.16157 75.66440 46.23938
#
# Poissons Ratio (x) = -0.04488 0.15361
# Poissons Ratio (y) = -0.04992 0.17233
# Poissons Ratio (z) = 0.27958 0.28199
#
# Static dielectric constant tensor:
#      x y z
#    x 2.002960 -0.042920 -0.006610 
#    y -0.042920 2.170340 0.124150 
#    z -0.006610 0.124150 2.146080 
# 
# From -- ./inp_files/70709.got.cif
#   From: 2010.05.17/outbox.cif.g08.bks.cpg/sg2_36_cif.got.tgz:70709.got - 2010.06.03 11:33:40.
