data_PCOD9063032
_publ_section_title
;
Structure prediction by ZEFSAII (Michael W. Deem and Ramdas Pophale) SiO2 
 PCOD9063032
Probable space group: P -1
;
_chemical_formula_sum "Si O2"
_cell_formula_units_Z 16
_cell_length_a 15.272119
_cell_length_b 6.351950
_cell_length_c 17.596439
_cell_angle_alpha 62.867707
_cell_angle_beta 36.680578
_cell_angle_gamma 44.184935
_cell_volume 681.018389
_symmetry_space_group_name_H-M "P -1"
_symmetry_group_IT_number 2
_symmetry_cell_setting 'triclinic'
loop_
_space_group_symop_operation_xyz
x,y,z
-x,-y,-z
loop_
_atom_site_type_symbol
_atom_site_label
_atom_site_fract_x
_atom_site_fract_y
_atom_site_fract_z
Si Si1 0.638012 0.188811 0.905601
Si Si2 0.005185 0.524119 0.402020
Si Si3 0.359858 0.280163 0.439010
Si Si4 0.555952 0.656791 0.487179
Si Si5 0.549340 0.051283 0.850652
Si Si6 0.667553 0.839500 0.167776
Si Si7 0.013405 0.099528 0.060087
Si Si8 0.043353 0.934625 0.727399
O O1 0.854595 0.028349 0.802521
O O2 0.578310 0.255104 0.847584
O O3 0.500000 0.500000 0.000000
O O4 0.594006 0.971499 0.000160
O O5 0.228327 0.278163 0.258893
O O6 0.916251 0.867814 0.379388
O O7 0.000000 0.500000 0.500000
O O8 0.862170 0.479446 0.472649
O O9 0.437148 0.408459 0.417208
O O10 0.399769 0.022918 0.512906
O O11 0.504642 0.068459 0.305602
O O12 0.500000 0.500000 0.500000
O O13 0.783594 0.440901 0.341489
O O14 0.449143 0.148717 0.823237
O O15 0.832256 0.472156 0.132159
O O16 0.791283 0.951013 0.054856
O O17 0.995187 0.966042 0.172732
O O18 0.000000 0.000000 0.000000
#
# Coordination Sequence:
#
# PCOD9063032 Si02
#       8
#     2   2   2   2   2   2   2   2
#     4  11  24  43  69 104 130 187 230 281 348 412
#     4  12  25  45  70 102 138 186 230 288 348 407
#     4  11  24  43  71  98 144 176 227 289 345 412
#     4  11  24  43  69 104 130 187 230 281 348 412
#     4  11  24  43  71  98 144 176 227 289 345 412
#     4  11  24  45  68 104 138 173 234 281 352 418
#     4  11  27  43  72 106 138 182 224 292 348 409
#     4  12  24  46  70  99 145 175 243 284 341 425
#
# _framework density 23.494226999999999
#
# number of rings (size 3 to 8) (size 9 to 14) (size 15 to 20)
#    0.000    0.750    6.250    0.750    3.500    0.000 
#    0.000    5.000    0.000    0.000    0.000    0.000 
#    0.000    0.000    0.000    0.000    0.000    0.000 
#
# Total GULP energy -89327.718196 kJ/mol
# GULP energy per Si atom -5582.982387 kJ/mol
# Density = 2.344075 g / cm^3
# Si number density = 23.494227 Si / 1000 Ang^3
#
#
#
# Elastic Constant Matrix: (Units=GPa)
#
#
# Indices 1 2 3 4 5 6 
#
# 1 219.2977 20.1582 58.0408 12.0485 14.0494 -6.2162
# 2 20.1582 40.4237 9.6640 6.2527 3.1727 -8.0347
# 3 58.0408 9.6640 78.4766 8.4068 2.4444 -8.2543
# 4 12.0485 6.2527 8.4068 31.1086 -12.7254 1.5925
# 5 14.0494 3.1727 2.4444 -12.7254 56.0596 11.1184
# 6 -6.2162 -8.0347 -8.2543 1.5925 11.1184 27.0411
#
#
#
# Elastic Compliance Matrix: (Units=1/GPa)
#
#
# Indices 1 2 3 4 5 6 
#
# 1 0.005958 -0.001537 -0.003931 -0.001664 -0.001715 0.000516
# 2 -0.001537 0.029380 -0.000326 -0.007915 -0.005220 0.010890
# 3 -0.003931 -0.000326 0.016669 -0.003814 -0.001572 0.004959
# 4 -0.001664 -0.007915 -0.003814 0.041183 0.012667 -0.011532
# 5 -0.001715 -0.005220 -0.001572 0.012667 0.024102 -0.013081
# 6 0.000516 0.010890 0.004959 -0.011532 -0.013081 0.047906
#
#
# Mechanical properties :
#
#
# Convention : Reuss Voigt Hill
#
# Bulk Modulus (GPa) = 24.73985 57.10267 40.92126
# Shear Modulus (GPa) = 26.28001 39.53088 32.90545
#
# Velocity S-wave (km/s) = 3.34814 4.10637 3.74649
# Velocity P-wave (km/s) = 5.04973 6.84404 6.01417
#
# Compressibility (1/GPa) = 0.04042062
#
# Stress axis : x y z
#
# Youngs Moduli (GPa) = 167.85358 34.03623 59.99075
#
# Poissons Ratio (x) = 0.05230 0.23582
# Poissons Ratio (y) = 0.25791 0.01954
# Poissons Ratio (z) = 0.65983 0.01109
#
# Static dielectric constant tensor:
#      x y z
#    x 2.059900 0.088780 0.054340 
#    y 0.088780 2.083380 0.004620 
#    z 0.054340 0.004620 1.859850 
# 
# From -- ./inp_files/571637.got.cif
#   From: 2010.05.17/outbox.cif.g08.bks.cpg/sg2_286_cif.got.tgz:571637.got - 2010.06.03 11:33:40.
