data_PCOD9063752
_publ_section_title
;
Structure prediction by ZEFSAII (Michael W. Deem and Ramdas Pophale) SiO2 
 PCOD9063752
Probable space group: P -1
;
_chemical_formula_sum "Si O2"
_cell_formula_units_Z 14
_cell_length_a 9.646474
_cell_length_b 12.329535
_cell_length_c 9.589035
_cell_angle_alpha 110.911661
_cell_angle_beta 122.496368
_cell_angle_gamma 111.250060
_cell_volume 638.678123
_symmetry_space_group_name_H-M "P -1"
_symmetry_group_IT_number 2
_symmetry_cell_setting 'triclinic'
loop_
_space_group_symop_operation_xyz
x,y,z
-x,-y,-z
loop_
_atom_site_type_symbol
_atom_site_label
_atom_site_fract_x
_atom_site_fract_y
_atom_site_fract_z
Si Si1 0.534762 0.584986 0.912194
Si Si2 0.561545 0.273920 0.413131
Si Si3 0.618655 0.933090 0.521183
Si Si4 0.864895 0.793280 0.952757
Si Si5 0.755404 0.930325 0.294464
Si Si6 0.739186 0.162036 0.261497
Si Si7 0.866549 0.623817 0.622242
O O1 0.737076 0.654508 0.941577
O O2 0.304827 0.449339 0.635614
O O3 0.500000 0.500000 0.000000
O O4 0.600791 0.753040 0.057511
O O5 0.316332 0.191831 0.172424
O O6 0.677732 0.222538 0.375357
O O7 0.740069 0.465781 0.574754
O O8 0.519273 0.223059 0.526568
O O9 0.500000 0.000000 0.500000
O O10 0.622188 0.901570 0.347995
O O11 0.881556 0.057737 0.780208
O O12 0.891907 0.744336 0.795304
O O13 0.835030 0.086808 0.330747
O O14 0.000000 0.000000 0.500000
O O15 0.893025 0.290239 0.279796
O O16 0.500000 0.000000 0.000000
#
# Coordination Sequence:
#
# PCOD9063752 Si02
#       7
#     2   2   2   2   2   2   2
#     4  11  24  44  73 108 145 185 241 298 357 424
#     4  11  24  45  69 104 143 186 241 295 353 425
#     4  12  26  47  71 108 145 185 244 299 357 425
#     4  11  25  47  72 105 141 197 240 291 358 428
#     4  12  26  45  73 104 144 192 238 297 360 424
#     4  12  25  45  71 104 141 187 244 291 355 434
#     4  11  26  45  74 105 144 191 242 295 359 424
#
# _framework density 21.920272000000001
#
# number of rings (size 3 to 8) (size 9 to 14) (size 15 to 20)
#    0.000    0.571    2.857    6.000    6.000    0.000 
#    0.000    0.714    0.000    0.000    0.000    0.000 
#    0.000    0.000    0.000    0.000    0.000    0.000 
#
# Total GULP energy -78195.658163 kJ/mol
# GULP energy per Si atom -5585.404155 kJ/mol
# Density = 2.187038 g / cm^3
# Si number density = 21.920272 Si / 1000 Ang^3
#
#
#
# Elastic Constant Matrix: (Units=GPa)
#
#
# Indices 1 2 3 4 5 6 
#
# 1 73.0880 -7.7896 10.7227 6.8855 -7.3611 10.8719
# 2 -7.7896 89.5335 -3.1564 -6.5459 11.2333 20.6897
# 3 10.7227 -3.1564 66.5290 13.3246 -13.4193 6.3350
# 4 6.8855 -6.5459 13.3246 25.2917 2.8760 3.7591
# 5 -7.3611 11.2333 -13.4193 2.8760 47.4757 -1.8933
# 6 10.8719 20.6897 6.3350 3.7591 -1.8933 51.4337
#
#
#
# Elastic Compliance Matrix: (Units=1/GPa)
#
#
# Indices 1 2 3 4 5 6 
#
# 1 0.014955 0.001648 -0.001129 -0.002727 0.001638 -0.003425
# 2 0.001648 0.013528 -0.000736 0.004779 -0.003690 -0.006184
# 3 -0.001129 -0.000736 0.018455 -0.010149 0.005799 -0.000783
# 4 -0.002727 0.004779 -0.010149 0.048298 -0.007504 -0.003902
# 5 0.001638 -0.003690 0.005799 -0.007504 0.024359 0.001869
# 6 -0.003425 -0.006184 -0.000783 -0.003902 0.001869 0.023105
#
#
# Mechanical properties :
#
#
# Convention : Reuss Voigt Hill
#
# Bulk Modulus (GPa) = 21.50432 25.41153 23.45793
# Shear Modulus (GPa) = 31.51878 40.13180 35.82529
#
# Velocity S-wave (km/s) = 3.79606 4.28344 4.04709
# Velocity P-wave (km/s) = 5.38933 6.00680 5.70642
#
# Compressibility (1/GPa) = 0.04650229
#
# Stress axis : x y z
#
# Youngs Moduli (GPa) = 66.86785 73.92132 54.18571
#
# Poissons Ratio (x) = -0.12181 0.06119
# Poissons Ratio (y) = -0.11019 0.03990
# Poissons Ratio (z) = 0.07552 0.05443
#
# Static dielectric constant tensor:
#      x y z
#    x 1.604650 0.470180 -0.170360 
#    y 0.470180 -0.006470 0.791360 
#    z -0.170360 0.791360 1.421390 
# 
# From -- ./inp_files/158956.got.cif
#   From: 2010.05.17/outbox.cif.g08.bks.cpg/sg2_80_cif.got.tgz:158956.got - 2010.06.03 11:33:40.
