data_PCOD9063907
_publ_section_title
;
Structure prediction by ZEFSAII (Michael W. Deem and Ramdas Pophale) SiO2 
 PCOD9063907
Probable space group: P -1
;
_chemical_formula_sum "Si O2"
_cell_formula_units_Z 14
_cell_length_a 12.773707
_cell_length_b 6.978944
_cell_length_c 11.694144
_cell_angle_alpha 98.781985
_cell_angle_beta 147.612279
_cell_angle_gamma 96.148007
_cell_volume 493.974393
_symmetry_space_group_name_H-M "P -1"
_symmetry_group_IT_number 2
_symmetry_cell_setting 'triclinic'
loop_
_space_group_symop_operation_xyz
x,y,z
-x,-y,-z
loop_
_atom_site_type_symbol
_atom_site_label
_atom_site_fract_x
_atom_site_fract_y
_atom_site_fract_z
Si Si1 0.595334 0.963243 0.902592
Si Si2 0.670380 0.812203 0.399657
Si Si3 0.367506 0.748807 0.314982
Si Si4 0.765070 0.790726 0.238271
Si Si5 0.065146 0.082740 0.937072
Si Si6 0.076423 0.539346 0.702675
Si Si7 0.077822 0.539519 0.218457
O O1 0.754939 0.215078 0.099881
O O2 0.699226 0.878556 0.889462
O O3 0.604132 0.848417 0.018084
O O4 0.383915 0.987648 0.668335
O O5 0.505713 0.700580 0.341715
O O6 0.671138 0.704910 0.269614
O O7 0.902699 0.906191 0.682386
O O8 0.287409 0.597504 0.338781
O O9 0.500000 0.000000 0.500000
O O10 0.134440 0.681852 0.031277
O O11 0.814460 0.621833 0.196201
O O12 0.000000 0.000000 0.500000
O O13 0.007623 0.282323 0.877161
O O14 0.000000 0.000000 0.000000
O O15 0.000000 0.500000 0.500000
O O16 0.889181 0.472622 0.618644
#
# Coordination Sequence:
#
# PCOD9063907 Si02
#       7
#     2   2   2   2   2   2   2
#     4  12  26  46  80 113 160 214 262 337 406 469
#     4  12  25  48  78 113 158 209 271 327 404 485
#     4  11  24  44  79 110 150 210 263 327 394 479
#     4  12  24  49  74 113 158 210 268 330 404 483
#     4  12  26  47  81 113 162 210 264 334 402 483
#     4  12  24  44  80 114 156 212 261 326 412 475
#     4  11  24  48  78 113 163 206 267 332 404 474
#
# _framework density 28.341552
#
# number of rings (size 3 to 8) (size 9 to 14) (size 15 to 20)
#    0.000    0.286    7.143    1.286    2.000    0.571 
#    0.000    0.714    6.286    0.000    0.000    0.000 
#    0.000    0.000    0.000    0.000    0.000    0.000 
#
# Total GULP energy -78526.613131 kJ/mol
# GULP energy per Si atom -5609.043795 kJ/mol
# Density = 2.827705 g / cm^3
# Si number density = 28.341552 Si / 1000 Ang^3
#
#
#
# Elastic Constant Matrix: (Units=GPa)
#
#
# Indices 1 2 3 4 5 6 
#
# 1 221.7810 33.8455 33.4172 -9.7829 -30.1188 30.0215
# 2 33.8455 120.6042 26.4860 -3.4108 -12.7282 -3.4240
# 3 33.4172 26.4860 135.1001 -10.3613 -19.2553 21.2035
# 4 -9.7829 -3.4108 -10.3613 60.2191 9.4553 3.7995
# 5 -30.1188 -12.7282 -19.2553 9.4553 54.0753 -17.8436
# 6 30.0215 -3.4240 21.2035 3.7995 -17.8436 54.8150
#
#
#
# Elastic Compliance Matrix: (Units=1/GPa)
#
#
# Indices 1 2 3 4 5 6 
#
# 1 0.005335 -0.001282 -0.000419 0.000613 0.001638 -0.002349
# 2 -0.001282 0.009268 -0.001676 -0.000411 0.001780 0.002537
# 3 -0.000419 -0.001676 0.008562 0.001295 0.001247 -0.002871
# 4 0.000613 -0.000411 0.001295 0.017647 -0.003437 -0.003205
# 5 0.001638 0.001780 0.001247 -0.003437 0.023000 0.006457
# 6 -0.002349 0.002537 -0.002871 -0.003205 0.006457 0.023123
#
#
# Mechanical properties :
#
#
# Convention : Reuss Voigt Hill
#
# Bulk Modulus (GPa) = 60.93440 73.88698 67.41069
# Shear Modulus (GPa) = 50.42462 59.40434 54.91448
#
# Velocity S-wave (km/s) = 4.22260 4.58319 4.40659
# Velocity P-wave (km/s) = 6.73205 7.35760 7.05177
#
# Compressibility (1/GPa) = 0.01641109
#
# Stress axis : x y z
#
# Youngs Moduli (GPa) = 187.43358 107.90364 116.79767
#
# Poissons Ratio (x) = 0.13829 0.04896
# Poissons Ratio (y) = 0.24022 0.19574
# Poissons Ratio (z) = 0.07857 0.18084
#
# Static dielectric constant tensor:
#      x y z
#    x 2.229240 0.006180 0.018010 
#    y 0.006180 2.268210 -0.003750 
#    z 0.018010 -0.003750 2.230650 
# 
# From -- ./inp_files/415047.got.cif
#   From: 2010.05.17/outbox.cif.g08.bks.cpg/sg2_208_cif.got.tgz:415047.got - 2010.06.03 11:33:40.
