data_PCOD9063261
_publ_section_title
;
Structure prediction by ZEFSAII (Michael W. Deem and Ramdas Pophale) SiO2 
 PCOD9063261
Probable space group: P -1
;
_chemical_formula_sum "Si O2"
_cell_formula_units_Z 16
_cell_length_a 13.736448
_cell_length_b 9.098560
_cell_length_c 20.582573
_cell_angle_alpha 127.804068
_cell_angle_beta 23.659920
_cell_angle_gamma 134.644512
_cell_volume 730.239784
_symmetry_space_group_name_H-M "P -1"
_symmetry_group_IT_number 2
_symmetry_cell_setting 'triclinic'
loop_
_space_group_symop_operation_xyz
x,y,z
-x,-y,-z
loop_
_atom_site_type_symbol
_atom_site_label
_atom_site_fract_x
_atom_site_fract_y
_atom_site_fract_z
Si Si1 0.823422 0.615988 0.335256
Si Si2 0.643447 0.767128 0.184874
Si Si3 0.702091 0.094814 0.961608
Si Si4 0.875041 0.462833 0.638366
Si Si5 0.861241 0.765857 0.495450
Si Si6 0.897735 0.203609 0.180736
Si Si7 0.244872 0.284629 0.117769
Si Si8 0.683414 0.428212 0.156756
O O1 0.500000 0.500000 0.500000
O O2 0.915254 0.741007 0.380526
O O3 0.888245 0.420320 0.241860
O O4 0.992597 0.770394 0.215979
O O5 0.435630 0.683698 0.229685
O O6 0.614907 0.606018 0.215783
O O7 0.643610 0.977621 0.268446
O O8 0.923393 0.796746 0.989909
O O9 0.677132 0.899754 0.965486
O O10 0.621271 0.249398 0.092960
O O11 0.500000 0.000000 0.000000
O O12 0.880920 0.660057 0.726387
O O13 0.000000 0.500000 0.500000
O O14 0.014407 0.358641 0.571002
O O15 0.535825 0.669878 0.678629
O O16 0.000000 0.000000 0.500000
O O17 0.036594 0.208683 0.165574
O O18 0.500000 0.500000 0.000000
O O19 0.000000 0.500000 0.000000
#
# Coordination Sequence:
#
# PCOD9063261 Si02
#       8
#     2   2   2   2   2   2   2   2
#     4  12  27  49  70 108 148 188 237 300 365 429
#     4  11  24  43  74 103 140 189 237 294 361 421
#     4  12  26  45  75 101 140 187 238 292 353 427
#     4  12  26  46  70 103 147 184 240 297 362 430
#     4  12  29  45  74 107 146 189 236 303 366 424
#     4  11  24  45  71 105 139 186 239 293 358 429
#     4  12  25  46  73 105 139 187 245 296 354 430
#     4  12  25  47  71 105 142 187 241 290 357 432
#
# _framework density 21.910613000000001
#
# number of rings (size 3 to 8) (size 9 to 14) (size 15 to 20)
#    0.000    0.250    5.000    3.750    5.250    1.000 
#    0.000    1.875    0.000    0.000    0.000    0.000 
#    0.000    0.000    0.000    0.000    0.000    0.000 
#
# Total GULP energy -89456.599152 kJ/mol
# GULP energy per Si atom -5591.037447 kJ/mol
# Density = 2.186074 g / cm^3
# Si number density = 21.910613 Si / 1000 Ang^3
#
#
#
# Elastic Constant Matrix: (Units=GPa)
#
#
# Indices 1 2 3 4 5 6 
#
# 1 45.5601 9.8435 -21.7162 -7.3590 1.1185 -0.5258
# 2 9.8435 117.0622 8.7430 2.5772 6.9917 9.5842
# 3 -21.7162 8.7430 56.7485 -6.1916 13.3651 -12.4278
# 4 -7.3590 2.5772 -6.1916 22.9282 9.7109 9.7572
# 5 1.1185 6.9917 13.3651 9.7109 45.2301 4.9955
# 6 -0.5258 9.5842 -12.4278 9.7572 4.9955 28.8366
#
#
#
# Elastic Compliance Matrix: (Units=1/GPa)
#
#
# Indices 1 2 3 4 5 6 
#
# 1 0.036694 -0.004965 0.021136 0.020065 -0.011424 0.006618
# 2 -0.004965 0.009715 -0.005000 -0.002469 0.001163 -0.004840
# 3 0.021136 -0.005000 0.035052 0.017397 -0.015381 0.013932
# 4 0.020065 -0.002469 0.017397 0.067549 -0.018548 -0.010959
# 5 -0.011424 0.001163 -0.015381 -0.018548 0.031445 -0.006395
# 6 0.006618 -0.004840 0.013932 -0.010959 -0.006395 0.047228
#
#
# Mechanical properties :
#
#
# Convention : Reuss Voigt Hill
#
# Bulk Modulus (GPa) = 9.63369 23.67903 16.65636
# Shear Modulus (GPa) = 20.83830 34.23235 27.53532
#
# Velocity S-wave (km/s) = 3.08727 3.95696 3.54886
# Velocity P-wave (km/s) = 4.13699 5.63092 4.94075
#
# Compressibility (1/GPa) = 0.10380239
#
# Stress axis : x y z
#
# Youngs Moduli (GPa) = 27.25214 102.93757 28.52905
#
# Poissons Ratio (x) = 0.51113 -0.60300
# Poissons Ratio (y) = 0.13532 0.14265
# Poissons Ratio (z) = -0.57601 0.51471
#
# Static dielectric constant tensor:
#      x y z
#    x 1.742990 -0.021830 0.072980 
#    y -0.021830 1.921780 -0.020260 
#    z 0.072980 -0.020260 1.620000 
# 
# From -- ./inp_files/403336.got.cif
#   From: 2010.05.17/outbox.cif.g08.bks.cpg/sg2_202_cif.got.tgz:403336.got - 2010.06.03 11:33:40.
