data_PCOD9063033
_publ_section_title
;
Structure prediction by ZEFSAII (Michael W. Deem and Ramdas Pophale) SiO2 
 PCOD9063033
Probable space group: P -1
;
_chemical_formula_sum "Si O2"
_cell_formula_units_Z 16
_cell_length_a 8.683530
_cell_length_b 12.249971
_cell_length_c 8.830393
_cell_angle_alpha 62.865179
_cell_angle_beta 110.103729
_cell_angle_gamma 118.920882
_cell_volume 722.477035
_symmetry_space_group_name_H-M "P -1"
_symmetry_group_IT_number 2
_symmetry_cell_setting 'triclinic'
loop_
_space_group_symop_operation_xyz
x,y,z
-x,-y,-z
loop_
_atom_site_type_symbol
_atom_site_label
_atom_site_fract_x
_atom_site_fract_y
_atom_site_fract_z
Si Si1 0.820008 0.361466 0.781348
Si Si2 0.015345 0.663150 0.708455
Si Si3 0.010414 0.758758 0.309351
Si Si4 0.441893 0.578900 0.558875
Si Si5 0.318431 0.344199 0.888772
Si Si6 0.770474 0.758800 0.746568
Si Si7 0.642217 0.981745 0.676893
Si Si8 0.378694 0.759106 0.927627
O O1 0.900811 0.506546 0.795865
O O2 0.970707 0.334092 0.759763
O O3 0.683785 0.362784 0.604539
O O4 0.722185 0.250429 0.942744
O O5 0.946866 0.754980 0.732131
O O6 0.983345 0.689993 0.506720
O O7 0.222507 0.701365 0.787464
O O8 0.830657 0.774074 0.184469
O O9 0.196784 0.884077 0.303098
O O10 0.500000 0.500000 0.500000
O O11 0.344883 0.479104 0.724987
O O12 0.616166 0.689050 0.617807
O O13 0.266877 0.327295 0.057639
O O14 0.507901 0.331118 0.954453
O O15 0.744816 0.893331 0.697045
O O16 0.520717 0.898630 0.826962
O O17 0.500000 0.000000 0.500000
#
# Coordination Sequence:
#
# PCOD9063033 Si02
#       8
#     2   2   2   2   2   2   2   2
#     4  12  25  42  71 104 142 174 228 288 350 406
#     4  12  24  46  69 107 136 178 230 284 354 408
#     4  12  26  46  71  99 140 188 234 278 338 408
#     4  12  21  41  68 108 140 175 223 285 353 412
#     4  11  24  43  69 104 139 181 227 289 345 407
#     4  11  25  42  72  99 143 181 228 282 345 410
#     4  11  25  50  70 101 138 185 235 278 337 408
#     4  11  25  44  72 101 139 181 230 286 341 411
#
# _framework density 22.146032000000002
#
# number of rings (size 3 to 8) (size 9 to 14) (size 15 to 20)
#    0.000    0.500    5.000    2.625    1.750    5.000 
#    0.000    0.000    0.000    0.000    0.000    0.000 
#    0.000    0.000    0.000    0.000    0.000    0.000 
#
# Total GULP energy -89495.123857 kJ/mol
# GULP energy per Si atom -5593.445241 kJ/mol
# Density = 2.209563 g / cm^3
# Si number density = 22.146032 Si / 1000 Ang^3
#
#
#
# Elastic Constant Matrix: (Units=GPa)
#
#
# Indices 1 2 3 4 5 6 
#
# 1 108.1541 31.1249 33.3347 6.3158 3.2457 2.3966
# 2 31.1249 44.1039 9.3109 -6.5929 14.0528 11.5517
# 3 33.3347 9.3109 97.4276 7.9145 3.3104 -4.1207
# 4 6.3158 -6.5929 7.9145 30.6304 15.9540 3.2274
# 5 3.2457 14.0528 3.3104 15.9540 46.6102 15.1242
# 6 2.3966 11.5517 -4.1207 3.2274 15.1242 42.9098
#
#
#
# Elastic Compliance Matrix: (Units=1/GPa)
#
#
# Indices 1 2 3 4 5 6 
#
# 1 0.014004 -0.012251 -0.003146 -0.007525 0.005212 0.000943
# 2 -0.012251 0.041811 -0.001229 0.021316 -0.016906 -0.006334
# 3 -0.003146 -0.001229 0.011767 -0.002937 0.000177 0.001795
# 4 -0.007525 0.021316 -0.002937 0.051626 -0.022908 -0.001409
# 5 0.005212 -0.016906 0.000177 -0.022908 0.036212 -0.006763
# 6 0.000943 -0.006334 0.001795 -0.001409 -0.006763 0.027619
#
#
# Mechanical properties :
#
#
# Convention : Reuss Voigt Hill
#
# Bulk Modulus (GPa) = 29.13039 44.13631 36.63335
# Shear Modulus (GPa) = 21.95540 35.75777 28.85658
#
# Velocity S-wave (km/s) = 3.15205 4.02261 3.61364
# Velocity P-wave (km/s) = 5.14097 6.44579 5.83000
#
# Compressibility (1/GPa) = 0.03432841
#
# Stress axis : x y z
#
# Youngs Moduli (GPa) = 71.41042 23.91705 84.98635
#
# Poissons Ratio (x) = 0.29300 0.26740
# Poissons Ratio (y) = 0.87483 0.10447
# Poissons Ratio (z) = 0.22469 0.02940
#
# Static dielectric constant tensor:
#      x y z
#    x 1.997820 -0.032300 0.032500 
#    y -0.032300 1.815010 -0.011160 
#    z 0.032500 -0.011160 1.806810 
# 
# From -- ./inp_files/185272.got.cif
#   From: 2010.05.17/outbox.cif.g08.bks.cpg/sg2_93_cif.got.tgz:185272.got - 2010.06.03 11:33:40.
