data_PCOD9063361
_publ_section_title
;
Structure prediction by ZEFSAII (Michael W. Deem and Ramdas Pophale) SiO2 
 PCOD9063361
Probable space group: P -1
;
_chemical_formula_sum "Si O2"
_cell_formula_units_Z 16
_cell_length_a 9.494461
_cell_length_b 9.563977
_cell_length_c 12.294703
_cell_angle_alpha 72.992224
_cell_angle_beta 91.677255
_cell_angle_gamma 42.566701
_cell_volume 668.507443
_symmetry_space_group_name_H-M "P -1"
_symmetry_group_IT_number 2
_symmetry_cell_setting 'triclinic'
loop_
_space_group_symop_operation_xyz
x,y,z
-x,-y,-z
loop_
_atom_site_type_symbol
_atom_site_label
_atom_site_fract_x
_atom_site_fract_y
_atom_site_fract_z
Si Si1 0.518102 0.802623 0.273506
Si Si2 0.820346 0.019291 0.529213
Si Si3 0.521699 0.512489 0.691118
Si Si4 0.692574 0.271828 0.123708
Si Si5 0.028308 0.209799 0.808428
Si Si6 0.809556 0.769760 0.412393
Si Si7 0.253332 0.269176 0.910374
Si Si8 0.035381 0.228196 0.174435
O O1 0.501321 0.639463 0.309819
O O2 0.590283 0.846933 0.366359
O O3 0.706513 0.687559 0.216391
O O4 0.279448 0.058350 0.170365
O O5 0.793691 0.904742 0.473370
O O6 0.898623 0.882669 0.675721
O O7 0.586162 0.298417 0.448462
O O8 0.000000 0.000000 0.500000
O O9 0.382597 0.661704 0.766006
O O10 0.780340 0.343483 0.761576
O O11 0.917191 0.182924 0.135077
O O12 0.760489 0.069002 0.112289
O O13 0.500000 0.500000 0.000000
O O14 0.096022 0.221954 0.691500
O O15 0.060828 0.303750 0.880174
O O16 0.000000 0.500000 0.500000
O O17 0.136472 0.500726 0.913393
O O18 0.500000 0.000000 0.000000
#
# Coordination Sequence:
#
# PCOD9063361 Si02
#       8
#     2   2   2   2   2   2   2   2
#     4  11  26  44  69 102 141 181 233 281 349 408
#     4  12  23  43  72 100 148 182 224 288 343 417
#     4  12  25  45  72 106 138 184 231 284 352 413
#     4  12  25  46  72 101 139 178 234 295 345 407
#     4  11  25  43  69 107 133 179 239 283 347 411
#     4  11  24  44  66 102 143 184 225 279 341 412
#     4  11  25  47  70  97 141 185 232 293 345 410
#     4  12  25  45  69 105 140 184 231 281 351 410
#
# _framework density 23.933913
#
# number of rings (size 3 to 8) (size 9 to 14) (size 15 to 20)
#    0.000    0.500    5.000    3.000    3.500    3.000 
#    0.000    0.000    0.000    0.000    0.000    0.000 
#    0.000    0.000    0.000    0.000    0.000    0.000 
#
# Total GULP energy -89321.168806 kJ/mol
# GULP energy per Si atom -5582.573050 kJ/mol
# Density = 2.387944 g / cm^3
# Si number density = 23.933913 Si / 1000 Ang^3
#
#
#
# Elastic Constant Matrix: (Units=GPa)
#
#
# Indices 1 2 3 4 5 6 
#
# 1 122.8245 22.0262 15.6600 2.0290 21.5143 3.9914
# 2 22.0262 78.4188 2.9767 -22.2203 -3.6974 14.1270
# 3 15.6600 2.9767 74.9121 -20.8552 9.2645 2.6145
# 4 2.0290 -22.2203 -20.8552 51.2216 0.6884 3.7363
# 5 21.5143 -3.6974 9.2645 0.6884 33.6822 -5.4732
# 6 3.9914 14.1270 2.6145 3.7363 -5.4732 43.8507
#
#
#
# Elastic Compliance Matrix: (Units=1/GPa)
#
#
# Indices 1 2 3 4 5 6 
#
# 1 0.010260 -0.003878 -0.001973 -0.002797 -0.006400 -0.000127
# 2 -0.003878 0.017538 0.002568 0.009205 0.002547 -0.005917
# 3 -0.001973 0.002568 0.016471 0.008149 -0.003605 -0.002774
# 4 -0.002797 0.009205 0.008149 0.027369 -0.000921 -0.005644
# 5 -0.006400 0.002547 -0.003605 -0.000921 0.035802 0.004524
# 6 -0.000127 -0.005917 -0.002774 -0.005644 0.004524 0.025933
#
#
# Mechanical properties :
#
#
# Convention : Reuss Voigt Hill
#
# Bulk Modulus (GPa) = 26.52431 39.72013 33.12222
# Shear Modulus (GPa) = 32.78505 41.45042 37.11773
#
# Velocity S-wave (km/s) = 3.70512 4.16609 3.94235
# Velocity P-wave (km/s) = 5.42312 6.30662 5.88149
#
# Compressibility (1/GPa) = 0.03770127
#
# Stress axis : x y z
#
# Youngs Moduli (GPa) = 97.46375 57.01903 60.71324
#
# Poissons Ratio (x) = 0.22114 0.11982
# Poissons Ratio (y) = 0.37800 -0.15591
# Poissons Ratio (z) = 0.19234 -0.14642
#
# Static dielectric constant tensor:
#      x y z
#    x 1.929140 -0.051710 -0.023910 
#    y -0.051710 1.939280 0.030470 
#    z -0.023910 0.030470 1.973880 
# 
# From -- ./inp_files/188225.got.cif
#   From: 2010.05.17/outbox.cif.g08.bks.cpg/sg2_95_cif.got.tgz:188225.got - 2010.06.03 11:33:40.
