data_PCOD9063098
_publ_section_title
;
Structure prediction by ZEFSAII (Michael W. Deem and Ramdas Pophale) SiO2 
 PCOD9063098
Probable space group: P -1
;
_chemical_formula_sum "Si O2"
_cell_formula_units_Z 13
_cell_length_a 18.807498
_cell_length_b 10.111856
_cell_length_c 11.904231
_cell_angle_alpha 143.453809
_cell_angle_beta 144.365276
_cell_angle_gamma 30.567637
_cell_volume 628.463443
_symmetry_space_group_name_H-M "P -1"
_symmetry_group_IT_number 2
_symmetry_cell_setting 'triclinic'
loop_
_space_group_symop_operation_xyz
x,y,z
-x,-y,-z
loop_
_atom_site_type_symbol
_atom_site_label
_atom_site_fract_x
_atom_site_fract_y
_atom_site_fract_z
Si Si1 0.000000 0.000000 0.000000
Si Si2 0.618375 0.774196 0.329560
Si Si3 0.147103 0.181960 0.473430
Si Si4 0.923409 0.821760 0.147065
Si Si5 0.581495 0.675112 0.455713
Si Si6 0.177478 0.929010 0.570188
Si Si7 0.714094 0.230829 0.961237
O O1 0.099926 0.008710 0.233164
O O2 0.151048 0.850317 0.005798
O O3 0.727218 0.826638 0.442315
O O4 0.668648 0.655656 0.440778
O O5 0.627268 0.539570 0.110955
O O6 0.457428 0.074244 0.344177
O O7 0.000000 0.500000 0.500000
O O8 0.191900 0.080526 0.588850
O O9 0.044675 0.893542 0.349416
O O10 0.859459 0.902532 0.246896
O O11 0.796517 0.015983 0.023693
O O12 0.000000 0.500000 0.000000
O O13 0.672828 0.381964 0.432014
O O14 0.417274 0.767794 0.266092
#
# Coordination Sequence:
#
# PCOD9063098 Si02
#       7
#     1   2   2   2   2   2   2
#     4  12  24  42  68 102 132 182 224 286 338 410
#     4  11  24  43  70  97 136 189 225 274 348 411
#     4  12  25  45  71  98 141 183 230 282 350 408
#     4  11  26  40  70 100 141 178 231 287 339 403
#     4  11  26  43  73  98 142 182 231 281 342 408
#     4  11  26  45  65 108 137 177 234 287 337 408
#     4  12  24  46  70 104 136 181 235 280 341 419
#
# _framework density 20.685372000000001
#
# number of rings (size 3 to 8) (size 9 to 14) (size 15 to 20)
#    0.000    0.615    6.154    0.462    8.615    0.615 
#    0.000    0.769    0.000    0.000    0.000    0.000 
#    0.000    0.000    0.000    0.000    0.000    0.000 
#
# Total GULP energy -72419.935768 kJ/mol
# GULP energy per Si atom -5570.764290 kJ/mol
# Density = 2.063829 g / cm^3
# Si number density = 20.685372 Si / 1000 Ang^3
#
#
#
# Elastic Constant Matrix: (Units=GPa)
#
#
# Indices 1 2 3 4 5 6 
#
# 1 162.2698 58.9960 36.0733 11.9113 -15.2982 1.4086
# 2 58.9960 136.9760 49.8314 12.5567 -18.4508 14.7897
# 3 36.0733 49.8314 79.0467 3.9831 -14.6684 -11.6633
# 4 11.9113 12.5567 3.9831 31.4422 -13.7380 -5.4752
# 5 -15.2982 -18.4508 -14.6684 -13.7380 39.8632 0.9355
# 6 1.4086 14.7897 -11.6633 -5.4752 0.9355 27.7750
#
#
#
# Elastic Compliance Matrix: (Units=1/GPa)
#
#
# Indices 1 2 3 4 5 6 
#
# 1 0.007596 -0.002375 -0.001801 -0.001445 0.000659 -0.000184
# 2 -0.002375 0.013247 -0.008611 -0.005061 0.000578 -0.011567
# 3 -0.001801 -0.008611 0.021727 0.006183 0.005100 0.014847
# 4 -0.001445 -0.005061 0.006183 0.041760 0.013461 0.013143
# 5 0.000659 0.000578 0.005100 0.013461 0.032043 0.003375
# 6 -0.000184 -0.011567 0.014847 0.013143 0.003375 0.050884
#
#
# Mechanical properties :
#
#
# Convention : Reuss Voigt Hill
#
# Bulk Modulus (GPa) = 58.84174 74.23264 66.53719
# Shear Modulus (GPa) = 25.18914 35.37553 30.28233
#
# Velocity S-wave (km/s) = 3.49338 4.13991 3.83031
# Velocity P-wave (km/s) = 6.69174 7.66917 7.19707
#
# Compressibility (1/GPa) = 0.01699474
#
# Stress axis : x y z
#
# Youngs Moduli (GPa) = 131.64087 75.48770 46.02593
#
# Poissons Ratio (x) = 0.17932 0.08290
# Poissons Ratio (y) = 0.31271 0.39634
# Poissons Ratio (z) = 0.23710 0.65005
#
# Static dielectric constant tensor:
#      x y z
#    x 1.749240 -0.024530 0.010230 
#    y -0.024530 1.738050 0.016390 
#    z 0.010230 0.016390 1.756860 
# 
# From -- ./inp_files/176212.got.cif
#   From: 2010.05.17/outbox.cif.g08.bks.cpg/sg2_89_cif.got.tgz:176212.got - 2010.06.03 11:33:40.
