data_PCOD9063783
_publ_section_title
;
Structure prediction by ZEFSAII (Michael W. Deem and Ramdas Pophale) SiO2 
 PCOD9063783
Probable space group: P -1
;
_chemical_formula_sum "Si O2"
_cell_formula_units_Z 16
_cell_length_a 9.803914
_cell_length_b 13.702310
_cell_length_c 8.680727
_cell_angle_alpha 128.266579
_cell_angle_beta 116.465542
_cell_angle_gamma 98.887693
_cell_volume 647.887474
_symmetry_space_group_name_H-M "P -1"
_symmetry_group_IT_number 2
_symmetry_cell_setting 'triclinic'
loop_
_space_group_symop_operation_xyz
x,y,z
-x,-y,-z
loop_
_atom_site_type_symbol
_atom_site_label
_atom_site_fract_x
_atom_site_fract_y
_atom_site_fract_z
Si Si1 0.371706 0.638471 0.792693
Si Si2 0.696621 0.893005 0.994223
Si Si3 0.253736 0.324957 0.385728
Si Si4 0.475780 0.078047 0.365891
Si Si5 0.928632 0.336598 0.884139
Si Si6 0.577959 0.711306 0.269032
Si Si7 0.958517 0.846266 0.408780
Si Si8 0.874063 0.278587 0.153847
O O1 0.560540 0.798617 0.978555
O O2 0.346482 0.500098 0.547797
O O3 0.187986 0.636336 0.689248
O O4 0.401423 0.617495 0.968074
O O5 0.772173 0.800207 0.869635
O O6 0.573868 0.892693 0.797588
O O7 0.865941 0.069699 0.300424
O O8 0.398163 0.349028 0.616492
O O9 0.042441 0.267508 0.280304
O O10 0.705287 0.189471 0.596141
O O11 0.408464 0.140306 0.524707
O O12 0.334563 0.892099 0.134449
O O13 0.043012 0.274021 0.818142
O O14 0.937991 0.350319 0.085661
O O15 0.000000 0.500000 0.000000
O O16 0.758967 0.757088 0.308081
O O17 0.000000 0.000000 0.500000
#
# Coordination Sequence:
#
# PCOD9063783 Si02
#       8
#     2   2   2   2   2   2   2   2
#     4  12  25  43  72 104 148 189 240 298 372 431
#     4  11  25  45  72 107 140 193 242 305 358 437
#     4  11  26  45  70 105 147 185 244 302 367 432
#     4  11  25  49  74 104 147 192 247 298 369 443
#     4  12  29  46  75 112 154 187 244 315 376 429
#     4  11  24  44  74 101 141 194 247 294 364 437
#     4  12  24  44  74 106 144 193 248 297 363 446
#     4  12  26  47  75 102 147 197 241 297 370 441
#
# _framework density 24.695647000000001
#
# number of rings (size 3 to 8) (size 9 to 14) (size 15 to 20)
#    0.000    0.500    2.500    5.250    3.500    7.000 
#    0.000    0.000    0.000    0.000    0.000    0.000 
#    0.000    0.000    0.000    0.000    0.000    0.000 
#
# Total GULP energy -89537.992968 kJ/mol
# GULP energy per Si atom -5596.124561 kJ/mol
# Density = 2.463944 g / cm^3
# Si number density = 24.695647 Si / 1000 Ang^3
#
#
#
# Elastic Constant Matrix: (Units=GPa)
#
#
# Indices 1 2 3 4 5 6 
#
# 1 127.1066 7.1703 7.1743 5.9070 -14.3571 -1.6882
# 2 7.1703 77.8441 9.9767 6.7395 -6.7671 -0.6144
# 3 7.1743 9.9767 81.0054 -2.6541 0.4116 -3.3575
# 4 5.9070 6.7395 -2.6541 40.2736 -7.1723 4.2758
# 5 -14.3571 -6.7671 0.4116 -7.1723 54.8969 4.7208
# 6 -1.6882 -0.6144 -3.3575 4.2758 4.7208 24.6683
#
#
#
# Elastic Compliance Matrix: (Units=1/GPa)
#
#
# Indices 1 2 3 4 5 6 
#
# 1 0.008195 -0.000418 -0.000703 -0.000852 0.001966 0.000226
# 2 -0.000418 0.013392 -0.001679 -0.002086 0.001265 0.000196
# 3 -0.000703 -0.001679 0.012713 0.000967 -0.000494 0.001567
# 4 -0.000852 -0.002086 0.000967 0.026534 0.003430 -0.005234
# 5 0.001966 0.001265 -0.000494 0.003430 0.019705 -0.004267
# 6 0.000226 0.000196 0.001567 -0.005234 -0.004267 0.042495
#
#
# Mechanical properties :
#
#
# Convention : Reuss Voigt Hill
#
# Bulk Modulus (GPa) = 34.84301 37.17763 36.01032
# Shear Modulus (GPa) = 36.17895 41.41007 38.79451
#
# Velocity S-wave (km/s) = 3.83168 4.09934 3.96776
# Velocity P-wave (km/s) = 5.80648 6.12316 5.96692
#
# Compressibility (1/GPa) = 0.02870016
#
# Stress axis : x y z
#
# Youngs Moduli (GPa) = 122.01990 74.67154 78.65927
#
# Poissons Ratio (x) = 0.03124 0.05529
# Poissons Ratio (y) = 0.05104 0.13207
# Poissons Ratio (z) = 0.08576 0.12537
#
# Static dielectric constant tensor:
#      x y z
#    x 1.942480 -0.061990 0.016510 
#    y -0.061990 1.996290 -0.013360 
#    z 0.016510 -0.013360 2.031590 
# 
# From -- ./inp_files/209144.got.cif
#   From: 2010.05.17/outbox.cif.g08.bks.cpg/sg2_105_cif.got.tgz:209144.got - 2010.06.03 11:33:40.
