data_PCOD9063585
_publ_section_title
;
Structure prediction by ZEFSAII (Michael W. Deem and Ramdas Pophale) SiO2 
 PCOD9063585
Probable space group: P -1
;
_chemical_formula_sum "Si O2"
_cell_formula_units_Z 13
_cell_length_a 12.149086
_cell_length_b 13.881463
_cell_length_c 15.988667
_cell_angle_alpha 22.603359
_cell_angle_beta 30.295747
_cell_angle_gamma 34.167802
_cell_volume 516.396637
_symmetry_space_group_name_H-M "P -1"
_symmetry_group_IT_number 2
_symmetry_cell_setting 'triclinic'
loop_
_space_group_symop_operation_xyz
x,y,z
-x,-y,-z
loop_
_atom_site_type_symbol
_atom_site_label
_atom_site_fract_x
_atom_site_fract_y
_atom_site_fract_z
Si Si1 0.969712 0.297072 0.567345
Si Si2 0.814349 0.541400 0.013715
Si Si3 0.664359 0.166614 0.306868
Si Si4 0.812488 0.226981 0.909059
Si Si5 0.186028 0.503524 0.664951
Si Si6 0.500000 0.500000 0.000000
Si Si7 0.536540 0.066725 0.825921
O O1 0.143724 0.493434 0.311627
O O2 0.835878 0.264091 0.765471
O O3 0.834469 0.412512 0.484821
O O4 0.115941 0.031734 0.665128
O O5 0.965554 0.531727 0.840367
O O6 0.661766 0.810685 0.909671
O O7 0.653750 0.330067 0.269146
O O8 0.000000 0.500000 0.000000
O O9 0.656312 0.371090 0.074831
O O10 0.500000 0.000000 0.500000
O O11 0.578061 0.234486 0.099799
O O12 0.000000 0.000000 0.000000
O O13 0.307427 0.214189 0.822178
O O14 0.317037 0.709519 0.455860
O O15 0.500000 0.000000 0.000000
#
# Coordination Sequence:
#
# PCOD9063585 Si02
#       7
#     2   2   2   2   2   1   2
#     4  11  25  47  70 106 150 203 254 326 390 471
#     4  12  26  51  84 113 156 215 262 329 406 473
#     4  12  27  49  76 114 163 203 266 327 398 474
#     4  11  24  44  71 101 144 197 259 306 390 459
#     4  11  26  49  78 111 159 202 263 335 401 472
#     4  12  24  48  70 106 150 202 254 320 384 476
#     4  11  25  50  76 117 156 198 269 327 395 477
#
# _framework density 25.174446
#
# number of rings (size 3 to 8) (size 9 to 14) (size 15 to 20)
#    0.000    0.615    4.615    2.308    0.000    2.462 
#    2.769    0.000    0.000    0.000    0.000    0.000 
#    0.000    0.000    0.000    0.000    0.000    0.000 
#
# Total GULP energy -72401.130104 kJ/mol
# GULP energy per Si atom -5569.317700 kJ/mol
# Density = 2.511715 g / cm^3
# Si number density = 25.174446 Si / 1000 Ang^3
#
#
#
# Elastic Constant Matrix: (Units=GPa)
#
#
# Indices 1 2 3 4 5 6 
#
# 1 156.9879 65.3859 57.5056 -23.9170 33.0926 3.9027
# 2 65.3859 149.1463 42.3876 -67.7910 40.4040 -25.9774
# 3 57.5056 42.3876 86.7100 -26.3605 -3.8938 -7.5863
# 4 -23.9170 -67.7910 -26.3605 51.0730 4.6039 6.4329
# 5 33.0926 40.4040 -3.8938 4.6039 73.6143 -17.6319
# 6 3.9027 -25.9774 -7.5863 6.4329 -17.6319 35.7166
#
#
#
# Elastic Compliance Matrix: (Units=1/GPa)
#
#
# Indices 1 2 3 4 5 6 
#
# 1 0.011713 -0.003927 -0.007411 -0.002077 -0.005274 -0.007940
# 2 -0.003927 0.037413 -0.001239 0.047811 -0.019654 0.009063
# 3 -0.007411 -0.001239 0.018893 0.003247 0.006359 0.006476
# 4 -0.002077 0.047811 0.003247 0.085619 -0.029074 0.005917
# 5 -0.005274 -0.019654 0.006359 -0.029074 0.030835 0.008091
# 6 -0.007940 0.009063 0.006476 0.005917 0.008091 0.039761
#
#
# Mechanical properties :
#
#
# Convention : Reuss Voigt Hill
#
# Bulk Modulus (GPa) = 23.32995 80.37805 51.85400
# Shear Modulus (GPa) = 18.96260 47.25180 33.10720
#
# Velocity S-wave (km/s) = 2.74751 4.33711 3.63038
# Velocity P-wave (km/s) = 4.39915 7.55503 6.18187
#
# Compressibility (1/GPa) = 0.04286335
#
# Stress axis : x y z
#
# Youngs Moduli (GPa) = 85.37590 26.72884 52.93030
#
# Poissons Ratio (x) = 0.10496 0.39228
# Poissons Ratio (y) = 0.33526 0.06560
# Poissons Ratio (z) = 0.63274 0.03313
#
# Static dielectric constant tensor:
#      x y z
#    x 2.080200 0.031810 -0.116140 
#    y 0.031810 2.170180 0.123210 
#    z -0.116140 0.123210 2.049950 
# 
# From -- ./inp_files/517409.got.cif
#   From: 2010.05.17/outbox.cif.g08.bks.cpg/sg2_259_cif.got.tgz:517409.got - 2010.06.03 11:33:40.
