data_PCOD9063345
_publ_section_title
;
Structure prediction by ZEFSAII (Michael W. Deem and Ramdas Pophale) SiO2 
 PCOD9063345
Probable space group: P -1
;
_chemical_formula_sum "Si O2"
_cell_formula_units_Z 10
_cell_length_a 4.887988
_cell_length_b 6.976588
_cell_length_c 14.350202
_cell_angle_alpha 121.212718
_cell_angle_beta 114.919590
_cell_angle_gamma 68.470971
_cell_volume 372.529056
_symmetry_space_group_name_H-M "P -1"
_symmetry_group_IT_number 2
_symmetry_cell_setting 'triclinic'
loop_
_space_group_symop_operation_xyz
x,y,z
-x,-y,-z
loop_
_atom_site_type_symbol
_atom_site_label
_atom_site_fract_x
_atom_site_fract_y
_atom_site_fract_z
Si Si1 0.211145 0.211116 0.003284
Si Si2 0.359829 0.578293 0.247752
Si Si3 0.202539 0.072042 0.411957
Si Si4 0.441407 0.745810 0.645516
Si Si5 0.493786 0.790687 0.138423
O O1 0.209804 0.378467 0.132112
O O2 0.310194 0.319837 0.949075
O O3 0.872403 0.161713 0.925664
O O4 0.500000 0.000000 0.000000
O O5 0.162052 0.825698 0.304435
O O6 0.517960 0.474941 0.339534
O O7 0.557970 0.642509 0.204935
O O8 0.500000 0.000000 0.500000
O O9 0.290400 0.230760 0.381701
O O10 0.884287 0.201264 0.441294
O O11 0.433497 0.960706 0.767148
#
# Coordination Sequence:
#
# PCOD9063345 Si02
#       5
#     2   2   2   2   2
#     4  12  24  41  67  97 143 182 218 267 326 396
#     4  11  26  42  73  98 137 182 223 271 340 386
#     4  11  27  49  70 100 133 170 229 287 337 400
#     4  11  25  45  72 101 135 173 227 277 333 405
#     4  11  24  44  63 102 141 178 221 268 323 403
#
# _framework density 26.843540000000001
#
# number of rings (size 3 to 8) (size 9 to 14) (size 15 to 20)
#    0.000    0.800    2.000    4.800    0.000    9.600 
#    0.000    0.000    0.000    0.000    0.000    0.000 
#    0.000    0.000    0.000    0.000    0.000    0.000 
#
# Total GULP energy -56027.024848 kJ/mol
# GULP energy per Si atom -5602.702485 kJ/mol
# Density = 2.678244 g / cm^3
# Si number density = 26.843540 Si / 1000 Ang^3
#
#
#
# Elastic Constant Matrix: (Units=GPa)
#
#
# Indices 1 2 3 4 5 6 
#
# 1 115.4330 50.4454 8.9305 -3.5176 18.2817 -21.0038
# 2 50.4454 166.4796 31.9099 -18.6041 5.5009 11.6164
# 3 8.9305 31.9099 82.6469 10.2640 9.1661 -6.1488
# 4 -3.5176 -18.6041 10.2640 35.9327 0.4389 -8.8149
# 5 18.2817 5.5009 9.1661 0.4389 26.2670 -6.8952
# 6 -21.0038 11.6164 -6.1488 -8.8149 -6.8952 35.4518
#
#
#
# Elastic Compliance Matrix: (Units=1/GPa)
#
#
# Indices 1 2 3 4 5 6 
#
# 1 0.013140 -0.004604 0.001639 0.000588 -0.006545 0.008451
# 2 -0.004604 0.008926 -0.003976 0.004044 0.001321 -0.005079
# 3 0.001639 -0.003976 0.014850 -0.005450 -0.004723 0.002576
# 4 0.000588 0.004044 -0.005450 0.033154 0.001845 0.006680
# 5 -0.006545 0.001321 -0.004723 0.001845 0.045040 0.004089
# 6 0.008451 -0.005079 0.002576 0.006680 0.004089 0.037782
#
#
# Mechanical properties :
#
#
# Convention : Reuss Voigt Hill
#
# Bulk Modulus (GPa) = 43.40991 60.79233 52.10112
# Shear Modulus (GPa) = 28.66127 37.74855 33.20491
#
# Velocity S-wave (km/s) = 3.27114 3.75406 3.52089
# Velocity P-wave (km/s) = 5.52030 6.44102 5.99835
#
# Compressibility (1/GPa) = 0.02303622
#
# Stress axis : x y z
#
# Youngs Moduli (GPa) = 76.10240 112.02642 67.34057
#
# Poissons Ratio (x) = 0.51572 -0.11038
# Poissons Ratio (y) = 0.35034 0.26773
# Poissons Ratio (z) = -0.12474 0.44539
#
# Static dielectric constant tensor:
#      x y z
#    x 2.031670 0.036790 0.076370 
#    y 0.036790 2.124220 -0.061490 
#    z 0.076370 -0.061490 2.155140 
# 
# From -- ./inp_files/479474.got.cif
#   From: 2010.05.17/outbox.cif.g08.bks.cpg/sg2_240_cif.got.tgz:479474.got - 2010.06.03 11:33:40.
