data_PCOD9063961
_publ_section_title
;
Structure prediction by ZEFSAII (Michael W. Deem and Ramdas Pophale) SiO2 
 PCOD9063961
Probable space group: P -1
;
_chemical_formula_sum "Si O2"
_cell_formula_units_Z 14
_cell_length_a 10.620958
_cell_length_b 8.621494
_cell_length_c 11.741987
_cell_angle_alpha 54.748951
_cell_angle_beta 103.398716
_cell_angle_gamma 138.095743
_cell_volume 546.495095
_symmetry_space_group_name_H-M "P -1"
_symmetry_group_IT_number 2
_symmetry_cell_setting 'triclinic'
loop_
_space_group_symop_operation_xyz
x,y,z
-x,-y,-z
loop_
_atom_site_type_symbol
_atom_site_label
_atom_site_fract_x
_atom_site_fract_y
_atom_site_fract_z
Si Si1 0.702910 0.663398 0.534569
Si Si2 0.017686 0.337465 0.377181
Si Si3 0.794037 0.490630 0.025428
Si Si4 0.426758 0.764641 0.680903
Si Si5 0.428058 0.500029 0.169759
Si Si6 0.173594 0.586475 0.503455
Si Si7 0.785618 0.178565 0.975385
O O1 0.500000 0.500000 0.500000
O O2 0.824527 0.614694 0.531488
O O3 0.663716 0.553507 0.701960
O O4 0.856303 0.013587 0.428464
O O5 0.951377 0.374247 0.463576
O O6 0.115533 0.580207 0.203814
O O7 0.720556 0.360998 0.189764
O O8 0.702580 0.230690 0.030035
O O9 0.729597 0.621902 0.908761
O O10 0.033556 0.733452 0.965178
O O11 0.512643 0.648022 0.743380
O O12 0.216117 0.490730 0.653182
O O13 0.653798 0.107543 0.656149
O O14 0.621255 0.846824 0.040791
O O15 0.500000 0.000000 0.500000
#
# Coordination Sequence:
#
# PCOD9063961 Si02
#       7
#     2   2   2   2   2   2   2
#     4  11  26  41  70 101 139 175 235 294 353 410
#     4  11  24  45  68 102 135 187 231 290 348 418
#     4  11  25  44  67  99 144 186 235 285 357 418
#     4  11  26  44  71 107 143 188 238 293 351 423
#     4  12  25  44  69 108 139 184 233 299 351 420
#     4  11  24  45  72 100 145 191 237 286 358 426
#     4  11  26  43  73 101 141 189 238 288 351 424
#
# _framework density 25.617795999999998
#
# number of rings (size 3 to 8) (size 9 to 14) (size 15 to 20)
#    0.000    0.857    1.429    4.286    6.000    5.143 
#    0.000    0.000    0.000    0.000    0.000    0.000 
#    0.000    0.000    0.000    0.000    0.000    0.000 
#
# Total GULP energy -78034.286386 kJ/mol
# GULP energy per Si atom -5573.877599 kJ/mol
# Density = 2.555949 g / cm^3
# Si number density = 25.617796 Si / 1000 Ang^3
#
#
#
# Elastic Constant Matrix: (Units=GPa)
#
#
# Indices 1 2 3 4 5 6 
#
# 1 113.9976 41.3139 34.5917 11.5744 35.0056 21.7768
# 2 41.3139 133.5005 59.2029 15.7352 24.9257 11.9812
# 3 34.5917 59.2029 145.3766 17.0691 13.2876 -7.5356
# 4 11.5744 15.7352 17.0691 37.0502 -5.9821 -9.2371
# 5 35.0056 24.9257 13.2876 -5.9821 43.1228 16.1497
# 6 21.7768 11.9812 -7.5356 -9.2371 16.1497 38.0747
#
#
#
# Elastic Compliance Matrix: (Units=1/GPa)
#
#
# Indices 1 2 3 4 5 6 
#
# 1 0.014141 -0.000555 -0.001860 -0.006286 -0.009255 -0.005881
# 2 -0.000555 0.010771 -0.003542 -0.004193 -0.004127 -0.003040
# 3 -0.001860 -0.003542 0.009222 -0.001299 -0.001006 0.004115
# 4 -0.006286 -0.004193 -0.001299 0.035141 0.009350 0.009217
# 5 -0.009255 -0.004127 -0.001006 0.009350 0.037391 -0.007198
# 6 -0.005881 -0.003040 0.004115 0.009217 -0.007198 0.036688
#
#
# Mechanical properties :
#
#
# Convention : Reuss Voigt Hill
#
# Bulk Modulus (GPa) = 45.00486 73.67685 59.34086
# Shear Modulus (GPa) = 30.73639 40.83395 35.78517
#
# Velocity S-wave (km/s) = 3.46758 3.99678 3.74155
# Velocity P-wave (km/s) = 5.79984 7.07965 6.47146
#
# Compressibility (1/GPa) = 0.02221982
#
# Stress axis : x y z
#
# Youngs Moduli (GPa) = 70.71582 92.84355 108.44204
#
# Poissons Ratio (x) = 0.05151 0.20168
# Poissons Ratio (y) = 0.03923 0.38413
# Poissons Ratio (z) = 0.13151 0.32888
#
# Static dielectric constant tensor:
#      x y z
#    x 3.048200 0.392000 -0.296200 
#    y 0.392000 0.488640 0.004180 
#    z -0.296200 0.004180 1.898320 
# 
# From -- ./inp_files/518670.got.cif
#   From: 2010.05.17/outbox.cif.g08.bks.cpg/sg2_260_cif.got.tgz:518670.got - 2010.06.03 11:33:40.
