data_PCOD9063010
_publ_section_title
;
Structure prediction by ZEFSAII (Michael W. Deem and Ramdas Pophale) SiO2 
 PCOD9063010
Probable space group: P -1
;
_chemical_formula_sum "Si O2"
_cell_formula_units_Z 16
_cell_length_a 10.805340
_cell_length_b 11.106056
_cell_length_c 6.832143
_cell_angle_alpha 60.496425
_cell_angle_beta 87.385532
_cell_angle_gamma 91.709666
_cell_volume 711.536534
_symmetry_space_group_name_H-M "P -1"
_symmetry_group_IT_number 2
_symmetry_cell_setting 'triclinic'
loop_
_space_group_symop_operation_xyz
x,y,z
-x,-y,-z
loop_
_atom_site_type_symbol
_atom_site_label
_atom_site_fract_x
_atom_site_fract_y
_atom_site_fract_z
Si Si1 0.666045 0.896889 0.083999
Si Si2 0.527234 0.638702 0.508891
Si Si3 0.077726 0.376741 0.513922
Si Si4 0.454304 0.923849 0.761493
Si Si5 0.859284 0.769499 0.983757
Si Si6 0.950161 0.156079 0.400088
Si Si7 0.689789 0.283897 0.298847
Si Si8 0.718640 0.573253 0.864420
O O1 0.617773 0.748470 0.298538
O O2 0.653349 0.999203 0.183148
O O3 0.567554 0.925238 0.900833
O O4 0.800489 0.905072 0.967127
O O5 0.500000 0.500000 0.500000
O O6 0.399379 0.709829 0.511303
O O7 0.591436 0.596418 0.741855
O O8 0.180775 0.435701 0.307693
O O9 0.000000 0.500000 0.500000
O O10 0.007594 0.247641 0.504964
O O11 0.133274 0.321596 0.752546
O O12 0.397314 0.775245 0.822856
O O13 0.500000 0.000000 0.500000
O O14 0.759157 0.705840 0.887193
O O15 0.988383 0.777717 0.854958
O O16 0.804565 0.185665 0.390484
O O17 0.000000 0.000000 0.500000
O O18 0.727419 0.440836 0.109083
#
# Coordination Sequence:
#
# PCOD9063010 Si02
#       8
#     2   2   2   2   2   2   2   2
#     4  11  24  43  69 101 130 185 232 279 349 423
#     4  12  24  41  72 107 141 179 231 293 360 422
#     4  11  24  46  75  99 139 187 240 290 352 423
#     4  11  25  44  68  98 141 184 227 280 356 417
#     4  11  24  46  72  97 138 179 240 284 350 415
#     4  11  29  46  70 105 143 191 237 296 353 418
#     4  12  25  45  69  99 150 178 233 296 356 416
#     4  11  24  44  71 104 138 181 232 299 358 418
#
# _framework density 22.486545
#
# number of rings (size 3 to 8) (size 9 to 14) (size 15 to 20)
#    0.000    0.750    2.500    4.125    5.250    2.500 
#    4.500    0.000    0.000    0.000    0.000    0.000 
#    0.000    0.000    0.000    0.000    0.000    0.000 
#
# Total GULP energy -89407.003169 kJ/mol
# GULP energy per Si atom -5587.937698 kJ/mol
# Density = 2.243536 g / cm^3
# Si number density = 22.486545 Si / 1000 Ang^3
#
#
#
# Elastic Constant Matrix: (Units=GPa)
#
#
# Indices 1 2 3 4 5 6 
#
# 1 108.5662 39.4847 21.2498 19.0920 -3.6988 -40.1441
# 2 39.4847 120.4656 9.3589 22.4220 -9.5195 -32.1980
# 3 21.2498 9.3589 85.3971 15.5731 -0.7707 -14.3655
# 4 19.0920 22.4220 15.5731 38.4621 -7.5636 -7.3415
# 5 -3.6988 -9.5195 -0.7707 -7.5636 28.8659 3.8329
# 6 -40.1441 -32.1980 -14.3655 -7.3415 3.8329 39.2880
#
#
#
# Elastic Compliance Matrix: (Units=1/GPa)
#
#
# Indices 1 2 3 4 5 6 
#
# 1 0.015722 -0.000364 -0.000514 -0.004822 -0.001349 0.014808
# 2 -0.000364 0.011689 0.001213 -0.005231 0.001335 0.008543
# 3 -0.000514 0.001213 0.013415 -0.005275 -0.001289 0.004514
# 4 -0.004822 -0.005231 -0.005275 0.033933 0.007137 -0.005499
# 5 -0.001349 0.001335 -0.001289 0.007137 0.037151 -0.003046
# 6 0.014808 0.008543 0.004514 -0.005499 -0.003046 0.048506
#
#
# Mechanical properties :
#
#
# Convention : Reuss Voigt Hill
#
# Bulk Modulus (GPa) = 24.09957 50.51287 37.30622
# Shear Modulus (GPa) = 28.80572 37.61223 33.20897
#
# Velocity S-wave (km/s) = 3.58302 4.09425 3.84713
# Velocity P-wave (km/s) = 5.27806 6.69797 6.02996
#
# Compressibility (1/GPa) = 0.04149452
#
# Stress axis : x y z
#
# Youngs Moduli (GPa) = 63.60616 85.55173 74.54524
#
# Poissons Ratio (x) = 0.03116 0.03831
# Poissons Ratio (y) = 0.02316 -0.09040
# Poissons Ratio (z) = 0.03269 -0.10375
#
# Static dielectric constant tensor:
#      x y z
#    x 1.939360 -0.193800 0.028290 
#    y -0.193800 2.380870 -0.132710 
#    z 0.028290 -0.132710 1.819620 
# 
# From -- ./inp_files/68547.got.cif
#   From: 2010.05.17/outbox.cif.g08.bks.cpg/sg2_35_cif.got.tgz:68547.got - 2010.06.03 11:33:40.
