data_PCOD9063946
_publ_section_title
;
Structure prediction by ZEFSAII (Michael W. Deem and Ramdas Pophale) SiO2 
 PCOD9063946
Probable space group: P -1
;
_chemical_formula_sum "Si O2"
_cell_formula_units_Z 16
_cell_length_a 6.743636
_cell_length_b 9.931787
_cell_length_c 17.627366
_cell_angle_alpha 80.158538
_cell_angle_beta 87.745027
_cell_angle_gamma 136.924546
_cell_volume 770.435429
_symmetry_space_group_name_H-M "P -1"
_symmetry_group_IT_number 2
_symmetry_cell_setting 'triclinic'
loop_
_space_group_symop_operation_xyz
x,y,z
-x,-y,-z
loop_
_atom_site_type_symbol
_atom_site_label
_atom_site_fract_x
_atom_site_fract_y
_atom_site_fract_z
Si Si1 0.292673 0.707015 0.584501
Si Si2 0.843426 0.560344 0.785954
Si Si3 0.383552 0.339952 0.952029
Si Si4 0.554626 0.923325 0.781073
Si Si5 0.291443 0.031434 0.588099
Si Si6 0.304505 0.236928 0.314082
Si Si7 0.275845 0.709459 0.317185
Si Si8 0.286314 0.987437 0.053544
O O1 0.498565 0.808776 0.497827
O O2 0.411581 0.667558 0.652212
O O3 0.959528 0.478749 0.603071
O O4 0.291755 0.865298 0.596511
O O5 0.635609 0.456799 0.872705
O O6 0.742441 0.635158 0.727646
O O7 0.766234 0.389748 0.751803
O O8 0.195998 0.747650 0.785534
O O9 0.065922 0.226688 0.933101
O O10 0.500000 0.500000 0.000000
O O11 0.331211 0.164647 0.006276
O O12 0.684495 0.850693 0.752288
O O13 0.734815 0.135588 0.714503
O O14 0.617207 0.970045 0.864476
O O15 0.412750 0.141252 0.657574
O O16 0.959784 0.919020 0.605708
O O17 0.500000 0.000000 0.000000
#
# Coordination Sequence:
#
# PCOD9063946 Si02
#       8
#     2   2   2   2   2   2   2   2
#     4  11  24  45  67  97 135 177 224 277 341 389
#     4  12  26  44  68  97 140 175 219 279 330 394
#     4  11  26  46  70 103 134 175 223 272 329 397
#     4  12  26  44  68  97 140 175 219 279 330 394
#     4  11  24  45  67  95 139 174 220 288 329 399
#     4  12  22  45  65 100 131 179 222 274 336 391
#     4  12  22  45  65 100 131 179 222 274 336 391
#     4  11  26  46  70 103 134 175 223 272 329 397
#
# _framework density 20.767475999999998
#
# number of rings (size 3 to 8) (size 9 to 14) (size 15 to 20)
#    0.000    0.500    5.000    3.000    3.500    6.000 
#    0.000    1.250    0.000    0.000    0.000    0.000 
#    0.000    0.000    0.000    0.000    0.000    0.000 
#
# Total GULP energy -89349.444285 kJ/mol
# GULP energy per Si atom -5584.340268 kJ/mol
# Density = 2.072021 g / cm^3
# Si number density = 20.767476 Si / 1000 Ang^3
#
#
#
# Elastic Constant Matrix: (Units=GPa)
#
#
# Indices 1 2 3 4 5 6 
#
# 1 79.8023 27.6025 7.2861 9.7063 -9.9355 13.1158
# 2 27.6025 87.6150 14.3193 7.2062 -6.7605 16.4879
# 3 7.2861 14.3193 84.5205 2.5739 -15.6497 14.6528
# 4 9.7063 7.2062 2.5739 40.9133 5.1303 -1.6198
# 5 -9.9355 -6.7605 -15.6497 5.1303 42.5322 -0.9958
# 6 13.1158 16.4879 14.6528 -1.6198 -0.9958 17.7601
#
#
#
# Elastic Compliance Matrix: (Units=1/GPa)
#
#
# Indices 1 2 3 4 5 6 
#
# 1 0.016203 -0.002580 0.001955 -0.004510 0.004373 -0.011350
# 2 -0.002580 0.014862 0.000265 -0.002746 0.001901 -0.012254
# 3 0.001955 0.000265 0.015307 -0.002806 0.006136 -0.014230
# 4 -0.004510 -0.002746 -0.002806 0.027281 -0.005570 0.010371
# 5 0.004373 0.001901 0.006136 -0.005570 0.027554 -0.009020
# 6 -0.011350 -0.012254 -0.014230 0.010371 -0.009020 0.088245
#
#
# Mechanical properties :
#
#
# Convention : Reuss Voigt Hill
#
# Bulk Modulus (GPa) = 21.90541 38.92818 30.41679
# Shear Modulus (GPa) = 24.34406 33.75644 29.05025
#
# Velocity S-wave (km/s) = 3.42748 4.03606 3.74416
# Velocity P-wave (km/s) = 5.12195 6.36437 5.77666
#
# Compressibility (1/GPa) = 0.04565082
#
# Stress axis : x y z
#
# Youngs Moduli (GPa) = 61.71604 67.28710 65.33106
#
# Poissons Ratio (x) = 0.17360 -0.12772
# Poissons Ratio (y) = 0.15922 -0.01729
# Poissons Ratio (z) = -0.12065 -0.01781
#
# Static dielectric constant tensor:
#      x y z
#    x 1.698610 0.004380 0.006410 
#    y 0.004380 1.729560 -0.015310 
#    z 0.006410 -0.015310 1.741720 
# 
# From -- ./inp_files/48055.got.cif
#   From: 2010.05.17/outbox.cif.g08.bks.cpg/sg2_25_cif.got.tgz:48055.got - 2010.06.03 11:33:40.
