data_PCOD9063162
_publ_section_title
;
Structure prediction by ZEFSAII (Michael W. Deem and Ramdas Pophale) SiO2 
 PCOD9063162
Probable space group: P -1
;
_chemical_formula_sum "Si O2"
_cell_formula_units_Z 14
_cell_length_a 14.199529
_cell_length_b 21.295851
_cell_length_c 12.155442
_cell_angle_alpha 28.314284
_cell_angle_beta 20.947564
_cell_angle_gamma 27.607292
_cell_volume 577.239670
_symmetry_space_group_name_H-M "P -1"
_symmetry_group_IT_number 2
_symmetry_cell_setting 'triclinic'
loop_
_space_group_symop_operation_xyz
x,y,z
-x,-y,-z
loop_
_atom_site_type_symbol
_atom_site_label
_atom_site_fract_x
_atom_site_fract_y
_atom_site_fract_z
Si Si1 0.886439 0.648286 0.264077
Si Si2 0.732945 0.183653 0.402856
Si Si3 0.986321 0.074510 0.661051
Si Si4 0.189549 0.319285 0.442135
Si Si5 0.289014 0.499497 0.633681
Si Si6 0.825956 0.225289 0.820396
Si Si7 0.526842 0.819306 0.102409
O O1 0.560803 0.700880 0.501601
O O2 0.881878 0.666057 0.373704
O O3 0.064753 0.486021 0.283442
O O4 0.047662 0.749402 0.893714
O O5 0.649616 0.101558 0.720558
O O6 0.871522 0.080517 0.308602
O O7 0.956795 0.095915 0.790941
O O8 0.673261 0.139950 0.848737
O O9 0.188015 0.155225 0.273207
O O10 0.033812 0.235145 0.673589
O O11 0.523298 0.243915 0.172212
O O12 0.500000 0.500000 0.500000
O O13 0.235224 0.632817 0.407552
O O14 0.413436 0.344609 0.681813
O O15 0.000000 0.500000 0.000000
#
# Coordination Sequence:
#
# PCOD9063162 Si02
#       7
#     2   2   2   2   2   2   2
#     4  11  24  46  67  96 121 159 222 272 314 368
#     4  12  25  43  67  91 128 173 217 259 308 373
#     4  12  25  42  61  95 135 172 211 251 307 394
#     4  11  24  43  71  94 123 162 209 273 329 373
#     4  12  21  36  58  93 129 158 202 253 304 368
#     4  12  23  41  64  98 132 167 202 258 330 374
#     4  12  22  41  63  93 131 174 212 256 311 372
#
# _framework density 24.253357000000001
#
# number of rings (size 3 to 8) (size 9 to 14) (size 15 to 20)
#    0.000    0.286    2.857    7.714    0.000    2.286 
#    0.000    4.286    0.000    0.000    0.000    0.000 
#    0.000    0.000    0.000    0.000    0.000    0.000 
#
# Total GULP energy -78481.041844 kJ/mol
# GULP energy per Si atom -5605.788703 kJ/mol
# Density = 2.419816 g / cm^3
# Si number density = 24.253357 Si / 1000 Ang^3
#
#
#
# Elastic Constant Matrix: (Units=GPa)
#
#
# Indices 1 2 3 4 5 6 
#
# 1 107.9725 12.1860 11.2639 8.7083 -7.6904 21.7276
# 2 12.1860 87.9713 16.8811 12.3532 -11.5264 35.6325
# 3 11.2639 16.8811 91.1338 16.1581 -14.8791 8.2049
# 4 8.7083 12.3532 16.1581 34.7172 0.5072 5.2975
# 5 -7.6904 -11.5264 -14.8791 0.5072 39.9796 7.9407
# 6 21.7276 35.6325 8.2049 5.2975 7.9407 39.8999
#
#
#
# Elastic Compliance Matrix: (Units=1/GPa)
#
#
# Indices 1 2 3 4 5 6 
#
# 1 0.011501 0.003611 0.000206 -0.002783 0.005398 -0.010235
# 2 0.003611 0.023114 0.000546 -0.005839 0.012488 -0.024431
# 3 0.000206 0.000546 0.013194 -0.005907 0.005918 -0.003706
# 4 -0.002783 -0.005839 -0.005907 0.033709 -0.005762 0.004616
# 5 0.005398 0.012488 0.005918 -0.005762 0.036249 -0.021758
# 6 -0.010235 -0.024431 -0.003706 0.004616 -0.021758 0.056934
#
#
# Mechanical properties :
#
#
# Convention : Reuss Voigt Hill
#
# Bulk Modulus (GPa) = 17.68834 40.85994 29.27414
# Shear Modulus (GPa) = 27.05333 39.36913 33.21123
#
# Velocity S-wave (km/s) = 3.34345 4.03332 3.70448
# Velocity P-wave (km/s) = 4.71316 6.21079 5.51307
#
# Compressibility (1/GPa) = 0.05653441
#
# Stress axis : x y z
#
# Youngs Moduli (GPa) = 86.94797 43.26334 75.79409
#
# Poissons Ratio (x) = -0.15623 -0.01560
# Poissons Ratio (y) = -0.31397 -0.04137
# Poissons Ratio (z) = -0.01789 -0.02362
#
# Static dielectric constant tensor:
#      x y z
#    x 1.920430 0.011290 0.045360 
#    y 0.011290 2.004670 -0.011750 
#    z 0.045360 -0.011750 1.871330 
# 
# From -- ./inp_files/365225.got.cif
#   From: 2010.05.17/outbox.cif.g08.bks.cpg/sg2_183_cif.got.tgz:365225.got - 2010.06.03 11:33:40.
