data_PCOD9063591
_publ_section_title
;
Structure prediction by ZEFSAII (Michael W. Deem and Ramdas Pophale) SiO2 
 PCOD9063591
Probable space group: P -1
;
_chemical_formula_sum "Si O2"
_cell_formula_units_Z 16
_cell_length_a 10.951118
_cell_length_b 11.123856
_cell_length_c 14.269379
_cell_angle_alpha 102.387294
_cell_angle_beta 99.225947
_cell_angle_gamma 25.541078
_cell_volume 729.742092
_symmetry_space_group_name_H-M "P -1"
_symmetry_group_IT_number 2
_symmetry_cell_setting 'triclinic'
loop_
_space_group_symop_operation_xyz
x,y,z
-x,-y,-z
loop_
_atom_site_type_symbol
_atom_site_label
_atom_site_fract_x
_atom_site_fract_y
_atom_site_fract_z
Si Si1 0.276102 0.621102 0.617314
Si Si2 0.086594 0.100604 0.886898
Si Si3 0.056887 0.346950 0.061162
Si Si4 0.667845 0.152130 0.721409
Si Si5 0.649087 0.519732 0.605971
Si Si6 0.786912 0.905346 0.297170
Si Si7 0.515578 0.905090 0.194755
Si Si8 0.508621 0.466031 0.105354
O O1 0.444144 0.359754 0.643596
O O2 0.484347 0.552701 0.638640
O O3 0.234645 0.632497 0.504285
O O4 0.977209 0.908950 0.679329
O O5 0.226061 0.025503 0.797057
O O6 0.749528 0.395026 0.880628
O O7 0.204349 0.860880 0.886614
O O8 0.137759 0.148370 0.986251
O O9 0.762150 0.605189 0.124458
O O10 0.309999 0.148750 0.131669
O O11 0.000000 0.500000 0.000000
O O12 0.665864 0.023021 0.750650
O O13 0.552680 0.356847 0.814180
O O14 0.897195 0.355875 0.670656
O O15 0.415508 0.834326 0.617416
O O16 0.677802 0.864862 0.265928
O O17 0.500000 0.500000 0.000000
#
# Coordination Sequence:
#
# PCOD9063591 Si02
#       8
#     2   2   2   2   2   2   2   2
#     4  11  24  45  73 100 132 175 225 279 349 407
#     4  12  24  39  67  94 128 173 225 276 333 386
#     4  12  24  43  66  96 137 184 230 278 326 393
#     4  12  24  45  68  98 142 185 220 267 345 413
#     4  11  24  44  71 103 130 166 227 294 338 397
#     4  12  24  42  67 100 133 171 226 287 337 388
#     4  12  27  44  66 100 141 183 229 274 329 413
#     4  12  25  41  63  96 134 172 219 276 327 392
#
# _framework density 21.925553000000001
#
# number of rings (size 3 to 8) (size 9 to 14) (size 15 to 20)
#    0.000    0.250    1.250    9.750    1.750    2.000 
#    0.000    3.750    0.000    0.000    0.000    0.000 
#    0.000    0.000    0.000    0.000    0.000    0.000 
#
# Total GULP energy -89623.914216 kJ/mol
# GULP energy per Si atom -5601.494638 kJ/mol
# Density = 2.187565 g / cm^3
# Si number density = 21.925553 Si / 1000 Ang^3
#
#
#
# Elastic Constant Matrix: (Units=GPa)
#
#
# Indices 1 2 3 4 5 6 
#
# 1 98.3718 13.1454 47.7798 3.6924 1.6504 -4.2153
# 2 13.1454 100.4440 22.4642 -0.1070 -8.2338 -13.1190
# 3 47.7798 22.4642 77.7326 8.9525 -8.9145 -7.9400
# 4 3.6924 -0.1070 8.9525 39.4543 -5.7063 2.0237
# 5 1.6504 -8.2338 -8.9145 -5.7063 25.3361 -3.9740
# 6 -4.2153 -13.1190 -7.9400 2.0237 -3.9740 29.2488
#
#
#
# Elastic Compliance Matrix: (Units=1/GPa)
#
#
# Indices 1 2 3 4 5 6 
#
# 1 0.014992 -0.000321 -0.009818 0.000212 -0.004691 -0.001300
# 2 -0.000321 0.011475 -0.002264 0.000889 0.003931 0.004959
# 3 -0.009818 -0.002264 0.021219 -0.003066 0.007392 0.004546
# 4 0.000212 0.000889 -0.003066 0.026827 0.004990 -0.001581
# 5 -0.004691 0.003931 0.007392 0.004990 0.046193 0.009025
# 6 -0.001300 0.004959 0.004546 -0.001581 0.009025 0.038796
#
#
# Mechanical properties :
#
#
# Convention : Reuss Voigt Hill
#
# Bulk Modulus (GPa) = 43.70457 49.25858 46.48157
# Shear Modulus (GPa) = 26.05072 31.68511 28.86792
#
# Velocity S-wave (km/s) = 3.45069 3.80560 3.63248
# Velocity P-wave (km/s) = 5.98772 6.46724 6.23209
#
# Compressibility (1/GPa) = 0.02288090
#
# Stress axis : x y z
#
# Youngs Moduli (GPa) = 66.70278 87.14582 47.12807
#
# Poissons Ratio (x) = 0.02793 0.46269
# Poissons Ratio (y) = 0.02138 0.10671
# Poissons Ratio (z) = 0.65486 0.19732
#
# Static dielectric constant tensor:
#      x y z
#    x 1.790560 0.000560 0.003330 
#    y 0.000560 1.779140 -0.002010 
#    z 0.003330 -0.002010 1.797260 
# 
# From -- ./inp_files/519768.got.cif
#   From: 2010.05.17/outbox.cif.g08.bks.cpg/sg2_260_cif.got.tgz:519768.got - 2010.06.03 11:33:40.
