data_PCOD9063918
_publ_section_title
;
Structure prediction by ZEFSAII (Michael W. Deem and Ramdas Pophale) SiO2 
 PCOD9063918
Probable space group: P -1
;
_chemical_formula_sum "Si O2"
_cell_formula_units_Z 10
_cell_length_a 15.400926
_cell_length_b 5.760512
_cell_length_c 15.303497
_cell_angle_alpha 67.561706
_cell_angle_beta 20.335036
_cell_angle_gamma 71.359523
_cell_volume 432.980798
_symmetry_space_group_name_H-M "P -1"
_symmetry_group_IT_number 2
_symmetry_cell_setting 'triclinic'
loop_
_space_group_symop_operation_xyz
x,y,z
-x,-y,-z
loop_
_atom_site_type_symbol
_atom_site_label
_atom_site_fract_x
_atom_site_fract_y
_atom_site_fract_z
Si Si1 0.632245 0.060466 0.273957
Si Si2 0.665224 0.238234 0.547499
Si Si3 0.075911 0.350194 0.868869
Si Si4 0.788189 0.826993 0.883933
Si Si5 0.233461 0.563283 0.204509
O O1 0.500000 0.000000 0.500000
O O2 0.452511 0.982948 0.375133
O O3 0.838421 0.871453 0.120751
O O4 0.826112 0.310648 0.050297
O O5 0.705958 0.498258 0.415722
O O6 0.940246 0.179702 0.325485
O O7 0.464691 0.261018 0.809465
O O8 0.000000 0.500000 0.000000
O O9 0.801088 0.631062 0.818268
O O10 0.760533 0.129966 0.855482
O O11 0.000000 0.500000 0.500000
O O12 0.500000 0.500000 0.000000
#
# Coordination Sequence:
#
# PCOD9063918 Si02
#       5
#     2   2   2   2   2
#     4  11  25  41  70  94 143 205 267 302 365 428
#     4  12  27  46  69 110 158 191 255 325 371 430
#     4  11  24  45  64  99 139 208 262 307 362 430
#     4  12  29  48  78 121 150 194 240 315 389 439
#     4  12  26  54  85 112 150 192 242 294 377 490
#
# _framework density 23.095714000000001
#
# number of rings (size 3 to 8) (size 9 to 14) (size 15 to 20)
#    0.000    0.400    2.000    5.400    8.400    0.000 
#    0.000    0.000    0.000    0.000    0.000    0.000 
#    0.000    0.000    0.000    0.000    0.000    0.000 
#
# Total GULP energy -55721.550653 kJ/mol
# GULP energy per Si atom -5572.155065 kJ/mol
# Density = 2.304315 g / cm^3
# Si number density = 23.095714 Si / 1000 Ang^3
#
#
#
# Elastic Constant Matrix: (Units=GPa)
#
#
# Indices 1 2 3 4 5 6 
#
# 1 137.2332 55.8260 70.7885 2.1297 -21.3034 30.9964
# 2 55.8260 105.3616 36.7932 -1.1883 -6.9906 2.8385
# 3 70.7885 36.7932 182.0764 -7.9020 5.1531 8.5065
# 4 2.1297 -1.1883 -7.9020 49.9615 -6.0790 -3.0860
# 5 -21.3034 -6.9906 5.1531 -6.0790 63.7054 4.9419
# 6 30.9964 2.8385 8.5065 -3.0860 4.9419 50.2959
#
#
#
# Elastic Compliance Matrix: (Units=1/GPa)
#
#
# Indices 1 2 3 4 5 6 
#
# 1 0.014551 -0.005646 -0.004322 -0.001339 0.005128 -0.008504
# 2 -0.005646 0.012516 -0.000428 0.000573 -0.000654 0.002945
# 3 -0.004322 -0.000428 0.007289 0.001178 -0.002104 0.001734
# 4 -0.001339 0.000573 0.001178 0.020543 0.001346 0.001722
# 5 0.005128 -0.000654 -0.002104 0.001346 0.017984 -0.004452
# 6 -0.008504 0.002945 0.001734 0.001722 -0.004452 0.025207
#
#
# Mechanical properties :
#
#
# Convention : Reuss Voigt Hill
#
# Bulk Modulus (GPa) = 73.73321 83.49851 78.61586
# Shear Modulus (GPa) = 40.51776 50.21013 45.36394
#
# Velocity S-wave (km/s) = 4.19303 4.66768 4.43671
# Velocity P-wave (km/s) = 7.44556 8.07969 7.76910
#
# Compressibility (1/GPa) = 0.01356241
#
# Stress axis : x y z
#
# Youngs Moduli (GPa) = 68.72559 79.89735 137.19774
#
# Poissons Ratio (x) = 0.45111 0.59298
# Poissons Ratio (y) = 0.38804 0.05876
# Poissons Ratio (z) = 0.29704 0.03422
#
# Static dielectric constant tensor:
#      x y z
#    x 1.981390 -0.030530 -0.151910 
#    y -0.030530 1.815940 -0.005690 
#    z -0.151910 -0.005690 2.120560 
# 
# From -- ./inp_files/2606.got.cif
#   From: 2010.05.17/outbox.cif.g08.bks.cpg/sg2_2_cif.got.tgz:2606.got - 2010.06.03 11:33:40.
