data_PCOD9063753
_publ_section_title
;
Structure prediction by ZEFSAII (Michael W. Deem and Ramdas Pophale) SiO2 
 PCOD9063753
Probable space group: P -1
;
_chemical_formula_sum "Si O2"
_cell_formula_units_Z 16
_cell_length_a 14.138264
_cell_length_b 9.157227
_cell_length_c 12.935473
_cell_angle_alpha 43.986779
_cell_angle_beta 41.592995
_cell_angle_gamma 71.022204
_cell_volume 684.839248
_symmetry_space_group_name_H-M "P -1"
_symmetry_group_IT_number 2
_symmetry_cell_setting 'triclinic'
loop_
_space_group_symop_operation_xyz
x,y,z
-x,-y,-z
loop_
_atom_site_type_symbol
_atom_site_label
_atom_site_fract_x
_atom_site_fract_y
_atom_site_fract_z
Si Si1 0.655948 0.251953 0.744076
Si Si2 0.479498 0.710659 0.957690
Si Si3 0.155033 0.029425 0.472342
Si Si4 0.467525 0.041658 0.625360
Si Si5 0.011110 0.729475 0.927751
Si Si6 0.004826 0.653389 0.610610
Si Si7 0.117830 0.879359 0.978046
Si Si8 0.653775 0.456616 0.410918
O O1 0.817048 0.228090 0.643661
O O2 0.664571 0.374894 0.562274
O O3 0.627735 0.369116 0.811094
O O4 0.500000 0.000000 0.000000
O O5 0.662704 0.897369 0.741668
O O6 0.427929 0.824846 0.847274
O O7 0.500000 0.500000 0.000000
O O8 0.115879 0.247712 0.376418
O O9 0.047481 0.785378 0.621601
O O10 0.106856 0.958282 0.664863
O O11 0.613520 0.256092 0.456424
O O12 0.500000 0.000000 0.500000
O O13 0.301866 0.062705 0.754953
O O14 0.827999 0.669584 0.133245
O O15 0.113977 0.773258 0.922908
O O16 0.000000 0.500000 0.000000
O O17 0.947604 0.373395 0.780401
O O18 0.000000 0.000000 0.000000
O O19 0.500000 0.500000 0.500000
#
# Coordination Sequence:
#
# PCOD9063753 Si02
#       8
#     2   2   2   2   2   2   2   2
#     4  12  24  48  75 104 150 193 255 304 366 460
#     4  12  27  48  76 109 151 194 244 314 384 443
#     4  11  24  44  75 110 142 197 253 305 371 449
#     4  12  27  46  70 109 149 189 245 302 376 434
#     4  12  23  46  74 101 145 195 253 296 364 449
#     4  11  24  44  73 108 146 195 250 305 374 446
#     4  12  26  46  70 105 152 190 240 311 370 434
#     4  12  27  45  74 108 139 198 247 301 366 437
#
# _framework density 23.363147999999999
#
# number of rings (size 3 to 8) (size 9 to 14) (size 15 to 20)
#    0.000    0.250    5.000    3.750    3.500    2.000 
#    0.000    1.875    0.000    0.000    0.000    0.000 
#    0.000    0.000    0.000    0.000    0.000    0.000 
#
# Total GULP energy -89266.513307 kJ/mol
# GULP energy per Si atom -5579.157082 kJ/mol
# Density = 2.330997 g / cm^3
# Si number density = 23.363148 Si / 1000 Ang^3
#
#
#
# Elastic Constant Matrix: (Units=GPa)
#
#
# Indices 1 2 3 4 5 6 
#
# 1 84.8570 19.9323 22.9853 19.1472 -7.4595 -12.0137
# 2 19.9323 103.0587 12.1428 18.7922 6.1246 -8.2099
# 3 22.9853 12.1428 84.9281 24.3228 -10.9072 -10.1296
# 4 19.1472 18.7922 24.3228 43.0209 3.8797 -6.3527
# 5 -7.4595 6.1246 -10.9072 3.8797 41.0413 7.7757
# 6 -12.0137 -8.2099 -10.1296 -6.3527 7.7757 50.9633
#
#
#
# Elastic Compliance Matrix: (Units=1/GPa)
#
#
# Indices 1 2 3 4 5 6 
#
# 1 0.014149 -0.001710 -0.001767 -0.004510 0.002448 0.001773
# 2 -0.001710 0.010908 -0.000178 -0.003563 -0.001869 0.001160
# 3 -0.001767 -0.000178 0.015238 -0.008006 0.004337 0.000924
# 4 -0.004510 -0.003563 -0.008006 0.032098 -0.005763 0.001652
# 5 0.002448 -0.001869 0.004337 -0.005763 0.027502 -0.003777
# 6 0.001773 0.001160 0.000924 0.001652 -0.003777 0.021192
#
#
# Mechanical properties :
#
#
# Convention : Reuss Voigt Hill
#
# Bulk Modulus (GPa) = 30.31742 42.55163 36.43453
# Shear Modulus (GPa) = 35.86963 41.52400 38.69681
#
# Velocity S-wave (km/s) = 3.92255 4.22041 4.07420
# Velocity P-wave (km/s) = 5.78964 6.48088 6.14499
#
# Compressibility (1/GPa) = 0.03298433
#
# Stress axis : x y z
#
# Youngs Moduli (GPa) = 70.67776 91.67482 65.62379
#
# Poissons Ratio (x) = 0.15677 0.11598
# Poissons Ratio (y) = 0.12087 0.01168
# Poissons Ratio (z) = 0.12492 0.01631
#
# Static dielectric constant tensor:
#      x y z
#    x 1.763370 0.032010 -0.106060 
#    y 0.032010 1.962340 -0.026060 
#    z -0.106060 -0.026060 1.793210 
# 
# From -- ./inp_files/446753.got.cif
#   From: 2010.05.17/outbox.cif.g08.bks.cpg/sg2_224_cif.got.tgz:446753.got - 2010.06.03 11:33:40.
