data_PCOD9063441
_publ_section_title
;
Structure prediction by ZEFSAII (Michael W. Deem and Ramdas Pophale) SiO2 
 PCOD9063441
Probable space group: P -1
;
_chemical_formula_sum "Si O2"
_cell_formula_units_Z 14
_cell_length_a 14.900413
_cell_length_b 7.036432
_cell_length_c 11.523967
_cell_angle_alpha 79.409616
_cell_angle_beta 151.280628
_cell_angle_gamma 97.947715
_cell_volume 570.021858
_symmetry_space_group_name_H-M "P -1"
_symmetry_group_IT_number 2
_symmetry_cell_setting 'triclinic'
loop_
_space_group_symop_operation_xyz
x,y,z
-x,-y,-z
loop_
_atom_site_type_symbol
_atom_site_label
_atom_site_fract_x
_atom_site_fract_y
_atom_site_fract_z
Si Si1 0.190988 0.087734 0.089687
Si Si2 0.105667 0.713664 0.595729
Si Si3 0.549312 0.794585 0.834824
Si Si4 0.476236 0.810201 0.130911
Si Si5 0.625760 0.637238 0.552566
Si Si6 0.760604 0.619955 0.292716
Si Si7 0.189987 0.723946 0.280903
O O1 0.287374 0.127644 0.072590
O O2 0.306787 0.190682 0.310626
O O3 0.184819 0.864532 0.145857
O O4 0.986289 0.193831 0.854036
O O5 0.212152 0.615526 0.616428
O O6 0.000000 0.500000 0.500000
O O7 0.910938 0.793196 0.420198
O O8 0.269338 0.783514 0.851850
O O9 0.382363 0.749618 0.565014
O O10 0.488979 0.964709 0.835921
O O11 0.643199 0.623429 0.037900
O O12 0.505232 0.717305 0.300348
O O13 0.632676 0.711007 0.238150
O O14 0.500000 0.500000 0.500000
O O15 0.799231 0.500647 0.717697
#
# Coordination Sequence:
#
# PCOD9063441 Si02
#       7
#     2   2   2   2   2   2   2
#     4  11  25  46  63 102 135 169 227 268 323 393
#     4   8  22  42  61  91 126 163 218 272 312 387
#     4  12  23  41  67  94 134 172 213 279 324 386
#     4  12  23  41  66  94 131 172 218 269 325 396
#     4  12  24  43  72  95 133 179 217 269 332 385
#     4   9  23  42  63  92 125 168 218 263 332 378
#     4  11  24  44  68  97 132 176 219 271 329 385
#
# _framework density 24.560461
#
# number of rings (size 3 to 8) (size 9 to 14) (size 15 to 20)
#    0.857    0.286    2.857    3.429    0.000    5.143 
#    2.571    0.000    0.000    0.000    0.000    0.000 
#    0.000    0.000    0.000    0.000    0.000    0.000 
#
# Total GULP energy -77964.578892 kJ/mol
# GULP energy per Si atom -5568.898492 kJ/mol
# Density = 2.450456 g / cm^3
# Si number density = 24.560461 Si / 1000 Ang^3
#
#
#
# Elastic Constant Matrix: (Units=GPa)
#
#
# Indices 1 2 3 4 5 6 
#
# 1 95.1491 8.3877 33.9170 -8.6743 1.3229 -2.2694
# 2 8.3877 80.2490 5.2757 -4.1656 -7.2944 -7.8245
# 3 33.9170 5.2757 82.4739 -2.2152 14.1696 -6.9398
# 4 -8.6743 -4.1656 -2.2152 28.9344 3.6227 -5.3285
# 5 1.3229 -7.2944 14.1696 3.6227 35.0592 -6.3208
# 6 -2.2694 -7.8245 -6.9398 -5.3285 -6.3208 25.3752
#
#
#
# Elastic Compliance Matrix: (Units=1/GPa)
#
#
# Indices 1 2 3 4 5 6 
#
# 1 0.012743 -0.000652 -0.005289 0.003253 0.001274 0.000493
# 2 -0.000652 0.013569 -0.000760 0.002198 0.003892 0.005349
# 3 -0.005289 -0.000760 0.015569 0.000645 -0.005919 0.002212
# 4 0.003253 0.002198 0.000645 0.037755 -0.002295 0.008502
# 5 0.001274 0.003892 -0.005919 -0.002295 0.033266 0.007500
# 6 0.000493 0.005349 0.002212 0.008502 0.007500 0.045360
#
#
# Mechanical properties :
#
#
# Convention : Reuss Voigt Hill
#
# Bulk Modulus (GPa) = 35.11144 39.22585 37.16865
# Shear Modulus (GPa) = 27.60054 31.89319 29.74686
#
# Velocity S-wave (km/s) = 3.35592 3.60746 3.48396
# Velocity P-wave (km/s) = 5.41694 5.77560 5.59914
#
# Compressibility (1/GPa) = 0.02848075
#
# Stress axis : x y z
#
# Youngs Moduli (GPa) = 78.47360 73.69951 64.23009
#
# Poissons Ratio (x) = 0.04802 0.33971
# Poissons Ratio (y) = 0.05113 0.04879
# Poissons Ratio (z) = 0.41504 0.05598
#
# Static dielectric constant tensor:
#      x y z
#    x 1.760930 0.131260 -0.309600 
#    y 0.131260 1.999140 0.095580 
#    z -0.309600 0.095580 1.681210 
# 
# From -- ./inp_files/447555.got.cif
#   From: 2010.05.17/outbox.cif.g08.bks.cpg/sg2_224_cif.got.tgz:447555.got - 2010.06.03 11:33:40.
