data_PCOD9063999
_publ_section_title
;
Structure prediction by ZEFSAII (Michael W. Deem and Ramdas Pophale) SiO2 
 PCOD9063999
Probable space group: P -1
;
_chemical_formula_sum "Si O2"
_cell_formula_units_Z 14
_cell_length_a 10.375633
_cell_length_b 7.440703
_cell_length_c 11.195801
_cell_angle_alpha 39.142842
_cell_angle_beta 98.699652
_cell_angle_gamma 90.446683
_cell_volume 530.969910
_symmetry_space_group_name_H-M "P -1"
_symmetry_group_IT_number 2
_symmetry_cell_setting 'triclinic'
loop_
_space_group_symop_operation_xyz
x,y,z
-x,-y,-z
loop_
_atom_site_type_symbol
_atom_site_label
_atom_site_fract_x
_atom_site_fract_y
_atom_site_fract_z
Si Si1 0.783566 0.112196 0.144756
Si Si2 0.946780 0.166880 0.758633
Si Si3 0.530328 0.754136 0.013793
Si Si4 0.205897 0.373223 0.977301
Si Si5 0.879954 0.179686 0.470070
Si Si6 0.790036 0.706175 0.587754
Si Si7 0.539969 0.414141 0.684695
O O1 0.782679 0.910290 0.364988
O O2 0.842547 0.396561 0.044342
O O3 0.628445 0.184553 0.053810
O O4 0.895807 0.951915 0.154135
O O5 0.100098 0.573325 0.288864
O O6 0.914116 0.260142 0.567210
O O7 0.860199 0.909962 0.890116
O O8 0.633497 0.651681 0.976203
O O9 0.560932 0.538587 0.242780
O O10 0.571562 0.067745 0.874141
O O11 0.173223 0.547785 0.759380
O O12 0.794335 0.921484 0.588682
O O13 0.000000 0.000000 0.500000
O O14 0.659471 0.571696 0.649299
O O15 0.500000 0.500000 0.500000
#
# Coordination Sequence:
#
# PCOD9063999 Si02
#       7
#     2   2   2   2   2   2   2
#     4  11  24  45  72 107 147 186 242 303 357 433
#     4  12  25  48  78 104 151 193 238 304 364 427
#     4  11  25  44  70 104 143 190 245 294 358 437
#     4  11  25  45  71 107 144 191 240 299 360 430
#     4  11  26  46  72 109 149 186 246 301 359 433
#     4  11  24  47  74 108 142 195 245 296 366 429
#     4  11  24  45  69 101 147 191 242 298 356 434
#
# _framework density 26.366842999999999
#
# number of rings (size 3 to 8) (size 9 to 14) (size 15 to 20)
#    0.000    0.857    5.714    1.286    4.000    0.000 
#    0.000    2.857    0.000    0.000    0.000    0.000 
#    0.000    0.000    0.000    0.000    0.000    0.000 
#
# Total GULP energy -78242.401120 kJ/mol
# GULP energy per Si atom -5588.742937 kJ/mol
# Density = 2.630683 g / cm^3
# Si number density = 26.366843 Si / 1000 Ang^3
#
#
#
# Elastic Constant Matrix: (Units=GPa)
#
#
# Indices 1 2 3 4 5 6 
#
# 1 98.6890 8.8906 16.2191 -9.7017 -5.4914 15.4071
# 2 8.8906 126.9203 12.1345 -19.7051 8.4517 14.4308
# 3 16.2191 12.1345 132.2888 -9.1564 -17.1300 11.9829
# 4 -9.7017 -19.7051 -9.1564 36.8069 10.1822 -6.9359
# 5 -5.4914 8.4517 -17.1300 10.1822 34.5967 -5.2631
# 6 15.4071 14.4308 11.9829 -6.9359 -5.2631 38.3962
#
#
#
# Elastic Compliance Matrix: (Units=1/GPa)
#
#
# Indices 1 2 3 4 5 6 
#
# 1 0.011067 0.000032 -0.000858 0.001957 0.000169 -0.003809
# 2 0.000032 0.009497 -0.000843 0.005667 -0.004850 -0.002960
# 3 -0.000858 -0.000843 0.008389 0.000039 0.003999 -0.001402
# 4 0.001957 0.005667 0.000039 0.034047 -0.010810 0.001741
# 5 0.000169 -0.004850 0.003999 -0.010810 0.035804 0.003462
# 6 -0.003809 -0.002960 -0.001402 0.001741 0.003462 0.029912
#
#
# Mechanical properties :
#
#
# Convention : Reuss Voigt Hill
#
# Bulk Modulus (GPa) = 39.03624 48.04296 43.53960
# Shear Modulus (GPa) = 35.56414 43.33687 39.45051
#
# Velocity S-wave (km/s) = 3.67661 4.05855 3.87229
# Velocity P-wave (km/s) = 5.73241 6.34216 6.04498
#
# Compressibility (1/GPa) = 0.02561722
#
# Stress axis : x y z
#
# Youngs Moduli (GPa) = 90.35675 105.29993 119.20134
#
# Poissons Ratio (x) = -0.00341 0.10222
# Poissons Ratio (y) = -0.00292 0.10046
# Poissons Ratio (z) = 0.07748 0.08874
#
# Static dielectric constant tensor:
#      x y z
#    x 2.000720 -0.052330 0.103110 
#    y -0.052330 2.301200 0.055940 
#    z 0.103110 0.055940 2.069400 
# 
# From -- ./inp_files/418737.got.cif
#   From: 2010.05.17/outbox.cif.g08.bks.cpg/sg2_210_cif.got.tgz:418737.got - 2010.06.03 11:33:40.
