data_PCOD9063764
_publ_section_title
;
Structure prediction by ZEFSAII (Michael W. Deem and Ramdas Pophale) SiO2 
 PCOD9063764
Probable space group: P -1
;
_chemical_formula_sum "Si O2"
_cell_formula_units_Z 16
_cell_length_a 15.088021
_cell_length_b 9.265402
_cell_length_c 9.247428
_cell_angle_alpha 64.942073
_cell_angle_beta 128.438143
_cell_angle_gamma 77.554091
_cell_volume 676.950240
_symmetry_space_group_name_H-M "P -1"
_symmetry_group_IT_number 2
_symmetry_cell_setting 'triclinic'
loop_
_space_group_symop_operation_xyz
x,y,z
-x,-y,-z
loop_
_atom_site_type_symbol
_atom_site_label
_atom_site_fract_x
_atom_site_fract_y
_atom_site_fract_z
Si Si1 0.611849 0.684124 0.369833
Si Si2 0.271284 0.565879 0.112127
Si Si3 0.280974 0.963027 0.491800
Si Si4 0.901966 0.751486 0.274876
Si Si5 0.997853 0.003600 0.821482
Si Si6 0.687858 0.813080 0.787845
Si Si7 0.490537 0.516636 0.810167
Si Si8 0.692759 0.916732 0.236389
O O1 0.630806 0.602425 0.584614
O O2 0.608220 0.534114 0.328545
O O3 0.728571 0.704203 0.417525
O O4 0.452551 0.929806 0.081669
O O5 0.251326 0.427246 0.051292
O O6 0.358647 0.610238 0.080934
O O7 0.133929 0.782467 0.967220
O O8 0.401214 0.766696 0.589868
O O9 0.237916 0.167571 0.283561
O O10 0.348287 0.945332 0.721813
O O11 0.151263 0.956093 0.387350
O O12 0.833074 0.854229 0.318633
O O13 0.000000 0.500000 0.500000
O O14 0.992078 0.820838 0.284249
O O15 0.762913 0.835126 0.989580
O O16 0.000000 0.000000 0.000000
O O17 0.500000 0.000000 0.500000
O O18 0.500000 0.500000 0.000000
#
# Coordination Sequence:
#
# PCOD9063764 Si02
#       8
#     2   2   2   2   2   2   2   2
#     4  11  24  44  73 109 156 196 259 320 403 461
#     4  12  27  46  84 109 157 213 268 327 401 476
#     4  12  26  48  77 107 160 200 265 323 394 473
#     4  12  31  51  78 110 164 209 262 326 414 479
#     4  12  29  53  78 113 158 214 268 325 395 493
#     4  12  26  50  80 120 153 207 271 333 397 476
#     4  12  26  44  72 115 150 202 263 332 390 467
#     4  11  26  45  72 114 151 201 254 333 392 476
#
# _framework density 23.635414000000001
#
# number of rings (size 3 to 8) (size 9 to 14) (size 15 to 20)
#    0.000    0.250    5.000    2.625    8.750    1.000 
#    0.000    0.000    0.000    0.000    0.000    0.000 
#    0.000    0.000    0.000    0.000    0.000    0.000 
#
# Total GULP energy -89422.338554 kJ/mol
# GULP energy per Si atom -5588.896160 kJ/mol
# Density = 2.358162 g / cm^3
# Si number density = 23.635414 Si / 1000 Ang^3
#
#
#
# Elastic Constant Matrix: (Units=GPa)
#
#
# Indices 1 2 3 4 5 6 
#
# 1 158.1059 53.9126 31.3462 -1.7737 -10.7516 13.5060
# 2 53.9126 111.7247 4.9475 -0.4092 6.2516 14.4662
# 3 31.3462 4.9475 58.9412 6.2680 -4.2101 7.5460
# 4 -1.7737 -0.4092 6.2680 42.4509 -0.3891 2.1331
# 5 -10.7516 6.2516 -4.2101 -0.3891 33.0754 -1.6312
# 6 13.5060 14.4662 7.5460 2.1331 -1.6312 51.8658
#
#
#
# Elastic Compliance Matrix: (Units=1/GPa)
#
#
# Indices 1 2 3 4 5 6 
#
# 1 0.008847 -0.004195 -0.004176 0.000998 0.003126 -0.000469
# 2 -0.004195 0.011418 0.001349 -0.000176 -0.003470 -0.002391
# 3 -0.004176 0.001349 0.019700 -0.002962 0.000761 -0.002009
# 4 0.000998 -0.000176 -0.002962 0.024074 0.000226 -0.000763
# 5 0.003126 -0.003470 0.000761 0.000226 0.032057 0.001042
# 6 -0.000469 -0.002391 -0.002009 -0.000763 0.001042 0.020426
#
#
# Mechanical properties :
#
#
# Convention : Reuss Voigt Hill
#
# Bulk Modulus (GPa) = 38.57579 56.57607 47.57593
# Shear Modulus (GPa) = 35.91817 41.38278 38.65048
#
# Velocity S-wave (km/s) = 3.90253 4.18889 4.04824
# Velocity P-wave (km/s) = 6.05499 6.88366 6.48258
#
# Compressibility (1/GPa) = 0.02592299
#
# Stress axis : x y z
#
# Youngs Moduli (GPa) = 113.03376 87.58109 50.76095
#
# Poissons Ratio (x) = 0.36737 0.21196
# Poissons Ratio (y) = 0.47414 -0.06849
# Poissons Ratio (z) = 0.47199 -0.11817
#
# Static dielectric constant tensor:
#      x y z
#    x 1.890470 -0.009370 0.007770 
#    y -0.009370 1.932010 -0.032790 
#    z 0.007770 -0.032790 1.983790 
# 
# From -- ./inp_files/297988.got.cif
#   From: 2010.05.17/outbox.cif.g08.bks.cpg/sg2_149_cif.got.tgz:297988.got - 2010.06.03 11:33:40.
