data_PCOD9063721
_publ_section_title
;
Structure prediction by ZEFSAII (Michael W. Deem and Ramdas Pophale) SiO2 
 PCOD9063721
Probable space group: P -1
;
_chemical_formula_sum "Si O2"
_cell_formula_units_Z 16
_cell_length_a 11.362261
_cell_length_b 12.186482
_cell_length_c 10.688526
_cell_angle_alpha 133.179452
_cell_angle_beta 134.643120
_cell_angle_gamma 78.929344
_cell_volume 637.896729
_symmetry_space_group_name_H-M "P -1"
_symmetry_group_IT_number 2
_symmetry_cell_setting 'triclinic'
loop_
_space_group_symop_operation_xyz
x,y,z
-x,-y,-z
loop_
_atom_site_type_symbol
_atom_site_label
_atom_site_fract_x
_atom_site_fract_y
_atom_site_fract_z
Si Si1 0.702292 0.736432 0.073681
Si Si2 0.188592 0.683916 0.342424
Si Si3 0.729796 0.490349 0.543223
Si Si4 0.990112 0.835564 0.175473
Si Si5 0.323203 0.287610 0.685805
Si Si6 0.265502 0.880593 0.207608
Si Si7 0.010112 0.325005 0.355433
Si Si8 0.632489 0.357211 0.774921
O O1 0.495392 0.632547 0.764287
O O2 0.728314 0.570292 0.995961
O O3 0.864840 0.878704 0.207184
O O4 0.687698 0.795195 0.249544
O O5 0.213800 0.647825 0.474658
O O6 0.376408 0.719208 0.429480
O O7 0.135989 0.823010 0.370737
O O8 0.000000 0.500000 0.000000
O O9 0.842981 0.610593 0.602592
O O10 0.809544 0.639732 0.829783
O O11 0.130972 0.924040 0.226844
O O12 0.421929 0.259207 0.614252
O O13 0.119151 0.274904 0.498018
O O14 0.500000 0.500000 0.000000
O O15 0.226478 0.688490 0.079582
O O16 0.500000 0.000000 0.500000
O O17 0.196470 0.844680 0.984992
O O18 0.000000 0.500000 0.500000
#
# Coordination Sequence:
#
# PCOD9063721 Si02
#       8
#     2   2   2   2   2   2   2   2
#     4  11  18  29  51  83 116 137 175 230 284 330
#     4   9  16  26  44  70 102 140 169 222 274 314
#     4  10  18  27  46  81 114 136 176 221 292 321
#     4   9  19  31  52  76 109 142 181 231 277 315
#     4  10  20  31  47  82 117 145 170 221 290 331
#     4  10  23  39  58  80 110 151 194 228 268 328
#     4  11  21  33  56  84 112 148 185 225 278 332
#     4  10  18  33  51  73 115 141 175 228 282 319
#
# _framework density 25.082429999999999
#
# number of rings (size 3 to 8) (size 9 to 14) (size 15 to 20)
#    0.000    2.000    5.000    2.625    1.750    0.000 
#    0.000    0.625    0.000    1.500    0.000    0.000 
#    0.000    0.000    0.000    0.000    0.000    0.000 
#
# Total GULP energy -89156.813147 kJ/mol
# GULP energy per Si atom -5572.300822 kJ/mol
# Density = 2.502534 g / cm^3
# Si number density = 25.082430 Si / 1000 Ang^3
#
#
#
# Elastic Constant Matrix: (Units=GPa)
#
#
# Indices 1 2 3 4 5 6 
#
# 1 108.0245 10.0952 54.2336 8.7032 15.8425 13.7266
# 2 10.0952 57.1774 17.4677 -9.5492 1.2386 12.6710
# 3 54.2336 17.4677 145.1905 -14.5381 1.3130 3.4071
# 4 8.7032 -9.5492 -14.5381 32.9747 7.9228 1.9043
# 5 15.8425 1.2386 1.3130 7.9228 29.3389 6.9610
# 6 13.7266 12.6710 3.4071 1.9043 6.9610 39.7707
#
#
#
# Elastic Compliance Matrix: (Units=1/GPa)
#
#
# Indices 1 2 3 4 5 6 
#
# 1 0.013477 -0.000819 -0.005300 -0.004754 -0.005052 -0.002825
# 2 -0.000819 0.020478 -0.001403 0.006009 -0.000481 -0.006325
# 3 -0.005300 -0.001403 0.009493 0.004895 0.000921 0.001067
# 4 -0.004754 0.006009 0.004895 0.037404 -0.007738 -0.001129
# 5 -0.005052 -0.000481 0.000921 -0.007738 0.040024 -0.004817
# 6 -0.002825 -0.006325 0.001067 -0.001129 -0.004817 0.028940
#
#
# Mechanical properties :
#
#
# Convention : Reuss Voigt Hill
#
# Bulk Modulus (GPa) = 35.20613 52.66505 43.93559
# Shear Modulus (GPa) = 28.68156 35.65659 32.16907
#
# Velocity S-wave (km/s) = 3.38522 3.77447 3.58513
# Velocity P-wave (km/s) = 5.41722 6.32755 5.89000
#
# Compressibility (1/GPa) = 0.02840415
#
# Stress axis : x y z
#
# Youngs Moduli (GPa) = 74.19906 48.83198 105.34420
#
# Poissons Ratio (x) = 0.03999 0.55830
# Poissons Ratio (y) = 0.06077 0.14784
# Poissons Ratio (z) = 0.39323 0.06853
#
# Static dielectric constant tensor:
#      x y z
#    x 2.135230 -0.049790 -0.040070 
#    y -0.049790 2.135080 0.115380 
#    z -0.040070 0.115380 2.060680 
# 
# From -- ./inp_files/436923.got.cif
#   From: 2010.05.17/outbox.cif.g08.bks.cpg/sg2_219_cif.got.tgz:436923.got - 2010.06.03 11:33:40.
