data_PCOD9063799
_publ_section_title
;
Structure prediction by ZEFSAII (Michael W. Deem and Ramdas Pophale) SiO2 
 PCOD9063799
Probable space group: P -1
;
_chemical_formula_sum "Si O2"
_cell_formula_units_Z 14
_cell_length_a 12.695234
_cell_length_b 15.528292
_cell_length_c 11.716142
_cell_angle_alpha 55.911380
_cell_angle_beta 38.674112
_cell_angle_gamma 27.968755
_cell_volume 607.724986
_symmetry_space_group_name_H-M "P -1"
_symmetry_group_IT_number 2
_symmetry_cell_setting 'triclinic'
loop_
_space_group_symop_operation_xyz
x,y,z
-x,-y,-z
loop_
_atom_site_type_symbol
_atom_site_label
_atom_site_fract_x
_atom_site_fract_y
_atom_site_fract_z
Si Si1 0.708410 0.289263 0.347212
Si Si2 0.103201 0.460330 0.274008
Si Si3 0.863261 0.357601 0.564964
Si Si4 0.875683 0.996427 0.001275
Si Si5 0.256360 0.361541 0.784246
Si Si6 0.760463 0.923606 0.760334
Si Si7 0.111742 0.204544 0.704291
O O1 0.494382 0.478654 0.306636
O O2 0.422962 0.379525 0.589427
O O3 0.944199 0.210156 0.302375
O O4 0.916793 0.108693 0.214317
O O5 0.903703 0.460611 0.476084
O O6 0.964903 0.558950 0.192634
O O7 0.014061 0.612637 0.301855
O O8 0.491141 0.226681 0.130392
O O9 0.123818 0.193583 0.366400
O O10 0.931599 0.264165 0.695614
O O11 0.921664 0.855497 0.117080
O O12 0.000000 0.000000 0.000000
O O13 0.568466 0.126811 0.729352
O O14 0.000000 0.500000 0.000000
O O15 0.500000 0.000000 0.000000
O O16 0.500000 0.000000 0.500000
#
# Coordination Sequence:
#
# PCOD9063799 Si02
#       7
#     2   2   2   2   2   2   2
#     4  11  26  47  71 107 152 191 245 308 370 441
#     4  11  25  47  73 107 148 189 253 305 369 437
#     4  11  24  44  74 105 144 193 250 308 360 436
#     4  12  28  47  73 111 154 191 245 308 370 440
#     4  11  25  47  75 105 145 198 247 305 377 440
#     4  12  25  45  74 108 148 191 249 304 372 444
#     4  12  26  46  78 106 145 202 249 299 374 439
#
# _framework density 23.036735
#
# number of rings (size 3 to 8) (size 9 to 14) (size 15 to 20)
#    0.000    0.571    1.429    6.429    8.000    2.286 
#    0.000    0.000    0.000    0.000    0.000    0.000 
#    0.000    0.000    0.000    0.000    0.000    0.000 
#
# Total GULP energy -78311.478770 kJ/mol
# GULP energy per Si atom -5593.677055 kJ/mol
# Density = 2.298430 g / cm^3
# Si number density = 23.036735 Si / 1000 Ang^3
#
#
#
# Elastic Constant Matrix: (Units=GPa)
#
#
# Indices 1 2 3 4 5 6 
#
# 1 149.1215 39.3366 49.4925 13.2301 10.4444 -29.8008
# 2 39.3366 105.0551 25.8618 30.7904 0.3302 -20.9230
# 3 49.4925 25.8618 100.6797 7.5900 15.9963 -3.7392
# 4 13.2301 30.7904 7.5900 21.7352 -5.0716 -4.4306
# 5 10.4444 0.3302 15.9963 -5.0716 38.9154 10.3845
# 6 -29.8008 -20.9230 -3.7392 -4.4306 10.3845 56.5444
#
#
#
# Elastic Compliance Matrix: (Units=1/GPa)
#
#
# Indices 1 2 3 4 5 6 
#
# 1 0.009540 -0.000841 -0.003639 -0.003012 -0.002714 0.004738
# 2 -0.000841 0.018659 -0.001672 -0.025206 -0.003888 0.005089
# 3 -0.003639 -0.001672 0.012857 -0.001083 -0.004167 -0.001006
# 4 -0.003012 -0.025206 -0.001083 0.085902 0.014509 -0.006920
# 5 -0.002714 -0.003888 -0.004167 0.014509 0.032174 -0.007917
# 6 0.004738 0.005089 -0.001006 -0.006920 -0.007917 0.022911
#
#
# Mechanical properties :
#
#
# Convention : Reuss Voigt Hill
#
# Bulk Modulus (GPa) = 34.78200 64.91533 49.84866
# Shear Modulus (GPa) = 24.51777 39.45002 31.98390
#
# Velocity S-wave (km/s) = 3.26589 4.14271 3.73015
# Velocity P-wave (km/s) = 5.41780 7.15003 6.34332
#
# Compressibility (1/GPa) = 0.02875051
#
# Stress axis : x y z
#
# Youngs Moduli (GPa) = 104.82219 53.59321 77.77625
#
# Poissons Ratio (x) = 0.04509 0.28305
# Poissons Ratio (y) = 0.08818 0.13007
# Poissons Ratio (z) = 0.38148 0.08963
#
# Static dielectric constant tensor:
#      x y z
#    x 1.923550 0.017150 -0.022290 
#    y 0.017150 1.842020 0.040380 
#    z -0.022290 0.040380 1.813250 
# 
# From -- ./inp_files/432665.got.cif
#   From: 2010.05.17/outbox.cif.g08.bks.cpg/sg2_217_cif.got.tgz:432665.got - 2010.06.03 11:33:40.
