data_PCOD9063251
_publ_section_title
;
Structure prediction by ZEFSAII (Michael W. Deem and Ramdas Pophale) SiO2 
 PCOD9063251
Probable space group: P -1
;
_chemical_formula_sum "Si O2"
_cell_formula_units_Z 15
_cell_length_a 13.608711
_cell_length_b 5.919043
_cell_length_c 12.770088
_cell_angle_alpha 96.472790
_cell_angle_beta 38.505262
_cell_angle_gamma 103.925450
_cell_volume 616.710648
_symmetry_space_group_name_H-M "P -1"
_symmetry_group_IT_number 2
_symmetry_cell_setting 'triclinic'
loop_
_space_group_symop_operation_xyz
x,y,z
-x,-y,-z
loop_
_atom_site_type_symbol
_atom_site_label
_atom_site_fract_x
_atom_site_fract_y
_atom_site_fract_z
Si Si1 0.558085 0.779724 0.497835
Si Si2 0.862382 0.834521 0.675206
Si Si3 0.090962 0.634424 0.627809
Si Si4 0.500000 0.000000 0.000000
Si Si5 0.627587 0.383894 0.750250
Si Si6 0.136089 0.818467 0.152562
Si Si7 0.930587 0.017760 0.172860
Si Si8 0.559154 0.309570 0.173141
O O1 0.500000 0.500000 0.500000
O O2 0.753453 0.843783 0.325486
O O3 0.503908 0.775163 0.664037
O O4 0.500000 0.000000 0.500000
O O5 0.748996 0.629830 0.695764
O O6 0.959083 0.721276 0.673171
O O7 0.769029 0.004627 0.825544
O O8 0.000000 0.000000 0.500000
O O9 0.260040 0.715765 0.429767
O O10 0.020928 0.356430 0.676397
O O11 0.096339 0.738986 0.745175
O O12 0.429158 0.740415 0.100381
O O13 0.484362 0.117977 0.137693
O O14 0.482759 0.447144 0.809027
O O15 0.066758 0.958048 0.130966
O O16 0.250235 0.673286 0.998119
O O17 0.000000 0.000000 0.000000
#
# Coordination Sequence:
#
# PCOD9063251 Si02
#       8
#     2   2   2   1   2   2   2   2
#     4  12  31  55  86 121 165 216 273 349 418 494
#     4  11  24  43  73 108 148 201 255 311 392 473
#     4  11  25  44  77 106 148 197 259 316 392 478
#     4  12  28  46  74 110 166 206 264 328 410 486
#     4  12  26  46  73 114 157 210 259 327 405 498
#     4  11  25  47  75 111 150 201 258 325 389 488
#     4  11  27  50  80 111 147 203 268 327 403 475
#     4  12  28  48  78 115 165 206 271 330 419 486
#
# _framework density 24.322592
#
# number of rings (size 3 to 8) (size 9 to 14) (size 15 to 20)
#    0.000    0.533    1.333    4.800   13.067    2.667 
#    0.000    0.000    0.000    0.000    0.000    0.000 
#    0.000    0.000    0.000    0.000    0.000    0.000 
#
# Total GULP energy -83761.561327 kJ/mol
# GULP energy per Si atom -5584.104088 kJ/mol
# Density = 2.426723 g / cm^3
# Si number density = 24.322592 Si / 1000 Ang^3
#
#
#
# Elastic Constant Matrix: (Units=GPa)
#
#
# Indices 1 2 3 4 5 6 
#
# 1 79.8739 27.7755 45.3405 13.5370 17.9835 -13.4702
# 2 27.7755 101.4112 52.3286 1.6848 16.9981 15.7074
# 3 45.3405 52.3286 213.6362 8.2725 26.3306 4.5015
# 4 13.5370 1.6848 8.2725 47.5708 -3.2744 -6.1752
# 5 17.9835 16.9981 26.3306 -3.2744 55.0796 0.1985
# 6 -13.4702 15.7074 4.5015 -6.1752 0.1985 51.5439
#
#
#
# Elastic Compliance Matrix: (Units=1/GPa)
#
#
# Indices 1 2 3 4 5 6 
#
# 1 0.017591 -0.003785 -0.002306 -0.004015 -0.003731 0.005485
# 2 -0.003785 0.012989 -0.002072 0.000243 -0.001751 -0.004731
# 3 -0.002306 -0.002072 0.005885 -0.000463 -0.001447 -0.000535
# 4 -0.004015 0.000243 -0.000463 0.022638 0.002797 0.001618
# 5 -0.003731 -0.001751 -0.001447 0.002797 0.020772 -0.000060
# 6 0.005485 -0.004731 -0.000535 0.001618 -0.000060 0.022517
#
#
# Mechanical properties :
#
#
# Convention : Reuss Voigt Hill
#
# Bulk Modulus (GPa) = 49.65871 71.75671 60.70771
# Shear Modulus (GPa) = 39.86190 48.80399 44.33294
#
# Velocity S-wave (km/s) = 4.05270 4.48429 4.27395
# Velocity P-wave (km/s) = 6.50847 7.50852 7.02631
#
# Compressibility (1/GPa) = 0.02013745
#
# Stress axis : x y z
#
# Youngs Moduli (GPa) = 56.84734 76.98844 169.91242
#
# Poissons Ratio (x) = 0.29143 0.39189
# Poissons Ratio (y) = 0.21519 0.35208
# Poissons Ratio (z) = 0.13111 0.15953
#
# Static dielectric constant tensor:
#      x y z
#    x 1.822850 0.041460 -0.011180 
#    y 0.041460 2.071750 -0.004900 
#    z -0.011180 -0.004900 1.912990 
# 
# From -- ./inp_files/442041.got.cif
#   From: 2010.05.17/outbox.cif.g08.bks.cpg/sg2_222_cif.got.tgz:442041.got - 2010.06.03 11:33:40.
