data_PCOD9063057
_publ_section_title
;
Structure prediction by ZEFSAII (Michael W. Deem and Ramdas Pophale) SiO2 
 PCOD9063057
Probable space group: P -1
;
_chemical_formula_sum "Si O2"
_cell_formula_units_Z 16
_cell_length_a 11.394568
_cell_length_b 17.539083
_cell_length_c 9.269349
_cell_angle_alpha 94.126129
_cell_angle_beta 53.683823
_cell_angle_gamma 137.818074
_cell_volume 736.632225
_symmetry_space_group_name_H-M "P -1"
_symmetry_group_IT_number 2
_symmetry_cell_setting 'triclinic'
loop_
_space_group_symop_operation_xyz
x,y,z
-x,-y,-z
loop_
_atom_site_type_symbol
_atom_site_label
_atom_site_fract_x
_atom_site_fract_y
_atom_site_fract_z
Si Si1 0.374571 0.193423 0.586768
Si Si2 0.740717 0.605466 0.633436
Si Si3 0.185505 0.437232 0.131111
Si Si4 0.817923 0.402558 0.765110
Si Si5 0.414153 0.941681 0.218679
Si Si6 0.194517 0.466279 0.682174
Si Si7 0.729282 0.210610 0.222554
Si Si8 0.310111 0.100856 0.946841
O O1 0.567310 0.357953 0.448677
O O2 0.519878 0.188859 0.394034
O O3 0.367146 0.161975 0.754855
O O4 0.033505 0.056720 0.786032
O O5 0.744494 0.542553 0.747657
O O6 0.690784 0.550542 0.502337
O O7 0.061265 0.786954 0.449017
O O8 0.473596 0.538492 0.856901
O O9 0.135937 0.504037 0.154608
O O10 0.887326 0.261166 0.266691
O O11 0.482396 0.234936 0.947835
O O12 0.000000 0.500000 0.500000
O O13 0.944107 0.386849 0.749253
O O14 0.537636 0.912909 0.157973
O O15 0.557633 0.065660 0.245061
O O16 0.500000 0.000000 0.000000
O O17 0.016334 0.361553 0.938241
#
# Coordination Sequence:
#
# PCOD9063057 Si02
#       8
#     2   2   2   2   2   2   2   2
#     4  11  25  42  68 103 132 168 229 280 331 388
#     4  11  24  44  67  95 134 179 223 268 328 405
#     4  11  25  40  69 103 126 173 232 272 322 396
#     4  12  19  42  70  92 128 177 219 268 326 392
#     4  12  25  47  65  94 140 182 213 270 344 405
#     4  12  23  45  69  92 136 178 218 272 337 397
#     4  12  26  44  66 101 137 173 222 278 335 395
#     4  11  24  43  69  99 133 177 219 275 338 394
#
# _framework density 21.720472000000001
#
# number of rings (size 3 to 8) (size 9 to 14) (size 15 to 20)
#    0.000    0.500    6.250    1.125    3.500    3.500 
#    0.000    1.250    0.000    0.000    0.000    0.000 
#    0.000    0.000    0.000    0.000    0.000    0.000 
#
# Total GULP energy -89463.318848 kJ/mol
# GULP energy per Si atom -5591.457428 kJ/mol
# Density = 2.167104 g / cm^3
# Si number density = 21.720472 Si / 1000 Ang^3
#
#
#
# Elastic Constant Matrix: (Units=GPa)
#
#
# Indices 1 2 3 4 5 6 
#
# 1 43.0278 12.3885 13.2976 -7.4445 -7.0320 13.6165
# 2 12.3885 145.1950 43.2232 -8.7694 -22.6190 2.4604
# 3 13.2976 43.2232 109.9749 -4.3457 -19.6531 -2.9052
# 4 -7.4445 -8.7694 -4.3457 44.0030 3.1909 -3.6583
# 5 -7.0320 -22.6190 -19.6531 3.1909 32.7755 -5.2392
# 6 13.6165 2.4604 -2.9052 -3.6583 -5.2392 25.6467
#
#
#
# Elastic Compliance Matrix: (Units=1/GPa)
#
#
# Indices 1 2 3 4 5 6 
#
# 1 0.030248 -0.000959 -0.003395 0.003216 0.000970 -0.015695
# 2 -0.000959 0.008375 -0.002390 0.001007 0.004109 0.000418
# 3 -0.003395 -0.002390 0.011494 0.000073 0.005212 0.004409
# 4 0.003216 0.001007 0.000073 0.023645 -0.000642 0.001446
# 5 0.000970 0.004109 0.005212 -0.000642 0.037915 0.007335
# 6 -0.015695 0.000418 0.004409 0.001446 0.007335 0.049488
#
#
# Mechanical properties :
#
#
# Convention : Reuss Voigt Hill
#
# Bulk Modulus (GPa) = 27.30135 48.44625 37.87380
# Shear Modulus (GPa) = 26.75795 35.77092 31.26444
#
# Velocity S-wave (km/s) = 3.51368 4.06257 3.79806
# Velocity P-wave (km/s) = 5.39055 6.66024 6.05875
#
# Compressibility (1/GPa) = 0.03662822
#
# Stress axis : x y z
#
# Youngs Moduli (GPa) = 33.06028 119.40889 87.00503
#
# Poissons Ratio (x) = 0.11450 0.29535
# Poissons Ratio (y) = 0.03170 0.20797
# Poissons Ratio (z) = 0.11223 0.28542
#
# Static dielectric constant tensor:
#      x y z
#    x 1.803570 0.023220 0.062190 
#    y 0.023220 1.792240 0.033640 
#    z 0.062190 0.033640 1.828970 
# 
# From -- ./inp_files/185806.got.cif
#   From: 2010.05.17/outbox.cif.g08.bks.cpg/sg2_93_cif.got.tgz:185806.got - 2010.06.03 11:33:40.
