data_PCOD9063588
_publ_section_title
;
Structure prediction by ZEFSAII (Michael W. Deem and Ramdas Pophale) SiO2 
 PCOD9063588
Probable space group: P -1
;
_chemical_formula_sum "Si O2"
_cell_formula_units_Z 10
_cell_length_a 9.050245
_cell_length_b 11.214584
_cell_length_c 11.609761
_cell_angle_alpha 25.598364
_cell_angle_beta 62.579517
_cell_angle_gamma 59.947828
_cell_volume 440.545075
_symmetry_space_group_name_H-M "P -1"
_symmetry_group_IT_number 2
_symmetry_cell_setting 'triclinic'
loop_
_space_group_symop_operation_xyz
x,y,z
-x,-y,-z
loop_
_atom_site_type_symbol
_atom_site_label
_atom_site_fract_x
_atom_site_fract_y
_atom_site_fract_z
Si Si1 0.066945 0.197348 0.892395
Si Si2 0.381730 0.299818 0.758833
Si Si3 0.619655 0.221310 0.254037
Si Si4 0.141113 0.621307 0.769363
Si Si5 0.038354 0.158986 0.580709
O O1 0.248296 0.261851 0.740827
O O2 0.956936 0.517251 0.672366
O O3 0.000000 0.000000 0.000000
O O4 0.091075 0.989668 0.175264
O O5 0.500000 0.500000 0.500000
O O6 0.263958 0.420345 0.806620
O O7 0.500000 0.000000 0.000000
O O8 0.719463 0.292289 0.270672
O O9 0.500000 0.000000 0.500000
O O10 0.782674 0.052554 0.271026
O O11 0.500000 0.500000 0.000000
O O12 0.021649 0.832334 0.537759
O O13 0.000000 0.500000 0.000000
#
# Coordination Sequence:
#
# PCOD9063588 Si02
#       5
#     2   2   2   2   2
#     4  11  24  44  71 102 139 189 238 292 356 433
#     4  11  25  44  67 102 139 180 233 294 354 413
#     4  12  26  42  66 104 139 176 234 306 357 401
#     4  11  25  49  75 100 143 200 242 283 355 451
#     4  11  24  45  71 102 139 191 245 287 353 442
#
# _framework density 22.699151000000001
#
# number of rings (size 3 to 8) (size 9 to 14) (size 15 to 20)
#    0.000    0.800    0.000    8.400    0.000   11.200 
#    0.000    0.000    0.000    0.000    0.000    0.000 
#    0.000    0.000    0.000    0.000    0.000    0.000 
#
# Total GULP energy -55776.042452 kJ/mol
# GULP energy per Si atom -5577.604245 kJ/mol
# Density = 2.264749 g / cm^3
# Si number density = 22.699151 Si / 1000 Ang^3
#
#
#
# Elastic Constant Matrix: (Units=GPa)
#
#
# Indices 1 2 3 4 5 6 
#
# 1 193.5258 64.2012 88.0988 -17.8514 -22.2675 4.0700
# 2 64.2012 100.3675 56.1071 -15.3170 -6.3556 1.1179
# 3 88.0988 56.1071 208.2010 -13.0228 -11.0896 3.1493
# 4 -17.8514 -15.3170 -13.0228 51.3280 -9.5265 -1.3695
# 5 -22.2675 -6.3556 -11.0896 -9.5265 64.3451 -14.4275
# 6 4.0700 1.1179 3.1493 -1.3695 -14.4275 44.7692
#
#
#
# Elastic Compliance Matrix: (Units=1/GPa)
#
#
# Indices 1 2 3 4 5 6 
#
# 1 0.007629 -0.003318 -0.002122 0.001550 0.002245 0.000310
# 2 -0.003318 0.013653 -0.002113 0.002439 0.000257 0.000267
# 3 -0.002122 -0.002113 0.006296 0.000253 0.000148 -0.000142
# 4 0.001550 0.002439 0.000253 0.021690 0.004453 0.001879
# 5 0.002245 0.000257 0.000148 0.004453 0.018334 0.005824
# 6 0.000310 0.000267 -0.000142 0.001879 0.005824 0.024246
#
#
# Mechanical properties :
#
#
# Convention : Reuss Voigt Hill
#
# Bulk Modulus (GPa) = 80.18507 102.10096 91.14301
# Shear Modulus (GPa) = 44.99969 51.66760 48.33365
#
# Velocity S-wave (km/s) = 4.45729 4.77612 4.61946
# Velocity P-wave (km/s) = 7.86713 8.68866 8.28808
#
# Compressibility (1/GPa) = 0.01247115
#
# Stress axis : x y z
#
# Youngs Moduli (GPa) = 131.07942 73.24587 158.82735
#
# Poissons Ratio (x) = 0.24306 0.33703
# Poissons Ratio (y) = 0.43498 0.33557
# Poissons Ratio (z) = 0.27815 0.15475
#
# Static dielectric constant tensor:
#      x y z
#    x 1.858300 0.037880 0.000200 
#    y 0.037880 2.008290 -0.002880 
#    z 0.000200 -0.002880 1.973320 
# 
# From -- ./inp_files/386453.got.cif
#   From: 2010.05.17/outbox.cif.g08.bks.cpg/sg2_194_cif.got.tgz:386453.got - 2010.06.03 11:33:40.
