data_PCOD9063650
_publ_section_title
;
Structure prediction by ZEFSAII (Michael W. Deem and Ramdas Pophale) SiO2 
 PCOD9063650
Probable space group: P -1
;
_chemical_formula_sum "Si O2"
_cell_formula_units_Z 16
_cell_length_a 6.475080
_cell_length_b 15.202169
_cell_length_c 14.373631
_cell_angle_alpha 141.347448
_cell_angle_beta 128.987526
_cell_angle_gamma 65.251725
_cell_volume 679.157731
_symmetry_space_group_name_H-M "P -1"
_symmetry_group_IT_number 2
_symmetry_cell_setting 'triclinic'
loop_
_space_group_symop_operation_xyz
x,y,z
-x,-y,-z
loop_
_atom_site_type_symbol
_atom_site_label
_atom_site_fract_x
_atom_site_fract_y
_atom_site_fract_z
Si Si1 0.274434 0.417160 0.061429
Si Si2 0.114614 0.838729 0.154291
Si Si3 0.213945 0.163679 0.458269
Si Si4 0.683286 0.739925 0.237123
Si Si5 0.749571 0.286414 0.620847
Si Si6 0.674479 0.276101 0.383174
Si Si7 0.076811 0.152595 0.104597
Si Si8 0.761328 0.382375 0.302808
O O1 0.195494 0.572222 0.184309
O O2 0.550069 0.423196 0.203058
O O3 0.345046 0.386940 0.949935
O O4 0.062497 0.285603 0.937171
O O5 0.422359 0.813545 0.206300
O O6 0.146143 0.999748 0.336460
O O7 0.980060 0.842194 0.017471
O O8 0.312863 0.270973 0.659448
O O9 0.466620 0.191062 0.483882
O O10 0.936176 0.203299 0.373432
O O11 0.002414 0.801301 0.365765
O O12 0.746129 0.342716 0.559871
O O13 0.391725 0.181656 0.239188
O O14 0.615734 0.355560 0.338571
O O15 0.902268 0.258821 0.193788
O O16 0.000000 0.000000 0.000000
O O17 0.000000 0.500000 0.500000
#
# Coordination Sequence:
#
# PCOD9063650 Si02
#       8
#     2   2   2   2   2   2   2   2
#     4  12  26  44  71 107 142 184 241 296 355 423
#     4  12  26  44  71 107 142 184 241 296 355 423
#     4  11  26  47  72 104 142 192 239 293 359 430
#     4  11  26  48  74 102 146 187 240 296 358 419
#     4  11  26  47  72 104 142 192 239 293 359 430
#     4  11  24  44  72 100 144 185 230 296 356 419
#     4  12  26  44  70 105 145 189 238 293 361 434
#     4  12  26  44  70 105 145 189 238 293 361 434
#
# _framework density 23.558592999999998
#
# number of rings (size 3 to 8) (size 9 to 14) (size 15 to 20)
#    0.000    0.500    2.500    5.250    3.500    8.000 
#    0.000    0.000    0.000    0.000    0.000    0.000 
#    0.000    0.000    0.000    0.000    0.000    0.000 
#
# Total GULP energy -89326.120736 kJ/mol
# GULP energy per Si atom -5582.882546 kJ/mol
# Density = 2.350497 g / cm^3
# Si number density = 23.558593 Si / 1000 Ang^3
#
#
#
# Elastic Constant Matrix: (Units=GPa)
#
#
# Indices 1 2 3 4 5 6 
#
# 1 106.1823 17.9312 74.5192 4.0752 35.9995 -19.1771
# 2 17.9312 65.8510 29.7814 -15.0344 -4.0328 -9.1930
# 3 74.5192 29.7814 167.3761 3.7290 61.7423 -30.5701
# 4 4.0752 -15.0344 3.7290 59.1992 27.9441 -1.1143
# 5 35.9995 -4.0328 61.7423 27.9441 118.4402 -52.1085
# 6 -19.1771 -9.1930 -30.5701 -1.1143 -52.1085 64.2200
#
#
#
# Elastic Compliance Matrix: (Units=1/GPa)
#
#
# Indices 1 2 3 4 5 6 
#
# 1 0.013974 -0.001455 -0.005443 -0.000424 -0.001179 0.000409
# 2 -0.001455 0.018640 -0.003433 0.003389 0.003665 0.003632
# 3 -0.005443 -0.003433 0.010509 0.000946 -0.004490 -0.000741
# 4 -0.000424 0.003389 0.000946 0.021088 -0.007321 -0.004766
# 5 -0.001179 0.003665 -0.004490 -0.007321 0.018777 0.013144
# 6 0.000409 0.003632 -0.000741 -0.004766 0.013144 0.026443
#
#
# Mechanical properties :
#
#
# Convention : Reuss Voigt Hill
#
# Bulk Modulus (GPa) = 44.52473 64.87478 54.69976
# Shear Modulus (GPa) = 36.34274 62.85039 49.59656
#
# Velocity S-wave (km/s) = 3.93192 5.17071 4.59327
# Velocity P-wave (km/s) = 6.28919 7.95272 7.16937
#
# Compressibility (1/GPa) = 0.02245943
#
# Stress axis : x y z
#
# Youngs Moduli (GPa) = 71.56391 53.64905 95.16033
#
# Poissons Ratio (x) = 0.07807 0.51798
# Poissons Ratio (y) = 0.10414 0.32666
# Poissons Ratio (z) = 0.38954 0.18416
#
# Static dielectric constant tensor:
#      x y z
#    x 1.867400 -0.018340 -0.076910 
#    y -0.018340 1.862600 -0.058170 
#    z -0.076910 -0.058170 1.811200 
# 
# From -- ./inp_files/364150.got.cif
#   From: 2010.05.17/outbox.cif.g08.bks.cpg/sg2_183_cif.got.tgz:364150.got - 2010.06.03 11:33:40.
