data_PCOD9063307
_publ_section_title
;
Structure prediction by ZEFSAII (Michael W. Deem and Ramdas Pophale) SiO2 
 PCOD9063307
Probable space group: P -1
;
_chemical_formula_sum "Si O2"
_cell_formula_units_Z 14
_cell_length_a 5.402261
_cell_length_b 12.674480
_cell_length_c 13.905387
_cell_angle_alpha 49.557831
_cell_angle_beta 114.215192
_cell_angle_gamma 84.186430
_cell_volume 560.711747
_symmetry_space_group_name_H-M "P -1"
_symmetry_group_IT_number 2
_symmetry_cell_setting 'triclinic'
loop_
_space_group_symop_operation_xyz
x,y,z
-x,-y,-z
loop_
_atom_site_type_symbol
_atom_site_label
_atom_site_fract_x
_atom_site_fract_y
_atom_site_fract_z
Si Si1 0.341261 0.461432 0.609083
Si Si2 0.613469 0.043695 0.090424
Si Si3 0.591944 0.372931 0.908447
Si Si4 0.344827 0.771332 0.350467
Si Si5 0.660213 0.865005 0.811041
Si Si6 0.340462 0.717698 0.733110
Si Si7 0.390117 0.166961 0.467911
O O1 0.430226 0.464675 0.730001
O O2 0.337985 0.612709 0.472592
O O3 0.572294 0.273277 0.721454
O O4 0.000000 0.500000 0.500000
O O5 0.473744 0.022052 0.181357
O O6 0.505832 0.232791 0.974747
O O7 0.997801 0.929777 0.219716
O O8 0.500000 0.000000 0.000000
O O9 0.477820 0.524433 0.872379
O O10 0.975251 0.272993 0.031587
O O11 0.611866 0.753263 0.477290
O O12 0.455692 0.783875 0.799740
O O13 0.620103 0.976466 0.646289
O O14 0.472122 0.766675 0.630651
O O15 0.960158 0.800788 0.623097
#
# Coordination Sequence:
#
# PCOD9063307 Si02
#       7
#     2   2   2   2   2   2   2
#     4  11  24  43  75 108 150 206 256 323 386 465
#     4  12  28  47  75 113 160 208 257 326 397 469
#     4  12  27  46  75 114 160 202 260 324 396 461
#     4  11  24  44  72 108 152 200 266 313 389 466
#     4  12  29  49  77 111 158 207 261 325 399 461
#     4  12  29  51  83 114 157 207 270 323 389 470
#     4  12  26  50  82 113 153 206 264 327 387 465
#
# _framework density 24.968267000000001
#
# number of rings (size 3 to 8) (size 9 to 14) (size 15 to 20)
#    0.000    0.286    2.857    4.714    8.000    4.000 
#    0.000    0.000    0.000    0.000    0.000    0.000 
#    0.000    0.000    0.000    0.000    0.000    0.000 
#
# Total GULP energy -78272.539550 kJ/mol
# GULP energy per Si atom -5590.895682 kJ/mol
# Density = 2.491144 g / cm^3
# Si number density = 24.968267 Si / 1000 Ang^3
#
#
#
# Elastic Constant Matrix: (Units=GPa)
#
#
# Indices 1 2 3 4 5 6 
#
# 1 95.1510 37.5250 53.2469 24.7929 9.4994 5.2336
# 2 37.5250 181.8044 47.5088 18.0900 -7.2626 15.8011
# 3 53.2469 47.5088 98.7881 3.1139 14.6889 -0.5492
# 4 24.7929 18.0900 3.1139 45.3216 10.4814 4.4984
# 5 9.4994 -7.2626 14.6889 10.4814 43.6724 5.8434
# 6 5.2336 15.8011 -0.5492 4.4984 5.8434 47.9791
#
#
#
# Elastic Compliance Matrix: (Units=1/GPa)
#
#
# Indices 1 2 3 4 5 6 
#
# 1 0.018508 -0.000068 -0.009915 -0.009695 0.001815 -0.001422
# 2 -0.000068 0.007210 -0.003884 -0.003157 0.003620 -0.002556
# 3 -0.009915 -0.003884 0.018114 0.006992 -0.006624 0.002719
# 4 -0.009695 -0.003157 0.006992 0.029965 -0.008005 0.000343
# 5 0.001815 0.003620 -0.006624 -0.008005 0.027803 -0.004101
# 6 -0.001422 -0.002556 0.002719 0.000343 -0.004101 0.022338
#
#
# Mechanical properties :
#
#
# Convention : Reuss Voigt Hill
#
# Bulk Modulus (GPa) = 62.11806 72.47831 67.29818
# Shear Modulus (GPa) = 31.83908 43.22550 37.53229
#
# Velocity S-wave (km/s) = 3.57484 4.16530 3.88132
# Velocity P-wave (km/s) = 6.47859 7.22663 6.86281
#
# Compressibility (1/GPa) = 0.01609838
#
# Stress axis : x y z
#
# Youngs Moduli (GPa) = 54.02959 138.68970 55.20496
#
# Poissons Ratio (x) = 0.00949 0.54737
# Poissons Ratio (y) = 0.00370 0.21440
# Poissons Ratio (z) = 0.53572 0.53862
#
# Static dielectric constant tensor:
#      x y z
#    x 2.171290 -0.076140 -0.317790 
#    y -0.076140 2.039060 0.070910 
#    z -0.317790 0.070910 2.192260 
# 
# From -- ./inp_files/482682.got.cif
#   From: 2010.05.17/outbox.cif.g08.bks.cpg/sg2_242_cif.got.tgz:482682.got - 2010.06.03 11:33:40.
