data_PCOD9063383
_publ_section_title
;
Structure prediction by ZEFSAII (Michael W. Deem and Ramdas Pophale) SiO2 
 PCOD9063383
Probable space group: P -1
;
_chemical_formula_sum "Si O2"
_cell_formula_units_Z 16
_cell_length_a 9.336813
_cell_length_b 12.691317
_cell_length_c 8.943091
_cell_angle_alpha 114.582191
_cell_angle_beta 94.764296
_cell_angle_gamma 55.418014
_cell_volume 776.653237
_symmetry_space_group_name_H-M "P -1"
_symmetry_group_IT_number 2
_symmetry_cell_setting 'triclinic'
loop_
_space_group_symop_operation_xyz
x,y,z
-x,-y,-z
loop_
_atom_site_type_symbol
_atom_site_label
_atom_site_fract_x
_atom_site_fract_y
_atom_site_fract_z
Si Si1 0.738662 0.866556 0.780101
Si Si2 0.418154 0.866539 0.864675
Si Si3 0.246679 0.834246 0.548883
Si Si4 0.937937 0.451378 0.331891
Si Si5 0.572968 0.558420 0.253958
Si Si6 0.411634 0.397948 0.057982
Si Si7 0.125389 0.113423 0.518658
Si Si8 0.004706 0.600223 0.181522
O O1 0.563871 0.868645 0.781621
O O2 0.778348 0.885436 0.623159
O O3 0.907751 0.716331 0.771386
O O4 0.699638 0.991932 0.961096
O O5 0.300657 0.847713 0.728437
O O6 0.527708 0.738471 0.918212
O O7 0.406876 0.685243 0.404942
O O8 0.065648 0.845929 0.528844
O O9 0.220888 0.961402 0.519616
O O10 0.746412 0.484314 0.328629
O O11 0.000000 0.500000 0.500000
O O12 0.924548 0.561339 0.280184
O O13 0.588756 0.618041 0.130937
O O14 0.542584 0.440890 0.132941
O O15 0.213823 0.527834 0.166929
O O16 0.093822 0.230056 0.708627
O O17 0.000000 0.500000 0.000000
#
# Coordination Sequence:
#
# PCOD9063383 Si02
#       8
#     2   2   2   2   2   2   2   2
#     4  11  25  45  65 100 137 174 225 279 338 400
#     4  11  26  43  70  99 134 177 226 283 331 404
#     4  11  26  45  68  99 135 181 226 274 341 396
#     4  12  24  42  68 101 131 177 227 274 338 398
#     4  11  25  44  69  99 140 179 219 280 334 406
#     4  11  24  44  67 101 135 178 226 272 343 396
#     4  11  26  47  67  97 139 178 225 278 337 410
#     4  12  24  42  69  99 133 178 225 279 334 398
#
# _framework density 20.601216000000001
#
# number of rings (size 3 to 8) (size 9 to 14) (size 15 to 20)
#    0.000    0.750    5.000    1.500    3.500    1.500 
#    2.250    0.000    0.000    0.000    0.000    0.000 
#    0.000    0.000    0.000    0.000    0.000    0.000 
#
# Total GULP energy -89252.197844 kJ/mol
# GULP energy per Si atom -5578.262365 kJ/mol
# Density = 2.055433 g / cm^3
# Si number density = 20.601216 Si / 1000 Ang^3
#
#
#
# Elastic Constant Matrix: (Units=GPa)
#
#
# Indices 1 2 3 4 5 6 
#
# 1 70.0332 6.9333 50.6189 -19.7630 -6.0262 -2.6848
# 2 6.9333 39.5648 41.3013 -1.6787 -14.5643 3.0740
# 3 50.6189 41.3013 107.8176 27.1953 25.8190 -8.4555
# 4 -19.7630 -1.6787 27.1953 -5.6829 -26.9916 3.0967
# 5 -6.0262 -14.5643 25.8190 -26.9916 20.6203 0.7061
# 6 -2.6848 3.0740 -8.4555 3.0967 0.7061 34.3024
#
#
#
# Elastic Compliance Matrix: (Units=1/GPa)
#
#
# Indices 1 2 3 4 5 6 
#
# 1 0.012686 -0.005126 -0.000374 -0.006311 -0.007778 0.002090
# 2 -0.005126 0.030902 -0.004862 -0.019658 0.000772 -0.002610
# 3 -0.000374 -0.004862 0.006912 0.013071 0.004883 0.000830
# 4 -0.006311 -0.019658 0.013071 0.009647 -0.019605 0.004022
# 5 -0.007778 0.000772 0.004883 -0.019605 0.014923 0.001988
# 6 0.002090 -0.002610 0.000830 0.004022 0.001988 0.029350
#
#
# Mechanical properties :
#
#
# Convention : Reuss Voigt Hill
#
# Bulk Modulus (GPa) = 33.58442 46.12475 39.85458
# Shear Modulus (GPa) = 37.01799 17.75210 27.38504
#
# Velocity S-wave (km/s) = 4.24357 2.93866 3.64990
# Velocity P-wave (km/s) = 6.35201 5.82685 6.09509
#
# Compressibility (1/GPa) = 0.02977571
#
# Stress axis : x y z
#
# Youngs Moduli (GPa) = 78.82427 32.36082 144.68240
#
# Poissons Ratio (x) = 0.16589 0.05410
# Poissons Ratio (y) = 0.40408 0.70342
# Poissons Ratio (z) = 0.02947 0.15733
#
# Static dielectric constant tensor:
#      x y z
#    x 1.738990 0.023760 0.022000 
#    y 0.023760 1.730000 0.024380 
#    z 0.022000 0.024380 1.805260 
# 
# From -- ./inp_files/190181.got.cif
#   From: 2010.05.17/outbox.cif.g08.bks.cpg/sg2_96_cif.got.tgz:190181.got - 2010.06.03 11:33:40.
