data_PCOD9063578
_publ_section_title
;
Structure prediction by ZEFSAII (Michael W. Deem and Ramdas Pophale) SiO2 
 PCOD9063578
Probable space group: P -1
;
_chemical_formula_sum "Si O2"
_cell_formula_units_Z 16
_cell_length_a 8.919000
_cell_length_b 10.806270
_cell_length_c 17.382084
_cell_angle_alpha 146.474250
_cell_angle_beta 63.262807
_cell_angle_gamma 128.006470
_cell_volume 721.292676
_symmetry_space_group_name_H-M "P -1"
_symmetry_group_IT_number 2
_symmetry_cell_setting 'triclinic'
loop_
_space_group_symop_operation_xyz
x,y,z
-x,-y,-z
loop_
_atom_site_type_symbol
_atom_site_label
_atom_site_fract_x
_atom_site_fract_y
_atom_site_fract_z
Si Si1 0.929370 0.144525 0.201796
Si Si2 0.493076 0.658302 0.887504
Si Si3 0.221014 0.908458 0.351511
Si Si4 0.166962 0.102059 0.623547
Si Si5 0.832190 0.635355 0.889116
Si Si6 0.095806 0.229288 0.365095
Si Si7 0.396744 0.736819 0.645607
Si Si8 0.377294 0.071715 0.164972
O O1 0.719009 0.106590 0.244010
O O2 0.016970 0.293118 0.179070
O O3 0.054176 0.297629 0.325645
O O4 0.917940 0.870032 0.050858
O O5 0.330615 0.380479 0.754668
O O6 0.646023 0.633862 0.893806
O O7 0.599700 0.820004 0.870161
O O8 0.399524 0.819394 0.029572
O O9 0.210186 0.633582 0.206365
O O10 0.024736 0.891072 0.356403
O O11 0.235019 0.992323 0.480678
O O12 0.407460 0.114981 0.370158
O O13 0.096667 0.913388 0.614975
O O14 0.252625 0.468785 0.500817
O O15 0.183514 0.041028 0.230405
O O16 0.452671 0.720138 0.712119
#
# Coordination Sequence:
#
# PCOD9063578 Si02
#       8
#     2   2   2   2   2   2   2   2
#     4  11  26  45  70 101 134 180 228 271 338 401
#     4  11  25  44  72 100 139 177 223 277 338 400
#     4  11  27  44  70 100 137 178 222 281 341 397
#     4  11  27  45  68 103 133 178 226 280 338 398
#     4  11  25  47  69 100 140 179 219 280 338 401
#     4  12  25  45  70  99 136 180 229 277 331 402
#     4  12  25  46  70  99 138 179 225 281 334 399
#     4  11  24  44  71 101 132 182 227 274 332 399
#
# _framework density 22.182395
#
# number of rings (size 3 to 8) (size 9 to 14) (size 15 to 20)
#    0.000    0.750    3.750    2.250    8.750    2.500 
#    0.000    0.000    0.000    0.000    0.000    0.000 
#    0.000    0.000    0.000    0.000    0.000    0.000 
#
# Total GULP energy -89571.731260 kJ/mol
# GULP energy per Si atom -5598.233204 kJ/mol
# Density = 2.213191 g / cm^3
# Si number density = 22.182395 Si / 1000 Ang^3
#
#
#
# Elastic Constant Matrix: (Units=GPa)
#
#
# Indices 1 2 3 4 5 6 
#
# 1 46.0939 -7.0920 6.0094 -7.3601 2.1715 3.2892
# 2 -7.0920 49.8978 19.9886 2.7486 -15.4964 10.3280
# 3 6.0094 19.9886 89.5830 2.3383 6.4831 -2.3602
# 4 -7.3601 2.7486 2.3383 38.2599 3.0958 0.3563
# 5 2.1715 -15.4964 6.4831 3.0958 34.4509 1.1522
# 6 3.2892 10.3280 -2.3602 0.3563 1.1522 30.9609
#
#
#
# Elastic Compliance Matrix: (Units=1/GPa)
#
#
# Indices 1 2 3 4 5 6 
#
# 1 0.024016 0.006015 -0.003310 0.004307 0.001592 -0.004919
# 2 0.006015 0.032413 -0.009118 -0.001831 0.016507 -0.012740
# 3 -0.003310 -0.009118 0.014035 -0.000344 -0.006661 0.004715
# 4 0.004307 -0.001831 -0.000344 0.027401 -0.003491 -0.000058
# 5 0.001592 0.016507 -0.006661 -0.003491 0.038172 -0.007564
# 6 -0.004919 -0.012740 0.004715 -0.000058 -0.007564 0.037713
#
#
# Mechanical properties :
#
#
# Convention : Reuss Voigt Hill
#
# Bulk Modulus (GPa) = 17.35037 24.82074 21.08555
# Shear Modulus (GPa) = 24.29687 31.84559 28.07123
#
# Velocity S-wave (km/s) = 3.31316 3.79307 3.56121
# Velocity P-wave (km/s) = 4.74075 5.51334 5.14157
#
# Compressibility (1/GPa) = 0.05763566
#
# Stress axis : x y z
#
# Youngs Moduli (GPa) = 41.63959 30.85206 71.25201
#
# Poissons Ratio (x) = -0.18557 0.23587
# Poissons Ratio (y) = -0.25046 0.64969
# Poissons Ratio (z) = 0.13784 0.28132
#
# Static dielectric constant tensor:
#      x y z
#    x 1.840640 -0.015910 -0.009250 
#    y -0.015910 1.767640 -0.020290 
#    z -0.009250 -0.020290 1.802970 
# 
# From -- ./inp_files/283142.got.cif
#   From: 2010.05.17/outbox.cif.g08.bks.cpg/sg2_142_cif.got.tgz:283142.got - 2010.06.03 11:33:40.
