data_PCOD9063672
_publ_section_title
;
Structure prediction by ZEFSAII (Michael W. Deem and Ramdas Pophale) SiO2 
 PCOD9063672
Probable space group: P -1
;
_chemical_formula_sum "Si O2"
_cell_formula_units_Z 16
_cell_length_a 27.243713
_cell_length_b 12.161323
_cell_length_c 5.130246
_cell_angle_alpha 118.814800
_cell_angle_beta 71.402994
_cell_angle_gamma 151.490675
_cell_volume 688.236768
_symmetry_space_group_name_H-M "P -1"
_symmetry_group_IT_number 2
_symmetry_cell_setting 'triclinic'
loop_
_space_group_symop_operation_xyz
x,y,z
-x,-y,-z
loop_
_atom_site_type_symbol
_atom_site_label
_atom_site_fract_x
_atom_site_fract_y
_atom_site_fract_z
Si Si1 0.263263 0.558680 0.916905
Si Si2 0.991283 0.363615 0.060468
Si Si3 0.687612 0.014167 0.191515
Si Si4 0.246545 0.129358 0.016395
Si Si5 0.885503 0.547065 0.675756
Si Si6 0.052421 0.992614 0.540087
Si Si7 0.657172 0.535295 0.259243
Si Si8 0.585671 0.908416 0.766920
O O1 0.333144 0.594090 0.956475
O O2 0.174491 0.284608 0.622674
O O3 0.186211 0.494315 0.123790
O O4 0.346919 0.827351 0.949988
O O5 0.973061 0.195938 0.748134
O O6 0.879157 0.145438 0.145042
O O7 0.000000 0.500000 0.000000
O O8 0.084269 0.511619 0.268130
O O9 0.805520 0.327394 0.335233
O O10 0.625879 0.950705 0.462219
O O11 0.707378 0.912099 0.100027
O O12 0.620850 0.881823 0.889822
O O13 0.272731 0.253946 0.386951
O O14 0.303620 0.322318 0.910759
O O15 0.995083 0.847142 0.749451
O O16 0.000000 0.000000 0.500000
O O17 0.536981 0.318675 0.280651
#
# Coordination Sequence:
#
# PCOD9063672 Si02
#       8
#     2   2   2   2   2   2   2   2
#     4  11  24  44  72 104 146 188 246 299 366 437
#     4  12  28  44  73 108 152 194 243 299 370 443
#     4  11  26  47  75 104 148 187 247 295 369 440
#     4  12  28  46  74 108 146 190 243 298 364 441
#     4  11  26  44  72 106 149 197 238 302 367 444
#     4  12  23  42  72 105 148 195 245 295 365 442
#     4  12  27  47  74 106 145 187 246 308 363 428
#     4  11  26  49  74 105 139 193 243 309 368 424
#
# _framework density 23.247814000000002
#
# number of rings (size 3 to 8) (size 9 to 14) (size 15 to 20)
#    0.000    0.500    2.500    4.500    8.750    6.000 
#    0.000    4.375    0.000    0.000    0.000    0.000 
#    0.000    0.000    0.000    0.000    0.000    0.000 
#
# Total GULP energy -89299.816039 kJ/mol
# GULP energy per Si atom -5581.238502 kJ/mol
# Density = 2.319490 g / cm^3
# Si number density = 23.247814 Si / 1000 Ang^3
#
#
#
# Elastic Constant Matrix: (Units=GPa)
#
#
# Indices 1 2 3 4 5 6 
#
# 1 256.6121 -2.8368 -45.2317 -45.3448 34.3886 14.2874
# 2 -2.8368 91.6346 33.4098 -21.8589 -38.0151 10.4204
# 3 -45.2317 33.4098 96.8408 -6.6781 -37.8565 -3.2692
# 4 -45.3448 -21.8589 -6.6781 71.6098 -21.7439 -14.8835
# 5 34.3886 -38.0151 -37.8565 -21.7439 69.1832 16.1148
# 6 14.2874 10.4204 -3.2692 -14.8835 16.1148 50.1697
#
#
#
# Elastic Compliance Matrix: (Units=1/GPa)
#
#
# Indices 1 2 3 4 5 6 
#
# 1 0.004943 0.000126 0.002542 0.003383 0.000139 -0.000309
# 2 0.000126 0.020586 -0.000533 0.009679 0.015503 -0.006454
# 3 0.002542 -0.000533 0.015483 0.005391 0.008804 -0.000833
# 4 0.003383 0.009679 0.005391 0.023827 0.014095 -0.000081
# 5 0.000139 0.015503 0.008804 0.014095 0.034374 -0.009546
# 6 -0.000309 -0.006454 -0.000833 -0.000081 -0.009546 0.024349
#
#
# Mechanical properties :
#
#
# Convention : Reuss Voigt Hill
#
# Bulk Modulus (GPa) = 22.08430 46.19669 34.14049
# Shear Modulus (GPa) = 37.20637 68.84231 53.02434
#
# Velocity S-wave (km/s) = 4.00487 5.44763 4.78099
# Velocity P-wave (km/s) = 5.55927 7.71255 6.72268
#
# Compressibility (1/GPa) = 0.04528104
#
# Stress axis : x y z
#
# Youngs Moduli (GPa) = 202.30892 48.57779 64.58762
#
# Poissons Ratio (x) = -0.00611 -0.16421
# Poissons Ratio (y) = -0.02546 0.03445
# Poissons Ratio (z) = -0.51435 0.02591
#
# Static dielectric constant tensor:
#      x y z
#    x 1.927140 0.045970 0.032040 
#    y 0.045970 1.932760 -0.025190 
#    z 0.032040 -0.025190 2.044270 
# 
# From -- ./inp_files/126770.got.cif
#   From: 2010.05.17/outbox.cif.g08.bks.cpg/sg2_64_cif.got.tgz:126770.got - 2010.06.03 11:33:40.
