data_PCOD9063256
_publ_section_title
;
Structure prediction by ZEFSAII (Michael W. Deem and Ramdas Pophale) SiO2 
 PCOD9063256
Probable space group: P -1
;
_chemical_formula_sum "Si O2"
_cell_formula_units_Z 14
_cell_length_a 8.885824
_cell_length_b 18.831112
_cell_length_c 8.704922
_cell_angle_alpha 127.666995
_cell_angle_beta 64.447183
_cell_angle_gamma 149.407204
_cell_volume 570.369455
_symmetry_space_group_name_H-M "P -1"
_symmetry_group_IT_number 2
_symmetry_cell_setting 'triclinic'
loop_
_space_group_symop_operation_xyz
x,y,z
-x,-y,-z
loop_
_atom_site_type_symbol
_atom_site_label
_atom_site_fract_x
_atom_site_fract_y
_atom_site_fract_z
Si Si1 0.603056 0.284757 0.723652
Si Si2 0.515114 0.529426 0.714022
Si Si3 0.709315 0.377852 0.129204
Si Si4 0.165935 0.221409 0.649566
Si Si5 0.815912 0.103595 0.057199
Si Si6 0.180407 0.095933 0.204921
Si Si7 0.505948 0.967787 0.626563
O O1 0.358134 0.243682 0.707673
O O2 0.586868 0.178768 0.516551
O O3 0.937658 0.476278 0.800322
O O4 0.589543 0.266003 0.889924
O O5 0.500000 0.500000 0.500000
O O6 0.336117 0.542731 0.813539
O O7 0.367342 0.388924 0.702496
O O8 0.860474 0.703279 0.845201
O O9 0.509348 0.275114 0.233501
O O10 0.069836 0.112684 0.407155
O O11 0.862653 0.130015 0.731521
O O12 0.735678 0.079005 0.240659
O O13 0.500000 0.000000 0.000000
O O14 0.820426 0.004693 0.866198
O O15 0.000000 0.000000 0.000000
O O16 0.500000 0.000000 0.500000
#
# Coordination Sequence:
#
# PCOD9063256 Si02
#       7
#     2   2   2   2   2   2   2
#     4  11  26  44  68 110 138 189 234 305 351 424
#     4  12  24  47  72 105 141 194 235 295 357 432
#     4  11  24  43  73  96 149 181 244 286 367 422
#     4  12  27  44  78 103 146 182 247 294 354 423
#     4  12  28  44  72 106 146 179 240 295 356 418
#     4  12  23  45  73 103 134 192 236 292 349 429
#     4  12  25  47  72 101 146 189 232 287 365 425
#
# _framework density 24.545494999999999
#
# number of rings (size 3 to 8) (size 9 to 14) (size 15 to 20)
#    0.000    0.286    2.857    6.429    4.000    2.286 
#    0.000    0.000    0.000    0.000    0.000    0.000 
#    0.000    0.000    0.000    0.000    0.000    0.000 
#
# Total GULP energy -78405.014821 kJ/mol
# GULP energy per Si atom -5600.358202 kJ/mol
# Density = 2.448963 g / cm^3
# Si number density = 24.545495 Si / 1000 Ang^3
#
#
#
# Elastic Constant Matrix: (Units=GPa)
#
#
# Indices 1 2 3 4 5 6 
#
# 1 111.6728 43.4389 16.5102 32.9616 10.7071 8.8734
# 2 43.4389 132.0196 19.4445 13.8006 -8.2022 2.5236
# 3 16.5102 19.4445 74.5949 11.2264 -7.0061 4.4767
# 4 32.9616 13.8006 11.2264 35.6160 5.1768 -2.0315
# 5 10.7071 -8.2022 -7.0061 5.1768 48.4424 5.6303
# 6 8.8734 2.5236 4.4767 -2.0315 5.6303 45.7934
#
#
#
# Elastic Compliance Matrix: (Units=1/GPa)
#
#
# Indices 1 2 3 4 5 6 
#
# 1 0.014207 -0.003484 -0.000563 -0.011447 -0.002270 -0.002735
# 2 -0.003484 0.009071 -0.001372 -0.000164 0.002120 0.000041
# 3 -0.000563 -0.001372 0.014869 -0.004127 0.002691 -0.001783
# 4 -0.011447 -0.000164 -0.004127 0.040747 -0.003008 0.004808
# 5 -0.002270 0.002120 0.002691 -0.003008 0.022545 -0.002845
# 6 -0.002735 0.000041 -0.001783 0.004808 -0.002845 0.023102
#
#
# Mechanical properties :
#
#
# Convention : Reuss Voigt Hill
#
# Bulk Modulus (GPa) = 36.61765 53.00827 44.81296
# Shear Modulus (GPa) = 34.60670 41.89661 38.25165
#
# Velocity S-wave (km/s) = 3.75894 4.13594 3.95194
# Velocity P-wave (km/s) = 5.81293 6.66715 6.25464
#
# Compressibility (1/GPa) = 0.02730923
#
# Stress axis : x y z
#
# Youngs Moduli (GPa) = 70.38984 110.24028 67.25503
#
# Poissons Ratio (x) = 0.38405 0.03784
# Poissons Ratio (y) = 0.24522 0.09228
# Poissons Ratio (z) = 0.03961 0.15126
#
# Static dielectric constant tensor:
#      x y z
#    x 1.885970 0.012400 0.067240 
#    y 0.012400 1.954100 -0.066610 
#    z 0.067240 -0.066610 2.106620 
# 
# From -- ./inp_files/157125.got.cif
#   From: 2010.05.17/outbox.cif.g08.bks.cpg/sg2_79_cif.got.tgz:157125.got - 2010.06.03 11:33:40.
