data_PCOD9063469
_publ_section_title
;
Structure prediction by ZEFSAII (Michael W. Deem and Ramdas Pophale) SiO2 
 PCOD9063469
Probable space group: P -1
;
_chemical_formula_sum "Si O2"
_cell_formula_units_Z 16
_cell_length_a 15.389600
_cell_length_b 8.181603
_cell_length_c 11.144365
_cell_angle_alpha 117.263987
_cell_angle_beta 37.686490
_cell_angle_gamma 99.724317
_cell_volume 712.496960
_symmetry_space_group_name_H-M "P -1"
_symmetry_group_IT_number 2
_symmetry_cell_setting 'triclinic'
loop_
_space_group_symop_operation_xyz
x,y,z
-x,-y,-z
loop_
_atom_site_type_symbol
_atom_site_label
_atom_site_fract_x
_atom_site_fract_y
_atom_site_fract_z
Si Si1 0.727115 0.828722 0.721755
Si Si2 0.872071 0.055844 0.815977
Si Si3 0.549838 0.179437 0.858542
Si Si4 0.850380 0.148831 0.147611
Si Si5 0.166078 0.699499 0.408657
Si Si6 0.779142 0.493601 0.958145
Si Si7 0.056719 0.567707 0.730762
Si Si8 0.529949 0.167083 0.600808
O O1 0.866494 0.663972 0.451657
O O2 0.781183 0.938571 0.805648
O O3 0.637812 0.985987 0.773775
O O4 0.611611 0.729519 0.868110
O O5 0.822592 0.274607 0.889584
O O6 0.839614 0.084439 0.002422
O O7 0.049463 0.914184 0.565104
O O8 0.663834 0.298645 0.770706
O O9 0.522335 0.127746 0.736571
O O10 0.876797 0.354846 0.202845
O O11 0.696445 0.166022 0.388533
O O12 0.000000 0.000000 0.000000
O O13 0.170571 0.541712 0.248492
O O14 0.101814 0.658981 0.591706
O O15 0.878084 0.610897 0.947633
O O16 0.602546 0.622646 0.207209
O O17 0.500000 0.000000 0.500000
#
# Coordination Sequence:
#
# PCOD9063469 Si02
#       8
#     2   2   2   2   2   2   2   2
#     4  11  25  43  72 106 142 181 234 297 353 409
#     4  12  25  48  72 101 146 188 233 292 349 427
#     4  11  24  44  69 102 141 178 230 295 350 409
#     4  12  26  46  71 101 141 190 233 286 354 423
#     4  12  23  44  74 103 140 179 238 295 350 412
#     4  12  27  43  73 106 138 186 240 289 356 413
#     4  12  25  42  72 105 138 184 237 287 351 421
#     4  12  27  46  72 102 146 187 234 290 353 425
#
# _framework density 22.456236000000001
#
# number of rings (size 3 to 8) (size 9 to 14) (size 15 to 20)
#    0.000    0.250    5.000    3.750    3.500    3.000 
#    0.000    0.000    0.000    0.000    0.000    0.000 
#    0.000    0.000    0.000    0.000    0.000    0.000 
#
# Total GULP energy -89596.544753 kJ/mol
# GULP energy per Si atom -5599.784047 kJ/mol
# Density = 2.240512 g / cm^3
# Si number density = 22.456236 Si / 1000 Ang^3
#
#
#
# Elastic Constant Matrix: (Units=GPa)
#
#
# Indices 1 2 3 4 5 6 
#
# 1 79.9305 21.0802 23.5190 20.2921 -13.6728 2.7600
# 2 21.0802 70.7184 19.3428 10.1678 -17.4900 9.0803
# 3 23.5190 19.3428 116.6790 6.5789 -24.6489 -0.9685
# 4 20.2921 10.1678 6.5789 32.5601 12.2137 -3.3105
# 5 -13.6728 -17.4900 -24.6489 12.2137 38.9979 -4.1169
# 6 2.7600 9.0803 -0.9685 -3.3105 -4.1169 37.0416
#
#
#
# Elastic Compliance Matrix: (Units=1/GPa)
#
#
# Indices 1 2 3 4 5 6 
#
# 1 0.018599 -0.000298 -0.000564 -0.015571 0.010747 -0.001525
# 2 -0.000298 0.019075 -0.000212 -0.010332 0.011093 -0.004350
# 3 -0.000564 -0.000212 0.010680 -0.004657 0.008005 0.000847
# 4 -0.015571 -0.010332 -0.004657 0.056430 -0.030154 0.005263
# 5 0.010747 0.011093 0.008005 -0.030154 0.048828 -0.000579
# 6 -0.001525 -0.004350 0.000847 0.005263 -0.000579 0.028605
#
#
# Mechanical properties :
#
#
# Convention : Reuss Voigt Hill
#
# Bulk Modulus (GPa) = 21.64215 43.91243 32.77729
# Shear Modulus (GPa) = 25.02917 35.27898 30.15408
#
# Velocity S-wave (km/s) = 3.34215 3.96790 3.66839
# Velocity P-wave (km/s) = 4.95496 6.37098 5.70706
#
# Compressibility (1/GPa) = 0.04620613
#
# Stress axis : x y z
#
# Youngs Moduli (GPa) = 53.76569 52.42504 93.63104
#
# Poissons Ratio (x) = 0.01560 0.05283
# Poissons Ratio (y) = 0.01600 0.01988
# Poissons Ratio (z) = 0.03033 0.01113
#
# Static dielectric constant tensor:
#      x y z
#    x 1.831750 0.004770 -0.016180 
#    y 0.004770 1.865220 0.008080 
#    z -0.016180 0.008080 1.814460 
# 
# From -- ./inp_files/446274.got.cif
#   From: 2010.05.17/outbox.cif.g08.bks.cpg/sg2_224_cif.got.tgz:446274.got - 2010.06.03 11:33:40.
