data_PCOD9063715
_publ_section_title
;
Structure prediction by ZEFSAII (Michael W. Deem and Ramdas Pophale) SiO2 
 PCOD9063715
Probable space group: P -1
;
_chemical_formula_sum "Si O2"
_cell_formula_units_Z 12
_cell_length_a 13.043533
_cell_length_b 9.480341
_cell_length_c 9.397092
_cell_angle_alpha 110.715161
_cell_angle_beta 32.997044
_cell_angle_gamma 94.801243
_cell_volume 537.702927
_symmetry_space_group_name_H-M "P -1"
_symmetry_group_IT_number 2
_symmetry_cell_setting 'triclinic'
loop_
_space_group_symop_operation_xyz
x,y,z
-x,-y,-z
loop_
_atom_site_type_symbol
_atom_site_label
_atom_site_fract_x
_atom_site_fract_y
_atom_site_fract_z
Si Si1 0.114366 0.964965 0.704406
Si Si2 0.531688 0.993966 0.288170
Si Si3 0.248719 0.365445 0.063915
Si Si4 0.478147 0.509686 0.697422
Si Si5 0.190840 0.583516 0.479480
Si Si6 0.822527 0.131534 0.855914
O O1 0.320318 0.995506 0.475842
O O2 0.165768 0.771201 0.546690
O O3 0.953414 0.099470 0.835708
O O4 0.000000 0.000000 0.000000
O O5 0.500000 0.000000 0.500000
O O6 0.711518 0.812006 0.985385
O O7 0.619326 0.105350 0.136691
O O8 0.275047 0.473816 0.200839
O O9 0.032282 0.424111 0.255199
O O10 0.423974 0.356844 0.748204
O O11 0.500000 0.500000 0.500000
O O12 0.669747 0.488667 0.568626
O O13 0.278340 0.682844 0.021864
O O14 0.000000 0.000000 0.500000
#
# Coordination Sequence:
#
# PCOD9063715 Si02
#       6
#     2   2   2   2   2   2
#     4  12  23  45  75 100 139 191 243 289 345 437
#     4  12  24  45  75 102 135 194 243 283 352 438
#     4  11  24  44  76  97 135 186 248 281 343 440
#     4  12  26  44  70 105 147 181 231 304 363 415
#     4  11  24  44  73 102 132 189 243 288 345 428
#     4  12  28  44  67 112 148 174 234 306 364 406
#
# _framework density 22.317156000000001
#
# number of rings (size 3 to 8) (size 9 to 14) (size 15 to 20)
#    0.000    0.333    5.000    3.500    4.667    2.667 
#    0.000    0.000    0.000    0.000    0.000    0.000 
#    0.000    0.000    0.000    0.000    0.000    0.000 
#
# Total GULP energy -66971.530703 kJ/mol
# GULP energy per Si atom -5580.960892 kJ/mol
# Density = 2.226636 g / cm^3
# Si number density = 22.317156 Si / 1000 Ang^3
#
#
#
# Elastic Constant Matrix: (Units=GPa)
#
#
# Indices 1 2 3 4 5 6 
#
# 1 163.5784 33.2279 38.7184 -8.6757 -30.0782 -12.9985
# 2 33.2279 63.9049 7.7119 8.1103 1.5370 4.8075
# 3 38.7184 7.7119 77.0107 -3.3544 -7.2993 7.5132
# 4 -8.6757 8.1103 -3.3544 51.7162 0.4350 -7.4967
# 5 -30.0782 1.5370 -7.2993 0.4350 31.9038 6.3263
# 6 -12.9985 4.8075 7.5132 -7.4967 6.3263 28.1223
#
#
#
# Elastic Compliance Matrix: (Units=1/GPa)
#
#
# Indices 1 2 3 4 5 6 
#
# 1 0.010474 -0.005978 -0.004374 0.003231 0.007905 0.006114
# 2 -0.005978 0.019890 0.000971 -0.004978 -0.004990 -0.006627
# 3 -0.004374 0.000971 0.015791 -0.000856 0.000806 -0.006816
# 4 0.003231 -0.004978 -0.000856 0.021769 0.001185 0.008110
# 5 0.007905 -0.004990 0.000806 0.001185 0.040080 -0.004409
# 6 0.006114 -0.006627 -0.006816 0.008110 -0.004409 0.044493
#
#
# Mechanical properties :
#
#
# Convention : Reuss Voigt Hill
#
# Bulk Modulus (GPa) = 36.50707 51.53447 44.02077
# Shear Modulus (GPa) = 27.71785 37.33753 32.52769
#
# Velocity S-wave (km/s) = 3.52802 4.09472 3.82189
# Velocity P-wave (km/s) = 5.74367 6.74519 6.26448
#
# Compressibility (1/GPa) = 0.02739195
#
# Stress axis : x y z
#
# Youngs Moduli (GPa) = 95.47752 50.27682 63.32721
#
# Poissons Ratio (x) = 0.30057 0.27697
# Poissons Ratio (y) = 0.57078 -0.06147
# Poissons Ratio (z) = 0.41759 -0.04880
#
# Static dielectric constant tensor:
#      x y z
#    x 1.806820 0.035430 -0.006850 
#    y 0.035430 1.770970 0.034840 
#    z -0.006850 0.034840 1.869630 
# 
# From -- ./inp_files/151784.got.cif
#   From: 2010.05.17/outbox.cif.g08.bks.cpg/sg2_76_cif.got.tgz:151784.got - 2010.06.03 11:33:40.
