data_PCOD9063852
_publ_section_title
;
Structure prediction by ZEFSAII (Michael W. Deem and Ramdas Pophale) SiO2 
 PCOD9063852
Probable space group: P -1
;
_chemical_formula_sum "Si O2"
_cell_formula_units_Z 16
_cell_length_a 21.514234
_cell_length_b 8.817301
_cell_length_c 24.222020
_cell_angle_alpha 30.043162
_cell_angle_beta 17.648441
_cell_angle_gamma 31.244089
_cell_volume 683.620148
_symmetry_space_group_name_H-M "P -1"
_symmetry_group_IT_number 2
_symmetry_cell_setting 'triclinic'
loop_
_space_group_symop_operation_xyz
x,y,z
-x,-y,-z
loop_
_atom_site_type_symbol
_atom_site_label
_atom_site_fract_x
_atom_site_fract_y
_atom_site_fract_z
Si Si1 0.899269 0.544592 0.756006
Si Si2 0.487246 0.140555 0.316194
Si Si3 0.319200 0.791522 0.044476
Si Si4 0.277174 0.787772 0.301823
Si Si5 0.394952 0.850198 0.373407
Si Si6 0.052763 0.834782 0.361017
Si Si7 0.378051 0.833104 0.610690
Si Si8 0.042207 0.963390 0.041532
O O1 0.827536 0.310325 0.846782
O O2 0.938848 0.366174 0.837428
O O3 0.104941 0.670642 0.523114
O O4 0.717139 0.855245 0.805569
O O5 0.474230 0.505882 0.222792
O O6 0.393135 0.057963 0.364293
O O7 0.359372 0.028248 0.509186
O O8 0.727459 0.967179 0.167427
O O9 0.178573 0.912086 0.177662
O O10 0.500000 0.500000 0.000000
O O11 0.443269 0.041484 0.838698
O O12 0.187462 0.804330 0.311043
O O13 0.480736 0.492357 0.422241
O O14 0.162226 0.926217 0.523362
O O15 0.000000 0.500000 0.500000
O O16 0.500000 0.000000 0.500000
O O17 0.152620 0.822275 0.830381
O O18 0.000000 0.000000 0.000000
#
# Coordination Sequence:
#
# PCOD9063852 Si02
#       8
#     2   2   2   2   2   2   2   2
#     4  11  24  44  75 106 150 189 240 299 365 430
#     4  12  24  48  74 103 145 187 243 298 363 428
#     4  12  23  45  71 108 150 187 236 298 365 443
#     4  11  24  44  75 112 146 191 231 303 372 433
#     4  12  27  46  73 105 140 196 238 296 364 430
#     4  12  23  44  73 106 150 184 238 292 371 443
#     4  12  29  50  72  99 142 189 248 302 353 426
#     4  12  27  49  73 104 145 196 249 301 356 429
#
# _framework density 23.404812
#
# number of rings (size 3 to 8) (size 9 to 14) (size 15 to 20)
#    0.000    0.250    7.500    0.375    1.750    4.000 
#    0.000    0.000    0.000    0.000    0.000    0.000 
#    0.000    0.000    0.000    0.000    0.000    0.000 
#
# Total GULP energy -89556.216171 kJ/mol
# GULP energy per Si atom -5597.263511 kJ/mol
# Density = 2.335154 g / cm^3
# Si number density = 23.404812 Si / 1000 Ang^3
#
#
#
# Elastic Constant Matrix: (Units=GPa)
#
#
# Indices 1 2 3 4 5 6 
#
# 1 93.7409 1.6445 45.7412 -1.1016 29.3963 -9.9575
# 2 1.6445 121.5979 15.3661 6.4203 13.1936 -10.0146
# 3 45.7412 15.3661 95.9997 14.2546 33.1330 -0.3258
# 4 -1.1016 6.4203 14.2546 37.2267 -9.4520 5.1487
# 5 29.3963 13.1936 33.1330 -9.4520 42.5184 0.9043
# 6 -9.9575 -10.0146 -0.3258 5.1487 0.9043 30.7864
#
#
#
# Elastic Compliance Matrix: (Units=1/GPa)
#
#
# Indices 1 2 3 4 5 6 
#
# 1 0.016361 0.001874 -0.005111 -0.000833 -0.008228 0.006228
# 2 0.001874 0.009279 -0.000205 -0.003292 -0.004839 0.004315
# 3 -0.005111 -0.000205 0.019391 -0.011208 -0.014021 0.000772
# 4 -0.000833 -0.003292 -0.011208 0.037639 0.018875 -0.008308
# 5 -0.008228 -0.004839 -0.014021 0.018875 0.046021 -0.008892
# 6 0.006228 0.004315 0.000772 -0.008308 -0.008892 0.037559
#
#
# Mechanical properties :
#
#
# Convention : Reuss Voigt Hill
#
# Bulk Modulus (GPa) = 26.21417 48.53801 37.37609
# Shear Modulus (GPa) = 26.90398 38.67874 32.79136
#
# Velocity S-wave (km/s) = 3.39412 4.06963 3.74712
# Velocity P-wave (km/s) = 5.15603 6.54721 5.89282
#
# Compressibility (1/GPa) = 0.03814730
#
# Stress axis : x y z
#
# Youngs Moduli (GPa) = 61.12221 107.77539 51.57104
#
# Poissons Ratio (x) = -0.20199 0.26358
# Poissons Ratio (y) = -0.11456 0.01055
# Poissons Ratio (z) = 0.31239 0.02205
#
# Static dielectric constant tensor:
#      x y z
#    x 1.862760 -0.022440 0.014580 
#    y -0.022440 1.981160 -0.039210 
#    z 0.014580 -0.039210 1.887710 
# 
# From -- ./inp_files/613558.got.cif
#   From: 2010.05.17/outbox.cif.g08.bks.cpg/sg2_307_cif.got.tgz:613558.got - 2010.06.03 11:33:40.
