data_PCOD9063337
_publ_section_title
;
Structure prediction by ZEFSAII (Michael W. Deem and Ramdas Pophale) SiO2 
 PCOD9063337
Probable space group: P -1
;
_chemical_formula_sum "Si O2"
_cell_formula_units_Z 12
_cell_length_a 8.611789
_cell_length_b 10.721531
_cell_length_c 8.488589
_cell_angle_alpha 129.147763
_cell_angle_beta 82.730357
_cell_angle_gamma 123.596233
_cell_volume 475.227063
_symmetry_space_group_name_H-M "P -1"
_symmetry_group_IT_number 2
_symmetry_cell_setting 'triclinic'
loop_
_space_group_symop_operation_xyz
x,y,z
-x,-y,-z
loop_
_atom_site_type_symbol
_atom_site_label
_atom_site_fract_x
_atom_site_fract_y
_atom_site_fract_z
Si Si1 0.059347 0.644635 0.418864
Si Si2 0.546781 0.288758 0.672437
Si Si3 0.940430 0.993149 0.182274
Si Si4 0.843493 0.121663 0.709053
Si Si5 0.492116 0.604504 0.903324
Si Si6 0.683934 0.225381 0.101983
O O1 0.270881 0.686982 0.412892
O O2 0.023328 0.692203 0.281488
O O3 0.058609 0.814326 0.643082
O O4 0.889399 0.410517 0.303888
O O5 0.476803 0.411125 0.701682
O O6 0.350268 0.055687 0.507347
O O7 0.608716 0.395329 0.921831
O O8 0.059668 0.968160 0.281523
O O9 0.000000 0.000000 0.000000
O O10 0.719422 0.786043 0.056468
O O11 0.762079 0.186510 0.905474
O O12 0.418527 0.669188 0.827055
O O13 0.500000 0.000000 0.000000
#
# Coordination Sequence:
#
# PCOD9063337 Si02
#       6
#     2   2   2   2   2   2
#     4  12  25  48  77 110 148 197 254 301 367 439
#     4  11  24  43  78 112 143 188 247 311 350 436
#     4  12  27  46  74 111 154 195 244 308 377 438
#     4  12  24  46  76 111 148 196 252 299 365 442
#     4  11  24  44  70 111 152 187 246 299 367 432
#     4  12  27  46  74 110 154 196 243 308 374 439
#
# _framework density 25.251085
#
# number of rings (size 3 to 8) (size 9 to 14) (size 15 to 20)
#    0.000    0.333    3.333    5.500    4.667    1.333 
#    0.000    8.333    0.000    0.000    0.000    0.000 
#    0.000    0.000    0.000    0.000    0.000    0.000 
#
# Total GULP energy -67150.952997 kJ/mol
# GULP energy per Si atom -5595.912750 kJ/mol
# Density = 2.519361 g / cm^3
# Si number density = 25.251085 Si / 1000 Ang^3
#
#
#
# Elastic Constant Matrix: (Units=GPa)
#
#
# Indices 1 2 3 4 5 6 
#
# 1 132.9050 27.6197 21.8273 14.1889 -10.1678 -6.6940
# 2 27.6197 105.6841 43.7911 15.6343 -11.8396 9.5177
# 3 21.8273 43.7911 126.1160 8.9821 -22.6469 24.0827
# 4 14.1889 15.6343 8.9821 51.7687 7.2955 -4.1325
# 5 -10.1678 -11.8396 -22.6469 7.2955 53.4401 7.7659
# 6 -6.6940 9.5177 24.0827 -4.1325 7.7659 41.4764
#
#
#
# Elastic Compliance Matrix: (Units=1/GPa)
#
#
# Indices 1 2 3 4 5 6 
#
# 1 0.008355 -0.001630 -0.001030 -0.001557 0.000709 0.002033
# 2 -0.001630 0.011938 -0.002961 -0.003048 0.001775 -0.001919
# 3 -0.001030 -0.002961 0.011729 -0.002240 0.005522 -0.007554
# 4 -0.001557 -0.003048 -0.002240 0.022256 -0.005690 0.005032
# 5 0.000709 0.001775 0.005522 -0.005690 0.023591 -0.008483
# 6 0.002033 -0.001919 -0.007554 0.005032 -0.008483 0.031355
#
#
# Mechanical properties :
#
#
# Convention : Reuss Voigt Hill
#
# Bulk Modulus (GPa) = 48.12195 61.24237 54.68216
# Shear Modulus (GPa) = 39.24924 47.43485 43.34204
#
# Velocity S-wave (km/s) = 3.94681 4.33890 4.14749
# Velocity P-wave (km/s) = 6.31415 7.02904 6.68117
#
# Compressibility (1/GPa) = 0.02078054
#
# Stress axis : x y z
#
# Youngs Moduli (GPa) = 119.69046 83.76940 85.25715
#
# Poissons Ratio (x) = 0.13655 0.08781
# Poissons Ratio (y) = 0.19510 0.25241
# Poissons Ratio (z) = 0.12327 0.24801
#
# Static dielectric constant tensor:
#      x y z
#    x 2.078350 -0.101180 0.127050 
#    y -0.101180 2.137950 -0.144480 
#    z 0.127050 -0.144480 2.099580 
# 
# From -- ./inp_files/147635.got.cif
#   From: 2010.05.17/outbox.cif.g08.bks.cpg/sg2_74_cif.got.tgz:147635.got - 2010.06.03 11:33:40.
