data_PCOD9063475
_publ_section_title
;
Structure prediction by ZEFSAII (Michael W. Deem and Ramdas Pophale) SiO2 
 PCOD9063475
Probable space group: P -1
;
_chemical_formula_sum "Si O2"
_cell_formula_units_Z 16
_cell_length_a 15.103891
_cell_length_b 25.072868
_cell_length_c 5.074139
_cell_angle_alpha 105.921274
_cell_angle_beta 61.939757
_cell_angle_gamma 156.290326
_cell_volume 612.055906
_symmetry_space_group_name_H-M "P -1"
_symmetry_group_IT_number 2
_symmetry_cell_setting 'triclinic'
loop_
_space_group_symop_operation_xyz
x,y,z
-x,-y,-z
loop_
_atom_site_type_symbol
_atom_site_label
_atom_site_fract_x
_atom_site_fract_y
_atom_site_fract_z
Si Si1 0.072479 0.986961 0.190308
Si Si2 0.481543 0.657115 0.515592
Si Si3 0.986736 0.193987 0.355148
Si Si4 0.384454 0.716875 0.483019
Si Si5 0.599809 0.921064 0.803893
Si Si6 0.076009 0.437320 0.191524
Si Si7 0.681883 0.646117 0.399182
Si Si8 0.915272 0.285677 0.688393
O O1 0.788900 0.828543 0.242703
O O2 0.162188 0.979371 0.216732
O O3 0.000000 0.000000 0.500000
O O4 0.331449 0.134050 0.859025
O O5 0.322257 0.622097 0.524010
O O6 0.510213 0.605685 0.441602
O O7 0.353769 0.603749 0.912932
O O8 0.209525 0.284052 0.367221
O O9 0.939296 0.232199 0.576562
O O10 0.086571 0.249019 0.992336
O O11 0.731565 0.023600 0.521696
O O12 0.447108 0.787079 0.746713
O O13 0.145693 0.628116 0.559117
O O14 0.387921 0.852172 0.145354
O O15 0.092681 0.406648 0.380269
O O16 0.971607 0.343867 0.969600
O O17 0.500000 0.500000 0.500000
#
# Coordination Sequence:
#
# PCOD9063475 Si02
#       8
#     2   2   2   2   2   2   2   2
#     4  12  24  43  71 102 144 181 233 290 356 414
#     4  12  25  44  72 104 140 187 234 288 355 422
#     4  12  25  44  71 102 138 185 241 289 348 412
#     4  11  25  47  68 102 144 184 235 290 351 420
#     4  11  24  44  69 104 138 186 233 294 346 420
#     4  11  26  48  72 105 140 188 234 291 347 422
#     4  12  27  45  68 102 145 184 232 290 352 419
#     4  11  24  48  73 100 145 185 236 290 350 412
#
# _framework density 26.141404000000001
#
# number of rings (size 3 to 8) (size 9 to 14) (size 15 to 20)
#    0.000    0.500    3.750    4.500    1.750    2.000 
#    0.000    5.625    0.000    0.000    0.000    0.000 
#    0.000    0.000    0.000    0.000    0.000    0.000 
#
# Total GULP energy -89552.239203 kJ/mol
# GULP energy per Si atom -5597.014950 kJ/mol
# Density = 2.608190 g / cm^3
# Si number density = 26.141404 Si / 1000 Ang^3
#
#
#
# Elastic Constant Matrix: (Units=GPa)
#
#
# Indices 1 2 3 4 5 6 
#
# 1 190.9517 40.4189 46.6976 5.2624 -10.8456 -25.3033
# 2 40.4189 74.2152 0.5976 4.2853 -1.7521 -24.2914
# 3 46.6976 0.5976 132.1297 -12.9193 1.9295 -14.7361
# 4 5.2624 4.2853 -12.9193 33.0213 4.7905 4.4852
# 5 -10.8456 -1.7521 1.9295 4.7905 51.4560 -12.8561
# 6 -25.3033 -24.2914 -14.7361 4.4852 -12.8561 51.8383
#
#
#
# Elastic Compliance Matrix: (Units=1/GPa)
#
#
# Indices 1 2 3 4 5 6 
#
# 1 0.006907 -0.002885 -0.002453 -0.002282 0.002177 0.002059
# 2 -0.002885 0.017937 0.001559 -0.002703 0.002253 0.008233
# 3 -0.002453 0.001559 0.008967 0.003588 -0.000737 0.001589
# 4 -0.002282 -0.002703 0.003588 0.033926 -0.005266 -0.005602
# 5 0.002177 0.002253 -0.000737 -0.005266 0.022470 0.007937
# 6 0.002059 0.008233 0.001589 -0.005602 0.007937 0.027059
#
#
# Mechanical properties :
#
#
# Convention : Reuss Voigt Hill
#
# Bulk Modulus (GPa) = 38.08958 63.63610 50.86284
# Shear Modulus (GPa) = 37.43229 47.90195 42.66712
#
# Velocity S-wave (km/s) = 3.78817 4.28532 4.04439
# Velocity P-wave (km/s) = 5.80826 6.99151 6.42717
#
# Compressibility (1/GPa) = 0.02625390
#
# Stress axis : x y z
#
# Youngs Moduli (GPa) = 144.78380 55.75131 111.51884
#
# Poissons Ratio (x) = 0.16082 0.27358
# Poissons Ratio (y) = 0.41765 -0.17390
# Poissons Ratio (z) = 0.35518 -0.08694
#
# Static dielectric constant tensor:
#      x y z
#    x 2.060500 0.111890 0.024540 
#    y 0.111890 2.230420 -0.003980 
#    z 0.024540 -0.003980 2.061790 
# 
# From -- ./inp_files/77095.got.cif
#   From: 2010.05.17/outbox.cif.g08.bks.cpg/sg2_39_cif.got.tgz:77095.got - 2010.06.03 11:33:40.
