data_PCOD9063324
_publ_section_title
;
Structure prediction by ZEFSAII (Michael W. Deem and Ramdas Pophale) SiO2 
 PCOD9063324
Probable space group: P -1
;
_chemical_formula_sum "Si O2"
_cell_formula_units_Z 15
_cell_length_a 11.985357
_cell_length_b 5.156739
_cell_length_c 17.601658
_cell_angle_alpha 105.139116
_cell_angle_beta 41.356615
_cell_angle_gamma 83.895168
_cell_volume 610.928423
_symmetry_space_group_name_H-M "P -1"
_symmetry_group_IT_number 2
_symmetry_cell_setting 'triclinic'
loop_
_space_group_symop_operation_xyz
x,y,z
-x,-y,-z
loop_
_atom_site_type_symbol
_atom_site_label
_atom_site_fract_x
_atom_site_fract_y
_atom_site_fract_z
Si Si1 0.423000 0.797752 0.480575
Si Si2 0.999820 0.451989 0.643081
Si Si3 0.729371 0.183070 0.608173
Si Si4 0.627794 0.663602 0.941460
Si Si5 0.132578 0.036091 0.997047
Si Si6 0.186527 0.655498 0.689619
Si Si7 0.000000 0.500000 0.500000
Si Si8 0.356397 0.360145 0.894422
O O1 0.377493 0.794278 0.415468
O O2 0.224204 0.875837 0.630934
O O3 0.614464 0.477841 0.375087
O O4 0.500000 0.000000 0.500000
O O5 0.147267 0.455806 0.630010
O O6 0.818263 0.479116 0.781056
O O7 0.931878 0.706164 0.632125
O O8 0.103807 0.175967 0.505927
O O9 0.805125 0.427650 0.594925
O O10 0.578897 0.214721 0.751241
O O11 0.500000 0.500000 0.000000
O O12 0.683882 0.670768 0.999804
O O13 0.500000 0.000000 0.000000
O O14 0.987890 0.222113 0.154111
O O15 0.246547 0.183750 0.904799
O O16 0.270631 0.704995 0.936056
O O17 0.000000 0.000000 0.000000
#
# Coordination Sequence:
#
# PCOD9063324 Si02
#       8
#     2   2   2   2   2   2   1   2
#     4  11  24  43  76 112 153 194 259 325 396 473
#     4  12  27  48  79 109 154 204 265 329 397 478
#     4  12  28  48  79 113 156 206 267 328 406 475
#     4  12  29  51  78 112 152 206 266 325 393 466
#     4  12  28  49  81 116 165 211 265 323 409 484
#     4  11  25  46  76 115 151 208 260 329 398 483
#     4  12  28  48  74 108 156 200 266 324 398 466
#     4  12  29  50  79 115 160 208 264 331 398 478
#
# _framework density 24.552796000000001
#
# number of rings (size 3 to 8) (size 9 to 14) (size 15 to 20)
#    0.000    0.267    4.000    3.200   11.200    0.000 
#    0.000    0.000    0.000    0.000    0.000    0.000 
#    0.000    0.000    0.000    0.000    0.000    0.000 
#
# Total GULP energy -83607.522163 kJ/mol
# GULP energy per Si atom -5573.834811 kJ/mol
# Density = 2.449691 g / cm^3
# Si number density = 24.552796 Si / 1000 Ang^3
#
#
#
# Elastic Constant Matrix: (Units=GPa)
#
#
# Indices 1 2 3 4 5 6 
#
# 1 130.8238 -6.2367 25.8545 -5.7145 1.3058 3.0205
# 2 -6.2367 67.1982 30.9750 -15.1231 -11.6949 19.7775
# 3 25.8545 30.9750 165.9728 -34.7305 -6.8582 2.7462
# 4 -5.7145 -15.1231 -34.7305 48.7700 5.2345 -13.8803
# 5 1.3058 -11.6949 -6.8582 5.2345 38.5181 -13.4065
# 6 3.0205 19.7775 2.7462 -13.8803 -13.4065 42.9830
#
#
#
# Elastic Compliance Matrix: (Units=1/GPa)
#
#
# Indices 1 2 3 4 5 6 
#
# 1 0.008086 0.001831 -0.001594 0.000018 -0.000514 -0.001463
# 2 0.001831 0.019647 -0.003431 0.001400 0.002405 -0.007747
# 3 -0.001594 -0.003431 0.007993 0.005244 0.000811 0.003126
# 4 0.000018 0.001400 0.005244 0.026856 0.000433 0.007827
# 5 -0.000514 0.002405 0.000811 0.000433 0.029675 0.008273
# 6 -0.001463 -0.007747 0.003126 0.007827 0.008273 0.031840
#
#
# Mechanical properties :
#
#
# Convention : Reuss Voigt Hill
#
# Bulk Modulus (GPa) = 34.08804 51.68670 42.88737
# Shear Modulus (GPa) = 35.64677 46.94768 41.29723
#
# Velocity S-wave (km/s) = 3.81444 4.37751 4.10564
# Velocity P-wave (km/s) = 5.77180 6.82987 6.32300
#
# Compressibility (1/GPa) = 0.02933580
#
# Stress axis : x y z
#
# Youngs Moduli (GPa) = 123.67115 50.89917 125.11106
#
# Poissons Ratio (x) = -0.09318 0.19948
# Poissons Ratio (y) = -0.22641 0.42928
# Poissons Ratio (z) = 0.19718 0.17464
#
# Static dielectric constant tensor:
#      x y z
#    x 3.304010 -2.857500 -0.067370 
#    y -2.857500 8.465720 0.269630 
#    z -0.067370 0.269630 1.979270 
# 
# From -- ./inp_files/564229.got.cif
#   From: 2010.05.17/outbox.cif.g08.bks.cpg/sg2_283_cif.got.tgz:564229.got - 2010.06.03 11:33:40.
