data_PCOD9063281
_publ_section_title
;
Structure prediction by ZEFSAII (Michael W. Deem and Ramdas Pophale) SiO2 
 PCOD9063281
Probable space group: P -1
;
_chemical_formula_sum "Si O2"
_cell_formula_units_Z 14
_cell_length_a 11.383928
_cell_length_b 5.005281
_cell_length_c 11.239424
_cell_angle_alpha 96.257094
_cell_angle_beta 53.059452
_cell_angle_gamma 105.794066
_cell_volume 491.294628
_symmetry_space_group_name_H-M "P -1"
_symmetry_group_IT_number 2
_symmetry_cell_setting 'triclinic'
loop_
_space_group_symop_operation_xyz
x,y,z
-x,-y,-z
loop_
_atom_site_type_symbol
_atom_site_label
_atom_site_fract_x
_atom_site_fract_y
_atom_site_fract_z
Si Si1 0.853691 0.234087 0.065753
Si Si2 0.214460 0.354892 0.040876
Si Si3 0.516782 0.188536 0.880313
Si Si4 0.031314 0.974781 0.670589
Si Si5 0.851646 0.260366 0.616688
Si Si6 0.500326 0.207899 0.619106
Si Si7 0.741597 0.526510 0.337976
O O1 0.768453 0.352155 0.017766
O O2 0.779079 0.262345 0.239726
O O3 0.847055 0.919732 0.020369
O O4 0.000000 0.500000 0.000000
O O5 0.381143 0.342488 0.982003
O O6 0.072875 0.294950 0.214875
O O7 0.698453 0.327015 0.758931
O O8 0.487127 0.085828 0.753705
O O9 0.500000 0.000000 0.000000
O O10 0.110450 0.223212 0.721377
O O11 0.910151 0.080001 0.670787
O O12 0.164098 0.922037 0.503642
O O13 0.000000 0.500000 0.500000
O O14 0.659151 0.440583 0.509603
O O15 0.373224 0.370241 0.673839
O O16 0.500000 0.000000 0.500000
#
# Coordination Sequence:
#
# PCOD9063281 Si02
#       7
#     2   2   2   2   2   2   2
#     4  12  26  46  78 117 164 207 271 335 418 488
#     4  12  27  49  76 120 161 213 268 342 415 490
#     4  12  25  49  79 115 163 214 273 343 411 493
#     4  11  25  45  73 109 151 211 274 332 410 491
#     4  11  26  49  73 107 154 215 280 331 407 497
#     4  11  24  45  74 111 156 207 268 332 417 490
#     4  11  24  43  74 110 152 209 265 341 404 497
#
# _framework density 28.496138999999999
#
# number of rings (size 3 to 8) (size 9 to 14) (size 15 to 20)
#    0.000    0.571    4.286    3.000    2.000    2.286 
#    5.143    1.429    0.000    0.000    0.000    0.000 
#    0.000    0.000    0.000    0.000    0.000    0.000 
#
# Total GULP energy -78456.866733 kJ/mol
# GULP energy per Si atom -5604.061910 kJ/mol
# Density = 2.843128 g / cm^3
# Si number density = 28.496139 Si / 1000 Ang^3
#
#
#
# Elastic Constant Matrix: (Units=GPa)
#
#
# Indices 1 2 3 4 5 6 
#
# 1 137.9229 21.2750 45.9229 -9.9159 3.8379 -8.1049
# 2 21.2750 111.2829 44.4486 -3.9833 11.8111 2.1561
# 3 45.9229 44.4486 225.9446 -17.8393 -0.1951 4.0782
# 4 -9.9159 -3.9833 -17.8393 68.5363 -3.2512 3.9283
# 5 3.8379 11.8111 -0.1951 -3.2512 57.7507 -9.2956
# 6 -8.1049 2.1561 4.0782 3.9283 -9.2956 53.2018
#
#
#
# Elastic Compliance Matrix: (Units=1/GPa)
#
#
# Indices 1 2 3 4 5 6 
#
# 1 0.007993 -0.000957 -0.001408 0.000655 -0.000094 0.001300
# 2 -0.000957 0.010125 -0.001790 -0.000073 -0.002144 -0.000788
# 3 -0.001408 -0.001790 0.005160 0.001088 0.000452 -0.000539
# 4 0.000655 -0.000073 0.001088 0.015052 0.000665 -0.000976
# 5 -0.000094 -0.002144 0.000452 0.000665 0.018313 0.003188
# 6 0.001300 -0.000788 -0.000539 -0.000976 0.003188 0.019697
#
#
# Mechanical properties :
#
#
# Convention : Reuss Voigt Hill
#
# Bulk Modulus (GPa) = 66.81853 77.60483 72.21168
# Shear Modulus (GPa) = 55.77872 60.13135 57.95503
#
# Velocity S-wave (km/s) = 4.42907 4.59863 4.51464
# Velocity P-wave (km/s) = 7.04661 7.44910 7.25065
#
# Compressibility (1/GPa) = 0.01496591
#
# Stress axis : x y z
#
# Youngs Moduli (GPa) = 125.10895 98.76993 193.78836
#
# Poissons Ratio (x) = 0.09457 0.27286
# Poissons Ratio (y) = 0.11979 0.34698
# Poissons Ratio (z) = 0.17616 0.17685
#
# Static dielectric constant tensor:
#      x y z
#    x 2.338610 0.128940 0.014410 
#    y 0.128940 2.247600 0.047060 
#    z 0.014410 0.047060 2.262240 
# 
# From -- ./inp_files/410427.got.cif
#   From: 2010.05.17/outbox.cif.g08.bks.cpg/sg2_206_cif.got.tgz:410427.got - 2010.06.03 11:33:40.
