data_PCOD9063574
_publ_section_title
;
Structure prediction by ZEFSAII (Michael W. Deem and Ramdas Pophale) SiO2 
 PCOD9063574
Probable space group: P -1
;
_chemical_formula_sum "Si O2"
_cell_formula_units_Z 16
_cell_length_a 11.874639
_cell_length_b 10.893134
_cell_length_c 6.400417
_cell_angle_alpha 107.313156
_cell_angle_beta 99.385895
_cell_angle_gamma 71.427896
_cell_volume 747.098682
_symmetry_space_group_name_H-M "P -1"
_symmetry_group_IT_number 2
_symmetry_cell_setting 'triclinic'
loop_
_space_group_symop_operation_xyz
x,y,z
-x,-y,-z
loop_
_atom_site_type_symbol
_atom_site_label
_atom_site_fract_x
_atom_site_fract_y
_atom_site_fract_z
Si Si1 0.040972 0.902494 0.265945
Si Si2 0.046533 0.479720 0.733024
Si Si3 0.516464 0.711200 0.565571
Si Si4 0.424549 0.497074 0.180129
Si Si5 0.171440 0.062998 0.098213
Si Si6 0.146962 0.608854 0.125569
Si Si7 0.736626 0.770820 0.432791
Si Si8 0.386848 0.996799 0.821392
O O1 0.124430 0.961613 0.174250
O O2 0.113947 0.755220 0.286146
O O3 0.000000 0.000000 0.500000
O O4 0.932005 0.885545 0.081564
O O5 0.156804 0.343488 0.702987
O O6 0.000000 0.500000 0.500000
O O7 0.929379 0.473662 0.820117
O O8 0.095620 0.603165 0.875783
O O9 0.453202 0.610933 0.389132
O O10 0.544169 0.647405 0.772194
O O11 0.636962 0.711482 0.479573
O O12 0.431908 0.861566 0.631672
O O13 0.284827 0.540129 0.124365
O O14 0.500000 0.500000 0.000000
O O15 0.206077 0.163824 0.325845
O O16 0.286207 0.994842 0.958835
O O17 0.668927 0.880702 0.294755
O O18 0.500000 0.000000 0.000000
#
# Coordination Sequence:
#
# PCOD9063574 Si02
#       8
#     2   2   2   2   2   2   2   2
#     4  11  25  45  68 104 141 182 230 294 356 427
#     4  11  24  44  71 100 135 179 234 288 350 418
#     4  11  27  46  68 104 140 185 243 283 361 420
#     4  11  27  46  71 101 144 189 233 294 348 430
#     4  11  25  43  69 102 139 181 234 289 358 422
#     4  11  25  42  70  98 135 179 231 280 353 409
#     4  12  25  46  73 101 143 183 243 301 350 426
#     4  12  27  43  73 104 140 188 239 300 359 419
#
# _framework density 21.416180000000001
#
# number of rings (size 3 to 8) (size 9 to 14) (size 15 to 20)
#    0.000    0.750    1.250    4.875    8.750    4.000 
#    0.000    0.000    0.000    0.000    0.000    0.000 
#    0.000    0.000    0.000    0.000    0.000    0.000 
#
# Total GULP energy -89414.000410 kJ/mol
# GULP energy per Si atom -5588.375026 kJ/mol
# Density = 2.136744 g / cm^3
# Si number density = 21.416180 Si / 1000 Ang^3
#
#
#
# Elastic Constant Matrix: (Units=GPa)
#
#
# Indices 1 2 3 4 5 6 
#
# 1 175.9075 44.3128 40.5221 -9.2744 -17.5408 -9.4939
# 2 44.3128 93.7862 27.2689 0.0184 2.5762 -15.5639
# 3 40.5221 27.2689 91.5811 -2.8488 5.4010 -8.3668
# 4 -9.2744 0.0184 -2.8488 36.5251 1.4020 -5.6630
# 5 -17.5408 2.5762 5.4010 1.4020 39.8102 1.1518
# 6 -9.4939 -15.5639 -8.3668 -5.6630 1.1518 26.9023
#
#
#
# Elastic Compliance Matrix: (Units=1/GPa)
#
#
# Indices 1 2 3 4 5 6 
#
# 1 0.007475 -0.002815 -0.002607 0.001610 0.003762 0.000376
# 2 -0.002815 0.013733 -0.002132 0.000185 -0.002032 0.006414
# 3 -0.002607 -0.002132 0.013105 0.000816 -0.002881 0.002218
# 4 0.001610 0.000185 0.000816 0.028969 -0.000637 0.007054
# 5 0.003762 -0.002032 -0.002881 -0.000637 0.027381 -0.002051
# 6 0.000376 0.006414 0.002218 0.007054 -0.002051 0.043278
#
#
# Mechanical properties :
#
#
# Convention : Reuss Voigt Hill
#
# Bulk Modulus (GPa) = 52.06742 65.05359 58.56050
# Shear Modulus (GPa) = 32.16497 37.25893 34.71195
#
# Velocity S-wave (km/s) = 3.87964 4.17556 4.03032
# Velocity P-wave (km/s) = 6.66587 7.32727 7.00438
#
# Compressibility (1/GPa) = 0.01920587
#
# Stress axis : x y z
#
# Youngs Moduli (GPa) = 133.78522 72.81907 76.30513
#
# Poissons Ratio (x) = 0.20499 0.19889
# Poissons Ratio (y) = 0.37660 0.16267
# Poissons Ratio (z) = 0.34871 0.15524
#
# Static dielectric constant tensor:
#      x y z
#    x 1.735040 -0.015050 0.085500 
#    y -0.015050 1.787160 -0.074790 
#    z 0.085500 -0.074790 1.532460 
# 
# From -- ./inp_files/71920.got.cif
#   From: 2010.05.17/outbox.cif.g08.bks.cpg/sg2_36_cif.got.tgz:71920.got - 2010.06.03 11:33:40.
