data_PCOD9063049
_publ_section_title
;
Structure prediction by ZEFSAII (Michael W. Deem and Ramdas Pophale) SiO2 
 PCOD9063049
Probable space group: P -1
;
_chemical_formula_sum "Si O2"
_cell_formula_units_Z 12
_cell_length_a 27.627762
_cell_length_b 9.524726
_cell_length_c 25.674995
_cell_angle_alpha 150.877373
_cell_angle_beta 170.017800
_cell_angle_gamma 27.695010
_cell_volume 544.209201
_symmetry_space_group_name_H-M "P -1"
_symmetry_group_IT_number 2
_symmetry_cell_setting 'triclinic'
loop_
_space_group_symop_operation_xyz
x,y,z
-x,-y,-z
loop_
_atom_site_type_symbol
_atom_site_label
_atom_site_fract_x
_atom_site_fract_y
_atom_site_fract_z
Si Si1 0.657899 0.343032 0.450320
Si Si2 0.768797 0.522530 0.868619
Si Si3 0.928315 0.358379 0.539372
Si Si4 0.770818 0.622121 0.342544
Si Si5 0.535163 0.427389 0.791768
Si Si6 0.683988 0.764434 0.756022
O O1 0.357997 0.463759 0.203640
O O2 0.634540 0.432289 0.394487
O O3 0.728604 0.982282 0.415405
O O4 0.892961 0.493769 0.773062
O O5 0.648577 0.810850 0.796125
O O6 0.605035 0.308882 0.596025
O O7 0.868840 0.488712 0.460338
O O8 0.668994 0.506722 0.352659
O O9 0.000000 0.000000 0.500000
O O10 0.212734 0.423460 0.883878
O O11 0.000000 0.500000 0.500000
O O12 0.500000 0.500000 0.000000
O O13 0.687057 0.070028 0.831256
O O14 0.000000 0.500000 0.000000
#
# Coordination Sequence:
#
# PCOD9063049 Si02
#       6
#     2   2   2   2   2   2
#     4  12  24  44  65 101 134 176 226 278 341 399
#     4  11  24  43  69  92 137 172 228 277 334 401
#     4  12  25  46  70 101 138 178 226 276 341 406
#     4  12  24  42  69  97 133 174 223 278 334 397
#     4  12  27  43  71 100 139 179 225 279 339 402
#     4  11  25  46  69 100 135 182 232 276 340 406
#
# _framework density 22.050345
#
# number of rings (size 3 to 8) (size 9 to 14) (size 15 to 20)
#    0.000    0.333    1.667    7.500    4.667    1.333 
#    0.000    0.000    0.000    0.000    0.000    0.000 
#    0.000    0.000    0.000    0.000    0.000    0.000 
#
# Total GULP energy -67014.437672 kJ/mol
# GULP energy per Si atom -5584.536473 kJ/mol
# Density = 2.200016 g / cm^3
# Si number density = 22.050345 Si / 1000 Ang^3
#
#
#
# Elastic Constant Matrix: (Units=GPa)
#
#
# Indices 1 2 3 4 5 6 
#
# 1 159.9137 17.3882 32.4220 -18.1775 -10.5984 23.1303
# 2 17.3882 141.4979 41.0201 14.1805 -1.8037 24.1976
# 3 32.4220 41.0201 167.6237 22.3838 2.3605 3.7803
# 4 -18.1775 14.1805 22.3838 27.5809 6.1252 1.4871
# 5 -10.5984 -1.8037 2.3605 6.1252 57.7049 -13.9821
# 6 23.1303 24.1976 3.7803 1.4871 -13.9821 34.7736
#
#
#
# Elastic Compliance Matrix: (Units=1/GPa)
#
#
# Indices 1 2 3 4 5 6 
#
# 1 0.008543 -0.000123 -0.002581 0.008250 -0.000641 -0.005927
# 2 -0.000123 0.008874 -0.001623 -0.002801 -0.000871 -0.006147
# 3 -0.002581 -0.001623 0.007792 -0.007453 0.000564 0.002545
# 4 0.008250 -0.002801 -0.007453 0.050755 -0.005365 -0.007056
# 5 -0.000641 -0.000871 0.000564 -0.005365 0.019967 0.009229
# 6 -0.005927 -0.006147 0.002545 -0.007056 0.009229 0.040713
#
#
# Mechanical properties :
#
#
# Convention : Reuss Voigt Hill
#
# Bulk Modulus (GPa) = 60.40643 72.29954 66.35299
# Shear Modulus (GPa) = 33.15300 49.22554 41.18927
#
# Velocity S-wave (km/s) = 3.88172 4.72997 4.32668
# Velocity P-wave (km/s) = 6.89526 7.91769 7.42409
#
# Compressibility (1/GPa) = 0.01655453
#
# Stress axis : x y z
#
# Youngs Moduli (GPa) = 117.05983 112.69325 128.33590
#
# Poissons Ratio (x) = 0.01385 0.33127
# Poissons Ratio (y) = 0.01439 0.20826
# Poissons Ratio (z) = 0.30216 0.18287
#
# Static dielectric constant tensor:
#      x y z
#    x 1.887000 -0.021590 -0.024610 
#    y -0.021590 1.829770 0.002100 
#    z -0.024610 0.002100 1.800200 
# 
# From -- ./inp_files/45493.got.cif
#   From: 2010.05.17/outbox.cif.g08.bks.cpg/sg2_23_cif.got.tgz:45493.got - 2010.06.03 11:33:40.
