data_PCOD9063198
_publ_section_title
;
Structure prediction by ZEFSAII (Michael W. Deem and Ramdas Pophale) SiO2 
 PCOD9063198
Probable space group: P -1
;
_chemical_formula_sum "Si O2"
_cell_formula_units_Z 14
_cell_length_a 6.740781
_cell_length_b 11.254503
_cell_length_c 11.800421
_cell_angle_alpha 73.171027
_cell_angle_beta 131.667593
_cell_angle_gamma 103.947708
_cell_volume 638.630247
_symmetry_space_group_name_H-M "P -1"
_symmetry_group_IT_number 2
_symmetry_cell_setting 'triclinic'
loop_
_space_group_symop_operation_xyz
x,y,z
-x,-y,-z
loop_
_atom_site_type_symbol
_atom_site_label
_atom_site_fract_x
_atom_site_fract_y
_atom_site_fract_z
Si Si1 0.730004 0.641994 0.620324
Si Si2 0.137394 0.576424 0.426779
Si Si3 0.807934 0.842357 0.398602
Si Si4 0.331399 0.255377 0.858625
Si Si5 0.850729 0.865083 0.949687
Si Si6 0.089397 0.644479 0.968352
Si Si7 0.395496 0.935754 0.593611
O O1 0.430695 0.632180 0.557082
O O2 0.805671 0.511095 0.634098
O O3 0.739654 0.731141 0.490618
O O4 0.938707 0.680739 0.786187
O O5 0.000000 0.500000 0.500000
O O6 0.932536 0.672092 0.279942
O O7 0.661649 0.828135 0.227668
O O8 0.125451 0.850005 0.495701
O O9 0.708443 0.961470 0.389771
O O10 0.304552 0.178423 0.984053
O O11 0.595330 0.345908 0.934052
O O12 0.639682 0.879313 0.764981
O O13 0.022275 0.749689 0.006650
O O14 0.000000 0.000000 0.000000
O O15 0.000000 0.500000 0.000000
O O16 0.500000 0.000000 0.500000
#
# Coordination Sequence:
#
# PCOD9063198 Si02
#       7
#     2   2   2   2   2   2   2
#     4  11  25  43  72 101 143 185 244 296 358 438
#     4  11  24  43  72 106 141 189 241 299 365 436
#     4  11  25  42  71 103 137 187 248 297 358 436
#     4  12  27  44  73 106 150 188 245 306 370 435
#     4  12  28  47  74 105 151 199 242 301 378 434
#     4  12  28  47  72 109 149 190 246 309 371 440
#     4  11  25  45  70 102 141 191 246 298 358 437
#
# _framework density 21.921918999999999
#
# number of rings (size 3 to 8) (size 9 to 14) (size 15 to 20)
#    0.000    0.571    1.429    5.143   10.000    9.143 
#    0.000    0.000    0.000    0.000    0.000    0.000 
#    0.000    0.000    0.000    0.000    0.000    0.000 
#
# Total GULP energy -78335.021390 kJ/mol
# GULP energy per Si atom -5595.358671 kJ/mol
# Density = 2.187202 g / cm^3
# Si number density = 21.921919 Si / 1000 Ang^3
#
#
#
# Elastic Constant Matrix: (Units=GPa)
#
#
# Indices 1 2 3 4 5 6 
#
# 1 125.2571 46.3453 47.8016 3.9191 3.8879 15.3316
# 2 46.3453 95.0440 20.0962 5.0621 6.1773 2.6430
# 3 47.8016 20.0962 114.0708 7.9486 -7.8754 11.2251
# 4 3.9191 5.0621 7.9486 38.3117 5.7287 1.0740
# 5 3.8879 6.1773 -7.8754 5.7287 48.4966 -4.5751
# 6 15.3316 2.6430 11.2251 1.0740 -4.5751 52.7868
#
#
#
# Elastic Compliance Matrix: (Units=1/GPa)
#
#
# Indices 1 2 3 4 5 6 
#
# 1 0.011511 -0.004671 -0.003885 0.000499 -0.001244 -0.002401
# 2 -0.004671 0.012995 -0.000413 -0.001000 -0.001163 0.000713
# 3 -0.003885 -0.000413 0.010864 -0.002119 0.002292 -0.000919
# 4 0.000499 -0.001000 -0.002119 0.027162 -0.003513 -0.000501
# 5 -0.001244 -0.001163 0.002292 -0.003513 0.021834 0.001896
# 6 -0.002401 0.000713 -0.000919 -0.000501 0.001896 0.019976
#
#
# Mechanical properties :
#
#
# Convention : Reuss Voigt Hill
#
# Bulk Modulus (GPa) = 57.36442 62.53979 59.95210
# Shear Modulus (GPa) = 39.03490 42.59428 40.81459
#
# Velocity S-wave (km/s) = 4.22433 4.41273 4.31956
# Velocity P-wave (km/s) = 7.07232 7.38602 7.23087
#
# Compressibility (1/GPa) = 0.01743241
#
# Stress axis : x y z
#
# Youngs Moduli (GPa) = 86.87011 76.95147 92.04902
#
# Poissons Ratio (x) = 0.35941 0.35765
# Poissons Ratio (y) = 0.40573 0.03801
# Poissons Ratio (z) = 0.33753 0.03178
#
# Static dielectric constant tensor:
#      x y z
#    x 1.786700 -0.034740 0.005170 
#    y -0.034740 1.873210 0.007950 
#    z 0.005170 0.007950 1.779760 
# 
# From -- ./inp_files/44750.got.cif
#   From: 2010.05.17/outbox.cif.g08.bks.cpg/sg2_23_cif.got.tgz:44750.got - 2010.06.03 11:33:40.
