data_PCOD9063422
_publ_section_title
;
Structure prediction by ZEFSAII (Michael W. Deem and Ramdas Pophale) SiO2 
 PCOD9063422
Probable space group: P -1
;
_chemical_formula_sum "Si O2"
_cell_formula_units_Z 12
_cell_length_a 17.745139
_cell_length_b 7.333947
_cell_length_c 5.052116
_cell_angle_alpha 67.083931
_cell_angle_beta 64.774006
_cell_angle_gamma 53.007775
_cell_volume 466.958300
_symmetry_space_group_name_H-M "P -1"
_symmetry_group_IT_number 2
_symmetry_cell_setting 'triclinic'
loop_
_space_group_symop_operation_xyz
x,y,z
-x,-y,-z
loop_
_atom_site_type_symbol
_atom_site_label
_atom_site_fract_x
_atom_site_fract_y
_atom_site_fract_z
Si Si1 0.939468 0.502167 0.341322
Si Si2 0.790436 0.874865 0.020410
Si Si3 0.500494 0.837538 0.325833
Si Si4 0.421870 0.768884 0.999108
Si Si5 0.836148 0.227769 0.694345
Si Si6 0.730140 0.509384 0.196218
O O1 0.918228 0.294589 0.499944
O O2 0.000000 0.500000 0.500000
O O3 0.000000 0.500000 0.000000
O O4 0.835620 0.744741 0.305188
O O5 0.859171 0.968317 0.761422
O O6 0.686897 0.113527 0.012413
O O7 0.767461 0.692248 0.016534
O O8 0.461899 0.882694 0.660376
O O9 0.614295 0.635220 0.264512
O O10 0.424548 0.792073 0.300095
O O11 0.500000 0.000000 0.000000
O O12 0.500000 0.500000 0.000000
O O13 0.755390 0.401994 0.509072
O O14 0.793294 0.308904 0.006183
#
# Coordination Sequence:
#
# PCOD9063422 Si02
#       6
#     2   2   2   2   2   2
#     4  11  26  48  74 105 135 176 236 292 357 436
#     4  11  26  46  76 101 147 188 228 298 360 404
#     4  12  24  40  65  95 142 191 237 283 340 402
#     4  12  26  43  67 104 142 189 245 285 340 423
#     4  11  26  46  73 106 137 181 235 292 356 433
#     4  11  24  44  68 103 146 187 243 282 343 418
#
# _framework density 25.698228
#
# number of rings (size 3 to 8) (size 9 to 14) (size 15 to 20)
#    0.000    0.667    1.667    6.000    4.667    8.000 
#    0.000    0.000    0.000    0.000    0.000    0.000 
#    0.000    0.000    0.000    0.000    0.000    0.000 
#
# Total GULP energy -66979.175426 kJ/mol
# GULP energy per Si atom -5581.597952 kJ/mol
# Density = 2.563974 g / cm^3
# Si number density = 25.698228 Si / 1000 Ang^3
#
#
#
# Elastic Constant Matrix: (Units=GPa)
#
#
# Indices 1 2 3 4 5 6 
#
# 1 153.9914 36.5826 63.8097 -25.4116 6.7003 -22.1754
# 2 36.5826 62.7771 10.6138 -30.0191 -8.0995 -12.9546
# 3 63.8097 10.6138 122.3415 -14.2619 -2.0287 8.7170
# 4 -25.4116 -30.0191 -14.2619 49.5161 10.0082 -7.0719
# 5 6.7003 -8.0995 -2.0287 10.0082 63.5798 -14.6596
# 6 -22.1754 -12.9546 8.7170 -7.0719 -14.6596 48.5709
#
#
#
# Elastic Compliance Matrix: (Units=1/GPa)
#
#
# Indices 1 2 3 4 5 6 
#
# 1 0.010719 -0.002861 -0.005364 0.003165 -0.000949 0.005268
# 2 -0.002861 0.027550 0.000355 0.015971 0.003464 0.009349
# 3 -0.005364 0.000355 0.011263 0.000092 -0.000054 -0.004379
# 4 0.003165 0.015971 0.000092 0.033220 -0.001181 0.010169
# 5 -0.000949 0.003464 -0.000054 -0.001181 0.017766 0.005691
# 6 0.005268 0.009349 -0.004379 0.010169 0.005691 0.029471
#
#
# Mechanical properties :
#
#
# Convention : Reuss Voigt Hill
#
# Bulk Modulus (GPa) = 29.59356 62.34692 45.97024
# Shear Modulus (GPa) = 31.84881 47.54026 39.69453
#
# Velocity S-wave (km/s) = 3.52424 4.30576 3.93446
# Velocity P-wave (km/s) = 5.30106 7.00238 6.21025
#
# Compressibility (1/GPa) = 0.03379114
#
# Stress axis : x y z
#
# Youngs Moduli (GPa) = 93.29587 36.29778 88.78851
#
# Poissons Ratio (x) = 0.10384 0.47629
# Poissons Ratio (y) = 0.26691 -0.03154
# Poissons Ratio (z) = 0.50047 -0.01289
#
# Static dielectric constant tensor:
#      x y z
#    x 2.341490 0.106030 -0.096620 
#    y 0.106030 2.069220 -0.020640 
#    z -0.096620 -0.020640 1.939330 
# 
# From -- ./inp_files/106180.got.cif
#   From: 2010.05.17/outbox.cif.g08.bks.cpg/sg2_54_cif.got.tgz:106180.got - 2010.06.03 11:33:40.
