data_PCOD9063065
_publ_section_title
;
Structure prediction by ZEFSAII (Michael W. Deem and Ramdas Pophale) SiO2 
 PCOD9063065
Probable space group: P -1
;
_chemical_formula_sum "Si O2"
_cell_formula_units_Z 14
_cell_length_a 19.565674
_cell_length_b 9.662013
_cell_length_c 12.503693
_cell_angle_alpha 133.628122
_cell_angle_beta 25.548977
_cell_angle_gamma 143.235921
_cell_volume 605.212961
_symmetry_space_group_name_H-M "P -1"
_symmetry_group_IT_number 2
_symmetry_cell_setting 'triclinic'
loop_
_space_group_symop_operation_xyz
x,y,z
-x,-y,-z
loop_
_atom_site_type_symbol
_atom_site_label
_atom_site_fract_x
_atom_site_fract_y
_atom_site_fract_z
Si Si1 0.492979 0.099148 0.450749
Si Si2 0.177622 0.565972 0.137915
Si Si3 0.960785 0.150613 0.061363
Si Si4 0.187608 0.464261 0.293122
Si Si5 0.793485 0.760354 0.647968
Si Si6 0.461902 0.055144 0.912367
Si Si7 0.147946 0.422552 0.745724
O O1 0.643620 0.376884 0.393717
O O2 0.500000 0.000000 0.500000
O O3 0.268914 0.984190 0.686009
O O4 0.566350 0.010507 0.207131
O O5 0.199551 0.430122 0.131811
O O6 0.077012 0.403927 0.090220
O O7 0.029376 0.627092 0.419536
O O8 0.375612 0.811989 0.964048
O O9 0.045697 0.196999 0.846343
O O10 0.000000 0.000000 0.000000
O O11 0.260520 0.367804 0.228897
O O12 0.316200 0.744977 0.272835
O O13 0.818154 0.619365 0.445847
O O14 0.650229 0.825557 0.843649
O O15 0.000000 0.000000 0.500000
O O16 0.000000 0.500000 0.000000
#
# Coordination Sequence:
#
# PCOD9063065 Si02
#       7
#     2   2   2   2   2   2   2
#     4  12  25  45  79 104 142 199 242 292 366 435
#     4  11  24  46  69 101 144 191 228 294 362 428
#     4  12  28  46  74 107 147 191 246 299 361 433
#     4  11  24  43  70 101 145 184 230 291 365 416
#     4  12  26  44  73 110 141 182 244 301 350 421
#     4  12  24  46  73 105 141 185 247 293 355 430
#     4  12  25  49  75 105 148 193 242 300 362 435
#
# _framework density 23.132355
#
# number of rings (size 3 to 8) (size 9 to 14) (size 15 to 20)
#    0.000    0.286    5.714    3.429    2.000    1.714 
#    2.571    0.000    0.000    0.000    0.000    0.000 
#    0.000    0.000    0.000    0.000    0.000    0.000 
#
# Total GULP energy -78350.182187 kJ/mol
# GULP energy per Si atom -5596.441585 kJ/mol
# Density = 2.307970 g / cm^3
# Si number density = 23.132355 Si / 1000 Ang^3
#
#
#
# Elastic Constant Matrix: (Units=GPa)
#
#
# Indices 1 2 3 4 5 6 
#
# 1 114.9139 21.7417 25.5421 3.3802 9.0398 -12.6678
# 2 21.7417 92.5663 28.9804 -32.4275 -9.3074 5.3355
# 3 25.5421 28.9804 56.2918 -7.9229 8.9269 -3.5420
# 4 3.3802 -32.4275 -7.9229 38.8132 1.5305 1.9490
# 5 9.0398 -9.3074 8.9269 1.5305 31.9783 -3.2875
# 6 -12.6678 5.3355 -3.5420 1.9490 -3.2875 54.6178
#
#
#
# Elastic Compliance Matrix: (Units=1/GPa)
#
#
# Indices 1 2 3 4 5 6 
#
# 1 0.010699 -0.003585 -0.003055 -0.004575 -0.002725 0.002633
# 2 -0.003585 0.020890 -0.008431 0.015891 0.008328 -0.003485
# 3 -0.003055 -0.008431 0.024676 -0.001478 -0.008277 0.001270
# 4 -0.004575 0.015891 -0.001478 0.039171 0.004059 -0.003863
# 5 -0.002725 0.008328 -0.008277 0.004059 0.036590 0.000075
# 6 0.002633 -0.003485 0.001270 -0.003863 0.000075 0.019485
#
#
# Mechanical properties :
#
#
# Convention : Reuss Voigt Hill
#
# Bulk Modulus (GPa) = 38.28221 46.25561 42.26891
# Shear Modulus (GPa) = 26.26604 37.58237 31.92421
#
# Velocity S-wave (km/s) = 3.37333 4.03509 3.71896
# Velocity P-wave (km/s) = 5.63539 6.46133 6.06244
#
# Compressibility (1/GPa) = 0.02612179
#
# Stress axis : x y z
#
# Youngs Moduli (GPa) = 93.46953 47.87035 40.52548
#
# Poissons Ratio (x) = 0.17162 0.12380
# Poissons Ratio (y) = 0.33509 0.34168
# Poissons Ratio (z) = 0.28554 0.40361
#
# Static dielectric constant tensor:
#      x y z
#    x 1.911500 0.026430 0.005810 
#    y 0.026430 1.934350 -0.032240 
#    z 0.005810 -0.032240 1.860320 
# 
# From -- ./inp_files/280000.got.cif
#   From: 2010.05.17/outbox.cif.g08.bks.cpg/sg2_140_cif.got.tgz:280000.got - 2010.06.03 11:33:40.
