data_PCOD9063911
_publ_section_title
;
Structure prediction by ZEFSAII (Michael W. Deem and Ramdas Pophale) SiO2 
 PCOD9063911
Probable space group: P -1
;
_chemical_formula_sum "Si O2"
_cell_formula_units_Z 10
_cell_length_a 11.352652
_cell_length_b 11.814894
_cell_length_c 7.703215
_cell_angle_alpha 72.430268
_cell_angle_beta 135.501336
_cell_angle_gamma 140.710358
_cell_volume 378.795315
_symmetry_space_group_name_H-M "P -1"
_symmetry_group_IT_number 2
_symmetry_cell_setting 'triclinic'
loop_
_space_group_symop_operation_xyz
x,y,z
-x,-y,-z
loop_
_atom_site_type_symbol
_atom_site_label
_atom_site_fract_x
_atom_site_fract_y
_atom_site_fract_z
Si Si1 0.756190 0.443967 0.849960
Si Si2 0.126944 0.107242 0.321975
Si Si3 0.221284 0.714473 0.746341
Si Si4 0.277011 0.935756 0.165766
Si Si5 0.186658 0.296150 0.653679
O O1 0.457929 0.296407 0.494849
O O2 0.656166 0.306442 0.973504
O O3 0.000000 0.500000 0.000000
O O4 0.956715 0.678398 0.976750
O O5 0.201753 0.233546 0.514779
O O6 0.018761 0.912949 0.349396
O O7 0.845713 0.003379 0.978520
O O8 0.000000 0.500000 0.500000
O O9 0.996949 0.689591 0.576247
O O10 0.512239 0.937736 0.844625
O O11 0.500000 0.000000 0.500000
O O12 0.500000 0.500000 0.000000
#
# Coordination Sequence:
#
# PCOD9063911 Si02
#       5
#     2   2   2   2   2
#     4  12  26  47  76 111 149 199 256 320 387 453
#     4  11  25  48  73 113 157 194 259 319 379 462
#     4  12  24  47  75 110 154 196 257 315 378 459
#     4  12  26  46  75 107 152 205 250 312 381 454
#     4  11  24  44  80 113 148 205 252 317 391 451
#
# _framework density 26.399481000000002
#
# number of rings (size 3 to 8) (size 9 to 14) (size 15 to 20)
#    0.000    0.400    2.000    7.800    0.000    2.400 
#    0.000    2.000    0.000    0.000    0.000    0.000 
#    0.000    0.000    0.000    0.000    0.000    0.000 
#
# Total GULP energy -55977.593300 kJ/mol
# GULP energy per Si atom -5597.759330 kJ/mol
# Density = 2.633939 g / cm^3
# Si number density = 26.399481 Si / 1000 Ang^3
#
#
#
# Elastic Constant Matrix: (Units=GPa)
#
#
# Indices 1 2 3 4 5 6 
#
# 1 71.0402 29.3056 54.1986 3.6587 15.4760 -13.0592
# 2 29.3056 146.9969 45.6899 9.4297 -4.1197 7.4956
# 3 54.1986 45.6899 199.8658 28.7398 14.8456 -0.1547
# 4 3.6587 9.4297 28.7398 55.5575 -8.3733 1.0952
# 5 15.4760 -4.1197 14.8456 -8.3733 54.6495 0.0869
# 6 -13.0592 7.4956 -0.1547 1.0952 0.0869 52.6663
#
#
#
# Elastic Compliance Matrix: (Units=1/GPa)
#
#
# Indices 1 2 3 4 5 6 
#
# 1 0.021049 -0.003200 -0.004725 0.000765 -0.004810 0.005653
# 2 -0.003200 0.007928 -0.001032 -0.000301 0.001741 -0.001921
# 3 -0.004725 -0.001032 0.007087 -0.003339 -0.001175 -0.000932
# 4 0.000765 -0.000301 -0.003339 0.020301 0.003778 -0.000206
# 5 -0.004810 0.001741 -0.001175 0.003778 0.020693 -0.001557
# 6 0.005653 -0.001921 -0.000932 -0.000206 -0.001557 0.020667
#
#
# Mechanical properties :
#
#
# Convention : Reuss Voigt Hill
#
# Bulk Modulus (GPa) = 55.09574 75.14345 65.11960
# Shear Modulus (GPa) = 41.08895 51.82189 46.45542
#
# Velocity S-wave (km/s) = 3.94944 4.43537 4.19944
# Velocity P-wave (km/s) = 6.45854 7.39972 6.94509
#
# Compressibility (1/GPa) = 0.01815022
#
# Stress axis : x y z
#
# Youngs Moduli (GPa) = 47.50843 126.14035 141.10010
#
# Poissons Ratio (x) = 0.40364 0.66665
# Poissons Ratio (y) = 0.15202 0.14564
# Poissons Ratio (z) = 0.22446 0.13020
#
# Static dielectric constant tensor:
#      x y z
#    x 2.229880 0.014670 -0.065770 
#    y 0.014670 2.315200 -0.074690 
#    z -0.065770 -0.074690 2.083530 
# 
# From -- ./inp_files/144207.got.cif
#   From: 2010.05.17/outbox.cif.g08.bks.cpg/sg2_73_cif.got.tgz:144207.got - 2010.06.03 11:33:40.
