data_PCOD9063264
_publ_section_title
;
Structure prediction by ZEFSAII (Michael W. Deem and Ramdas Pophale) SiO2 
 PCOD9063264
Probable space group: P -1
;
_chemical_formula_sum "Si O2"
_cell_formula_units_Z 16
_cell_length_a 18.643700
_cell_length_b 10.937315
_cell_length_c 9.057450
_cell_angle_alpha 53.515850
_cell_angle_beta 32.636940
_cell_angle_gamma 48.664032
_cell_volume 744.527097
_symmetry_space_group_name_H-M "P -1"
_symmetry_group_IT_number 2
_symmetry_cell_setting 'triclinic'
loop_
_space_group_symop_operation_xyz
x,y,z
-x,-y,-z
loop_
_atom_site_type_symbol
_atom_site_label
_atom_site_fract_x
_atom_site_fract_y
_atom_site_fract_z
Si Si1 0.356083 0.136288 0.091581
Si Si2 0.373249 0.458060 0.677112
Si Si3 0.169225 0.769186 0.958710
Si Si4 0.857580 0.871752 0.302770
Si Si5 0.356584 0.500978 0.327430
Si Si6 0.163844 0.791873 0.279829
Si Si7 0.175919 0.096874 0.173494
Si Si8 0.138855 0.344387 0.820282
O O1 0.249890 0.188451 0.376877
O O2 0.276553 0.059718 0.167061
O O3 0.374212 0.290853 0.868973
O O4 0.500000 0.000000 0.000000
O O5 0.500000 0.500000 0.500000
O O6 0.235314 0.615695 0.847661
O O7 0.386638 0.457778 0.477714
O O8 0.207104 0.931057 0.748800
O O9 0.211929 0.713453 0.093025
O O10 0.999575 0.833009 0.181734
O O11 0.896419 0.771137 0.154900
O O12 0.235368 0.677407 0.375569
O O13 0.271214 0.388377 0.499099
O O14 0.500000 0.500000 0.000000
O O15 0.992202 0.849967 0.536269
O O16 0.209085 0.946001 0.113912
O O17 0.191790 0.244277 0.950152
O O18 0.000000 0.500000 0.000000
#
# Coordination Sequence:
#
# PCOD9063264 Si02
#       8
#     2   2   2   2   2   2   2   2
#     4  12  28  48  73 104 146 194 244 302 365 436
#     4  12  28  47  71 101 146 193 240 298 369 436
#     4  11  24  45  70 109 149 184 238 299 363 435
#     4  11  26  43  73 108 146 188 239 297 365 434
#     4  12  28  46  72 106 147 189 240 301 365 435
#     4  11  24  43  74 104 146 188 237 296 364 431
#     4  11  24  46  71 104 142 187 245 299 355 431
#     4  12  24  47  74 107 142 191 250 299 358 435
#
# _framework density 21.490151000000001
#
# number of rings (size 3 to 8) (size 9 to 14) (size 15 to 20)
#    0.000    0.500    5.000    2.250    7.000    0.500 
#    0.000    1.250    0.000    0.000    0.000    0.000 
#    0.000    0.000    0.000    0.000    0.000    0.000 
#
# Total GULP energy -89381.010958 kJ/mol
# GULP energy per Si atom -5586.313185 kJ/mol
# Density = 2.144124 g / cm^3
# Si number density = 21.490151 Si / 1000 Ang^3
#
#
#
# Elastic Constant Matrix: (Units=GPa)
#
#
# Indices 1 2 3 4 5 6 
#
# 1 123.4381 46.3040 50.0621 -3.5926 2.1217 -11.9730
# 2 46.3040 92.6161 40.4678 -16.8422 4.0800 -9.2166
# 3 50.0621 40.4678 100.8657 -12.6793 1.8540 -1.5934
# 4 -3.5926 -16.8422 -12.6793 28.9407 0.4146 2.3604
# 5 2.1217 4.0800 1.8540 0.4146 40.4561 1.1511
# 6 -11.9730 -9.2166 -1.5934 2.3604 1.1511 37.4696
#
#
#
# Elastic Compliance Matrix: (Units=1/GPa)
#
#
# Indices 1 2 3 4 5 6 
#
# 1 0.011648 -0.004180 -0.004458 -0.003160 -0.000030 0.002704
# 2 -0.004180 0.015911 -0.003356 0.007124 -0.001362 0.002028
# 3 -0.004458 -0.003356 0.013915 0.003745 -0.000050 -0.001893
# 4 -0.003160 0.007124 0.003745 0.040093 -0.001090 -0.001590
# 5 -0.000030 -0.001362 -0.000050 -0.001090 0.024900 -0.001043
# 6 0.002704 0.002028 -0.001893 -0.001590 -0.001043 0.028103
#
#
# Mechanical properties :
#
#
# Convention : Reuss Voigt Hill
#
# Bulk Modulus (GPa) = 57.19023 65.62087 61.40555
# Shear Modulus (GPa) = 30.41587 33.37902 31.89745
#
# Velocity S-wave (km/s) = 3.76618 3.94537 3.85682
# Velocity P-wave (km/s) = 6.75146 7.16633 6.96198
#
# Compressibility (1/GPa) = 0.01748550
#
# Stress axis : x y z
#
# Youngs Moduli (GPa) = 85.85110 62.85007 71.86358
#
# Poissons Ratio (x) = 0.26270 0.32038
# Poissons Ratio (y) = 0.35884 0.24120
# Poissons Ratio (z) = 0.38274 0.21095
#
# Static dielectric constant tensor:
#      x y z
#    x 1.750510 -0.012990 0.000160 
#    y -0.012990 1.892880 0.042810 
#    z 0.000160 0.042810 1.851770 
# 
# From -- ./inp_files/298897.got.cif
#   From: 2010.05.17/outbox.cif.g08.bks.cpg/sg2_150_cif.got.tgz:298897.got - 2010.06.03 11:33:40.
