data_PCOD9063157
_publ_section_title
;
Structure prediction by ZEFSAII (Michael W. Deem and Ramdas Pophale) SiO2 
 PCOD9063157
Probable space group: P -1
;
_chemical_formula_sum "Si O2"
_cell_formula_units_Z 15
_cell_length_a 6.208791
_cell_length_b 11.091630
_cell_length_c 15.829574
_cell_angle_alpha 50.235020
_cell_angle_beta 46.459125
_cell_angle_gamma 64.504611
_cell_volume 607.308710
_symmetry_space_group_name_H-M "P -1"
_symmetry_group_IT_number 2
_symmetry_cell_setting 'triclinic'
loop_
_space_group_symop_operation_xyz
x,y,z
-x,-y,-z
loop_
_atom_site_type_symbol
_atom_site_label
_atom_site_fract_x
_atom_site_fract_y
_atom_site_fract_z
Si Si1 0.573031 0.270511 0.049020
Si Si2 0.809366 0.217492 0.175159
Si Si3 0.386013 0.002014 0.123717
Si Si4 0.517746 0.276632 0.664328
Si Si5 0.094162 0.679421 0.729317
Si Si6 0.000000 0.500000 0.500000
Si Si7 0.915150 0.436928 0.744599
Si Si8 0.670351 0.063443 0.558347
O O1 0.805300 0.297893 0.048909
O O2 0.605841 0.093383 0.087155
O O3 0.253229 0.287392 0.171378
O O4 0.635962 0.375392 0.903269
O O5 0.791670 0.347857 0.194393
O O6 0.094993 0.107673 0.157022
O O7 0.546542 0.086672 0.312974
O O8 0.359030 0.829214 0.244876
O O9 0.500000 0.000000 0.000000
O O10 0.608113 0.177709 0.602176
O O11 0.696293 0.438376 0.560426
O O12 0.167194 0.302877 0.739748
O O13 0.312271 0.824314 0.577964
O O14 0.064460 0.569642 0.705293
O O15 0.152382 0.519228 0.353442
O O16 0.000000 0.000000 0.500000
#
# Coordination Sequence:
#
# PCOD9063157 Si02
#       8
#     2   2   2   2   2   1   2   2
#     4  11  24  46  72 107 145 189 243 301 357 429
#     4  11  24  43  76 106 143 193 236 301 369 412
#     4  11  24  43  71 109 145 187 244 297 360 432
#     4  12  27  45  72 107 142 187 244 294 366 428
#     4  11  25  46  70 107 146 189 245 294 363 433
#     4  12  28  48  70 102 146 194 232 298 368 422
#     4  12  28  48  73 104 148 193 242 298 359 444
#     4  12  23  46  72 104 143 185 243 303 352 427
#
# _framework density 24.699133
#
# number of rings (size 3 to 8) (size 9 to 14) (size 15 to 20)
#    0.000    0.533    4.000    3.600    3.733    4.800 
#    0.000    0.000    0.000    0.000    0.000    0.000 
#    0.000    0.000    0.000    0.000    0.000    0.000 
#
# Total GULP energy -83545.004897 kJ/mol
# GULP energy per Si atom -5569.666993 kJ/mol
# Density = 2.464292 g / cm^3
# Si number density = 24.699133 Si / 1000 Ang^3
#
#
#
# Elastic Constant Matrix: (Units=GPa)
#
#
# Indices 1 2 3 4 5 6 
#
# 1 93.5599 36.1270 21.9083 28.4968 23.4165 29.7353
# 2 36.1270 98.5009 22.7182 36.7603 7.2924 13.8714
# 3 21.9083 22.7182 121.5980 26.2237 22.4001 4.2818
# 4 28.4968 36.7603 26.2237 29.0651 14.5152 2.8351
# 5 23.4165 7.2924 22.4001 14.5152 46.0667 3.2565
# 6 29.7353 13.8714 4.2818 2.8351 3.2565 43.5447
#
#
#
# Elastic Compliance Matrix: (Units=1/GPa)
#
#
# Indices 1 2 3 4 5 6 
#
# 1 0.021631 0.002147 0.001718 -0.021993 -0.004260 -0.013874
# 2 0.002147 0.022211 0.002037 -0.034186 0.005665 -0.006940
# 3 0.001718 0.002037 0.010747 -0.012619 -0.002312 -0.001884
# 4 -0.021993 -0.034186 -0.012619 0.116242 -0.015365 0.020730
# 5 -0.004260 0.005665 -0.002312 -0.015365 0.028930 0.000169
# 6 -0.013874 -0.006940 -0.001884 0.020730 0.000169 0.033472
#
#
# Mechanical properties :
#
#
# Convention : Reuss Voigt Hill
#
# Bulk Modulus (GPa) = 15.06177 52.79621 33.92899
# Shear Modulus (GPa) = 20.52862 39.26234 29.89548
#
# Velocity S-wave (km/s) = 2.88609 3.99133 3.48283
# Velocity P-wave (km/s) = 4.14938 6.53170 5.47177
#
# Compressibility (1/GPa) = 0.06639324
#
# Stress axis : x y z
#
# Youngs Moduli (GPa) = 46.22931 45.02239 93.04583
#
# Poissons Ratio (x) = -0.09666 -0.15984
# Poissons Ratio (y) = -0.09925 -0.18953
# Poissons Ratio (z) = -0.07941 -0.09171
#
# Static dielectric constant tensor:
#      x y z
#    x 1.784970 0.046530 0.098570 
#    y 0.046530 2.000030 -0.100340 
#    z 0.098570 -0.100340 2.014370 
# 
# From -- ./inp_files/67594.got.cif
#   From: 2010.05.17/outbox.cif.g08.bks.cpg/sg2_34_cif.got.tgz:67594.got - 2010.06.03 11:33:40.
