data_PCOD9063011
_publ_section_title
;
Structure prediction by ZEFSAII (Michael W. Deem and Ramdas Pophale) SiO2 
 PCOD9063011
Probable space group: P -1
;
_chemical_formula_sum "Si O2"
_cell_formula_units_Z 16
_cell_length_a 21.234447
_cell_length_b 6.253794
_cell_length_c 9.393796
_cell_angle_alpha 100.957686
_cell_angle_beta 137.484566
_cell_angle_gamma 59.895008
_cell_volume 694.021790
_symmetry_space_group_name_H-M "P -1"
_symmetry_group_IT_number 2
_symmetry_cell_setting 'triclinic'
loop_
_space_group_symop_operation_xyz
x,y,z
-x,-y,-z
loop_
_atom_site_type_symbol
_atom_site_label
_atom_site_fract_x
_atom_site_fract_y
_atom_site_fract_z
Si Si1 0.436914 0.245072 0.818692
Si Si2 0.727096 0.555145 0.667544
Si Si3 0.898270 0.996156 0.765711
Si Si4 0.859108 0.775188 0.410789
Si Si5 0.634438 0.282179 0.040474
Si Si6 0.832625 0.842541 0.887609
Si Si7 0.630199 0.381016 0.717148
Si Si8 0.011233 0.211051 0.627328
O O1 0.356061 0.243035 0.565485
O O2 0.522021 0.286623 0.874379
O O3 0.372839 0.498690 0.843421
O O4 0.500000 0.000000 0.000000
O O5 0.790751 0.279726 0.657770
O O6 0.820275 0.608047 0.876870
O O7 0.663425 0.549905 0.700636
O O8 0.910036 0.897651 0.613174
O O9 0.872731 0.810618 0.789201
O O10 0.000000 0.000000 0.000000
O O11 0.909605 0.742607 0.334818
O O12 0.896544 0.489110 0.487698
O O13 0.730604 0.995876 0.214435
O O14 0.653655 0.342824 0.920047
O O15 0.711553 0.096520 0.749140
O O16 0.920814 0.874991 0.124856
O O17 0.500000 0.500000 0.500000
O O18 0.000000 0.000000 0.500000
#
# Coordination Sequence:
#
# PCOD9063011 Si02
#       8
#     2   2   2   2   2   2   2   2
#     4  11  26  42  72 107 141 182 235 290 353 426
#     4  11  25  44  70 105 142 185 238 293 355 422
#     4  11  24  45  71  99 140 186 232 292 358 426
#     4  11  24  43  69 101 135 182 231 290 351 418
#     4  11  24  48  69 102 143 184 238 287 349 427
#     4  11  26  44  68 104 139 182 241 294 353 430
#     4  11  24  45  70  99 144 194 234 291 347 428
#     4  11  25  46  68  98 139 182 235 291 349 425
#
# _framework density 23.054030000000001
#
# number of rings (size 3 to 8) (size 9 to 14) (size 15 to 20)
#    0.000    1.000    3.750    1.500    3.500    8.500 
#    0.000    0.000    0.000    0.000    0.000    0.000 
#    0.000    0.000    0.000    0.000    0.000    0.000 
#
# Total GULP energy -89424.695558 kJ/mol
# GULP energy per Si atom -5589.043472 kJ/mol
# Density = 2.300156 g / cm^3
# Si number density = 23.054030 Si / 1000 Ang^3
#
#
#
# Elastic Constant Matrix: (Units=GPa)
#
#
# Indices 1 2 3 4 5 6 
#
# 1 99.6704 19.0119 28.6012 -0.0149 -21.0129 1.9440
# 2 19.0119 99.5192 40.6805 -5.9516 3.7093 -6.3188
# 3 28.6012 40.6805 108.1367 3.2671 -3.5833 -5.7074
# 4 -0.0149 -5.9516 3.2671 36.8168 -6.8496 7.4777
# 5 -21.0129 3.7093 -3.5833 -6.8496 26.5071 1.4821
# 6 1.9440 -6.3188 -5.7074 7.4777 1.4821 33.5013
#
#
#
# Elastic Compliance Matrix: (Units=1/GPa)
#
#
# Indices 1 2 3 4 5 6 
#
# 1 0.013683 -0.001946 -0.002727 0.002642 0.011586 -0.002728
# 2 -0.001946 0.012479 -0.004257 0.001404 -0.003591 0.001587
# 3 -0.002727 -0.004257 0.011715 -0.002234 -0.000665 0.001879
# 4 0.002642 0.001404 -0.002234 0.031005 0.010035 -0.007634
# 5 0.011586 -0.003591 -0.000665 0.010035 0.050248 -0.005926
# 6 -0.002728 0.001587 0.001879 -0.007634 -0.005926 0.032593
#
#
# Mechanical properties :
#
#
# Convention : Reuss Voigt Hill
#
# Bulk Modulus (GPa) = 49.95987 53.76814 51.86401
# Shear Modulus (GPa) = 28.36780 33.96720 31.16750
#
# Velocity S-wave (km/s) = 3.51164 3.84262 3.68085
# Velocity P-wave (km/s) = 6.17738 6.56208 6.37263
#
# Compressibility (1/GPa) = 0.02001606
#
# Stress axis : x y z
#
# Youngs Moduli (GPa) = 73.08323 80.13475 85.36060
#
# Poissons Ratio (x) = 0.15597 0.23275
# Poissons Ratio (y) = 0.14225 0.36341
# Poissons Ratio (z) = 0.19928 0.34116
#
# Static dielectric constant tensor:
#      x y z
#    x 1.846750 0.042590 -0.007990 
#    y 0.042590 1.866370 -0.059050 
#    z -0.007990 -0.059050 1.880720 
# 
# From -- ./inp_files/340506.got.cif
#   From: 2010.05.17/outbox.cif.g08.bks.cpg/sg2_171_cif.got.tgz:340506.got - 2010.06.03 11:33:40.
