data_PCOD9063572
_publ_section_title
;
Structure prediction by ZEFSAII (Michael W. Deem and Ramdas Pophale) SiO2 
 PCOD9063572
Probable space group: P -1
;
_chemical_formula_sum "Si O2"
_cell_formula_units_Z 16
_cell_length_a 8.894887
_cell_length_b 11.872947
_cell_length_c 11.266012
_cell_angle_alpha 57.907141
_cell_angle_beta 93.178534
_cell_angle_gamma 127.770107
_cell_volume 729.165922
_symmetry_space_group_name_H-M "P -1"
_symmetry_group_IT_number 2
_symmetry_cell_setting 'triclinic'
loop_
_space_group_symop_operation_xyz
x,y,z
-x,-y,-z
loop_
_atom_site_type_symbol
_atom_site_label
_atom_site_fract_x
_atom_site_fract_y
_atom_site_fract_z
Si Si1 0.912036 0.004845 0.870510
Si Si2 0.265624 0.898928 0.519652
Si Si3 0.638711 0.764388 0.788106
Si Si4 0.562221 0.019573 0.856518
Si Si5 0.738156 0.614474 0.442556
Si Si6 0.169935 0.350458 0.295074
Si Si7 0.223073 0.641806 0.486189
Si Si8 0.757641 0.379448 0.028843
O O1 0.113308 0.179440 0.711873
O O2 0.769602 0.822241 0.883705
O O3 0.760594 0.040988 0.856663
O O4 0.000000 0.000000 0.000000
O O5 0.200321 0.724199 0.549353
O O6 0.078491 0.814550 0.649427
O O7 0.500000 0.000000 0.500000
O O8 0.284083 0.044564 0.362374
O O9 0.703719 0.692747 0.736329
O O10 0.392486 0.632094 0.878573
O O11 0.623172 0.189874 0.692866
O O12 0.373139 0.833082 0.883892
O O13 0.500000 0.000000 0.000000
O O14 0.500000 0.500000 0.500000
O O15 0.805061 0.628765 0.573728
O O16 0.736012 0.487661 0.423837
O O17 0.246150 0.532762 0.138045
O O18 0.000000 0.500000 0.500000
O O19 0.000000 0.500000 0.000000
#
# Coordination Sequence:
#
# PCOD9063572 Si02
#       8
#     2   2   2   2   2   2   2   2
#     4  11  25  47  69 103 147 188 241 295 366 439
#     4  12  25  44  75 107 141 191 246 302 367 431
#     4  11  24  49  70 105 151 189 240 304 368 433
#     4  11  24  44  70  99 139 187 234 296 358 418
#     4  12  28  45  72 111 141 191 248 298 369 432
#     4  12  25  45  73 106 151 189 244 309 360 438
#     4  12  22  49  73  99 146 184 243 304 348 433
#     4  11  25  47  69 109 146 190 248 291 367 439
#
# _framework density 21.942881
#
# number of rings (size 3 to 8) (size 9 to 14) (size 15 to 20)
#    0.000    0.500    6.250    2.250    7.000    1.000 
#    2.250    0.000    0.000    0.000    0.000    0.000 
#    0.000    0.000    0.000    0.000    0.000    0.000 
#
# Total GULP energy -89316.574746 kJ/mol
# GULP energy per Si atom -5582.285922 kJ/mol
# Density = 2.189294 g / cm^3
# Si number density = 21.942881 Si / 1000 Ang^3
#
#
#
# Elastic Constant Matrix: (Units=GPa)
#
#
# Indices 1 2 3 4 5 6 
#
# 1 90.6472 45.5790 8.7487 -6.7070 -30.3952 19.3398
# 2 45.5790 93.1588 9.8010 -14.5365 -8.0512 11.0750
# 3 8.7487 9.8010 96.9184 -10.3930 -14.2807 7.1602
# 4 -6.7070 -14.5365 -10.3930 33.7955 6.0185 -12.6915
# 5 -30.3952 -8.0512 -14.2807 6.0185 47.4826 -5.0018
# 6 19.3398 11.0750 7.1602 -12.6915 -5.0018 36.0167
#
#
#
# Elastic Compliance Matrix: (Units=1/GPa)
#
#
# Indices 1 2 3 4 5 6 
#
# 1 0.020972 -0.009049 0.000894 -0.004840 0.011855 -0.008715
# 2 -0.009049 0.015638 -0.000833 0.006057 -0.003970 0.001799
# 3 0.000894 -0.000833 0.011143 0.002195 0.003378 -0.001196
# 4 -0.004840 0.006057 0.002195 0.037606 -0.004820 0.012882
# 5 0.011855 -0.003970 0.003378 -0.004820 0.029239 -0.003454
# 6 -0.008715 0.001799 -0.001196 0.012882 -0.003454 0.036189
#
#
# Mechanical properties :
#
#
# Convention : Reuss Voigt Hill
#
# Bulk Modulus (GPa) = 33.58465 45.44243 39.51354
# Shear Modulus (GPa) = 27.98167 37.89867 32.94017
#
# Velocity S-wave (km/s) = 3.57488 4.16041 3.87871
# Velocity P-wave (km/s) = 5.69020 6.62065 6.17298
#
# Compressibility (1/GPa) = 0.02977551
#
# Stress axis : x y z
#
# Youngs Moduli (GPa) = 47.68242 63.94844 89.74227
#
# Poissons Ratio (x) = 0.57869 -0.08020
# Poissons Ratio (y) = 0.43150 0.07474
# Poissons Ratio (z) = -0.04261 0.05326
#
# Static dielectric constant tensor:
#      x y z
#    x 1.827240 0.046740 -0.013730 
#    y 0.046740 1.835590 0.068080 
#    z -0.013730 0.068080 1.840830 
# 
# From -- ./inp_files/184124.got.cif
#   From: 2010.05.17/outbox.cif.g08.bks.cpg/sg2_93_cif.got.tgz:184124.got - 2010.06.03 11:33:40.
