data_PCOD9063804
_publ_section_title
;
Structure prediction by ZEFSAII (Michael W. Deem and Ramdas Pophale) SiO2 
 PCOD9063804
Probable space group: P -1
;
_chemical_formula_sum "Si O2"
_cell_formula_units_Z 13
_cell_length_a 12.529340
_cell_length_b 9.625562
_cell_length_c 8.955464
_cell_angle_alpha 132.626202
_cell_angle_beta 79.682849
_cell_angle_gamma 130.853374
_cell_volume 529.223396
_symmetry_space_group_name_H-M "P -1"
_symmetry_group_IT_number 2
_symmetry_cell_setting 'triclinic'
loop_
_space_group_symop_operation_xyz
x,y,z
-x,-y,-z
loop_
_atom_site_type_symbol
_atom_site_label
_atom_site_fract_x
_atom_site_fract_y
_atom_site_fract_z
Si Si1 0.324352 0.705417 0.293316
Si Si2 0.154974 0.480353 0.875631
Si Si3 0.361160 0.730376 0.739467
Si Si4 0.500000 0.500000 0.500000
Si Si5 0.818370 0.033539 0.767439
Si Si6 0.177971 0.772877 0.597949
Si Si7 0.821752 0.854791 0.960664
O O1 0.204317 0.720604 0.388550
O O2 0.283645 0.462909 0.215070
O O3 0.500000 0.000000 0.500000
O O4 0.287572 0.608042 0.060979
O O5 0.207833 0.486041 0.703311
O O6 0.985316 0.186123 0.762973
O O7 0.159954 0.714750 0.038400
O O8 0.438666 0.637174 0.600816
O O9 0.299957 0.802725 0.687042
O O10 0.500000 0.000000 0.000000
O O11 0.655758 0.753386 0.530470
O O12 0.783882 0.915206 0.859935
O O13 0.000000 0.500000 0.500000
O O14 0.198799 0.019438 0.810221
O O15 0.000000 0.000000 0.000000
#
# Coordination Sequence:
#
# PCOD9063804 Si02
#       7
#     2   2   2   1   2   2   2
#     4  12  28  46  74 110 150 187 254 315 370 439
#     4  11  24  48  72 106 152 191 240 317 367 430
#     4  12  25  48  75 107 151 197 245 307 376 436
#     4  12  26  44  76 108 138 196 254 294 364 458
#     4  11  24  44  74 106 146 192 247 303 368 445
#     4  12  25  46  77 107 146 203 246 302 377 452
#     4  12  23  48  74 103 146 200 243 296 380 450
#
# _framework density 24.564294
#
# number of rings (size 3 to 8) (size 9 to 14) (size 15 to 20)
#    0.000    0.308    6.154    1.846    4.308    1.231 
#    2.769    0.000    0.000    0.000    0.000    0.000 
#    0.000    0.000    0.000    0.000    0.000    0.000 
#
# Total GULP energy -72536.683927 kJ/mol
# GULP energy per Si atom -5579.744917 kJ/mol
# Density = 2.450838 g / cm^3
# Si number density = 24.564294 Si / 1000 Ang^3
#
#
#
# Elastic Constant Matrix: (Units=GPa)
#
#
# Indices 1 2 3 4 5 6 
#
# 1 107.1272 12.6095 35.1785 12.2299 -25.1970 -6.5049
# 2 12.6095 124.6149 27.4721 31.7791 0.1595 4.7850
# 3 35.1785 27.4721 74.1223 29.5983 -16.6944 -5.7134
# 4 12.2299 31.7791 29.5983 57.7418 1.5186 6.0000
# 5 -25.1970 0.1595 -16.6944 1.5186 39.7582 3.6194
# 6 -6.5049 4.7850 -5.7134 6.0000 3.6194 44.8571
#
#
#
# Elastic Compliance Matrix: (Units=1/GPa)
#
#
# Indices 1 2 3 4 5 6 
#
# 1 0.012226 -0.000223 -0.004045 -0.000643 0.005995 0.000884
# 2 -0.000223 0.009566 -0.002054 -0.004070 -0.000823 -0.000704
# 3 -0.004045 -0.002054 0.021787 -0.009685 0.006675 0.003164
# 4 -0.000643 -0.004070 -0.009685 0.025193 -0.005069 -0.003853
# 5 0.005995 -0.000823 0.006675 -0.005069 0.031960 -0.000093
# 6 0.000884 -0.000704 0.003164 -0.003853 -0.000093 0.023422
#
#
# Mechanical properties :
#
#
# Convention : Reuss Voigt Hill
#
# Bulk Modulus (GPa) = 32.32522 50.70940 41.51731
# Shear Modulus (GPa) = 33.98823 43.84504 38.91663
#
# Velocity S-wave (km/s) = 3.72377 4.22940 3.98462
# Velocity P-wave (km/s) = 5.62820 6.67374 6.17315
#
# Compressibility (1/GPa) = 0.03093560
#
# Stress axis : x y z
#
# Youngs Moduli (GPa) = 81.79053 104.53585 45.89919
#
# Poissons Ratio (x) = 0.02332 0.18565
# Poissons Ratio (y) = 0.01825 0.09427
# Poissons Ratio (z) = 0.33083 0.21471
#
# Static dielectric constant tensor:
#      x y z
#    x 1.543340 0.044790 -0.335190 
#    y 0.044790 1.996170 -0.018650 
#    z -0.335190 -0.018650 1.661460 
# 
# From -- ./inp_files/245920.got.cif
#   From: 2010.05.17/outbox.cif.g08.bks.cpg/sg2_123_cif.got.tgz:245920.got - 2010.06.03 11:33:40.
