data_PCOD9063105
_publ_section_title
;
Structure prediction by ZEFSAII (Michael W. Deem and Ramdas Pophale) SiO2 
 PCOD9063105
Probable space group: P -1
;
_chemical_formula_sum "Si O2"
_cell_formula_units_Z 12
_cell_length_a 16.038641
_cell_length_b 9.671546
_cell_length_c 5.975211
_cell_angle_alpha 80.869759
_cell_angle_beta 71.585401
_cell_angle_gamma 35.221159
_cell_volume 498.748373
_symmetry_space_group_name_H-M "P -1"
_symmetry_group_IT_number 2
_symmetry_cell_setting 'triclinic'
loop_
_space_group_symop_operation_xyz
x,y,z
-x,-y,-z
loop_
_atom_site_type_symbol
_atom_site_label
_atom_site_fract_x
_atom_site_fract_y
_atom_site_fract_z
Si Si1 0.778606 0.346475 0.086968
Si Si2 0.135019 0.996792 0.196558
Si Si3 0.249562 0.092885 0.767676
Si Si4 0.451937 0.199522 0.132928
Si Si5 0.833306 0.494163 0.375340
Si Si6 0.334834 0.745347 0.481660
O O1 0.824027 0.425875 0.162238
O O2 0.758946 0.253740 0.314739
O O3 0.621900 0.592343 0.028604
O O4 0.883078 0.129295 0.874494
O O5 0.990600 0.227950 0.410602
O O6 0.293672 0.782402 0.250810
O O7 0.156844 0.097794 0.983301
O O8 0.161778 0.348127 0.716495
O O9 0.402043 0.936293 0.817478
O O10 0.293887 0.954423 0.539746
O O11 0.315034 0.342953 0.388253
O O12 0.500000 0.000000 0.000000
O O13 0.500000 0.500000 0.500000
#
# Coordination Sequence:
#
# PCOD9063105 Si02
#       6
#     2   2   2   2   2   2
#     4  11  24  44  71 100 139 180 234 281 343 409
#     4  11  26  46  70 105 140 184 226 283 352 409
#     4  11  25  44  70 102 138 181 234 282 343 410
#     4  12  26  44  73 103 135 184 233 284 344 407
#     4  12  26  44  71 104 143 179 232 288 341 407
#     4  11  24  43  70  99 142 183 231 281 342 412
#
# _framework density 24.060227000000001
#
# number of rings (size 3 to 8) (size 9 to 14) (size 15 to 20)
#    0.000    0.667    1.667    5.500    4.667    8.667 
#    0.000    0.000    0.000    0.000    0.000    0.000 
#    0.000    0.000    0.000    0.000    0.000    0.000 
#
# Total GULP energy -67148.302116 kJ/mol
# GULP energy per Si atom -5595.691843 kJ/mol
# Density = 2.400546 g / cm^3
# Si number density = 24.060227 Si / 1000 Ang^3
#
#
#
# Elastic Constant Matrix: (Units=GPa)
#
#
# Indices 1 2 3 4 5 6 
#
# 1 105.9196 37.8431 34.5329 20.3092 20.3802 21.6730
# 2 37.8431 134.4559 32.0578 23.1844 9.3076 30.0974
# 3 34.5329 32.0578 64.9872 13.9810 0.7785 15.0596
# 4 20.3092 23.1844 13.9810 41.7677 2.9299 2.1459
# 5 20.3802 9.3076 0.7785 2.9299 42.2848 6.9202
# 6 21.6730 30.0974 15.0596 2.1459 6.9202 57.1979
#
#
#
# Elastic Compliance Matrix: (Units=1/GPa)
#
#
# Indices 1 2 3 4 5 6 
#
# 1 0.013917 -0.001007 -0.005424 -0.003864 -0.005712 -0.002479
# 2 -0.001007 0.009948 -0.002613 -0.003904 -0.000743 -0.003929
# 3 -0.005424 -0.002613 0.020691 -0.002957 0.003393 -0.002317
# 4 -0.003864 -0.003904 -0.002957 0.028796 0.000260 0.003185
# 5 -0.005712 -0.000743 0.003393 0.000260 0.026745 -0.001583
# 6 -0.002479 -0.003929 -0.002317 0.003185 -0.001583 0.021172
#
#
# Mechanical properties :
#
#
# Convention : Reuss Voigt Hill
#
# Bulk Modulus (GPa) = 37.78190 57.13670 47.45930
# Shear Modulus (GPa) = 33.74306 41.64532 37.69419
#
# Velocity S-wave (km/s) = 3.74898 4.16490 3.96240
# Velocity P-wave (km/s) = 5.87171 6.85036 6.37983
#
# Compressibility (1/GPa) = 0.02646770
#
# Stress axis : x y z
#
# Youngs Moduli (GPa) = 71.85633 100.52549 48.32929
#
# Poissons Ratio (x) = 0.10122 0.26214
# Poissons Ratio (y) = 0.07236 0.12628
# Poissons Ratio (z) = 0.38975 0.26267
#
# Static dielectric constant tensor:
#      x y z
#    x 1.943590 -0.095160 -0.004200 
#    y -0.095160 1.964340 0.028970 
#    z -0.004200 0.028970 1.956120 
# 
# From -- ./inp_files/21433.got.cif
#   From: 2010.05.17/outbox.cif.g08.bks.cpg/sg2_11_cif.got.tgz:21433.got - 2010.06.03 11:33:40.
