data_PCOD9063545
_publ_section_title
;
Structure prediction by ZEFSAII (Michael W. Deem and Ramdas Pophale) SiO2 
 PCOD9063545
Probable space group: P -1
;
_chemical_formula_sum "Si O2"
_cell_formula_units_Z 14
_cell_length_a 5.037545
_cell_length_b 13.443748
_cell_length_c 16.077488
_cell_angle_alpha 149.535548
_cell_angle_beta 90.354100
_cell_angle_gamma 97.469064
_cell_volume 532.001455
_symmetry_space_group_name_H-M "P -1"
_symmetry_group_IT_number 2
_symmetry_cell_setting 'triclinic'
loop_
_space_group_symop_operation_xyz
x,y,z
-x,-y,-z
loop_
_atom_site_type_symbol
_atom_site_label
_atom_site_fract_x
_atom_site_fract_y
_atom_site_fract_z
Si Si1 0.142311 0.847512 0.131296
Si Si2 0.187172 0.570126 0.159721
Si Si3 0.121998 0.208063 0.571933
Si Si4 0.586119 0.517688 0.720973
Si Si5 0.291775 0.620388 0.553078
Si Si6 0.512600 0.956485 0.360350
Si Si7 0.352070 0.081026 0.921797
O O1 0.356304 0.981431 0.292183
O O2 0.358078 0.794772 0.029545
O O3 0.921535 0.934873 0.145574
O O4 0.961183 0.648674 0.034361
O O5 0.965534 0.688598 0.272355
O O6 0.293288 0.516331 0.212089
O O7 0.412145 0.718767 0.210555
O O8 0.269958 0.386350 0.637228
O O9 0.836169 0.060004 0.431168
O O10 0.343089 0.082842 0.506273
O O11 0.703342 0.412557 0.570196
O O12 0.656752 0.763830 0.890506
O O13 0.500000 0.500000 0.500000
O O14 0.000000 0.500000 0.500000
O O15 0.368504 0.849198 0.755482
#
# Coordination Sequence:
#
# PCOD9063545 Si02
#       7
#     2   2   2   2   2   2   2
#     4  11  24  44  70 103 148 199 248 298 353 424
#     4  11  25  44  66 103 149 198 253 297 357 417
#     4  12  24  43  64 102 145 195 253 291 352 422
#     4  11  27  48  79 105 150 197 242 302 371 442
#     4  12  30  51  79 113 143 178 237 307 382 461
#     4  12  26  38  68 103 150 200 254 306 342 400
#     4  11  25  49  76 109 147 192 241 295 371 446
#
# _framework density 26.315716999999999
#
# number of rings (size 3 to 8) (size 9 to 14) (size 15 to 20)
#    0.000    0.571    2.857    3.857    6.000    1.143 
#    0.000    3.571    0.000    0.000    0.000    0.000 
#    0.000    0.000    0.000    0.000    0.000    0.000 
#
# Total GULP energy -78334.705557 kJ/mol
# GULP energy per Si atom -5595.336111 kJ/mol
# Density = 2.625582 g / cm^3
# Si number density = 26.315717 Si / 1000 Ang^3
#
#
#
# Elastic Constant Matrix: (Units=GPa)
#
#
# Indices 1 2 3 4 5 6 
#
# 1 199.1366 42.2080 45.5783 14.3166 20.1079 -6.7790
# 2 42.2080 64.5631 53.3459 9.4435 13.5268 6.9796
# 3 45.5783 53.3459 190.0647 37.4039 11.6694 6.7703
# 4 14.3166 9.4435 37.4039 35.3195 0.0468 2.5664
# 5 20.1079 13.5268 11.6694 0.0468 45.1443 5.6220
# 6 -6.7790 6.9796 6.7703 2.5664 5.6220 50.4914
#
#
#
# Elastic Compliance Matrix: (Units=1/GPa)
#
#
# Indices 1 2 3 4 5 6 
#
# 1 0.006139 -0.003454 -0.000146 -0.001525 -0.001860 0.001606
# 2 -0.003454 0.023262 -0.005652 0.001358 -0.003650 -0.002584
# 3 -0.000146 -0.005652 0.008333 -0.007259 -0.000395 0.000057
# 4 -0.001525 0.001358 -0.007259 0.036362 0.002301 -0.001524
# 5 -0.001860 -0.003650 -0.000395 0.002301 0.024489 -0.002536
# 6 0.001606 -0.002584 0.000057 -0.001524 -0.002536 0.020730
#
#
# Mechanical properties :
#
#
# Convention : Reuss Voigt Hill
#
# Bulk Modulus (GPa) = 51.99774 81.78098 66.88936
# Shear Modulus (GPa) = 34.66678 47.03320 40.84999
#
# Velocity S-wave (km/s) = 3.63346 4.23219 3.94420
# Velocity P-wave (km/s) = 6.11594 7.41797 6.79820
#
# Compressibility (1/GPa) = 0.01923161
#
# Stress axis : x y z
#
# Youngs Moduli (GPa) = 162.88620 42.98824 120.00021
#
# Poissons Ratio (x) = 0.14848 0.01748
# Poissons Ratio (y) = 0.56260 0.67823
# Poissons Ratio (z) = 0.02373 0.24297
#
# Static dielectric constant tensor:
#      x y z
#    x 2.045680 -0.026060 -0.031050 
#    y -0.026060 2.224180 -0.077530 
#    z -0.031050 -0.077530 2.209940 
# 
# From -- ./inp_files/550183.got.cif
#   From: 2010.05.17/outbox.cif.g08.bks.cpg/sg2_276_cif.got.tgz:550183.got - 2010.06.03 11:33:40.
