data_PCOD9063325
_publ_section_title
;
Structure prediction by ZEFSAII (Michael W. Deem and Ramdas Pophale) SiO2 
 PCOD9063325
Probable space group: P -1
;
_chemical_formula_sum "Si O2"
_cell_formula_units_Z 14
_cell_length_a 12.622971
_cell_length_b 15.673364
_cell_length_c 21.862947
_cell_angle_alpha 17.297781
_cell_angle_beta 152.067879
_cell_angle_gamma 152.335878
_cell_volume 574.216793
_symmetry_space_group_name_H-M "P -1"
_symmetry_group_IT_number 2
_symmetry_cell_setting 'triclinic'
loop_
_space_group_symop_operation_xyz
x,y,z
-x,-y,-z
loop_
_atom_site_type_symbol
_atom_site_label
_atom_site_fract_x
_atom_site_fract_y
_atom_site_fract_z
Si Si1 0.257633 0.681482 0.030702
Si Si2 0.608244 0.291976 0.116727
Si Si3 0.738015 0.335927 0.286176
Si Si4 0.534050 0.175201 0.745837
Si Si5 0.924134 0.188738 0.027475
Si Si6 0.974580 0.557889 0.532821
Si Si7 0.595631 0.292276 0.434794
O O1 0.235731 0.719677 0.065415
O O2 0.434447 0.496094 0.230536
O O3 0.000000 0.500000 0.000000
O O4 0.350498 0.990940 0.829723
O O5 0.730301 0.235422 0.280794
O O6 0.813576 0.574934 0.999409
O O7 0.530303 0.021119 0.214566
O O8 0.386919 0.404611 0.946998
O O9 0.986722 0.431658 0.382590
O O10 0.571001 0.037903 0.438212
O O11 0.500000 0.500000 0.500000
O O12 0.791803 0.185359 0.897926
O O13 0.938155 0.864674 0.278012
O O14 0.764107 0.290270 0.580498
O O15 0.222270 0.556594 0.629286
#
# Coordination Sequence:
#
# PCOD9063325 Si02
#       7
#     2   2   2   2   2   2   2
#     4  12  25  47  79 111 151 197 255 312 368 454
#     4  11  27  49  69 113 153 196 248 310 382 455
#     4  11  25  44  78 108 151 194 243 316 383 443
#     4  12  29  50  74 107 157 200 247 312 381 451
#     4  12  26  47  77 107 149 197 256 309 376 446
#     4  11  24  43  77 110 145 191 255 313 370 444
#     4  11  24  43  76 113 145 190 257 308 375 445
#
# _framework density 24.381036000000002
#
# number of rings (size 3 to 8) (size 9 to 14) (size 15 to 20)
#    0.000    0.571    4.286    2.571    4.000    4.000 
#    0.000    2.857    0.000    0.000    0.000    0.000 
#    0.000    0.000    0.000    0.000    0.000    0.000 
#
# Total GULP energy -78483.519919 kJ/mol
# GULP energy per Si atom -5605.965709 kJ/mol
# Density = 2.432554 g / cm^3
# Si number density = 24.381036 Si / 1000 Ang^3
#
#
#
# Elastic Constant Matrix: (Units=GPa)
#
#
# Indices 1 2 3 4 5 6 
#
# 1 88.0545 40.7731 34.7965 12.5857 7.6991 -31.8042
# 2 40.7731 130.9918 17.5903 3.4824 -0.6415 -38.3260
# 3 34.7965 17.5903 82.3579 -0.7701 7.4989 -15.5640
# 4 12.5857 3.4824 -0.7701 39.2413 -3.0293 -8.4268
# 5 7.6991 -0.6415 7.4989 -3.0293 39.5767 8.5765
# 6 -31.8042 -38.3260 -15.5640 -8.4268 8.5765 57.6041
#
#
#
# Elastic Compliance Matrix: (Units=1/GPa)
#
#
# Indices 1 2 3 4 5 6 
#
# 1 0.018337 -0.002915 -0.005510 -0.004636 -0.004370 0.006669
# 2 -0.002915 0.010053 0.000138 0.001164 -0.000364 0.005341
# 3 -0.005510 0.000138 0.014965 0.002266 -0.001960 0.001716
# 4 -0.004636 0.001164 0.002266 0.027620 0.002050 0.002562
# 5 -0.004370 -0.000364 -0.001960 0.002050 0.028174 -0.007080
# 6 0.006669 0.005341 0.001716 0.002562 -0.007080 0.026488
#
#
# Mechanical properties :
#
#
# Convention : Reuss Voigt Hill
#
# Bulk Modulus (GPa) = 37.34083 54.19156 45.76620
# Shear Modulus (GPa) = 33.08248 41.16737 37.12493
#
# Velocity S-wave (km/s) = 3.68760 4.11359 3.90641
# Velocity P-wave (km/s) = 5.78619 6.69607 6.25769
#
# Compressibility (1/GPa) = 0.02678034
#
# Stress axis : x y z
#
# Youngs Moduli (GPa) = 54.53432 99.47501 66.82414
#
# Poissons Ratio (x) = 0.28995 0.36821
# Poissons Ratio (y) = 0.15896 -0.00921
# Poissons Ratio (z) = 0.30049 -0.01371
#
# Static dielectric constant tensor:
#      x y z
#    x 1.756150 0.108110 -0.055380 
#    y 0.108110 1.869720 0.039880 
#    z -0.055380 0.039880 1.916200 
# 
# From -- ./inp_files/595599.got.cif
#   From: 2010.05.17/outbox.cif.g08.bks.cpg/sg2_298_cif.got.tgz:595599.got - 2010.06.03 11:33:40.
