data_PCOD9063993
_publ_section_title
;
Structure prediction by ZEFSAII (Michael W. Deem and Ramdas Pophale) SiO2 
 PCOD9063993
Probable space group: P -1
;
_chemical_formula_sum "Si O2"
_cell_formula_units_Z 16
_cell_length_a 9.476401
_cell_length_b 12.111047
_cell_length_c 8.514825
_cell_angle_alpha 122.474529
_cell_angle_beta 103.733443
_cell_angle_gamma 61.635038
_cell_volume 725.241191
_symmetry_space_group_name_H-M "P -1"
_symmetry_group_IT_number 2
_symmetry_cell_setting 'triclinic'
loop_
_space_group_symop_operation_xyz
x,y,z
-x,-y,-z
loop_
_atom_site_type_symbol
_atom_site_label
_atom_site_fract_x
_atom_site_fract_y
_atom_site_fract_z
Si Si1 0.821772 0.113917 0.342584
Si Si2 0.347499 0.623580 0.972537
Si Si3 0.183541 0.328732 0.274570
Si Si4 0.524259 0.804066 0.226569
Si Si5 0.495187 0.889590 0.643752
Si Si6 0.860674 0.660091 0.091194
Si Si7 0.937961 0.180513 0.746368
Si Si8 0.156392 0.620840 0.628242
O O1 0.647658 0.114363 0.291360
O O2 0.852586 0.135866 0.550722
O O3 0.837552 0.242466 0.352093
O O4 0.962023 0.956432 0.221992
O O5 0.402528 0.753570 0.069043
O O6 0.192493 0.688182 0.092303
O O7 0.500000 0.500000 0.000000
O O8 0.294011 0.575220 0.762112
O O9 0.333643 0.211240 0.315424
O O10 0.183890 0.485678 0.420640
O O11 0.016276 0.337561 0.305145
O O12 0.192735 0.296527 0.068551
O O13 0.484421 0.833617 0.422334
O O14 0.705431 0.681032 0.164496
O O15 0.522258 0.948447 0.260447
O O16 0.935433 0.766625 0.254543
O O17 0.000000 0.500000 0.000000
#
# Coordination Sequence:
#
# PCOD9063993 Si02
#       8
#     2   2   2   2   2   2   2   2
#     4  11  25  45  71 102 139 179 224 281 337 406
#     4  12  25  46  69 100 138 180 229 281 334 403
#     4  11  27  46  68 102 137 178 226 281 342 405
#     4  11  26  44  72 101 133 185 225 280 338 399
#     4  11  25  46  70 101 141 176 227 279 340 405
#     4  12  25  45  71  98 136 180 228 280 337 403
#     4  11  24  45  69 101 137 177 231 277 333 404
#     4  11  27  45  70 100 138 180 223 282 344 400
#
# _framework density 22.061626
#
# number of rings (size 3 to 8) (size 9 to 14) (size 15 to 20)
#    0.000    0.750    3.750    2.250    8.750    2.500 
#    0.000    0.000    0.000    0.000    0.000    0.000 
#    0.000    0.000    0.000    0.000    0.000    0.000 
#
# Total GULP energy -89581.507204 kJ/mol
# GULP energy per Si atom -5598.844200 kJ/mol
# Density = 2.201141 g / cm^3
# Si number density = 22.061626 Si / 1000 Ang^3
#
#
#
# Elastic Constant Matrix: (Units=GPa)
#
#
# Indices 1 2 3 4 5 6 
#
# 1 117.3079 40.5978 22.5827 -0.5371 19.2610 0.8614
# 2 40.5978 130.1089 11.2887 0.9932 5.7761 -4.9382
# 3 22.5827 11.2887 53.2405 2.3137 11.9755 -7.4411
# 4 -0.5371 0.9932 2.3137 23.9500 -4.8971 4.2034
# 5 19.2610 5.7761 11.9755 -4.8971 37.5586 0.9994
# 6 0.8614 -4.9382 -7.4411 4.2034 0.9994 33.5915
#
#
#
# Elastic Compliance Matrix: (Units=1/GPa)
#
#
# Indices 1 2 3 4 5 6 
#
# 1 0.010852 -0.002976 -0.003257 0.000092 -0.004022 -0.001329
# 2 -0.002976 0.008696 -0.000418 -0.000577 0.000212 0.001328
# 3 -0.003257 -0.000418 0.022663 -0.004538 -0.006237 0.005796
# 4 0.000092 -0.000577 -0.004538 0.044978 0.007537 -0.006945
# 5 -0.004022 0.000212 -0.006237 0.007537 0.031710 -0.003134
# 6 -0.001329 0.001328 0.005796 -0.006945 -0.003134 0.032245
#
#
# Mechanical properties :
#
#
# Convention : Reuss Voigt Hill
#
# Bulk Modulus (GPa) = 34.59286 49.95508 42.27397
# Shear Modulus (GPa) = 28.72177 34.09920 31.41049
#
# Velocity S-wave (km/s) = 3.61208 3.93572 3.77737
# Velocity P-wave (km/s) = 5.75416 6.58375 6.18288
#
# Compressibility (1/GPa) = 0.02890770
#
# Stress axis : x y z
#
# Youngs Moduli (GPa) = 92.14793 114.99226 44.12441
#
# Poissons Ratio (x) = 0.34224 0.14372
# Poissons Ratio (y) = 0.27425 0.01847
# Poissons Ratio (z) = 0.30015 0.04812
#
# Static dielectric constant tensor:
#      x y z
#    x 1.781510 0.003690 0.005840 
#    y 0.003690 1.812480 0.029410 
#    z 0.005840 0.029410 1.783430 
# 
# From -- ./inp_files/185130.got.cif
#   From: 2010.05.17/outbox.cif.g08.bks.cpg/sg2_93_cif.got.tgz:185130.got - 2010.06.03 11:33:40.
