data_PCOD9063929
_publ_section_title
;
Structure prediction by ZEFSAII (Michael W. Deem and Ramdas Pophale) SiO2 
 PCOD9063929
Probable space group: P -1
;
_chemical_formula_sum "Si O2"
_cell_formula_units_Z 16
_cell_length_a 5.212003
_cell_length_b 20.416577
_cell_length_c 8.995866
_cell_angle_alpha 78.776994
_cell_angle_beta 128.041022
_cell_angle_gamma 99.190673
_cell_volume 738.511820
_symmetry_space_group_name_H-M "P -1"
_symmetry_group_IT_number 2
_symmetry_cell_setting 'triclinic'
loop_
_space_group_symop_operation_xyz
x,y,z
-x,-y,-z
loop_
_atom_site_type_symbol
_atom_site_label
_atom_site_fract_x
_atom_site_fract_y
_atom_site_fract_z
Si Si1 0.332290 0.932323 0.400834
Si Si2 0.241446 0.535247 0.688396
Si Si3 0.629758 0.196120 0.053446
Si Si4 0.562962 0.934211 0.144941
Si Si5 0.771860 0.439977 0.007557
Si Si6 0.474413 0.324989 0.762398
Si Si7 0.294385 0.664880 0.497411
Si Si8 0.396558 0.202046 0.303497
O O1 0.388595 0.934260 0.242566
O O2 0.483121 0.865287 0.547777
O O3 0.950685 0.929757 0.305646
O O4 0.500000 0.000000 0.500000
O O5 0.424242 0.473188 0.848850
O O6 0.428272 0.596474 0.642431
O O7 0.000000 0.500000 0.500000
O O8 0.129116 0.571148 0.782592
O O9 0.454919 0.195789 0.150657
O O10 0.017715 0.208673 0.203733
O O11 0.567885 0.127304 0.974648
O O12 0.492298 0.253300 0.876142
O O13 0.500000 0.000000 0.000000
O O14 0.726754 0.374265 0.921874
O O15 0.000000 0.500000 0.000000
O O16 0.587788 0.325773 0.632895
O O17 0.099192 0.344532 0.630952
O O18 0.407916 0.731130 0.598816
#
# Coordination Sequence:
#
# PCOD9063929 Si02
#       8
#     2   2   2   2   2   2   2   2
#     4  12  24  43  68  99 135 174 226 271 331 400
#     4  11  24  45  66  99 132 177 223 281 339 408
#     4  12  25  44  68  97 137 172 225 274 334 397
#     4  12  24  43  68  99 135 177 219 275 335 392
#     4  11  26  41  70  96 135 174 227 278 342 404
#     4  12  26  45  67  99 132 177 221 278 334 404
#     4  12  26  44  70  95 135 175 224 273 340 398
#     4  12  25  44  68  99 132 178 221 276 331 398
#
# _framework density 21.665192000000001
#
# number of rings (size 3 to 8) (size 9 to 14) (size 15 to 20)
#    0.000    0.250    1.250    8.250    5.250    1.000 
#    0.000    0.000    0.000    0.000    0.000    0.000 
#    0.000    0.000    0.000    0.000    0.000    0.000 
#
# Total GULP energy -89535.616048 kJ/mol
# GULP energy per Si atom -5595.976003 kJ/mol
# Density = 2.161588 g / cm^3
# Si number density = 21.665192 Si / 1000 Ang^3
#
#
#
# Elastic Constant Matrix: (Units=GPa)
#
#
# Indices 1 2 3 4 5 6 
#
# 1 50.1290 -14.0139 2.2750 0.3096 -10.8262 -0.7326
# 2 -14.0139 154.4070 32.3109 14.7981 -27.6509 7.2073
# 3 2.2750 32.3109 82.2173 3.8678 -28.5848 1.2590
# 4 0.3096 14.7981 3.8678 63.1621 4.5737 0.8621
# 5 -10.8262 -27.6509 -28.5848 4.5737 61.3318 0.7872
# 6 -0.7326 7.2073 1.2590 0.8621 0.7872 29.7795
#
#
#
# Elastic Compliance Matrix: (Units=1/GPa)
#
#
# Indices 1 2 3 4 5 6 
#
# 1 0.021974 0.003069 0.000132 -0.001223 0.005419 -0.000316
# 2 0.003069 0.008054 -0.001929 -0.002008 0.003447 -0.001825
# 3 0.000132 -0.001929 0.015152 -0.000928 0.006289 -0.000310
# 4 -0.001223 -0.002008 -0.000928 0.016566 -0.002790 0.000089
# 5 0.005419 0.003447 0.006289 -0.002790 0.021973 -0.001467
# 6 -0.000316 -0.001825 -0.000310 0.000089 -0.001467 0.034063
#
#
# Mechanical properties :
#
#
# Convention : Reuss Voigt Hill
#
# Bulk Modulus (GPa) = 20.95374 36.43304 28.69339
# Shear Modulus (GPa) = 38.12542 48.60008 43.36275
#
# Velocity S-wave (km/s) = 4.19949 4.74142 4.47866
# Velocity P-wave (km/s) = 5.76255 6.84307 6.32592
#
# Compressibility (1/GPa) = 0.04772419
#
# Stress axis : x y z
#
# Youngs Moduli (GPa) = 45.50864 124.16914 65.99707
#
# Poissons Ratio (x) = -0.38108 -0.00874
# Poissons Ratio (y) = -0.13967 0.12732
# Poissons Ratio (z) = -0.00603 0.23954
#
# Static dielectric constant tensor:
#      x y z
#    x 1.811940 -0.039350 0.045270 
#    y -0.039350 1.796370 -0.027320 
#    z 0.045270 -0.027320 1.807420 
# 
# From -- ./inp_files/13145.got.cif
#   From: 2010.05.17/outbox.cif.g08.bks.cpg/sg2_7_cif.got.tgz:13145.got - 2010.06.03 11:33:40.
