data_PCOD9063336
_publ_section_title
;
Structure prediction by ZEFSAII (Michael W. Deem and Ramdas Pophale) SiO2 
 PCOD9063336
Probable space group: P -1
;
_chemical_formula_sum "Si O2"
_cell_formula_units_Z 15
_cell_length_a 8.166455
_cell_length_b 9.062670
_cell_length_c 12.592975
_cell_angle_alpha 42.367617
_cell_angle_beta 88.765833
_cell_angle_gamma 76.869830
_cell_volume 596.252390
_symmetry_space_group_name_H-M "P -1"
_symmetry_group_IT_number 2
_symmetry_cell_setting 'triclinic'
loop_
_space_group_symop_operation_xyz
x,y,z
-x,-y,-z
loop_
_atom_site_type_symbol
_atom_site_label
_atom_site_fract_x
_atom_site_fract_y
_atom_site_fract_z
Si Si1 0.708857 0.136142 0.931546
Si Si2 0.624211 0.240116 0.635132
Si Si3 0.670761 0.851021 0.690728
Si Si4 0.024417 0.682717 0.486230
Si Si5 0.969597 0.668927 0.147839
Si Si6 0.173341 0.925283 0.606659
Si Si7 0.000000 0.500000 0.000000
Si Si8 0.466200 0.509893 0.870388
O O1 0.649959 0.162389 0.797144
O O2 0.549815 0.269682 0.938141
O O3 0.859223 0.257001 0.875080
O O4 0.806757 0.868445 0.092464
O O5 0.500000 0.500000 0.500000
O O6 0.801147 0.258794 0.570947
O O7 0.570203 0.053098 0.665789
O O8 0.574664 0.675581 0.746710
O O9 0.707720 0.978274 0.519742
O O10 0.842692 0.698249 0.831404
O O11 0.018693 0.558441 0.664621
O O12 0.000000 0.500000 0.500000
O O13 0.875313 0.928958 0.362108
O O14 0.953555 0.648965 0.032651
O O15 0.266852 0.656954 0.773951
O O16 0.000000 0.000000 0.500000
O O17 0.500000 0.500000 0.000000
#
# Coordination Sequence:
#
# PCOD9063336 Si02
#       8
#     2   2   2   2   2   2   1   2
#     4  11  24  47  69 107 146 195 244 309 377 442
#     4  12  27  46  71 104 147 193 238 309 381 445
#     4  12  26  48  74 106 153 197 248 309 378 451
#     4  12  26  44  74 108 143 189 254 306 370 455
#     4  11  24  43  78 107 148 193 250 306 374 448
#     4  12  27  48  76 109 147 200 256 310 375 457
#     4  12  22  44  74 110 146 200 248 298 382 440
#     4  12  30  48  76 109 153 198 256 316 383 452
#
# _framework density 25.157131
#
# number of rings (size 3 to 8) (size 9 to 14) (size 15 to 20)
#    0.000    0.267    6.667    1.200    5.600    0.000 
#    0.000    1.333    0.000    0.000    0.000    0.000 
#    0.000    0.000    0.000    0.000    0.000    0.000 
#
# Total GULP energy -83821.996345 kJ/mol
# GULP energy per Si atom -5588.133090 kJ/mol
# Density = 2.509987 g / cm^3
# Si number density = 25.157131 Si / 1000 Ang^3
#
#
#
# Elastic Constant Matrix: (Units=GPa)
#
#
# Indices 1 2 3 4 5 6 
#
# 1 47.0056 18.0895 4.8115 -8.1954 12.3483 -0.5428
# 2 18.0895 201.6974 15.2147 -27.0694 24.0404 -22.2241
# 3 4.8115 15.2147 67.6726 -17.1137 19.7345 -18.5281
# 4 -8.1954 -27.0694 -17.1137 56.9646 -7.8918 11.1355
# 5 12.3483 24.0404 19.7345 -7.8918 36.9557 -12.2096
# 6 -0.5428 -22.2241 -18.5281 11.1355 -12.2096 36.0810
#
#
#
# Elastic Compliance Matrix: (Units=1/GPa)
#
#
# Indices 1 2 3 4 5 6 
#
# 1 0.024302 -0.001295 0.000627 0.002651 -0.008279 -0.003730
# 2 -0.001295 0.005859 0.000683 0.001971 -0.002501 0.002486
# 3 0.000627 0.000683 0.019767 0.003929 -0.008191 0.006597
# 4 0.002651 0.001971 0.003929 0.020583 -0.001000 -0.003420
# 5 -0.008279 -0.002501 -0.008191 -0.001000 0.038027 0.007305
# 6 -0.003730 0.002486 0.006597 -0.003420 0.007305 0.036105
#
#
# Mechanical properties :
#
#
# Convention : Reuss Voigt Hill
#
# Bulk Modulus (GPa) = 20.01687 43.62298 31.81992
# Shear Modulus (GPa) = 31.00447 44.55091 37.77769
#
# Velocity S-wave (km/s) = 3.51441 4.21278 3.87934
# Velocity P-wave (km/s) = 4.94390 6.40634 5.72203
#
# Compressibility (1/GPa) = 0.04995787
#
# Stress axis : x y z
#
# Youngs Moduli (GPa) = 41.14828 170.67595 50.58863
#
# Poissons Ratio (x) = 0.22108 -0.03171
# Poissons Ratio (y) = 0.05330 -0.03456
# Poissons Ratio (z) = -0.02579 -0.11660
#
# Static dielectric constant tensor:
#      x y z
#    x 2.027170 -0.024110 0.010640 
#    y -0.024110 1.995760 -0.052670 
#    z 0.010640 -0.052670 2.009550 
# 
# From -- ./inp_files/157215.got.cif
#   From: 2010.05.17/outbox.cif.g08.bks.cpg/sg2_79_cif.got.tgz:157215.got - 2010.06.03 11:33:40.
