data_PCOD9063147
_publ_section_title
;
Structure prediction by ZEFSAII (Michael W. Deem and Ramdas Pophale) SiO2 
 PCOD9063147
Probable space group: P -1
;
_chemical_formula_sum "Si O2"
_cell_formula_units_Z 14
_cell_length_a 5.529897
_cell_length_b 11.211110
_cell_length_c 12.627207
_cell_angle_alpha 93.994803
_cell_angle_beta 133.966058
_cell_angle_gamma 95.009285
_cell_volume 551.953796
_symmetry_space_group_name_H-M "P -1"
_symmetry_group_IT_number 2
_symmetry_cell_setting 'triclinic'
loop_
_space_group_symop_operation_xyz
x,y,z
-x,-y,-z
loop_
_atom_site_type_symbol
_atom_site_label
_atom_site_fract_x
_atom_site_fract_y
_atom_site_fract_z
Si Si1 0.472084 0.449909 0.873362
Si Si2 0.208495 0.814203 0.609552
Si Si3 0.246574 0.512293 0.330203
Si Si4 0.002787 0.898248 0.084149
Si Si5 0.309254 0.326838 0.174346
Si Si6 0.456931 0.255842 0.721097
Si Si7 0.193748 0.041764 0.339728
O O1 0.709806 0.552863 0.888432
O O2 0.521428 0.315224 0.860098
O O3 0.088917 0.451357 0.721228
O O4 0.500000 0.500000 0.000000
O O5 0.310489 0.693169 0.680917
O O6 0.574293 0.877228 0.674737
O O7 0.933469 0.789360 0.431011
O O8 0.029009 0.888191 0.646285
O O9 0.500000 0.500000 0.500000
O O10 0.160897 0.377270 0.240343
O O11 0.399082 0.630332 0.307800
O O12 0.352066 0.856437 0.225773
O O13 0.918923 0.949726 0.177517
O O14 0.809618 0.780280 0.953854
O O15 0.000000 0.000000 0.000000
O O16 0.500000 0.000000 0.500000
#
# Coordination Sequence:
#
# PCOD9063147 Si02
#       7
#     2   2   2   2   2   2   2
#     4  11  24  43  71 105 147 196 244 317 384 463
#     4  12  27  48  79 111 153 200 258 320 380 457
#     4  11  24  45  74 109 150 192 247 311 385 460
#     4  12  26  49  73 108 154 204 258 324 382 454
#     4  11  26  45  71 112 149 194 256 313 385 458
#     4  11  26  44  74 110 146 198 256 309 387 459
#     4  12  28  50  75 111 150 207 263 314 378 451
#
# _framework density 25.364442
#
# number of rings (size 3 to 8) (size 9 to 14) (size 15 to 20)
#    0.000    0.571    2.857    3.857    6.000    7.429 
#    2.571    0.000    0.000    0.000    0.000    0.000 
#    0.000    0.000    0.000    0.000    0.000    0.000 
#
# Total GULP energy -78084.858490 kJ/mol
# GULP energy per Si atom -5577.489892 kJ/mol
# Density = 2.530671 g / cm^3
# Si number density = 25.364442 Si / 1000 Ang^3
#
#
#
# Elastic Constant Matrix: (Units=GPa)
#
#
# Indices 1 2 3 4 5 6 
#
# 1 76.4157 31.3948 4.4646 10.1124 -11.3544 -15.7893
# 2 31.3948 95.2096 14.0071 3.5477 -9.4921 -17.7624
# 3 4.4646 14.0071 124.3245 4.7070 -14.9822 -3.9304
# 4 10.1124 3.5477 4.7070 59.8733 -15.7542 0.0960
# 5 -11.3544 -9.4921 -14.9822 -15.7542 44.3030 7.1266
# 6 -15.7893 -17.7624 -3.9304 0.0960 7.1266 43.9096
#
#
#
# Elastic Compliance Matrix: (Units=1/GPa)
#
#
# Indices 1 2 3 4 5 6 
#
# 1 0.016221 -0.004426 0.000353 -0.001979 0.002021 0.003750
# 2 -0.004426 0.012821 -0.001093 0.000279 0.000801 0.003366
# 3 0.000353 -0.001093 0.008483 0.000061 0.002747 -0.000002
# 4 -0.001979 0.000279 0.000061 0.018729 0.006505 -0.001690
# 5 0.002021 0.000801 0.002747 0.006505 0.027002 -0.003100
# 6 0.003750 0.003366 -0.000002 -0.001690 -0.003100 0.025991
#
#
# Mechanical properties :
#
#
# Convention : Reuss Voigt Hill
#
# Bulk Modulus (GPa) = 36.77412 43.96477 40.36944
# Shear Modulus (GPa) = 38.86711 46.02272 42.44492
#
# Velocity S-wave (km/s) = 3.91877 4.26427 4.09516
# Velocity P-wave (km/s) = 5.91654 6.45106 6.18957
#
# Compressibility (1/GPa) = 0.02719304
#
# Stress axis : x y z
#
# Youngs Moduli (GPa) = 61.64761 77.99796 117.88829
#
# Poissons Ratio (x) = 0.34521 -0.04164
# Poissons Ratio (y) = 0.27284 0.12887
# Poissons Ratio (z) = -0.02178 0.08527
#
# Static dielectric constant tensor:
#      x y z
#    x 1.947700 0.107710 -0.071180 
#    y 0.107710 2.038900 0.013520 
#    z -0.071180 0.013520 2.117830 
# 
# From -- ./inp_files/68237.got.cif
#   From: 2010.05.17/outbox.cif.g08.bks.cpg/sg2_35_cif.got.tgz:68237.got - 2010.06.03 11:33:40.
