data_PCOD9063649
_publ_section_title
;
Structure prediction by ZEFSAII (Michael W. Deem and Ramdas Pophale) SiO2 
 PCOD9063649
Probable space group: P -1
;
_chemical_formula_sum "Si O2"
_cell_formula_units_Z 14
_cell_length_a 8.717593
_cell_length_b 21.537879
_cell_length_c 9.284562
_cell_angle_alpha 132.104721
_cell_angle_beta 77.907825
_cell_angle_gamma 141.152102
_cell_volume 600.831779
_symmetry_space_group_name_H-M "P -1"
_symmetry_group_IT_number 2
_symmetry_cell_setting 'triclinic'
loop_
_space_group_symop_operation_xyz
x,y,z
-x,-y,-z
loop_
_atom_site_type_symbol
_atom_site_label
_atom_site_fract_x
_atom_site_fract_y
_atom_site_fract_z
Si Si1 0.815549 0.574593 0.700263
Si Si2 0.798527 0.991880 0.142948
Si Si3 0.336927 0.497426 0.718661
Si Si4 0.702722 0.264625 0.638028
Si Si5 0.678845 0.830112 0.201753
Si Si6 0.469016 0.720846 0.585391
Si Si7 0.447043 0.973404 0.297874
O O1 0.511476 0.489612 0.684401
O O2 0.803097 0.566241 0.516082
O O3 0.784326 0.465383 0.593201
O O4 0.130135 0.770875 0.004079
O O5 0.736042 0.903084 0.154020
O O6 0.745276 0.061660 0.306644
O O7 0.527910 0.834697 0.836424
O O8 0.171166 0.152230 0.270578
O O9 0.054250 0.389922 0.721378
O O10 0.606834 0.698522 0.990543
O O11 0.639702 0.278578 0.825329
O O12 0.611350 0.290682 0.578214
O O13 0.450264 0.067994 0.382099
O O14 0.000000 0.000000 0.500000
O O15 0.500000 0.000000 0.500000
#
# Coordination Sequence:
#
# PCOD9063649 Si02
#       7
#     2   2   2   2   2   2   2
#     4  11  26  47  72 102 146 183 234 294 345 412
#     4  11  24  44  72 100 144 180 236 282 354 414
#     4  11  26  45  73 104 142 185 237 285 351 412
#     4  12  26  45  73 105 141 183 235 290 349 418
#     4  12  23  45  71 105 143 184 228 291 351 414
#     4  11  25  44  74 106 135 185 237 289 343 420
#     4  12  27  46  70 103 142 187 228 289 355 414
#
# _framework density 23.301031999999999
#
# number of rings (size 3 to 8) (size 9 to 14) (size 15 to 20)
#    0.000    0.571    4.286    3.000    2.000    5.714 
#    0.000    2.143    0.000    0.000    0.000    0.000 
#    0.000    0.000    0.000    0.000    0.000    0.000 
#
# Total GULP energy -78394.404732 kJ/mol
# GULP energy per Si atom -5599.600338 kJ/mol
# Density = 2.324800 g / cm^3
# Si number density = 23.301032 Si / 1000 Ang^3
#
#
#
# Elastic Constant Matrix: (Units=GPa)
#
#
# Indices 1 2 3 4 5 6 
#
# 1 67.7597 6.0844 13.6531 13.6795 -23.3750 11.2073
# 2 6.0844 61.6880 25.5378 4.6500 -2.8284 7.8913
# 3 13.6531 25.5378 130.6614 12.1117 -9.5485 -1.0838
# 4 13.6795 4.6500 12.1117 30.0390 2.5238 -11.8794
# 5 -23.3750 -2.8284 -9.5485 2.5238 41.3159 2.6037
# 6 11.2073 7.8913 -1.0838 -11.8794 2.6037 49.7659
#
#
#
# Elastic Compliance Matrix: (Units=1/GPa)
#
#
# Indices 1 2 3 4 5 6 
#
# 1 0.025677 0.001003 -0.000156 -0.017497 0.016320 -0.010975
# 2 0.001003 0.018354 -0.003263 -0.003770 0.001564 -0.004189
# 3 -0.000156 -0.003263 0.008738 -0.003151 0.001907 -0.000109
# 4 -0.017497 -0.003770 -0.003151 0.051306 -0.015123 0.017508
# 5 0.016320 0.001564 0.001907 -0.015123 0.035498 -0.009349
# 6 -0.010975 -0.004189 -0.000109 0.017508 -0.009349 0.027896
#
#
# Mechanical properties :
#
#
# Convention : Reuss Voigt Hill
#
# Bulk Modulus (GPa) = 20.86031 38.96217 29.91124
# Shear Modulus (GPa) = 26.55619 38.54643 32.55131
#
# Velocity S-wave (km/s) = 3.37961 4.07170 3.74169
# Velocity P-wave (km/s) = 4.91945 6.23398 5.61531
#
# Compressibility (1/GPa) = 0.04793793
#
# Stress axis : x y z
#
# Youngs Moduli (GPa) = 38.94547 54.48292 114.44372
#
# Poissons Ratio (x) = -0.05465 0.01780
# Poissons Ratio (y) = -0.03906 0.37344
# Poissons Ratio (z) = 0.00606 0.17778
#
# Static dielectric constant tensor:
#      x y z
#    x 1.944640 0.014630 0.009870 
#    y 0.014630 1.913890 0.014070 
#    z 0.009870 0.014070 1.858680 
# 
# From -- ./inp_files/151925.got.cif
#   From: 2010.05.17/outbox.cif.g08.bks.cpg/sg2_76_cif.got.tgz:151925.got - 2010.06.03 11:33:40.
