data_PCOD9063372
_publ_section_title
;
Structure prediction by ZEFSAII (Michael W. Deem and Ramdas Pophale) SiO2 
 PCOD9063372
Probable space group: P -1
;
_chemical_formula_sum "Si O2"
_cell_formula_units_Z 16
_cell_length_a 8.477256
_cell_length_b 24.464126
_cell_length_c 23.722682
_cell_angle_alpha 11.683794
_cell_angle_beta 42.342507
_cell_angle_gamma 42.621980
_cell_volume 668.466990
_symmetry_space_group_name_H-M "P -1"
_symmetry_group_IT_number 2
_symmetry_cell_setting 'triclinic'
loop_
_space_group_symop_operation_xyz
x,y,z
-x,-y,-z
loop_
_atom_site_type_symbol
_atom_site_label
_atom_site_fract_x
_atom_site_fract_y
_atom_site_fract_z
Si Si1 0.954657 0.518005 0.373574
Si Si2 0.385605 0.013681 0.181627
Si Si3 0.940431 0.361985 0.899122
Si Si4 0.817968 0.137004 0.314065
Si Si5 0.194658 0.974136 0.024652
Si Si6 0.918867 0.404393 0.178311
Si Si7 0.674992 0.914856 0.454417
Si Si8 0.501421 0.489172 0.746000
O O1 0.939119 0.543574 0.285027
O O2 0.231953 0.443095 0.387312
O O3 0.810893 0.304613 0.659200
O O4 0.877103 0.799189 0.139717
O O5 0.371242 0.712968 0.512575
O O6 0.557837 0.997829 0.098803
O O7 0.496662 0.194191 0.018023
O O8 0.140720 0.177868 0.065510
O O9 0.820248 0.631370 0.688019
O O10 0.744060 0.146939 0.158446
O O11 0.597955 0.135141 0.416551
O O12 0.736985 0.041359 0.371031
O O13 0.017246 0.912625 0.509480
O O14 0.921236 0.426563 0.993271
O O15 0.000000 0.000000 0.000000
O O16 0.649738 0.483605 0.184860
O O17 0.000000 0.500000 0.000000
#
# Coordination Sequence:
#
# PCOD9063372 Si02
#       8
#     2   2   2   2   2   2   2   2
#     4  12  26  43  70 102 138 175 225 283 342 411
#     4  12  25  43  75  97 134 179 227 280 333 410
#     4  12  26  44  67 106 135 177 223 292 341 399
#     4  11  24  44  66  98 126 187 229 280 335 403
#     4  12  23  46  70 102 134 178 227 274 341 410
#     4  12  26  42  65 100 142 175 227 286 334 393
#     4  11  24  44  72  90 140 177 231 277 341 411
#     4  12  24  43  69  99 132 185 228 273 337 413
#
# _framework density 23.935362999999999
#
# number of rings (size 3 to 8) (size 9 to 14) (size 15 to 20)
#    0.000    0.250    2.500    7.500    3.500    3.000 
#    0.000    0.000    0.000    0.000    0.000    0.000 
#    0.000    0.000    0.000    0.000    0.000    0.000 
#
# Total GULP energy -89706.920487 kJ/mol
# GULP energy per Si atom -5606.682530 kJ/mol
# Density = 2.388088 g / cm^3
# Si number density = 23.935363 Si / 1000 Ang^3
#
#
#
# Elastic Constant Matrix: (Units=GPa)
#
#
# Indices 1 2 3 4 5 6 
#
# 1 22.3850 9.7687 -1.0006 -7.5795 5.7574 -1.2201
# 2 9.7687 277.7992 157.9068 -4.7035 47.0733 23.6293
# 3 -1.0006 157.9068 282.2757 -13.0049 60.8293 30.3196
# 4 -7.5795 -4.7035 -13.0049 45.9364 5.3227 -1.1616
# 5 5.7574 47.0733 60.8293 5.3227 43.8301 13.3282
# 6 -1.2201 23.6293 30.3196 -1.1616 13.3282 37.7205
#
#
#
# Elastic Compliance Matrix: (Units=1/GPa)
#
#
# Indices 1 2 3 4 5 6 
#
# 1 0.053523 -0.002310 0.004417 0.011533 -0.013529 0.004763
# 2 -0.002310 0.005550 -0.002695 -0.000409 -0.001616 -0.000827
# 3 0.004417 -0.002695 0.006910 0.003236 -0.007359 -0.001024
# 4 0.011533 -0.000409 0.003236 0.025681 -0.009328 0.002115
# 5 -0.013529 -0.001616 -0.007359 -0.009328 0.040096 -0.007965
# 6 0.004763 -0.000827 -0.001024 0.002115 -0.007965 0.030886
#
#
# Mechanical properties :
#
#
# Convention : Reuss Voigt Hill
#
# Bulk Modulus (GPa) = 15.43013 101.75663 58.59338
# Shear Modulus (GPa) = 26.96524 53.21640 40.09082
#
# Velocity S-wave (km/s) = 3.36011 4.72034 4.09707
# Velocity P-wave (km/s) = 4.63835 8.50378 6.84940
#
# Compressibility (1/GPa) = 0.06480825
#
# Stress axis : x y z
#
# Youngs Moduli (GPa) = 18.68349 180.18304 144.70751
#
# Poissons Ratio (x) = 0.41631 -0.63923
# Poissons Ratio (y) = 0.04317 0.38993
# Poissons Ratio (z) = -0.08253 0.48552
#
# Static dielectric constant tensor:
#      x y z
#    x 1.969690 0.006640 -0.020010 
#    y 0.006640 1.864380 0.032270 
#    z -0.020010 0.032270 1.817150 
# 
# From -- ./inp_files/617662.got.cif
#   From: 2010.05.17/outbox.cif.g08.bks.cpg/sg2_309_cif.got.tgz:617662.got - 2010.06.03 11:33:40.
