data_PCOD9063410
_publ_section_title
;
Structure prediction by ZEFSAII (Michael W. Deem and Ramdas Pophale) SiO2 
 PCOD9063410
Probable space group: P -1
;
_chemical_formula_sum "Si O2"
_cell_formula_units_Z 10
_cell_length_a 12.349519
_cell_length_b 10.802541
_cell_length_c 4.846843
_cell_angle_alpha 91.917275
_cell_angle_beta 79.259200
_cell_angle_gamma 141.407409
_cell_volume 389.569630
_symmetry_space_group_name_H-M "P -1"
_symmetry_group_IT_number 2
_symmetry_cell_setting 'triclinic'
loop_
_space_group_symop_operation_xyz
x,y,z
-x,-y,-z
loop_
_atom_site_type_symbol
_atom_site_label
_atom_site_fract_x
_atom_site_fract_y
_atom_site_fract_z
Si Si1 0.333317 0.371944 0.867015
Si Si2 0.798492 0.999295 0.329242
Si Si3 0.164960 0.340195 0.436982
Si Si4 0.601825 0.026289 0.698279
Si Si5 0.957619 0.341357 0.843302
O O1 0.309615 0.401010 0.568621
O O2 0.247772 0.160698 0.843554
O O3 0.500000 0.500000 0.000000
O O4 0.227749 0.380951 0.098130
O O5 0.630698 0.907393 0.577612
O O6 0.957859 0.107945 0.479669
O O7 0.869031 0.165065 0.089869
O O8 0.127259 0.436338 0.607997
O O9 0.808422 0.238775 0.678382
O O10 0.500000 0.000000 0.500000
O O11 0.500000 0.000000 0.000000
O O12 0.000000 0.500000 0.000000
#
# Coordination Sequence:
#
# PCOD9063410 Si02
#       5
#     2   2   2   2   2
#     4  12  27  45  72 107 138 176 234 290 350 407
#     4  11  25  46  74 100 142 188 228 283 349 413
#     4  11  25  47  72 101 139 185 229 285 343 417
#     4  11  24  44  68 101 140 181 227 283 345 406
#     4  11  26  46  72 104 138 188 239 277 340 419
#
# _framework density 25.669350999999999
#
# number of rings (size 3 to 8) (size 9 to 14) (size 15 to 20)
#    0.000    0.800    4.000    1.800    5.600    6.400 
#    0.000    0.000    0.000    0.000    0.000    0.000 
#    0.000    0.000    0.000    0.000    0.000    0.000 
#
# Total GULP energy -55802.183232 kJ/mol
# GULP energy per Si atom -5580.218323 kJ/mol
# Density = 2.561093 g / cm^3
# Si number density = 25.669351 Si / 1000 Ang^3
#
#
#
# Elastic Constant Matrix: (Units=GPa)
#
#
# Indices 1 2 3 4 5 6 
#
# 1 104.9961 27.5675 33.9698 17.2244 26.1977 31.6425
# 2 27.5675 60.1254 15.8560 41.6937 23.5551 -4.0891
# 3 33.9698 15.8560 217.7984 21.0359 -3.7539 -7.8687
# 4 17.2244 41.6937 21.0359 49.9262 14.6073 -0.2910
# 5 26.1977 23.5551 -3.7539 14.6073 60.2774 15.9351
# 6 31.6425 -4.0891 -7.8687 -0.2910 15.9351 58.0054
#
#
#
# Elastic Compliance Matrix: (Units=1/GPa)
#
#
# Indices 1 2 3 4 5 6 
#
# 1 0.015022 -0.008417 -0.002399 0.003376 -0.001944 -0.008562
# 2 -0.008417 0.050045 0.001422 -0.036554 -0.009813 0.010825
# 3 -0.002399 0.001422 0.005221 -0.002847 0.001020 0.001823
# 4 0.003376 -0.036554 -0.002847 0.050018 0.001858 -0.005064
# 5 -0.001944 -0.009813 0.001020 0.001858 0.022371 -0.005630
# 6 -0.008562 0.010825 0.001823 -0.005064 -0.005630 0.024442
#
#
# Mechanical properties :
#
#
# Convention : Reuss Voigt Hill
#
# Bulk Modulus (GPa) = 19.41779 59.74516 39.58148
# Shear Modulus (GPa) = 24.62173 54.01025 39.31599
#
# Velocity S-wave (km/s) = 3.10044 4.59200 3.91785
# Velocity P-wave (km/s) = 4.51641 7.17222 5.99327
#
# Compressibility (1/GPa) = 0.05149917
#
# Stress axis : x y z
#
# Youngs Moduli (GPa) = 66.56980 19.98208 191.55231
#
# Poissons Ratio (x) = 0.16819 0.45955
# Poissons Ratio (y) = 0.56030 -0.27237
# Poissons Ratio (z) = 0.15971 -0.02841
#
# Static dielectric constant tensor:
#      x y z
#    x 2.108600 -0.055310 -0.116220 
#    y -0.055310 2.100510 -0.051170 
#    z -0.116220 -0.051170 2.108210 
# 
# From -- ./inp_files/25972.got.cif
#   From: 2010.05.17/outbox.cif.g08.bks.cpg/sg2_13_cif.got.tgz:25972.got - 2010.06.03 11:33:40.
