data_PCOD9063903
_publ_section_title
;
Structure prediction by ZEFSAII (Michael W. Deem and Ramdas Pophale) SiO2 
 PCOD9063903
Probable space group: P -1
;
_chemical_formula_sum "Si O2"
_cell_formula_units_Z 12
_cell_length_a 21.579718
_cell_length_b 4.996088
_cell_length_c 9.437074
_cell_angle_alpha 94.335319
_cell_angle_beta 33.215191
_cell_angle_gamma 87.924547
_cell_volume 546.458704
_symmetry_space_group_name_H-M "P -1"
_symmetry_group_IT_number 2
_symmetry_cell_setting 'triclinic'
loop_
_space_group_symop_operation_xyz
x,y,z
-x,-y,-z
loop_
_atom_site_type_symbol
_atom_site_label
_atom_site_fract_x
_atom_site_fract_y
_atom_site_fract_z
Si Si1 0.189455 0.844944 0.634747
Si Si2 0.715552 0.358369 0.275539
Si Si3 0.951970 0.283961 0.680346
Si Si4 0.558932 0.227699 0.964434
Si Si5 0.443004 0.088957 0.461544
Si Si6 0.983610 0.660797 0.894126
O O1 0.232412 0.617455 0.665141
O O2 0.306142 0.853681 0.328613
O O3 0.096675 0.800828 0.690971
O O4 0.126916 0.097915 0.863280
O O5 0.654845 0.643541 0.338444
O O6 0.623250 0.157871 0.463438
O O7 0.819873 0.260502 0.964412
O O8 0.000000 0.500000 0.500000
O O9 0.984312 0.421861 0.770615
O O10 0.000000 0.000000 0.500000
O O11 0.500000 0.500000 0.000000
O O12 0.529877 0.188704 0.184786
O O13 0.500000 0.000000 0.000000
O O14 0.500000 0.000000 0.500000
O O15 0.000000 0.500000 0.000000
#
# Coordination Sequence:
#
# PCOD9063903 Si02
#       6
#     2   2   2   2   2   2
#     4  11  24  44  78 113 154 202 264 323 387 457
#     4  12  24  48  76 101 152 205 248 320 396 461
#     4  12  27  48  74 111 152 201 255 312 395 471
#     4  12  25  45  75 115 150 199 269 316 381 470
#     4  12  26  47  73 109 151 202 255 314 398 461
#     4  11  25  45  76 111 152 200 259 321 384 457
#
# _framework density 21.959572999999999
#
# number of rings (size 3 to 8) (size 9 to 14) (size 15 to 20)
#    0.000    0.333    5.000    3.500    4.667    1.333 
#    3.000    0.000    0.000    0.000    0.000    0.000 
#    0.000    0.000    0.000    0.000    0.000    0.000 
#
# Total GULP energy -66830.198172 kJ/mol
# GULP energy per Si atom -5569.183181 kJ/mol
# Density = 2.190959 g / cm^3
# Si number density = 21.959573 Si / 1000 Ang^3
#
#
#
# Elastic Constant Matrix: (Units=GPa)
#
#
# Indices 1 2 3 4 5 6 
#
# 1 124.8982 61.1346 60.3968 13.6717 14.3777 -1.9718
# 2 61.1346 170.2639 47.3427 2.9560 -1.6646 2.3220
# 3 60.3968 47.3427 171.8774 1.2688 -1.7102 -0.9423
# 4 13.6717 2.9560 1.2688 45.8004 -1.7798 6.3777
# 5 14.3777 -1.6646 -1.7102 -1.7798 44.0422 -8.0555
# 6 -1.9718 2.3220 -0.9423 6.3777 -8.0555 45.4165
#
#
#
# Elastic Compliance Matrix: (Units=1/GPa)
#
#
# Indices 1 2 3 4 5 6 
#
# 1 0.012201 -0.003433 -0.003357 -0.003547 -0.004319 0.000368
# 2 -0.003433 0.007337 -0.000809 0.000681 0.001321 -0.000402
# 3 -0.003357 -0.000809 0.007229 0.000885 0.001413 0.000172
# 4 -0.003547 0.000681 0.000885 0.023326 0.001582 -0.003166
# 5 -0.004319 0.001321 0.001413 0.001582 0.025014 0.003989
# 6 0.000368 -0.000402 0.000172 -0.003166 0.003989 0.023211
#
#
# Mechanical properties :
#
#
# Convention : Reuss Voigt Hill
#
# Bulk Modulus (GPa) = 86.42742 89.42084 87.92413
# Shear Modulus (GPa) = 42.59933 46.92952 44.76442
#
# Velocity S-wave (km/s) = 4.40921 4.62788 4.51986
# Velocity P-wave (km/s) = 8.08483 8.32859 8.20761
#
# Compressibility (1/GPa) = 0.01157040
#
# Stress axis : x y z
#
# Youngs Moduli (GPa) = 81.95714 136.28713 138.33522
#
# Poissons Ratio (x) = 0.46793 0.46434
# Poissons Ratio (y) = 0.28139 0.11187
# Poissons Ratio (z) = 0.27510 0.11021
#
# Static dielectric constant tensor:
#      x y z
#    x 1.861460 0.000980 -0.029040 
#    y 0.000980 1.824090 -0.080120 
#    z -0.029040 -0.080120 1.911940 
# 
# From -- ./inp_files/339763.got.cif
#   From: 2010.05.17/outbox.cif.g08.bks.cpg/sg2_170_cif.got.tgz:339763.got - 2010.06.03 11:33:40.
