data_PCOD9063472
_publ_section_title
;
Structure prediction by ZEFSAII (Michael W. Deem and Ramdas Pophale) SiO2 
 PCOD9063472
Probable space group: P -1
;
_chemical_formula_sum "Si O2"
_cell_formula_units_Z 14
_cell_length_a 9.888708
_cell_length_b 18.719692
_cell_length_c 6.494547
_cell_angle_alpha 51.403503
_cell_angle_beta 136.298007
_cell_angle_gamma 130.660302
_cell_volume 602.737582
_symmetry_space_group_name_H-M "P -1"
_symmetry_group_IT_number 2
_symmetry_cell_setting 'triclinic'
loop_
_space_group_symop_operation_xyz
x,y,z
-x,-y,-z
loop_
_atom_site_type_symbol
_atom_site_label
_atom_site_fract_x
_atom_site_fract_y
_atom_site_fract_z
Si Si1 0.661764 0.600401 0.909911
Si Si2 0.343282 0.962301 0.591469
Si Si3 0.874564 0.832806 0.345464
Si Si4 0.066147 0.374449 0.167811
Si Si5 0.561135 0.726481 0.863920
Si Si6 0.426302 0.135819 0.703369
Si Si7 0.337193 0.585779 0.226726
O O1 0.870789 0.595805 0.052460
O O2 0.713173 0.683775 0.986441
O O3 0.529651 0.619234 0.537949
O O4 0.500000 0.500000 0.000000
O O5 0.093630 0.913500 0.364188
O O6 0.500000 0.000000 0.500000
O O7 0.366904 0.045161 0.641266
O O8 0.415901 0.881264 0.928900
O O9 0.917685 0.731158 0.593311
O O10 0.773300 0.857850 0.398534
O O11 0.694296 0.811105 0.013770
O O12 0.235342 0.467072 0.311640
O O13 0.841986 0.376754 0.965367
O O14 0.468223 0.770815 0.498145
O O15 0.410806 0.637439 0.995134
#
# Coordination Sequence:
#
# PCOD9063472 Si02
#       7
#     2   2   2   2   2   2   2
#     4  12  23  44  69 100 146 191 236 287 345 409
#     4  11  28  51  76 103 142 180 230 302 363 418
#     4  12  26  46  73 106 141 188 237 285 357 422
#     4  11  24  44  69 102 143 192 233 286 344 412
#     4  12  24  44  74 103 144 186 234 291 342 423
#     4  11  26  49  74 107 137 183 235 293 355 429
#     4  11  25  46  65 105 151 186 236 289 344 407
#
# _framework density 23.227357000000001
#
# number of rings (size 3 to 8) (size 9 to 14) (size 15 to 20)
#    0.000    0.571    4.286    2.571    6.000    5.143 
#    2.571    0.000    0.000    0.000    0.000    0.000 
#    0.000    0.000    0.000    0.000    0.000    0.000 
#
# Total GULP energy -78262.424088 kJ/mol
# GULP energy per Si atom -5590.173149 kJ/mol
# Density = 2.317449 g / cm^3
# Si number density = 23.227357 Si / 1000 Ang^3
#
#
#
# Elastic Constant Matrix: (Units=GPa)
#
#
# Indices 1 2 3 4 5 6 
#
# 1 182.7982 42.7105 48.5824 -0.0677 -4.7838 -21.1219
# 2 42.7105 81.6883 22.9169 5.3019 -1.0995 -14.1704
# 3 48.5824 22.9169 88.3361 -25.2007 -16.5204 5.1038
# 4 -0.0677 5.3019 -25.2007 31.6437 1.6969 -2.9703
# 5 -4.7838 -1.0995 -16.5204 1.6969 34.0871 -4.9711
# 6 -21.1219 -14.1704 5.1038 -2.9703 -4.9711 42.2637
#
#
#
# Elastic Compliance Matrix: (Units=1/GPa)
#
#
# Indices 1 2 3 4 5 6 
#
# 1 0.007594 -0.001756 -0.005005 -0.003308 -0.000743 0.003491
# 2 -0.001756 0.015916 -0.005582 -0.006616 -0.001453 0.004497
# 3 -0.005005 -0.005582 0.022491 0.017930 0.008419 -0.004839
# 4 -0.003308 -0.006616 0.017930 0.046493 0.005386 -0.002136
# 5 -0.000743 -0.001453 0.008419 0.005386 0.033352 0.002426
# 6 0.003491 0.004497 -0.004839 -0.002136 0.002426 0.027633
#
#
# Mechanical properties :
#
#
# Convention : Reuss Voigt Hill
#
# Bulk Modulus (GPa) = 46.91936 64.58247 55.75092
# Shear Modulus (GPa) = 26.98769 37.50641 32.24705
#
# Velocity S-wave (km/s) = 3.41235 4.02276 3.73006
# Velocity P-wave (km/s) = 5.98075 7.03147 6.52729
#
# Compressibility (1/GPa) = 0.02131316
#
# Stress axis : x y z
#
# Youngs Moduli (GPa) = 131.68801 62.83075 44.46282
#
# Poissons Ratio (x) = 0.11033 0.22254
# Poissons Ratio (y) = 0.23123 0.24821
# Poissons Ratio (z) = 0.65912 0.35075
#
# Static dielectric constant tensor:
#      x y z
#    x 1.876140 -0.009540 -0.010120 
#    y -0.009540 1.919890 -0.036370 
#    z -0.010120 -0.036370 1.909870 
# 
# From -- ./inp_files/46904.got.cif
#   From: 2010.05.17/outbox.cif.g08.bks.cpg/sg2_24_cif.got.tgz:46904.got - 2010.06.03 11:33:40.
