data_PCOD9063452
_publ_section_title
;
Structure prediction by ZEFSAII (Michael W. Deem and Ramdas Pophale) SiO2 
 PCOD9063452
Probable space group: P -1
;
_chemical_formula_sum "Si O2"
_cell_formula_units_Z 14
_cell_length_a 16.215623
_cell_length_b 9.318975
_cell_length_c 9.889969
_cell_angle_alpha 61.401069
_cell_angle_beta 139.412755
_cell_angle_gamma 141.910635
_cell_volume 572.838802
_symmetry_space_group_name_H-M "P -1"
_symmetry_group_IT_number 2
_symmetry_cell_setting 'triclinic'
loop_
_space_group_symop_operation_xyz
x,y,z
-x,-y,-z
loop_
_atom_site_type_symbol
_atom_site_label
_atom_site_fract_x
_atom_site_fract_y
_atom_site_fract_z
Si Si1 0.371508 0.802893 0.044281
Si Si2 0.197842 0.101881 0.550222
Si Si3 0.383770 0.493933 0.061505
Si Si4 0.198849 0.237989 0.201806
Si Si5 0.174625 0.361829 0.605547
Si Si6 0.962683 0.561582 0.061859
Si Si7 0.366453 0.885108 0.519357
O O1 0.289417 0.567355 0.968313
O O2 0.511792 0.920761 0.294683
O O3 0.179034 0.690099 0.915823
O O4 0.500000 0.000000 0.000000
O O5 0.398381 0.255033 0.796279
O O6 0.234208 0.164978 0.410030
O O7 0.143619 0.223315 0.496369
O O8 0.029601 0.816657 0.498470
O O9 0.347845 0.349244 0.214784
O O10 0.289210 0.366217 0.859584
O O11 0.157601 0.386433 0.131922
O O12 0.000000 0.000000 0.000000
O O13 0.294222 0.636369 0.592666
O O14 0.168187 0.784769 0.283351
O O15 0.000000 0.500000 0.000000
O O16 0.500000 0.000000 0.500000
#
# Coordination Sequence:
#
# PCOD9063452 Si02
#       7
#     2   2   2   2   2   2   2
#     4  11  25  44  66 105 136 176 234 289 348 417
#     4  11  25  45  70  98 138 187 225 282 350 419
#     4  11  24  44  68  99 139 176 226 289 348 407
#     4  11  24  45  69 103 139 178 237 283 347 417
#     4  11  25  45  67 103 138 175 239 282 345 422
#     4  11  25  46  71 100 143 187 231 294 347 419
#     4  12  26  45  72 101 136 186 235 284 355 420
#
# _framework density 24.439684
#
# number of rings (size 3 to 8) (size 9 to 14) (size 15 to 20)
#    0.000    0.857    4.286    1.714    6.000    1.714 
#    5.143    0.000    0.000    0.000    0.000    0.000 
#    0.000    0.000    0.000    0.000    0.000    0.000 
#
# Total GULP energy -78135.974313 kJ/mol
# GULP energy per Si atom -5581.141022 kJ/mol
# Density = 2.438406 g / cm^3
# Si number density = 24.439684 Si / 1000 Ang^3
#
#
#
# Elastic Constant Matrix: (Units=GPa)
#
#
# Indices 1 2 3 4 5 6 
#
# 1 71.2861 49.7349 25.4220 -5.1995 -10.4959 26.2015
# 2 49.7349 130.4565 42.5687 9.9536 -2.5872 41.6480
# 3 25.4220 42.5687 137.3623 18.1176 -11.6349 28.0459
# 4 -5.1995 9.9536 18.1176 44.2259 10.3086 3.0435
# 5 -10.4959 -2.5872 -11.6349 10.3086 46.4925 7.8632
# 6 26.2015 41.6480 28.0459 3.0435 7.8632 53.1984
#
#
#
# Elastic Compliance Matrix: (Units=1/GPa)
#
#
# Indices 1 2 3 4 5 6 
#
# 1 0.022014 -0.006251 -0.000941 0.003738 0.004632 -0.006351
# 2 -0.006251 0.012593 -0.001046 -0.002882 0.000710 -0.006169
# 3 -0.000941 -0.001046 0.009494 -0.004362 0.003754 -0.004028
# 4 0.003738 -0.002882 -0.004362 0.026908 -0.006742 0.002172
# 5 0.004632 0.000710 0.003754 -0.006742 0.026438 -0.008338
# 6 -0.006351 -0.006169 -0.004028 0.002172 -0.008338 0.029987
#
#
# Mechanical properties :
#
#
# Convention : Reuss Voigt Hill
#
# Bulk Modulus (GPa) = 36.19961 63.83956 50.01958
# Shear Modulus (GPa) = 32.65432 43.54200 38.09816
#
# Velocity S-wave (km/s) = 3.65926 4.22549 3.95253
# Velocity P-wave (km/s) = 5.71818 7.06996 6.42969
#
# Compressibility (1/GPa) = 0.02762461
#
# Stress axis : x y z
#
# Youngs Moduli (GPa) = 45.42615 79.40767 105.32863
#
# Poissons Ratio (x) = 0.49640 0.09911
# Poissons Ratio (y) = 0.28397 0.11017
# Poissons Ratio (z) = 0.04274 0.08306
#
# Static dielectric constant tensor:
#      x y z
#    x 1.972860 -0.013320 0.038930 
#    y -0.013320 2.166420 -0.049030 
#    z 0.038930 -0.049030 1.928410 
# 
# From -- ./inp_files/71141.got.cif
#   From: 2010.05.17/outbox.cif.g08.bks.cpg/sg2_36_cif.got.tgz:71141.got - 2010.06.03 11:33:40.
