data_PCOD9063773
_publ_section_title
;
Structure prediction by ZEFSAII (Michael W. Deem and Ramdas Pophale) SiO2 
 PCOD9063773
Probable space group: P -1
;
_chemical_formula_sum "Si O2"
_cell_formula_units_Z 16
_cell_length_a 15.444745
_cell_length_b 15.446040
_cell_length_c 9.139482
_cell_angle_alpha 140.430534
_cell_angle_beta 39.571005
_cell_angle_gamma 140.909989
_cell_volume 790.842271
_symmetry_space_group_name_H-M "P -1"
_symmetry_group_IT_number 2
_symmetry_cell_setting 'triclinic'
loop_
_space_group_symop_operation_xyz
x,y,z
-x,-y,-z
loop_
_atom_site_type_symbol
_atom_site_label
_atom_site_fract_x
_atom_site_fract_y
_atom_site_fract_z
Si Si1 0.663207 0.336739 0.853340
Si Si2 0.129192 0.383282 0.579319
Si Si3 0.962867 0.574453 0.932111
Si Si4 0.087739 0.912642 0.704441
Si Si5 0.383761 0.129551 0.420725
Si Si6 0.425531 0.037414 0.932735
Si Si7 0.194726 0.805742 0.714642
Si Si8 0.483097 0.516495 0.216852
O O1 0.815507 0.439222 0.877064
O O2 0.561043 0.184882 0.877961
O O3 0.711788 0.287347 0.573654
O O4 0.569100 0.430835 0.071068
O O5 0.306271 0.439708 0.391741
O O6 0.078043 0.508787 0.750952
O O7 0.026371 0.228339 0.427041
O O8 0.089477 0.365326 0.779477
O O9 0.049084 0.700478 0.862459
O O10 0.148353 0.851702 0.682029
O O11 0.228979 0.027203 0.573813
O O12 0.000000 0.000000 0.000000
O O13 0.440654 0.306742 0.607478
O O14 0.509130 0.078080 0.248575
O O15 0.365140 0.089483 0.221042
O O16 0.299772 0.951635 0.862924
O O17 0.500000 0.500000 0.000000
#
# Coordination Sequence:
#
# PCOD9063773 Si02
#       8
#     2   2   2   2   2   2   2   2
#     4  12  25  44  71 104 134 174 230 284 332 399
#     4  11  24  47  68  99 137 177 223 271 344 404
#     4  11  24  44  73  97 133 180 221 279 333 402
#     4  12  27  43  66  96 136 179 225 276 330 402
#     4  11  24  47  68  99 137 177 223 271 344 404
#     4  11  24  44  73  97 133 180 221 279 333 402
#     4  12  25  43  70 100 132 176 234 274 330 401
#     4  12  27  42  72 104 139 174 223 286 345 393
#
# _framework density 20.231593
#
# number of rings (size 3 to 8) (size 9 to 14) (size 15 to 20)
#    0.000    0.500    2.500    5.250    7.000    6.000 
#    0.000    1.250    0.000    0.000    0.000    0.000 
#    0.000    0.000    0.000    0.000    0.000    0.000 
#
# Total GULP energy -89604.324711 kJ/mol
# GULP energy per Si atom -5600.270294 kJ/mol
# Density = 2.018555 g / cm^3
# Si number density = 20.231593 Si / 1000 Ang^3
#
#
#
# Elastic Constant Matrix: (Units=GPa)
#
#
# Indices 1 2 3 4 5 6 
#
# 1 98.4997 66.5109 63.7488 -0.4556 16.4993 14.2823
# 2 66.5109 170.7059 83.3563 -13.9387 23.9477 14.0073
# 3 63.7488 83.3563 173.9465 -7.8045 21.2536 7.0497
# 4 -0.4556 -13.9387 -7.8045 53.8965 1.9314 4.0621
# 5 16.4993 23.9477 21.2536 1.9314 49.3154 6.3026
# 6 14.2823 14.0073 7.0497 4.0621 6.3026 33.4092
#
#
#
# Elastic Compliance Matrix: (Units=1/GPa)
#
#
# Indices 1 2 3 4 5 6 
#
# 1 0.016050 -0.004039 -0.003678 -0.001093 -0.001267 -0.004020
# 2 -0.004039 0.009254 -0.002560 0.002172 -0.001931 -0.001513
# 3 -0.003678 -0.002560 0.008466 0.000501 -0.001329 0.001049
# 4 -0.001093 0.002172 0.000501 0.019427 -0.001326 -0.002661
# 5 -0.001267 -0.001931 -0.001329 -0.001326 0.022579 -0.002467
# 6 -0.004020 -0.001513 0.001049 -0.002661 -0.002467 0.032852
#
#
# Mechanical properties :
#
#
# Convention : Reuss Voigt Hill
#
# Bulk Modulus (GPa) = 75.66339 96.70932 86.18636
# Shear Modulus (GPa) = 37.42879 42.62660 40.02770
#
# Velocity S-wave (km/s) = 4.30585 4.59511 4.45283
# Velocity P-wave (km/s) = 7.88671 8.72114 8.31440
#
# Compressibility (1/GPa) = 0.01321643
#
# Stress axis : x y z
#
# Youngs Moduli (GPa) = 62.30496 108.06113 118.12421
#
# Poissons Ratio (x) = 0.43649 0.43444
# Poissons Ratio (y) = 0.25167 0.30235
# Poissons Ratio (z) = 0.22915 0.27659
#
# Static dielectric constant tensor:
#      x y z
#    x 1.700740 -0.012000 -0.015230 
#    y -0.012000 1.671350 0.005700 
#    z -0.015230 0.005700 1.708890 
# 
# From -- ./inp_files/316047.got.cif
#   From: 2010.05.17/outbox.cif.g08.bks.cpg/sg2_159_cif.got.tgz:316047.got - 2010.06.03 11:33:40.
