data_PCOD9063920
_publ_section_title
;
Structure prediction by ZEFSAII (Michael W. Deem and Ramdas Pophale) SiO2 
 PCOD9063920
Probable space group: P -1
;
_chemical_formula_sum "Si O2"
_cell_formula_units_Z 12
_cell_length_a 13.832412
_cell_length_b 20.058475
_cell_length_c 6.626774
_cell_angle_alpha 57.773914
_cell_angle_beta 110.253121
_cell_angle_gamma 156.680794
_cell_volume 556.285816
_symmetry_space_group_name_H-M "P -1"
_symmetry_group_IT_number 2
_symmetry_cell_setting 'triclinic'
loop_
_space_group_symop_operation_xyz
x,y,z
-x,-y,-z
loop_
_atom_site_type_symbol
_atom_site_label
_atom_site_fract_x
_atom_site_fract_y
_atom_site_fract_z
Si Si1 0.102360 0.485776 0.529501
Si Si2 0.305734 0.046743 0.899315
Si Si3 0.859135 0.195183 0.507716
Si Si4 0.740695 0.133336 0.091293
Si Si5 0.160670 0.185661 0.221555
Si Si6 0.357810 0.444505 0.298017
O O1 0.946903 0.331876 0.484495
O O2 0.000000 0.500000 0.500000
O O3 0.411850 0.710641 0.323255
O O4 0.020292 0.371203 0.840518
O O5 0.261857 0.959571 0.815510
O O6 0.047861 0.919972 0.912539
O O7 0.297154 0.980492 0.187690
O O8 0.125967 0.337450 0.390402
O O9 0.705297 0.116069 0.328264
O O10 0.500000 0.000000 0.000000
O O11 0.245049 0.301444 0.283748
O O12 0.422128 0.352539 0.004877
O O13 0.000000 0.000000 0.500000
O O14 0.500000 0.500000 0.500000
#
# Coordination Sequence:
#
# PCOD9063920 Si02
#       6
#     2   2   2   2   2   2
#     4  11  26  45  68 102 136 174 237 288 341 407
#     4  11  24  45  65 102 140 181 230 282 345 410
#     4  11  26  44  73  98 141 188 225 284 349 411
#     4  11  24  48  68  96 140 183 227 286 346 404
#     4  11  26  41  72 100 143 181 228 285 338 408
#     4  11  24  46  66 102 141 180 229 278 345 409
#
# _framework density 21.571645
#
# number of rings (size 3 to 8) (size 9 to 14) (size 15 to 20)
#    0.000    1.000    5.000    0.000    4.667    6.667 
#    0.000    0.000    0.000    0.000    0.000    0.000 
#    0.000    0.000    0.000    0.000    0.000    0.000 
#
# Total GULP energy -67051.242073 kJ/mol
# GULP energy per Si atom -5587.603506 kJ/mol
# Density = 2.152255 g / cm^3
# Si number density = 21.571645 Si / 1000 Ang^3
#
#
#
# Elastic Constant Matrix: (Units=GPa)
#
#
# Indices 1 2 3 4 5 6 
#
# 1 60.4994 22.6191 25.4932 -0.1359 -18.2260 0.4507
# 2 22.6191 92.1388 91.7703 -1.8598 5.3589 7.2504
# 3 25.4932 91.7703 165.2703 -7.7314 -12.0536 -18.8945
# 4 -0.1359 -1.8598 -7.7314 54.8743 1.2634 2.4441
# 5 -18.2260 5.3589 -12.0536 1.2634 39.9782 -5.4964
# 6 0.4507 7.2504 -18.8945 2.4441 -5.4964 29.6897
#
#
#
# Elastic Compliance Matrix: (Units=1/GPa)
#
#
# Indices 1 2 3 4 5 6 
#
# 1 0.023801 -0.013898 0.006350 -0.000335 0.016023 0.010068
# 2 -0.013898 0.052633 -0.033728 -0.000580 -0.028962 -0.039421
# 3 0.006350 -0.033728 0.028765 0.001120 0.020191 0.030092
# 4 -0.000335 -0.000580 0.001120 0.018403 -0.000419 -0.000733
# 5 0.016023 -0.028962 0.020191 -0.000419 0.046187 0.028264
# 6 0.010068 -0.039421 0.030092 -0.000733 0.028264 0.067599
#
#
# Mechanical properties :
#
#
# Convention : Reuss Voigt Hill
#
# Bulk Modulus (GPa) = 44.15846 66.40819 55.28332
# Shear Modulus (GPa) = 15.26763 36.77683 26.02223
#
# Velocity S-wave (km/s) = 2.66327 4.13349 3.47697
# Velocity P-wave (km/s) = 5.47470 7.32344 6.46549
#
# Compressibility (1/GPa) = 0.02264572
#
# Stress axis : x y z
#
# Youngs Moduli (GPa) = 42.01521 18.99937 34.76471
#
# Poissons Ratio (x) = 0.26406 -0.22076
# Poissons Ratio (y) = 0.58395 1.17255
# Poissons Ratio (z) = -0.26680 0.64082
#
# Static dielectric constant tensor:
#      x y z
#    x 1.811660 0.054100 -0.004040 
#    y 0.054100 1.841900 0.015480 
#    z -0.004040 0.015480 1.794400 
# 
# From -- ./inp_files/7327.got.cif
#   From: 2010.05.17/outbox.cif.g08.bks.cpg/sg2_4_cif.got.tgz:7327.got - 2010.06.03 11:33:40.
