data_PCOD9063775
_publ_section_title
;
Structure prediction by ZEFSAII (Michael W. Deem and Ramdas Pophale) SiO2 
 PCOD9063775
Probable space group: P -1
;
_chemical_formula_sum "Si O2"
_cell_formula_units_Z 16
_cell_length_a 22.462460
_cell_length_b 16.207920
_cell_length_c 14.827688
_cell_angle_alpha 150.581517
_cell_angle_beta 160.914371
_cell_angle_gamma 21.672314
_cell_volume 650.713175
_symmetry_space_group_name_H-M "P -1"
_symmetry_group_IT_number 2
_symmetry_cell_setting 'triclinic'
loop_
_space_group_symop_operation_xyz
x,y,z
-x,-y,-z
loop_
_atom_site_type_symbol
_atom_site_label
_atom_site_fract_x
_atom_site_fract_y
_atom_site_fract_z
Si Si1 0.650728 0.298425 0.747597
Si Si2 0.987248 0.651517 0.699633
Si Si3 0.670887 0.237470 0.019553
Si Si4 0.683568 0.693735 0.004351
Si Si5 0.229709 0.970192 0.519386
Si Si6 0.977789 0.488496 0.850460
Si Si7 0.207286 0.762807 0.616340
Si Si8 0.480608 0.902993 0.484597
O O1 0.693909 0.174457 0.598793
O O2 0.420212 0.565190 0.668528
O O3 0.583264 0.211586 0.647274
O O4 0.890453 0.255595 0.076477
O O5 0.154362 0.514442 0.895413
O O6 0.000000 0.500000 0.500000
O O7 0.713634 0.842915 0.521327
O O8 0.670393 0.214738 0.104291
O O9 0.500000 0.500000 0.000000
O O10 0.579429 0.133029 0.733854
O O11 0.947815 0.106799 0.262987
O O12 0.796465 0.621777 0.996771
O O13 0.714540 0.864309 0.249359
O O14 0.405060 0.812074 0.703284
O O15 0.906637 0.335766 0.595401
O O16 0.766949 0.740793 0.754211
O O17 0.000000 0.500000 0.000000
O O18 0.000000 0.000000 0.500000
#
# Coordination Sequence:
#
# PCOD9063775 Si02
#       8
#     2   2   2   2   2   2   2   2
#     4  11  24  45  69 100 139 186 238 283 358 424
#     4  12  28  41  66 106 143 181 239 299 356 420
#     4  12  22  44  74 103 134 186 241 291 346 424
#     4  11  25  44  69 105 141 187 231 293 364 427
#     4  11  24  44  74  94 143 186 234 285 358 427
#     4  11  24  47  70  98 143 185 235 285 366 430
#     4  11  26  43  73 102 137 183 237 296 350 417
#     4  11  24  44  74 100 134 193 237 293 354 423
#
# _framework density 24.588405999999999
#
# number of rings (size 3 to 8) (size 9 to 14) (size 15 to 20)
#    0.000    0.750    5.000    2.625    3.500    6.000 
#    0.000    0.000    0.000    0.000    0.000    0.000 
#    0.000    0.000    0.000    0.000    0.000    0.000 
#
# Total GULP energy -89694.168121 kJ/mol
# GULP energy per Si atom -5605.885508 kJ/mol
# Density = 2.453244 g / cm^3
# Si number density = 24.588406 Si / 1000 Ang^3
#
#
#
# Elastic Constant Matrix: (Units=GPa)
#
#
# Indices 1 2 3 4 5 6 
#
# 1 89.5417 53.9111 26.4730 -7.5957 -16.2765 -19.9149
# 2 53.9111 164.1675 48.4643 -31.0098 -22.0364 -30.5109
# 3 26.4730 48.4643 117.6723 -15.3296 -16.1815 -22.1991
# 4 -7.5957 -31.0098 -15.3296 54.3647 -7.6032 -10.9925
# 5 -16.2765 -22.0364 -16.1815 -7.6032 47.3253 -1.7022
# 6 -19.9149 -30.5109 -22.1991 -10.9925 -1.7022 49.0842
#
#
#
# Elastic Compliance Matrix: (Units=1/GPa)
#
#
# Indices 1 2 3 4 5 6 
#
# 1 0.015046 -0.003128 -0.000502 0.001628 0.003967 0.004435
# 2 -0.003128 0.010765 -0.000703 0.007644 0.005176 0.006996
# 3 -0.000502 -0.000703 0.011078 0.004348 0.004184 0.005488
# 4 0.001628 0.007644 0.004348 0.028565 0.010703 0.014146
# 5 0.003967 0.005176 0.004184 0.010703 0.028418 0.010102
# 6 0.004435 0.006996 0.005488 0.014146 0.010102 0.032522
#
#
# Mechanical properties :
#
#
# Convention : Reuss Voigt Hill
#
# Bulk Modulus (GPa) = 35.43362 69.89759 52.66561
# Shear Modulus (GPa) = 34.61021 46.32370 40.46695
#
# Velocity S-wave (km/s) = 3.75585 4.34518 4.06121
# Velocity P-wave (km/s) = 5.76632 7.32549 6.59217
#
# Compressibility (1/GPa) = 0.02822178
#
# Stress axis : x y z
#
# Youngs Moduli (GPa) = 66.46488 92.89531 90.27258
#
# Poissons Ratio (x) = 0.29061 0.04533
# Poissons Ratio (y) = 0.20793 0.06342
# Poissons Ratio (z) = 0.03338 0.06526
#
# Static dielectric constant tensor:
#      x y z
#    x 1.997620 0.052290 0.037140 
#    y 0.052290 2.011430 0.012990 
#    z 0.037140 0.012990 1.993930 
# 
# From -- ./inp_files/543188.got.cif
#   From: 2010.05.17/outbox.cif.g08.bks.cpg/sg2_272_cif.got.tgz:543188.got - 2010.06.03 11:33:40.
