data_PCOD9063624
_publ_section_title
;
Structure prediction by ZEFSAII (Michael W. Deem and Ramdas Pophale) SiO2 
 PCOD9063624
Probable space group: P -1
;
_chemical_formula_sum "Si O2"
_cell_formula_units_Z 14
_cell_length_a 8.194888
_cell_length_b 9.884378
_cell_length_c 8.383363
_cell_angle_alpha 98.208068
_cell_angle_beta 96.830413
_cell_angle_gamma 112.797843
_cell_volume 608.197413
_symmetry_space_group_name_H-M "P -1"
_symmetry_group_IT_number 2
_symmetry_cell_setting 'triclinic'
loop_
_space_group_symop_operation_xyz
x,y,z
-x,-y,-z
loop_
_atom_site_type_symbol
_atom_site_label
_atom_site_fract_x
_atom_site_fract_y
_atom_site_fract_z
Si Si1 0.197594 0.082230 0.613394
Si Si2 0.864926 0.842537 0.031130
Si Si3 0.805633 0.369153 0.173029
Si Si4 0.490533 0.352264 0.559108
Si Si5 0.539473 0.566421 0.842122
Si Si6 0.891673 0.320398 0.841571
Si Si7 0.268778 0.804444 0.543549
O O1 0.202995 0.115711 0.805849
O O2 0.291534 0.240711 0.564121
O O3 0.305057 0.977252 0.589247
O O4 0.000000 0.000000 0.500000
O O5 0.970948 0.744186 0.081517
O O6 0.699965 0.732269 0.884584
O O7 0.000000 0.000000 0.000000
O O8 0.650852 0.423955 0.216971
O O9 0.826905 0.275281 0.313059
O O10 0.991082 0.509119 0.173555
O O11 0.760267 0.293590 0.977224
O O12 0.500000 0.500000 0.500000
O O13 0.592678 0.441345 0.742257
O O14 0.572055 0.250499 0.465273
O O15 0.500000 0.500000 0.000000
O O16 0.821642 0.241141 0.649844
#
# Coordination Sequence:
#
# PCOD9063624 Si02
#       7
#     2   2   2   2   2   2   2
#     4  12  27  49  72 106 157 195 242 314 378 442
#     4  12  27  48  75 109 148 200 249 310 385 445
#     4  11  24  44  72 111 145 197 248 311 372 446
#     4  12  27  47  76 108 146 199 253 305 372 446
#     4  12  23  48  77 103 147 195 254 312 362 444
#     4  11  24  44  71 107 154 190 249 313 371 439
#     4  12  26  46  74 113 153 194 252 305 385 446
#
# _framework density 23.018843
#
# number of rings (size 3 to 8) (size 9 to 14) (size 15 to 20)
#    0.000    0.286    5.714    2.571    4.000    1.143 
#    2.571    1.429    0.000    0.000    0.000    0.000 
#    0.000    0.000    0.000    0.000    0.000    0.000 
#
# Total GULP energy -78050.916236 kJ/mol
# GULP energy per Si atom -5575.065445 kJ/mol
# Density = 2.296645 g / cm^3
# Si number density = 23.018843 Si / 1000 Ang^3
#
#
#
# Elastic Constant Matrix: (Units=GPa)
#
#
# Indices 1 2 3 4 5 6 
#
# 1 69.9978 34.1763 16.1845 1.8293 -13.0069 -2.1719
# 2 34.1763 164.5369 34.6580 -7.1606 -18.0261 14.6450
# 3 16.1845 34.6580 96.3229 -12.3236 -25.6562 -1.2609
# 4 1.8293 -7.1606 -12.3236 41.3555 -4.9974 -1.0411
# 5 -13.0069 -18.0261 -25.6562 -4.9974 33.4946 3.5397
# 6 -2.1719 14.6450 -1.2609 -1.0411 3.5397 42.6124
#
#
#
# Elastic Compliance Matrix: (Units=1/GPa)
#
#
# Indices 1 2 3 4 5 6 
#
# 1 0.016771 -0.003067 -0.000763 -0.000982 0.003969 0.001533
# 2 -0.003067 0.007593 -0.001508 0.001196 0.002232 -0.002967
# 3 -0.000763 -0.001508 0.014664 0.005466 0.010925 0.000139
# 4 -0.000982 0.001196 0.005466 0.027082 0.008526 -0.000346
# 5 0.003969 0.002232 0.010925 0.008526 0.042616 -0.003573
# 6 0.001533 -0.002967 0.000139 -0.000346 -0.003573 0.024858
#
#
# Mechanical properties :
#
#
# Convention : Reuss Voigt Hill
#
# Bulk Modulus (GPa) = 35.27088 55.65504 45.46296
# Shear Modulus (GPa) = 32.52899 39.88176 36.20537
#
# Velocity S-wave (km/s) = 3.76326 4.16693 3.97023
# Velocity P-wave (km/s) = 5.85139 6.88343 6.38828
#
# Compressibility (1/GPa) = 0.02835200
#
# Stress axis : x y z
#
# Youngs Moduli (GPa) = 59.62749 131.69924 68.19621
#
# Poissons Ratio (x) = 0.40394 0.05201
# Poissons Ratio (y) = 0.18289 0.10283
# Poissons Ratio (z) = 0.04547 0.19859
#
# Static dielectric constant tensor:
#      x y z
#    x 1.921860 0.000230 0.034210 
#    y 0.000230 1.833080 0.024470 
#    z 0.034210 0.024470 2.122760 
# 
# From -- ./inp_files/156973.got.cif
#   From: 2010.05.17/outbox.cif.g08.bks.cpg/sg2_79_cif.got.tgz:156973.got - 2010.06.03 11:33:40.
