data_PCOD9063985
_publ_section_title
;
Structure prediction by ZEFSAII (Michael W. Deem and Ramdas Pophale) SiO2 
 PCOD9063985
Probable space group: P -1
;
_chemical_formula_sum "Si O2"
_cell_formula_units_Z 12
_cell_length_a 6.365101
_cell_length_b 16.858492
_cell_length_c 10.029210
_cell_angle_alpha 132.954498
_cell_angle_beta 41.613604
_cell_angle_gamma 128.714175
_cell_volume 507.978899
_symmetry_space_group_name_H-M "P -1"
_symmetry_group_IT_number 2
_symmetry_cell_setting 'triclinic'
loop_
_space_group_symop_operation_xyz
x,y,z
-x,-y,-z
loop_
_atom_site_type_symbol
_atom_site_label
_atom_site_fract_x
_atom_site_fract_y
_atom_site_fract_z
Si Si1 0.759752 0.958378 0.686416
Si Si2 0.625783 0.733626 0.378107
Si Si3 0.179406 0.592869 0.627738
Si Si4 0.474765 0.384258 0.960652
Si Si5 0.228348 0.092578 0.092180
Si Si6 0.687228 0.322557 0.059928
O O1 0.543582 0.844939 0.598277
O O2 0.558862 0.050262 0.908665
O O3 0.915660 0.922577 0.706526
O O4 0.000000 0.000000 0.500000
O O5 0.498300 0.649169 0.460730
O O6 0.443841 0.696216 0.282830
O O7 0.998535 0.730811 0.168176
O O8 0.000000 0.500000 0.500000
O O9 0.274413 0.589626 0.734762
O O10 0.896273 0.659112 0.861000
O O11 0.673029 0.387462 0.003912
O O12 0.500000 0.500000 0.000000
O O13 0.369675 0.219629 0.120010
O O14 0.000000 0.000000 0.000000
#
# Coordination Sequence:
#
# PCOD9063985 Si02
#       6
#     2   2   2   2   2   2
#     4  11  24  45  69  97 144 177 223 282 339 404
#     4  11  24  45  68  99 138 182 226 279 342 406
#     4  11  24  47  68  99 136 181 229 281 345 402
#     4  11  26  46  67 100 137 177 232 289 337 399
#     4  11  26  42  68 106 138 178 228 278 339 409
#     4  11  26  44  70 101 140 179 231 282 341 409
#
# _framework density 23.623028000000001
#
# number of rings (size 3 to 8) (size 9 to 14) (size 15 to 20)
#    0.000    1.000    5.000    0.000    4.667    6.667 
#    0.000    0.000    0.000    0.000    0.000    0.000 
#    0.000    0.000    0.000    0.000    0.000    0.000 
#
# Total GULP energy -66859.681341 kJ/mol
# GULP energy per Si atom -5571.640112 kJ/mol
# Density = 2.356926 g / cm^3
# Si number density = 23.623028 Si / 1000 Ang^3
#
#
#
# Elastic Constant Matrix: (Units=GPa)
#
#
# Indices 1 2 3 4 5 6 
#
# 1 98.4251 47.4759 32.2808 -3.0796 55.5447 -18.7472
# 2 47.4759 103.7805 24.5619 -11.0067 27.3965 -6.3321
# 3 32.2808 24.5619 94.2169 -9.4645 47.3317 -11.2874
# 4 -3.0796 -11.0067 -9.4645 49.3996 4.9852 2.0252
# 5 55.5447 27.3965 47.3317 4.9852 61.0821 -3.9029
# 6 -18.7472 -6.3321 -11.2874 2.0252 -3.9029 28.9370
#
#
#
# Elastic Compliance Matrix: (Units=1/GPa)
#
#
# Indices 1 2 3 4 5 6 
#
# 1 0.033470 -0.006909 0.010655 0.005310 -0.034796 0.019264
# 2 -0.006909 0.012876 -0.001907 0.001999 0.001674 -0.002316
# 3 0.010655 -0.001907 0.022675 0.006767 -0.026233 0.011319
# 4 0.005310 0.001999 0.006767 0.023466 -0.012682 0.003165
# 5 -0.034796 0.001674 -0.026233 -0.012682 0.067190 -0.022460
# 6 0.019264 -0.002316 0.011319 0.003165 -0.022460 0.047695
#
#
# Mechanical properties :
#
#
# Convention : Reuss Voigt Hill
#
# Bulk Modulus (GPa) = 13.75534 56.11775 34.93654
# Shear Modulus (GPa) = 21.93681 40.69067 31.31374
#
# Velocity S-wave (km/s) = 3.05063 4.15480 3.64477
# Velocity P-wave (km/s) = 4.27130 6.84278 5.70384
#
# Compressibility (1/GPa) = 0.07269903
#
# Stress axis : x y z
#
# Youngs Moduli (GPa) = 29.87772 77.66119 44.10167
#
# Poissons Ratio (x) = 0.53655 -0.46992
# Poissons Ratio (y) = 0.20642 0.08412
# Poissons Ratio (z) = -0.31836 0.14813
#
# Static dielectric constant tensor:
#      x y z
#    x 2.012700 0.061610 0.045770 
#    y 0.061610 1.772360 -0.033790 
#    z 0.045770 -0.033790 1.910930 
# 
# From -- ./inp_files/8757.got.cif
#   From: 2010.05.17/outbox.cif.g08.bks.cpg/sg2_5_cif.got.tgz:8757.got - 2010.06.03 11:33:40.
