data_PCOD9063167
_publ_section_title
;
Structure prediction by ZEFSAII (Michael W. Deem and Ramdas Pophale) SiO2 
 PCOD9063167
Probable space group: P -1
;
_chemical_formula_sum "Si O2"
_cell_formula_units_Z 14
_cell_length_a 9.589673
_cell_length_b 13.996367
_cell_length_c 10.305341
_cell_angle_alpha 74.140814
_cell_angle_beta 77.813096
_cell_angle_gamma 23.725981
_cell_volume 532.624452
_symmetry_space_group_name_H-M "P -1"
_symmetry_group_IT_number 2
_symmetry_cell_setting 'triclinic'
loop_
_space_group_symop_operation_xyz
x,y,z
-x,-y,-z
loop_
_atom_site_type_symbol
_atom_site_label
_atom_site_fract_x
_atom_site_fract_y
_atom_site_fract_z
Si Si1 0.723187 0.308160 0.213315
Si Si2 0.608485 0.626060 0.263459
Si Si3 0.993776 0.621740 0.975535
Si Si4 0.825079 0.872049 0.584872
Si Si5 0.849711 0.007829 0.299751
Si Si6 0.963835 0.142246 0.942099
Si Si7 0.636902 0.845761 0.211965
O O1 0.943171 0.210369 0.326421
O O2 0.360544 0.591508 0.151527
O O3 0.943014 0.183594 0.082245
O O4 0.655991 0.234351 0.276716
O O5 0.927924 0.381085 0.376857
O O6 0.251856 0.794744 0.303989
O O7 0.594222 0.753471 0.235530
O O8 0.702332 0.544104 0.123843
O O9 0.661429 0.891606 0.884177
O O10 0.963561 0.660955 0.121162
O O11 0.000000 0.500000 0.000000
O O12 0.794746 0.959252 0.433838
O O13 0.449541 0.088091 0.643077
O O14 0.764173 0.017355 0.170527
O O15 0.000000 0.000000 0.000000
#
# Coordination Sequence:
#
# PCOD9063167 Si02
#       7
#     2   2   2   2   2   2   2
#     4  10  19  32  47  63  93 136 168 196 232 277
#     4  10  18  27  44  68  98 129 158 195 237 283
#     4   8  16  30  44  60  91 130 160 194 237 282
#     4  11  20  28  47  75 101 131 158 194 241 286
#     4  11  20  30  46  73 104 129 159 195 239 288
#     4   9  20  34  45  60  92 135 170 199 228 279
#     4   9  17  29  43  65  95 127 160 195 236 286
#
# _framework density 26.284935999999998
#
# number of rings (size 3 to 8) (size 9 to 14) (size 15 to 20)
#    0.000    2.286    2.857    0.857    0.000    0.000 
#    0.000    0.000    0.000    0.000    0.000    0.000 
#    0.000   30.857    1.143   27.286    5.714    6.286 
#
# Total GULP energy -78120.303243 kJ/mol
# GULP energy per Si atom -5580.021660 kJ/mol
# Density = 2.622511 g / cm^3
# Si number density = 26.284936 Si / 1000 Ang^3
#
#
#
# Elastic Constant Matrix: (Units=GPa)
#
#
# Indices 1 2 3 4 5 6 
#
# 1 87.4834 43.3853 30.8181 -18.3070 -8.9461 18.2804
# 2 43.3853 145.7028 53.0700 -34.0552 -11.0220 26.2046
# 3 30.8181 53.0700 201.1348 -17.4304 -29.4568 0.7397
# 4 -18.3070 -34.0552 -17.4304 34.1632 -2.8428 -12.2937
# 5 -8.9461 -11.0220 -29.4568 -2.8428 36.8999 -2.8210
# 6 18.2804 26.2046 0.7397 -12.2937 -2.8210 26.8576
#
#
#
# Elastic Compliance Matrix: (Units=1/GPa)
#
#
# Indices 1 2 3 4 5 6 
#
# 1 0.015090 -0.001947 -0.001218 0.003289 0.001851 -0.006637
# 2 -0.001947 0.010860 -0.001733 0.006892 0.001467 -0.005914
# 3 -0.001218 -0.001733 0.006582 0.002900 0.004985 0.004190
# 4 0.003289 0.006892 0.002900 0.044639 0.009558 0.012394
# 5 0.001851 0.001467 0.004985 0.009558 0.033087 0.005022
# 6 -0.006637 -0.005914 0.004190 0.012394 0.005022 0.053607
#
#
# Mechanical properties :
#
#
# Convention : Reuss Voigt Hill
#
# Bulk Modulus (GPa) = 43.98505 76.54090 60.26297
# Shear Modulus (GPa) = 27.58802 40.05399 33.82101
#
# Velocity S-wave (km/s) = 3.24323 3.90787 3.59096
# Velocity P-wave (km/s) = 5.54932 7.03881 6.33797
#
# Compressibility (1/GPa) = 0.02273500
#
# Stress axis : x y z
#
# Youngs Moduli (GPa) = 66.26937 92.08309 151.93695
#
# Poissons Ratio (x) = 0.17930 0.18504
# Poissons Ratio (y) = 0.12903 0.26334
# Poissons Ratio (z) = 0.08071 0.15960
#
# Static dielectric constant tensor:
#      x y z
#    x 2.157000 -0.016420 0.004040 
#    y -0.016420 2.120370 0.063010 
#    z 0.004040 0.063010 2.058230 
# 
# From -- ./inp_files/361259.got.cif
#   From: 2010.05.17/outbox.cif.g08.bks.cpg/sg2_181_cif.got.tgz:361259.got - 2010.06.03 11:33:40.
