data_PCOD9063508
_publ_section_title
;
Structure prediction by ZEFSAII (Michael W. Deem and Ramdas Pophale) SiO2 
 PCOD9063508
Probable space group: P -1
;
_chemical_formula_sum "Si O2"
_cell_formula_units_Z 16
_cell_length_a 11.750478
_cell_length_b 6.939137
_cell_length_c 23.069363
_cell_angle_alpha 120.580691
_cell_angle_beta 27.986365
_cell_angle_gamma 128.430287
_cell_volume 687.342095
_symmetry_space_group_name_H-M "P -1"
_symmetry_group_IT_number 2
_symmetry_cell_setting 'triclinic'
loop_
_space_group_symop_operation_xyz
x,y,z
-x,-y,-z
loop_
_atom_site_type_symbol
_atom_site_label
_atom_site_fract_x
_atom_site_fract_y
_atom_site_fract_z
Si Si1 0.959181 0.324429 0.612471
Si Si2 0.356742 0.662461 0.924380
Si Si3 0.146111 0.825197 0.230610
Si Si4 0.732201 0.526650 0.188547
Si Si5 0.800597 0.046772 0.254501
Si Si6 0.180438 0.884663 0.616234
Si Si7 0.260723 0.437522 0.053116
Si Si8 0.410892 0.126379 0.363060
O O1 0.062463 0.615574 0.599001
O O2 0.203647 0.244595 0.485292
O O3 0.856702 0.260399 0.715075
O O4 0.741866 0.146011 0.637574
O O5 0.398277 0.557235 0.828507
O O6 0.572225 0.943983 0.874985
O O7 0.372069 0.509655 0.949808
O O8 0.052170 0.629307 0.055642
O O9 0.115948 0.610205 0.166078
O O10 0.921836 0.928408 0.338569
O O11 0.617447 0.297373 0.248288
O O12 0.680327 0.753904 0.269092
O O13 0.927582 0.157866 0.275683
O O14 0.567773 0.118628 0.348823
O O15 0.038562 0.158095 0.117493
O O16 0.500000 0.000000 0.500000
O O17 0.500000 0.500000 0.000000
#
# Coordination Sequence:
#
# PCOD9063508 Si02
#       8
#     2   2   2   2   2   2   2   2
#     4  11  26  46  74 103 139 184 233 286 359 413
#     4  11  24  44  69  99 140 190 224 290 347 410
#     4  12  25  46  71 102 147 179 237 289 349 418
#     4  11  24  45  69 102 141 180 236 284 351 413
#     4  12  25  42  71 100 138 182 232 289 344 418
#     4  12  27  45  73 105 139 186 233 289 350 419
#     4  12  25  43  69 103 141 187 236 286 347 412
#     4  11  25  47  71 103 141 182 231 295 345 422
#
# _framework density 23.278074
#
# number of rings (size 3 to 8) (size 9 to 14) (size 15 to 20)
#    0.000    0.500    3.750    4.125    3.500    1.500 
#    0.000    3.125    0.000    0.000    0.000    0.000 
#    0.000    0.000    0.000    0.000    0.000    0.000 
#
# Total GULP energy -89642.020462 kJ/mol
# GULP energy per Si atom -5602.626279 kJ/mol
# Density = 2.322509 g / cm^3
# Si number density = 23.278074 Si / 1000 Ang^3
#
#
#
# Elastic Constant Matrix: (Units=GPa)
#
#
# Indices 1 2 3 4 5 6 
#
# 1 81.0745 13.1252 -6.4924 8.0106 1.5063 -4.9897
# 2 13.1252 112.7150 8.9752 5.6721 -13.4609 11.8369
# 3 -6.4924 8.9752 51.8782 -11.1107 -4.8956 -0.5566
# 4 8.0106 5.6721 -11.1107 33.6664 2.5520 -1.7105
# 5 1.5063 -13.4609 -4.8956 2.5520 37.5064 4.0237
# 6 -4.9897 11.8369 -0.5566 -1.7105 4.0237 31.3196
#
#
#
# Elastic Compliance Matrix: (Units=1/GPa)
#
#
# Indices 1 2 3 4 5 6 
#
# 1 0.013184 -0.002002 0.001468 -0.002073 -0.001229 0.002928
# 2 -0.002002 0.010449 -0.002270 -0.002609 0.004248 -0.004997
# 3 0.001468 -0.002270 0.021516 0.007124 0.001268 0.001700
# 4 -0.002073 -0.002609 0.007124 0.033326 -0.002504 0.002924
# 5 -0.001229 0.004248 0.001268 -0.002504 0.029180 -0.005664
# 6 0.002928 -0.004997 0.001700 0.002924 -0.005664 0.035201
#
#
# Mechanical properties :
#
#
# Convention : Reuss Voigt Hill
#
# Bulk Modulus (GPa) = 25.29054 30.76485 28.02770
# Shear Modulus (GPa) = 30.93210 35.83577 33.38393
#
# Velocity S-wave (km/s) = 3.64924 3.92786 3.79111
# Velocity P-wave (km/s) = 5.35201 5.81513 5.58837
#
# Compressibility (1/GPa) = 0.03954047
#
# Stress axis : x y z
#
# Youngs Moduli (GPa) = 75.85022 95.70184 46.47710
#
# Poissons Ratio (x) = 0.19160 -0.06821
# Poissons Ratio (y) = 0.15185 0.10550
# Poissons Ratio (z) = -0.11132 0.21723
#
# Static dielectric constant tensor:
#      x y z
#    x 1.836220 -0.004360 0.004960 
#    y -0.004360 1.853850 0.015380 
#    z 0.004960 0.015380 1.898820 
# 
# From -- ./inp_files/69618.got.cif
#   From: 2010.05.17/outbox.cif.g08.bks.cpg/sg2_35_cif.got.tgz:69618.got - 2010.06.03 11:33:40.
