data_PCOD9063924
_publ_section_title
;
Structure prediction by ZEFSAII (Michael W. Deem and Ramdas Pophale) SiO2 
 PCOD9063924
Probable space group: P -1
;
_chemical_formula_sum "Si O2"
_cell_formula_units_Z 16
_cell_length_a 6.302145
_cell_length_b 8.862830
_cell_length_c 19.126620
_cell_angle_alpha 55.890952
_cell_angle_beta 126.131947
_cell_angle_gamma 103.494760
_cell_volume 706.801272
_symmetry_space_group_name_H-M "P -1"
_symmetry_group_IT_number 2
_symmetry_cell_setting 'triclinic'
loop_
_space_group_symop_operation_xyz
x,y,z
-x,-y,-z
loop_
_atom_site_type_symbol
_atom_site_label
_atom_site_fract_x
_atom_site_fract_y
_atom_site_fract_z
Si Si1 0.231035 0.112532 0.838401
Si Si2 0.234022 0.485788 0.657469
Si Si3 0.742560 0.255817 0.274351
Si Si4 0.775356 0.873873 0.003445
Si Si5 0.196333 0.527373 0.910192
Si Si6 0.241292 0.977380 0.411817
Si Si7 0.705034 0.456498 0.489373
Si Si8 0.198455 0.137193 0.208202
O O1 0.216774 0.294859 0.742198
O O2 0.273414 0.157005 0.915794
O O3 0.964535 0.018749 0.810917
O O4 0.484867 0.971094 0.897136
O O5 0.293052 0.632560 0.688487
O O6 0.416938 0.465281 0.629064
O O7 0.956031 0.541341 0.547822
O O8 0.813630 0.392944 0.191541
O O9 0.474856 0.177721 0.220520
O O10 0.979822 0.086214 0.369084
O O11 0.882508 0.674312 0.046144
O O12 0.000000 0.000000 0.000000
O O13 0.007676 0.675274 0.880034
O O14 0.500000 0.500000 0.000000
O O15 0.261494 0.075203 0.316093
O O16 0.500000 0.000000 0.500000
O O17 0.226905 0.763435 0.450974
O O18 0.500000 0.500000 0.500000
#
# Coordination Sequence:
#
# PCOD9063924 Si02
#       8
#     2   2   2   2   2   2   2   2
#     4  11  24  47  65 106 141 181 248 293 351 439
#     4  11  24  45  67 102 143 184 239 298 356 421
#     4  11  26  45  74 103 142 197 236 302 364 431
#     4  11  26  43  73 101 140 190 233 297 364 421
#     4  11  24  45  66 104 145 183 245 292 354 441
#     4  11  24  46  69 103 145 181 248 295 356 436
#     4  11  25  44  71 102 137 189 236 299 363 428
#     4  11  25  42  70 101 141 192 233 297 359 419
#
# _framework density 22.637198000000001
#
# number of rings (size 3 to 8) (size 9 to 14) (size 15 to 20)
#    0.000    1.000    3.750    1.500    3.500    6.500 
#    0.000    0.000    0.000    0.000    0.000    0.000 
#    0.000    0.000    0.000    0.000    0.000    0.000 
#
# Total GULP energy -89483.788451 kJ/mol
# GULP energy per Si atom -5592.736778 kJ/mol
# Density = 2.258567 g / cm^3
# Si number density = 22.637198 Si / 1000 Ang^3
#
#
#
# Elastic Constant Matrix: (Units=GPa)
#
#
# Indices 1 2 3 4 5 6 
#
# 1 82.2621 38.6430 25.3701 -10.5361 4.0183 5.7837
# 2 38.6430 131.6754 40.2011 -21.0078 0.2753 8.9876
# 3 25.3701 40.2011 83.4231 -4.7143 1.4383 -8.0574
# 4 -10.5361 -21.0078 -4.7143 40.7882 2.2400 -7.7879
# 5 4.0183 0.2753 1.4383 2.2400 42.7521 7.2136
# 6 5.7837 8.9876 -8.0574 -7.7879 7.2136 34.9788
#
#
#
# Elastic Compliance Matrix: (Units=1/GPa)
#
#
# Indices 1 2 3 4 5 6 
#
# 1 0.014944 -0.003035 -0.003148 0.001641 -0.001056 -0.001833
# 2 -0.003035 0.010512 -0.004186 0.003642 0.000585 -0.002473
# 3 -0.003148 -0.004186 0.015494 -0.000092 -0.001100 0.005371
# 4 0.001641 0.003642 -0.000092 0.028005 -0.002576 0.005538
# 5 -0.001056 0.000585 -0.001100 -0.002576 0.024651 -0.005887
# 6 -0.001833 -0.002473 0.005371 0.005538 -0.005887 0.033212
#
#
# Mechanical properties :
#
#
# Convention : Reuss Voigt Hill
#
# Bulk Modulus (GPa) = 49.47661 56.19876 52.83769
# Shear Modulus (GPa) = 32.40612 36.58024 34.49318
#
# Velocity S-wave (km/s) = 3.78768 4.02423 3.90774
# Velocity P-wave (km/s) = 6.40566 6.81706 6.61456
#
# Compressibility (1/GPa) = 0.02021157
#
# Stress axis : x y z
#
# Youngs Moduli (GPa) = 66.91840 95.13221 64.54122
#
# Poissons Ratio (x) = 0.28876 0.20317
# Poissons Ratio (y) = 0.20312 0.27014
# Poissons Ratio (z) = 0.21066 0.39818
#
# Static dielectric constant tensor:
#      x y z
#    x 2.003480 -0.006610 -0.053680 
#    y -0.006610 1.831900 0.020120 
#    z -0.053680 0.020120 1.845380 
# 
# From -- ./inp_files/48670.got.cif
#   From: 2010.05.17/outbox.cif.g08.bks.cpg/sg2_25_cif.got.tgz:48670.got - 2010.06.03 11:33:40.
