data_PCOD9063509
_publ_section_title
;
Structure prediction by ZEFSAII (Michael W. Deem and Ramdas Pophale) SiO2 
 PCOD9063509
Probable space group: P -1
;
_chemical_formula_sum "Si O2"
_cell_formula_units_Z 16
_cell_length_a 9.204183
_cell_length_b 8.360399
_cell_length_c 14.986495
_cell_angle_alpha 135.173127
_cell_angle_beta 98.081554
_cell_angle_gamma 69.581222
_cell_volume 751.869170
_symmetry_space_group_name_H-M "P -1"
_symmetry_group_IT_number 2
_symmetry_cell_setting 'triclinic'
loop_
_space_group_symop_operation_xyz
x,y,z
-x,-y,-z
loop_
_atom_site_type_symbol
_atom_site_label
_atom_site_fract_x
_atom_site_fract_y
_atom_site_fract_z
Si Si1 0.591671 0.786472 0.676947
Si Si2 0.174347 0.741141 0.476761
Si Si3 0.477816 0.786337 0.470788
Si Si4 0.937574 0.719948 0.304703
Si Si5 0.856049 0.529764 0.935115
Si Si6 0.399895 0.693378 0.141293
Si Si7 0.386422 0.941911 0.896454
Si Si8 0.329889 0.498149 0.765771
O O1 0.732968 0.525669 0.580767
O O2 0.491713 0.805971 0.585709
O O3 0.636157 0.027390 0.776111
O O4 0.491233 0.810671 0.768283
O O5 0.307922 0.769619 0.432532
O O6 0.020132 0.734179 0.411150
O O7 0.123281 0.000864 0.626528
O O8 0.624431 0.567739 0.359122
O O9 0.500000 0.000000 0.500000
O O10 0.799396 0.611531 0.258698
O O11 0.071835 0.539444 0.183736
O O12 0.758958 0.357368 0.879305
O O13 0.736948 0.802550 0.042742
O O14 0.000000 0.500000 0.000000
O O15 0.512975 0.626770 0.211364
O O16 0.500000 0.500000 0.000000
O O17 0.299169 0.782991 0.876342
O O18 0.500000 0.000000 0.000000
#
# Coordination Sequence:
#
# PCOD9063509 Si02
#       8
#     2   2   2   2   2   2   2   2
#     4  12  25  40  77 107 134 178 253 296 338 422
#     4  11  24  44  69  99 141 185 230 295 353 414
#     4  12  23  41  73 101 132 183 243 290 346 413
#     4  11  26  44  68  99 150 189 223 288 374 422
#     4  12  27  42  69 103 146 182 228 294 364 419
#     4  12  23  44  72 102 138 188 241 291 343 427
#     4  12  25  46  74 106 138 186 244 298 348 422
#     4  12  24  43  74  99 139 186 241 286 356 426
#
# _framework density 21.280297000000001
#
# number of rings (size 3 to 8) (size 9 to 14) (size 15 to 20)
#    0.000    0.250    6.250    2.625    1.750    1.500 
#    0.000    1.250    0.000    0.000    0.000    0.000 
#    0.000    0.000    0.000    0.000    0.000    0.000 
#
# Total GULP energy -89341.012010 kJ/mol
# GULP energy per Si atom -5583.813251 kJ/mol
# Density = 2.123186 g / cm^3
# Si number density = 21.280297 Si / 1000 Ang^3
#
#
#
# Elastic Constant Matrix: (Units=GPa)
#
#
# Indices 1 2 3 4 5 6 
#
# 1 131.3910 32.1320 25.2317 4.1208 36.2963 8.2617
# 2 32.1320 106.6235 23.1206 26.3171 27.4544 -1.0225
# 3 25.2317 23.1206 83.2757 1.4053 10.1337 6.2533
# 4 4.1208 26.3171 1.4053 51.5743 9.0789 5.6749
# 5 36.2963 27.4544 10.1337 9.0789 42.8842 8.3862
# 6 8.2617 -1.0225 6.2533 5.6749 8.3862 38.7775
#
#
#
# Elastic Compliance Matrix: (Units=1/GPa)
#
#
# Indices 1 2 3 4 5 6 
#
# 1 0.010380 -0.000974 -0.001906 0.001150 -0.007878 -0.000394
# 2 -0.000974 0.013449 -0.002793 -0.005924 -0.006515 0.003288
# 3 -0.001906 -0.002793 0.013455 0.001383 0.000342 -0.002114
# 4 0.001150 -0.005924 0.001383 0.022974 -0.001662 -0.003627
# 5 -0.007878 -0.006515 0.000342 -0.001662 0.035602 -0.006005
# 6 -0.000394 0.003288 -0.002114 -0.003627 -0.006005 0.028129
#
#
# Mechanical properties :
#
#
# Convention : Reuss Voigt Hill
#
# Bulk Modulus (GPa) = 38.55290 53.58432 46.06861
# Shear Modulus (GPa) = 34.72663 42.70092 38.71378
#
# Velocity S-wave (km/s) = 4.04402 4.48436 4.26987
# Velocity P-wave (km/s) = 6.32151 7.21440 6.78267
#
# Compressibility (1/GPa) = 0.02593839
#
# Stress axis : x y z
#
# Youngs Moduli (GPa) = 96.33909 74.35441 74.32208
#
# Poissons Ratio (x) = 0.07242 0.14164
# Poissons Ratio (y) = 0.09383 0.20759
# Poissons Ratio (z) = 0.18360 0.20768
#
# Static dielectric constant tensor:
#      x y z
#    x 1.752160 0.037800 -0.039170 
#    y 0.037800 1.835950 -0.043130 
#    z -0.039170 -0.043130 2.044720 
# 
# From -- ./inp_files/495889.got.cif
#   From: 2010.05.17/outbox.cif.g08.bks.cpg/sg2_248_cif.got.tgz:495889.got - 2010.06.03 11:33:40.
