data_PCOD9063007
_publ_section_title
;
Structure prediction by ZEFSAII (Michael W. Deem and Ramdas Pophale) SiO2 
 PCOD9063007
Probable space group: P -1
;
_chemical_formula_sum "Si O2"
_cell_formula_units_Z 16
_cell_length_a 9.167313
_cell_length_b 9.550386
_cell_length_c 19.410536
_cell_angle_alpha 127.162141
_cell_angle_beta 124.313363
_cell_angle_gamma 30.258998
_cell_volume 678.720009
_symmetry_space_group_name_H-M "P -1"
_symmetry_group_IT_number 2
_symmetry_cell_setting 'triclinic'
loop_
_space_group_symop_operation_xyz
x,y,z
-x,-y,-z
loop_
_atom_site_type_symbol
_atom_site_label
_atom_site_fract_x
_atom_site_fract_y
_atom_site_fract_z
Si Si1 0.677115 0.188396 0.466136
Si Si2 0.550533 0.368648 0.805268
Si Si3 0.707599 0.760603 0.541280
Si Si4 0.155333 0.645890 0.235404
Si Si5 0.520702 0.162771 0.278243
Si Si6 0.066202 0.366199 0.055539
Si Si7 0.536001 0.294934 0.998966
Si Si8 0.895220 0.772397 0.742513
O O1 0.500000 0.500000 0.500000
O O2 0.489843 0.246003 0.491719
O O3 0.664250 0.065630 0.362333
O O4 0.000000 0.000000 0.500000
O O5 0.706745 0.308698 0.759309
O O6 0.500200 0.580669 0.900403
O O7 0.245083 0.506428 0.758094
O O8 0.777934 0.060358 0.810838
O O9 0.791624 0.795777 0.645189
O O10 0.000000 0.500000 0.500000
O O11 0.500000 0.000000 0.500000
O O12 0.337868 0.481063 0.304716
O O13 0.223898 0.402749 0.145722
O O14 0.807696 0.928012 0.236588
O O15 0.268714 0.216449 0.240830
O O16 0.743120 0.594099 0.065958
O O17 0.000000 0.500000 0.000000
O O18 0.225808 0.051096 0.021956
O O19 0.500000 0.500000 0.000000
#
# Coordination Sequence:
#
# PCOD9063007 Si02
#       8
#     2   2   2   2   2   2   2   2
#     4  11  24  43  69 100 137 177 226 286 341 414
#     4  12  26  44  70 100 139 178 235 290 345 418
#     4  11  24  43  69 100 135 180 228 277 349 416
#     4  12  26  43  71 100 136 182 233 287 350 420
#     4  11  26  45  67 101 137 182 228 278 357 419
#     4  12  26  48  73 101 144 188 238 300 358 416
#     4  12  28  46  72 106 141 186 244 296 357 423
#     4  11  26  45  67  99 140 181 224 287 349 417
#
# _framework density 23.573785000000001
#
# number of rings (size 3 to 8) (size 9 to 14) (size 15 to 20)
#    0.000    0.500    1.250    6.000    7.000   10.000 
#    0.000    0.000    0.000    0.000    0.000    0.000 
#    0.000    0.000    0.000    0.000    0.000    0.000 
#
# Total GULP energy -89147.217869 kJ/mol
# GULP energy per Si atom -5571.701117 kJ/mol
# Density = 2.352013 g / cm^3
# Si number density = 23.573785 Si / 1000 Ang^3
#
#
#
# Elastic Constant Matrix: (Units=GPa)
#
#
# Indices 1 2 3 4 5 6 
#
# 1 212.7258 65.9979 10.4364 -6.1107 0.8020 -10.9847
# 2 65.9979 154.8068 -3.5926 0.6966 -7.4106 -20.8933
# 3 10.4364 -3.5926 39.3311 -2.3479 -0.7670 -11.4694
# 4 -6.1107 0.6966 -2.3479 30.9017 -1.4410 1.2357
# 5 0.8020 -7.4106 -0.7670 -1.4410 29.2814 -4.3816
# 6 -10.9847 -20.8933 -11.4694 1.2357 -4.3816 52.8419
#
#
#
# Elastic Compliance Matrix: (Units=1/GPa)
#
#
# Indices 1 2 3 4 5 6 
#
# 1 0.005580 -0.002505 -0.001754 0.001000 -0.000829 -0.000303
# 2 -0.002505 0.008186 0.002451 -0.000507 0.002701 0.003484
# 3 -0.001754 0.002451 0.028274 0.001587 0.002521 0.006913
# 4 0.001000 -0.000507 0.001587 0.032770 0.001455 -0.000294
# 5 -0.000829 0.002701 0.002521 0.001455 0.035648 0.004365
# 6 -0.000303 0.003484 0.006913 -0.000294 0.004365 0.022108
#
#
# Mechanical properties :
#
#
# Convention : Reuss Voigt Hill
#
# Bulk Modulus (GPa) = 26.02553 61.39412 43.70983
# Shear Modulus (GPa) = 33.55877 44.87316 39.21597
#
# Velocity S-wave (km/s) = 3.77711 4.36767 4.08308
# Velocity P-wave (km/s) = 5.48507 7.17881 6.38832
#
# Compressibility (1/GPa) = 0.03842381
#
# Stress axis : x y z
#
# Youngs Moduli (GPa) = 179.20278 122.15732 35.36765
#
# Poissons Ratio (x) = 0.30598 0.06205
# Poissons Ratio (y) = 0.44887 -0.08668
# Poissons Ratio (z) = 0.31439 -0.29937
#
# Static dielectric constant tensor:
#      x y z
#    x 1.873710 0.051600 -0.063900 
#    y 0.051600 1.839050 0.024430 
#    z -0.063900 0.024430 1.943060 
# 
# From -- ./inp_files/352501.got.cif
#   From: 2010.05.17/outbox.cif.g08.bks.cpg/sg2_177_cif.got.tgz:352501.got - 2010.06.03 11:33:40.
