data_PCOD9063161
_publ_section_title
;
Structure prediction by ZEFSAII (Michael W. Deem and Ramdas Pophale) SiO2 
 PCOD9063161
Probable space group: P -1
;
_chemical_formula_sum "Si O2"
_cell_formula_units_Z 14
_cell_length_a 7.412729
_cell_length_b 7.640664
_cell_length_c 17.959491
_cell_angle_alpha 56.629074
_cell_angle_beta 52.008695
_cell_angle_gamma 92.467760
_cell_volume 545.441682
_symmetry_space_group_name_H-M "P -1"
_symmetry_group_IT_number 2
_symmetry_cell_setting 'triclinic'
loop_
_space_group_symop_operation_xyz
x,y,z
-x,-y,-z
loop_
_atom_site_type_symbol
_atom_site_label
_atom_site_fract_x
_atom_site_fract_y
_atom_site_fract_z
Si Si1 0.145091 0.963821 0.136897
Si Si2 0.474420 0.352944 0.652999
Si Si3 0.585727 0.902950 0.119612
Si Si4 0.919619 0.549329 0.088782
Si Si5 0.129536 0.079791 0.558142
Si Si6 0.375217 0.007240 0.379951
Si Si7 0.181576 0.331239 0.145649
O O1 0.337777 0.938568 0.153348
O O2 0.838672 0.713095 0.255123
O O3 0.052286 0.129802 0.159102
O O4 0.329704 0.117694 0.981139
O O5 0.516782 0.307949 0.740334
O O6 0.685614 0.651787 0.507888
O O7 0.531740 0.171190 0.632800
O O8 0.880281 0.142764 0.024248
O O9 0.054606 0.490706 0.136457
O O10 0.592597 0.311734 0.232056
O O11 0.000000 0.500000 0.000000
O O12 0.928896 0.111442 0.549643
O O13 0.323390 0.021750 0.476763
O O14 0.910213 0.832366 0.719758
O O15 0.500000 0.500000 0.000000
#
# Coordination Sequence:
#
# PCOD9063161 Si02
#       7
#     2   2   2   2   2   2   2
#     4  11  24  43  71 114 145 192 250 305 366 441
#     4  12  24  49  74 103 154 200 240 306 379 440
#     4  11  24  44  72 113 149 191 251 309 367 437
#     4  12  22  44  74 102 142 193 246 297 366 433
#     4  11  28  47  69 109 146 191 255 302 370 451
#     4  11  24  47  72 105 144 203 242 302 371 440
#     4  12  24  46  72 100 143 184 241 312 361 438
#
# _framework density 25.667271
#
# number of rings (size 3 to 8) (size 9 to 14) (size 15 to 20)
#    0.000    0.571    4.286    3.429    0.000    4.571 
#    5.143    0.000    0.000    0.000    0.000    0.000 
#    0.000    0.000    0.000    0.000    0.000    0.000 
#
# Total GULP energy -78172.176327 kJ/mol
# GULP energy per Si atom -5583.726880 kJ/mol
# Density = 2.560885 g / cm^3
# Si number density = 25.667271 Si / 1000 Ang^3
#
#
#
# Elastic Constant Matrix: (Units=GPa)
#
#
# Indices 1 2 3 4 5 6 
#
# 1 104.5036 34.0103 27.8595 -16.0701 -15.6711 -0.4444
# 2 34.0103 79.1789 35.0217 27.2123 2.4354 -5.9193
# 3 27.8595 35.0217 144.8521 -1.0595 -13.2509 4.8563
# 4 -16.0701 27.2123 -1.0595 40.9391 1.2217 -5.2593
# 5 -15.6711 2.4354 -13.2509 1.2217 36.6101 -3.0909
# 6 -0.4444 -5.9193 4.8563 -5.2593 -3.0909 21.5649
#
#
#
# Elastic Compliance Matrix: (Units=1/GPa)
#
#
# Indices 1 2 3 4 5 6 
#
# 1 0.017307 -0.013209 0.000672 0.015546 0.008141 0.001538
# 2 -0.013209 0.029655 -0.005669 -0.024538 -0.008698 0.001913
# 3 0.000672 -0.005669 0.008558 0.003890 0.003461 -0.002024
# 4 0.015546 -0.024538 0.003890 0.047390 0.008577 0.005496
# 5 0.008141 -0.008698 0.003461 0.008577 0.032664 0.003774
# 6 0.001538 0.001913 -0.002024 0.005496 0.003774 0.049266
#
#
# Mechanical properties :
#
#
# Convention : Reuss Voigt Hill
#
# Bulk Modulus (GPa) = 52.33584 58.03531 55.18557
# Shear Modulus (GPa) = 21.96645 35.26568 28.61606
#
# Velocity S-wave (km/s) = 2.92861 3.71071 3.34261
# Velocity P-wave (km/s) = 5.64535 6.40460 6.03692
#
# Compressibility (1/GPa) = 0.01910736
#
# Stress axis : x y z
#
# Youngs Moduli (GPa) = 57.78067 33.72158 116.85195
#
# Poissons Ratio (x) = 0.44544 -0.07852
# Poissons Ratio (y) = 0.76325 0.66238
# Poissons Ratio (z) = -0.03883 0.19115
#
# Static dielectric constant tensor:
#      x y z
#    x 2.080030 -0.040890 0.016710 
#    y -0.040890 2.196210 -0.134280 
#    z 0.016710 -0.134280 2.197480 
# 
# From -- ./inp_files/556969.got.cif
#   From: 2010.05.17/outbox.cif.g08.bks.cpg/sg2_279_cif.got.tgz:556969.got - 2010.06.03 11:33:40.
