data_PCOD9063038
_publ_section_title
;
Structure prediction by ZEFSAII (Michael W. Deem and Ramdas Pophale) SiO2 
 PCOD9063038
Probable space group: P -1
;
_chemical_formula_sum "Si O2"
_cell_formula_units_Z 14
_cell_length_a 22.467152
_cell_length_b 5.058682
_cell_length_c 15.528971
_cell_angle_alpha 95.639304
_cell_angle_beta 159.361526
_cell_angle_gamma 81.787584
_cell_volume 612.526555
_symmetry_space_group_name_H-M "P -1"
_symmetry_group_IT_number 2
_symmetry_cell_setting 'triclinic'
loop_
_space_group_symop_operation_xyz
x,y,z
-x,-y,-z
loop_
_atom_site_type_symbol
_atom_site_label
_atom_site_fract_x
_atom_site_fract_y
_atom_site_fract_z
Si Si1 0.652476 0.152971 0.979940
Si Si2 0.962890 0.325396 0.174120
Si Si3 0.343170 0.877954 0.826523
Si Si4 0.005126 0.287142 0.423579
Si Si5 0.391554 0.781466 0.383507
Si Si6 0.173969 0.750116 0.429047
Si Si7 0.452930 0.671669 0.657859
O O1 0.557083 0.372185 0.791873
O O2 0.579753 0.875792 0.865388
O O3 0.612464 0.263579 0.026389
O O4 0.854014 0.114713 0.234493
O O5 0.952866 0.410221 0.263220
O O6 0.020254 0.575721 0.210031
O O7 0.791406 0.224638 0.907108
O O8 0.107190 0.067188 0.350086
O O9 0.269605 0.697247 0.648841
O O10 0.188359 0.110476 0.651579
O O11 0.500000 0.000000 0.000000
O O12 0.000000 0.500000 0.500000
O O13 0.500000 0.500000 0.500000
O O14 0.380070 0.780846 0.471198
O O15 0.500000 0.000000 0.500000
O O16 0.302434 0.680989 0.523092
#
# Coordination Sequence:
#
# PCOD9063038 Si02
#       7
#     2   2   2   2   2   2   2
#     4  12  25  44  71 103 146 184 237 293 349 420
#     4  11  25  45  70 100 145 182 229 300 348 421
#     4  11  24  44  69 104 146 190 236 291 355 423
#     4  11  24  43  69 105 141 189 240 287 359 424
#     4  12  26  47  73 103 135 182 237 292 358 417
#     4  11  25  44  68 104 139 185 233 282 366 419
#     4  12  26  44  73 102 138 184 238 290 351 424
#
# _framework density 22.856155000000001
#
# number of rings (size 3 to 8) (size 9 to 14) (size 15 to 20)
#    0.000    0.571    1.429    6.429    2.000    7.429 
#    0.000    0.000    0.000    0.000    0.000    0.000 
#    0.000    0.000    0.000    0.000    0.000    0.000 
#
# Total GULP energy -78431.363691 kJ/mol
# GULP energy per Si atom -5602.240264 kJ/mol
# Density = 2.280413 g / cm^3
# Si number density = 22.856155 Si / 1000 Ang^3
#
#
#
# Elastic Constant Matrix: (Units=GPa)
#
#
# Indices 1 2 3 4 5 6 
#
# 1 153.4874 28.7722 66.3038 12.1937 10.7139 1.9378
# 2 28.7722 88.7449 19.4128 11.6777 15.5645 7.3544
# 3 66.3038 19.4128 118.8783 19.7051 12.4534 -1.3379
# 4 12.1937 11.6777 19.7051 39.9797 4.2250 6.8725
# 5 10.7139 15.5645 12.4534 4.2250 50.9898 1.1933
# 6 1.9378 7.3544 -1.3379 6.8725 1.1933 35.8454
#
#
#
# Elastic Compliance Matrix: (Units=1/GPa)
#
#
# Indices 1 2 3 4 5 6 
#
# 1 0.008875 -0.001825 -0.004670 0.000200 -0.000176 -0.000312
# 2 -0.001825 0.012993 -0.000397 -0.002352 -0.003243 -0.002023
# 3 -0.004670 -0.000397 0.012005 -0.004510 -0.001496 0.001696
# 4 0.000200 -0.002352 -0.004510 0.028808 -0.000488 -0.005203
# 5 -0.000176 -0.003243 -0.001496 -0.000488 0.021044 0.000012
# 6 -0.000312 -0.002023 0.001696 -0.005203 0.000012 0.029390
#
#
# Mechanical properties :
#
#
# Convention : Reuss Voigt Hill
#
# Bulk Modulus (GPa) = 49.78040 65.56536 57.67288
# Shear Modulus (GPa) = 37.42636 41.80445 39.61541
#
# Velocity S-wave (km/s) = 4.05096 4.28135 4.16775
# Velocity P-wave (km/s) = 6.61117 7.29303 6.96045
#
# Compressibility (1/GPa) = 0.02008823
#
# Stress axis : x y z
#
# Youngs Moduli (GPa) = 112.67392 76.96528 83.29913
#
# Poissons Ratio (x) = 0.14049 0.38903
# Poissons Ratio (y) = 0.20568 0.03304
# Poissons Ratio (z) = 0.52622 0.03053
#
# Static dielectric constant tensor:
#      x y z
#    x 1.951850 0.054370 -0.147890 
#    y 0.054370 1.848250 -0.058090 
#    z -0.147890 -0.058090 1.955620 
# 
# From -- ./inp_files/27859.got.cif
#   From: 2010.05.17/outbox.cif.g08.bks.cpg/sg2_14_cif.got.tgz:27859.got - 2010.06.03 11:33:40.
