data_PCOD9063701
_publ_section_title
;
Structure prediction by ZEFSAII (Michael W. Deem and Ramdas Pophale) SiO2 
 PCOD9063701
Probable space group: P -1
;
_chemical_formula_sum "Si O2"
_cell_formula_units_Z 16
_cell_length_a 8.876733
_cell_length_b 10.278981
_cell_length_c 12.206373
_cell_angle_alpha 123.280353
_cell_angle_beta 60.029790
_cell_angle_gamma 113.904971
_cell_volume 793.267494
_symmetry_space_group_name_H-M "P -1"
_symmetry_group_IT_number 2
_symmetry_cell_setting 'triclinic'
loop_
_space_group_symop_operation_xyz
x,y,z
-x,-y,-z
loop_
_atom_site_type_symbol
_atom_site_label
_atom_site_fract_x
_atom_site_fract_y
_atom_site_fract_z
Si Si1 0.468589 0.549721 0.855975
Si Si2 0.478443 0.620002 0.465493
Si Si3 0.888951 0.327546 0.428448
Si Si4 0.107856 0.774737 0.383086
Si Si5 0.266051 0.119455 0.405201
Si Si6 0.552587 0.146208 0.128919
Si Si7 0.794175 0.545103 0.894984
Si Si8 0.925694 0.160047 0.122467
O O1 0.487424 0.443110 0.695177
O O2 0.415541 0.704008 0.893078
O O3 0.655566 0.577786 0.865984
O O4 0.320278 0.477894 0.963765
O O5 0.500000 0.500000 0.500000
O O6 0.277246 0.633218 0.555832
O O7 0.600227 0.790073 0.512863
O O8 0.827806 0.240192 0.523122
O O9 0.958071 0.212429 0.263088
O O10 0.000000 0.500000 0.500000
O O11 0.135159 0.615612 0.237576
O O12 0.905951 0.798662 0.485181
O O13 0.207902 0.932979 0.361032
O O14 0.379727 0.152962 0.268961
O O15 0.723862 0.138423 0.139637
O O16 0.500000 0.000000 0.000000
O O17 0.955060 0.690998 0.912515
O O18 0.000000 0.000000 0.000000
#
# Coordination Sequence:
#
# PCOD9063701 Si02
#       8
#     2   2   2   2   2   2   2   2
#     4  11  24  44  72  98 140 185 222 286 349 411
#     4  12  22  43  70 103 132 178 232 282 342 417
#     4  12  23  43  74 101 137 184 232 288 347 416
#     4  11  25  44  69 100 140 181 232 289 346 405
#     4  11  26  44  68 100 139 178 235 285 344 412
#     4  12  26  46  68  98 140 184 227 284 355 413
#     4  11  25  47  68 104 140 181 233 282 351 415
#     4  12  27  45  71 106 139 182 236 288 344 422
#
# _framework density 20.169741999999999
#
# number of rings (size 3 to 8) (size 9 to 14) (size 15 to 20)
#    0.000    0.500    5.000    2.250    5.250    3.000 
#    2.250    0.000    0.000    0.000    0.000    0.000 
#    0.000    0.000    0.000    0.000    0.000    0.000 
#
# Total GULP energy -89359.991316 kJ/mol
# GULP energy per Si atom -5584.999457 kJ/mol
# Density = 2.012384 g / cm^3
# Si number density = 20.169742 Si / 1000 Ang^3
#
#
#
# Elastic Constant Matrix: (Units=GPa)
#
#
# Indices 1 2 3 4 5 6 
#
# 1 82.1155 28.6329 17.9544 5.2701 -5.6859 9.5083
# 2 28.6329 75.6637 34.5502 6.7597 -3.4793 4.4770
# 3 17.9544 34.5502 133.7739 8.3092 13.2888 8.6412
# 4 5.2701 6.7597 8.3092 44.5489 -1.5560 2.5411
# 5 -5.6859 -3.4793 13.2888 -1.5560 32.5902 1.5170
# 6 9.5083 4.4770 8.6412 2.5411 1.5170 34.6694
#
#
#
# Elastic Compliance Matrix: (Units=1/GPa)
#
#
# Indices 1 2 3 4 5 6 
#
# 1 0.014608 -0.004848 -0.000703 -0.000590 0.002442 -0.003269
# 2 -0.004848 0.017068 -0.003939 -0.001198 0.002521 0.000085
# 3 -0.000703 -0.003939 0.009165 -0.001103 -0.004272 -0.001315
# 4 -0.000590 -0.001198 -0.001103 0.023018 0.001372 -0.001156
# 5 0.002442 0.002521 -0.004272 0.001372 0.033256 -0.001486
# 6 -0.003269 0.000085 -0.001315 -0.001156 -0.001486 0.030207
#
#
# Mechanical properties :
#
#
# Convention : Reuss Voigt Hill
#
# Bulk Modulus (GPa) = 45.74743 50.42536 48.08639
# Shear Modulus (GPa) = 32.55452 36.38939 34.47196
#
# Velocity S-wave (km/s) = 4.02185 4.25215 4.13860
# Velocity P-wave (km/s) = 6.65564 7.01159 6.83593
#
# Compressibility (1/GPa) = 0.02185915
#
# Stress axis : x y z
#
# Youngs Moduli (GPa) = 68.45707 58.59010 109.11363
#
# Poissons Ratio (x) = 0.28407 0.07672
# Poissons Ratio (y) = 0.33191 0.42979
# Poissons Ratio (z) = 0.04813 0.23078
#
# Static dielectric constant tensor:
#      x y z
#    x 1.717270 0.011380 0.014020 
#    y 0.011380 1.682590 -0.011480 
#    z 0.014020 -0.011480 1.729450 
# 
# From -- ./inp_files/383130.got.cif
#   From: 2010.05.17/outbox.cif.g08.bks.cpg/sg2_192_cif.got.tgz:383130.got - 2010.06.03 11:33:40.
