data_PCOD9063973
_publ_section_title
;
Structure prediction by ZEFSAII (Michael W. Deem and Ramdas Pophale) SiO2 
 PCOD9063973
Probable space group: P -1
;
_chemical_formula_sum "Si O2"
_cell_formula_units_Z 16
_cell_length_a 9.355168
_cell_length_b 24.429426
_cell_length_c 9.321691
_cell_angle_alpha 42.007535
_cell_angle_beta 82.543056
_cell_angle_gamma 48.397502
_cell_volume 732.556063
_symmetry_space_group_name_H-M "P -1"
_symmetry_group_IT_number 2
_symmetry_cell_setting 'triclinic'
loop_
_space_group_symop_operation_xyz
x,y,z
-x,-y,-z
loop_
_atom_site_type_symbol
_atom_site_label
_atom_site_fract_x
_atom_site_fract_y
_atom_site_fract_z
Si Si1 0.263156 0.862033 0.340285
Si Si2 0.181658 0.840121 0.718380
Si Si3 0.657993 0.579910 0.384721
Si Si4 0.254529 0.283523 0.789291
Si Si5 0.397261 0.144722 0.729834
Si Si6 0.040594 0.716043 0.659454
Si Si7 0.444611 0.624005 0.608350
Si Si8 0.717152 0.956050 0.487098
O O1 0.206590 0.849153 0.528021
O O2 0.388537 0.891638 0.285258
O O3 0.455849 0.704479 0.535540
O O4 0.000000 0.000000 0.000000
O O5 0.992086 0.850984 0.738672
O O6 0.475481 0.687796 0.057488
O O7 0.000000 0.000000 0.500000
O O8 0.744727 0.619308 0.385305
O O9 0.465933 0.624950 0.434136
O O10 0.955925 0.396550 0.663574
O O11 0.311678 0.218280 0.753865
O O12 0.522456 0.128189 0.148894
O O13 0.127187 0.274513 0.412163
O O14 0.500000 0.000000 0.000000
O O15 0.168202 0.713892 0.527049
O O16 0.831367 0.864423 0.502246
O O17 0.296177 0.557172 0.025758
O O18 0.500000 0.000000 0.500000
#
# Coordination Sequence:
#
# PCOD9063973 Si02
#       8
#     2   2   2   2   2   2   2   2
#     4  12  25  46  74  99 144 190 238 301 352 423
#     4  12  26  44  72 108 137 191 250 287 356 442
#     4  11  25  46  74 104 144 190 241 298 359 430
#     4  11  24  45  68 106 147 183 237 298 362 432
#     4  12  25  43  72 107 138 185 241 294 357 431
#     4  11  26  44  71 106 143 184 246 295 361 430
#     4  11  24  48  72 100 143 193 236 301 358 421
#     4  12  25  46  67 102 150 189 232 301 367 423
#
# _framework density 21.841329000000002
#
# number of rings (size 3 to 8) (size 9 to 14) (size 15 to 20)
#    0.000    0.500    5.000    3.000    3.500    3.500 
#    0.000    1.875    0.000    0.000    0.000    0.000 
#    0.000    0.000    0.000    0.000    0.000    0.000 
#
# Total GULP energy -89420.383129 kJ/mol
# GULP energy per Si atom -5588.773946 kJ/mol
# Density = 2.179162 g / cm^3
# Si number density = 21.841329 Si / 1000 Ang^3
#
#
#
# Elastic Constant Matrix: (Units=GPa)
#
#
# Indices 1 2 3 4 5 6 
#
# 1 132.5011 34.1827 13.6782 7.2262 13.2382 -14.5362
# 2 34.1827 125.9170 47.6990 5.4259 5.3849 -23.4719
# 3 13.6782 47.6990 68.0442 -3.0389 8.6227 -7.7484
# 4 7.2262 5.4259 -3.0389 34.6988 2.7833 0.0594
# 5 13.2382 5.3849 8.6227 2.7833 34.2998 3.9285
# 6 -14.5362 -23.4719 -7.7484 0.0594 3.9285 33.8809
#
#
#
# Elastic Compliance Matrix: (Units=1/GPa)
#
#
# Indices 1 2 3 4 5 6 
#
# 1 0.008696 -0.001645 0.000118 -0.001278 -0.003369 0.003011
# 2 -0.001645 0.012660 -0.007955 -0.002354 0.000124 0.006235
# 3 0.000118 -0.007955 0.020927 0.003398 -0.004312 -0.000181
# 4 -0.001278 -0.002354 0.003398 0.029937 -0.002284 -0.001190
# 5 -0.003369 0.000124 -0.004312 -0.002284 0.032403 -0.006099
# 6 0.003011 0.006235 -0.000181 -0.001190 -0.006099 0.035795
#
#
# Mechanical properties :
#
#
# Convention : Reuss Voigt Hill
#
# Bulk Modulus (GPa) = 42.88405 57.50911 50.19658
# Shear Modulus (GPa) = 29.91236 35.96940 32.94088
#
# Velocity S-wave (km/s) = 3.70473 4.06254 3.88776
# Velocity P-wave (km/s) = 6.16255 6.95653 6.57154
#
# Compressibility (1/GPa) = 0.02331869
#
# Stress axis : x y z
#
# Youngs Moduli (GPa) = 114.99640 78.98770 47.78560
#
# Poissons Ratio (x) = 0.12992 -0.00562
# Poissons Ratio (y) = 0.18915 0.38013
# Poissons Ratio (z) = -0.01353 0.62834
#
# Static dielectric constant tensor:
#      x y z
#    x 1.853890 -0.023480 -0.037770 
#    y -0.023480 1.819190 0.019140 
#    z -0.037770 0.019140 1.857680 
# 
# From -- ./inp_files/225962.got.cif
#   From: 2010.05.17/outbox.cif.g08.bks.cpg/sg2_113_cif.got.tgz:225962.got - 2010.06.03 11:33:40.
