data_PCOD9063739
_publ_section_title
;
Structure prediction by ZEFSAII (Michael W. Deem and Ramdas Pophale) SiO2 
 PCOD9063739
Probable space group: P -1
;
_chemical_formula_sum "Si O2"
_cell_formula_units_Z 15
_cell_length_a 8.910977
_cell_length_b 12.065499
_cell_length_c 13.514930
_cell_angle_alpha 35.305719
_cell_angle_beta 119.728901
_cell_angle_gamma 121.093161
_cell_volume 710.946320
_symmetry_space_group_name_H-M "P -1"
_symmetry_group_IT_number 2
_symmetry_cell_setting 'triclinic'
loop_
_space_group_symop_operation_xyz
x,y,z
-x,-y,-z
loop_
_atom_site_type_symbol
_atom_site_label
_atom_site_fract_x
_atom_site_fract_y
_atom_site_fract_z
Si Si1 0.190533 0.970307 0.611369
Si Si2 0.241881 0.264936 0.050879
Si Si3 0.532227 0.281273 0.476437
Si Si4 0.602280 0.276623 0.274953
Si Si5 0.354595 0.914093 0.155995
Si Si6 0.551089 0.307034 0.835770
Si Si7 0.000000 0.000000 0.000000
Si Si8 0.083693 0.684599 0.960274
O O1 0.266322 0.834982 0.656545
O O2 0.174188 0.864693 0.788539
O O3 0.329071 0.176472 0.506147
O O4 0.000000 0.000000 0.500000
O O5 0.316299 0.489522 0.876108
O O6 0.157903 0.119403 0.040972
O O7 0.412286 0.221727 0.196562
O O8 0.079846 0.263880 0.072853
O O9 0.579211 0.232741 0.415578
O O10 0.636137 0.184788 0.662358
O O11 0.546882 0.513647 0.323257
O O12 0.449328 0.789692 0.201510
O O13 0.459401 0.137720 0.006026
O O14 0.150230 0.898762 0.071808
O O15 0.757577 0.371172 0.885357
O O16 0.000000 0.500000 0.000000
#
# Coordination Sequence:
#
# PCOD9063739 Si02
#       8
#     2   2   2   2   2   2   1   2
#     4  12  25  40  66 107 142 179 239 304 359 425
#     4  11  24  44  73 105 143 198 245 294 369 434
#     4  12  25  45  73 106 142 189 243 302 364 434
#     4  11  25  46  70 103 150 190 237 306 368 431
#     4  11  25  47  71 102 148 191 243 289 370 440
#     4  11  24  47  70 103 140 193 236 299 366 430
#     4  12  24  42  72 104 146 192 238 304 352 442
#     4  12  22  43  72 101 138 186 242 299 354 428
#
# _framework density 21.098641000000001
#
# number of rings (size 3 to 8) (size 9 to 14) (size 15 to 20)
#    0.000    0.533    4.000    4.800    1.867    1.067 
#    0.000    2.667    0.000    0.000    0.000    0.000 
#    0.000    0.000    0.000    0.000    0.000    0.000 
#
# Total GULP energy -83637.962823 kJ/mol
# GULP energy per Si atom -5575.864188 kJ/mol
# Density = 2.105062 g / cm^3
# Si number density = 21.098641 Si / 1000 Ang^3
#
#
#
# Elastic Constant Matrix: (Units=GPa)
#
#
# Indices 1 2 3 4 5 6 
#
# 1 143.1358 37.0046 51.1927 13.9686 8.2482 3.3950
# 2 37.0046 117.3753 49.9629 1.1014 3.3596 -5.0217
# 3 51.1927 49.9629 122.0544 -6.0327 -1.7647 7.0540
# 4 13.9686 1.1014 -6.0327 27.7456 -1.6904 6.7642
# 5 8.2482 3.3596 -1.7647 -1.6904 44.5111 5.3690
# 6 3.3950 -5.0217 7.0540 6.7642 5.3690 30.0141
#
#
#
# Elastic Compliance Matrix: (Units=1/GPa)
#
#
# Indices 1 2 3 4 5 6 
#
# 1 0.009334 -0.001119 -0.003865 -0.005971 -0.002194 0.001404
# 2 -0.001119 0.010915 -0.004312 -0.001762 -0.001288 0.003594
# 3 -0.003865 -0.004312 0.012202 0.006121 0.002355 -0.004953
# 4 -0.005971 -0.001762 0.006121 0.043576 0.004547 -0.011692
# 5 -0.002194 -0.001288 0.002355 0.004547 0.023939 -0.005828
# 6 0.001404 0.003594 -0.004953 -0.011692 -0.005828 0.038602
#
#
# Mechanical properties :
#
#
# Convention : Reuss Voigt Hill
#
# Bulk Modulus (GPa) = 72.15321 73.20954 72.68137
# Shear Modulus (GPa) = 30.90628 36.74786 33.82707
#
# Velocity S-wave (km/s) = 3.83148 4.17792 4.00844
# Velocity P-wave (km/s) = 7.33798 7.61888 7.47975
#
# Compressibility (1/GPa) = 0.01385940
#
# Stress axis : x y z
#
# Youngs Moduli (GPa) = 107.13881 91.61604 81.95244
#
# Poissons Ratio (x) = 0.10248 0.31673
# Poissons Ratio (y) = 0.11984 0.35341
# Poissons Ratio (z) = 0.41408 0.39508
#
# Static dielectric constant tensor:
#      x y z
#    x 1.614660 -0.018940 -0.031790 
#    y -0.018940 1.784650 -0.008490 
#    z -0.031790 -0.008490 1.773120 
# 
# From -- ./inp_files/388944.got.cif
#   From: 2010.05.17/outbox.cif.g08.bks.cpg/sg2_195_cif.got.tgz:388944.got - 2010.06.03 11:33:40.
