data_PCOD9063820
_publ_section_title
;
Structure prediction by ZEFSAII (Michael W. Deem and Ramdas Pophale) SiO2 
 PCOD9063820
Probable space group: P -1
;
_chemical_formula_sum "Si O2"
_cell_formula_units_Z 16
_cell_length_a 9.862799
_cell_length_b 13.290871
_cell_length_c 8.472440
_cell_angle_alpha 65.965312
_cell_angle_beta 77.078261
_cell_angle_gamma 127.303093
_cell_volume 614.804346
_symmetry_space_group_name_H-M "P -1"
_symmetry_group_IT_number 2
_symmetry_cell_setting 'triclinic'
loop_
_space_group_symop_operation_xyz
x,y,z
-x,-y,-z
loop_
_atom_site_type_symbol
_atom_site_label
_atom_site_fract_x
_atom_site_fract_y
_atom_site_fract_z
Si Si1 0.164287 0.073703 0.079697
Si Si2 0.764229 0.672718 0.514133
Si Si3 0.176739 0.420592 0.132437
Si Si4 0.399699 0.909403 0.910188
Si Si5 0.028327 0.509909 0.673271
Si Si6 0.607401 0.833646 0.731179
Si Si7 0.872027 0.087903 0.207457
Si Si8 0.446586 0.641596 0.443856
O O1 0.264500 0.155703 0.175232
O O2 0.014989 0.088418 0.069800
O O3 0.374753 0.198354 0.828976
O O4 0.004886 0.870687 0.279874
O O5 0.751015 0.626457 0.727800
O O6 0.581140 0.649205 0.525528
O O7 0.708919 0.534288 0.508629
O O8 0.015302 0.402980 0.282811
O O9 0.045012 0.281414 0.114622
O O10 0.380401 0.625065 0.897904
O O11 0.559420 0.924357 0.763840
O O12 0.724648 0.379099 0.425084
O O13 0.168598 0.697440 0.106257
O O14 0.500000 0.000000 0.000000
O O15 0.000000 0.500000 0.500000
O O16 0.757303 0.948380 0.467252
O O17 0.676983 0.030327 0.203020
#
# Coordination Sequence:
#
# PCOD9063820 Si02
#       8
#     2   2   2   2   2   2   2   2
#     4  12  26  47  74 114 154 206 257 310 380 458
#     4  11  24  44  74 110 156 199 252 318 376 451
#     4  11  25  50  78 106 156 202 258 316 378 461
#     4  11  29  51  80 113 153 198 257 324 385 454
#     4  11  24  47  76 115 147 201 256 316 384 449
#     4  11  25  50  76 114 153 201 254 314 382 454
#     4  12  29  51  77 113 155 207 255 309 390 458
#     4  11  25  46  72 115 159 199 256 320 386 438
#
# _framework density 26.024538
#
# number of rings (size 3 to 8) (size 9 to 14) (size 15 to 20)
#    0.000    0.750    3.750    1.875    7.000    5.500 
#    4.500    0.625    0.000    0.000    0.000    0.000 
#    0.000    0.000    0.000    0.000    0.000    0.000 
#
# Total GULP energy -89852.472225 kJ/mol
# GULP energy per Si atom -5615.779514 kJ/mol
# Density = 2.596530 g / cm^3
# Si number density = 26.024538 Si / 1000 Ang^3
#
#
#
# Elastic Constant Matrix: (Units=GPa)
#
#
# Indices 1 2 3 4 5 6 
#
# 1 117.2343 24.5264 41.4435 0.7760 -2.3019 20.0904
# 2 24.5264 166.9695 43.7461 -36.0948 -3.8916 -3.2407
# 3 41.4435 43.7461 104.6460 -8.9917 -8.3978 -4.1988
# 4 0.7760 -36.0948 -8.9917 47.9144 8.3775 1.3058
# 5 -2.3019 -3.8916 -8.3978 8.3775 42.0528 11.6929
# 6 20.0904 -3.2407 -4.1988 1.3058 11.6929 45.1935
#
#
#
# Elastic Compliance Matrix: (Units=1/GPa)
#
#
# Indices 1 2 3 4 5 6 
#
# 1 0.011326 -0.001015 -0.004326 -0.001892 0.001677 -0.005889
# 2 -0.001015 0.008040 -0.002523 0.005789 -0.001231 0.000944
# 3 -0.004326 -0.002523 0.012549 0.000232 0.001275 0.002571
# 4 -0.001892 0.005789 0.000232 0.026174 -0.005259 0.001882
# 5 0.001677 -0.001231 0.001275 -0.005259 0.027171 -0.007593
# 6 -0.005889 0.000944 0.002571 0.001882 -0.007593 0.026962
#
#
# Mechanical properties :
#
#
# Convention : Reuss Voigt Hill
#
# Bulk Modulus (GPa) = 61.76930 67.58686 64.67808
# Shear Modulus (GPa) = 37.49681 45.64106 41.56894
#
# Velocity S-wave (km/s) = 3.79994 4.19235 4.00096
# Velocity P-wave (km/s) = 6.56043 7.03286 6.80075
#
# Compressibility (1/GPa) = 0.01618927
#
# Stress axis : x y z
#
# Youngs Moduli (GPa) = 88.29305 124.37344 79.68690
#
# Poissons Ratio (x) = 0.12619 0.34470
# Poissons Ratio (y) = 0.08958 0.20103
# Poissons Ratio (z) = 0.38192 0.31377
#
# Static dielectric constant tensor:
#      x y z
#    x 2.054240 -0.003950 0.004060 
#    y -0.003950 2.049900 -0.022890 
#    z 0.004060 -0.022890 2.048790 
# 
# From -- ./inp_files/313115.got.cif
#   From: 2010.05.17/outbox.cif.g08.bks.cpg/sg2_157_cif.got.tgz:313115.got - 2010.06.03 11:33:40.
