data_PCOD9063204
_publ_section_title
;
Structure prediction by ZEFSAII (Michael W. Deem and Ramdas Pophale) SiO2 
 PCOD9063204
Probable space group: P -1
;
_chemical_formula_sum "Si O2"
_cell_formula_units_Z 14
_cell_length_a 18.607056
_cell_length_b 12.944950
_cell_length_c 9.149990
_cell_angle_alpha 130.269481
_cell_angle_beta 37.178598
_cell_angle_gamma 151.788396
_cell_volume 617.505998
_symmetry_space_group_name_H-M "P -1"
_symmetry_group_IT_number 2
_symmetry_cell_setting 'triclinic'
loop_
_space_group_symop_operation_xyz
x,y,z
-x,-y,-z
loop_
_atom_site_type_symbol
_atom_site_label
_atom_site_fract_x
_atom_site_fract_y
_atom_site_fract_z
Si Si1 0.960332 0.802989 0.707609
Si Si2 0.690488 0.768280 0.941981
Si Si3 0.612616 0.993625 0.412118
Si Si4 0.640467 0.205305 0.070342
Si Si5 0.259821 0.415940 0.860292
Si Si6 0.040246 0.499207 0.604422
Si Si7 0.688364 0.764807 0.605359
O O1 0.851181 0.824195 0.817829
O O2 0.875606 0.577867 0.599042
O O3 0.921010 0.779914 0.922151
O O4 0.189330 0.020732 0.497123
O O5 0.743610 0.837423 0.749165
O O6 0.500000 0.500000 0.000000
O O7 0.645470 0.873316 0.183582
O O8 0.482185 0.870075 0.656967
O O9 0.500000 0.000000 0.500000
O O10 0.817222 0.253995 0.348231
O O11 0.716485 0.408574 0.056251
O O12 0.845993 0.313552 0.849765
O O13 0.500000 0.000000 0.000000
O O14 0.456312 0.560326 0.766265
O O15 0.253580 0.327162 0.639969
O O16 0.000000 0.500000 0.500000
#
# Coordination Sequence:
#
# PCOD9063204 Si02
#       7
#     2   2   2   2   2   2   2
#     4  12  25  45  74 104 146 181 246 301 357 431
#     4  12  26  50  73 103 151 194 240 301 368 436
#     4  12  30  50  75 111 151 195 246 306 370 440
#     4  12  25  46  78 105 148 194 246 302 372 433
#     4  11  24  43  72 107 139 185 249 299 355 430
#     4  12  26  48  76 111 147 193 246 302 370 438
#     4  11  26  44  71 103 144 194 234 300 367 425
#
# _framework density 22.671845999999999
#
# number of rings (size 3 to 8) (size 9 to 14) (size 15 to 20)
#    0.000    0.286    4.286    3.429    8.000    0.571 
#    2.571    0.000    0.000    0.000    0.000    0.000 
#    0.000    0.000    0.000    0.000    0.000    0.000 
#
# Total GULP energy -78332.727104 kJ/mol
# GULP energy per Si atom -5595.194793 kJ/mol
# Density = 2.262024 g / cm^3
# Si number density = 22.671846 Si / 1000 Ang^3
#
#
#
# Elastic Constant Matrix: (Units=GPa)
#
#
# Indices 1 2 3 4 5 6 
#
# 1 84.5837 29.6885 56.6251 17.7571 8.2084 -6.2590
# 2 29.6885 148.5288 66.3881 12.8371 -3.0950 -1.3255
# 3 56.6251 66.3881 179.7851 19.0676 21.0569 -11.1623
# 4 17.7571 12.8371 19.0676 58.4486 -13.7988 -0.8911
# 5 8.2084 -3.0950 21.0569 -13.7988 36.0664 0.5383
# 6 -6.2590 -1.3255 -11.1623 -0.8911 0.5383 35.2981
#
#
#
# Elastic Compliance Matrix: (Units=1/GPa)
#
#
# Indices 1 2 3 4 5 6 
#
# 1 0.016014 -0.001258 -0.003667 -0.004127 -0.003214 0.001578
# 2 -0.001258 0.008421 -0.003143 0.000240 0.002950 -0.000940
# 3 -0.003667 -0.003143 0.008914 -0.002391 -0.005585 0.002076
# 4 -0.004127 0.000240 -0.002391 0.021583 0.010630 -0.001096
# 5 -0.003214 0.002950 -0.005585 0.010630 0.036076 -0.002507
# 6 0.001578 -0.000940 0.002076 -0.001096 -0.002507 0.029241
#
#
# Mechanical properties :
#
#
# Convention : Reuss Voigt Hill
#
# Bulk Modulus (GPa) = 58.09215 79.81123 68.95169
# Shear Modulus (GPa) = 35.18045 43.30902 39.24474
#
# Velocity S-wave (km/s) = 3.94347 4.37539 4.16503
# Velocity P-wave (km/s) = 6.81273 7.79773 7.32181
#
# Compressibility (1/GPa) = 0.01721403
#
# Stress axis : x y z
#
# Youngs Moduli (GPa) = 62.44403 118.74816 112.18011
#
# Poissons Ratio (x) = 0.14939 0.41138
# Poissons Ratio (y) = 0.07856 0.35254
# Poissons Ratio (z) = 0.22899 0.37318
#
# Static dielectric constant tensor:
#      x y z
#    x 1.874610 0.005290 -0.054860 
#    y 0.005290 1.809340 -0.006200 
#    z -0.054860 -0.006200 1.920220 
# 
# From -- ./inp_files/332817.got.cif
#   From: 2010.05.17/outbox.cif.g08.bks.cpg/sg2_167_cif.got.tgz:332817.got - 2010.06.03 11:33:40.
