data_PCOD9063674
_publ_section_title
;
Structure prediction by ZEFSAII (Michael W. Deem and Ramdas Pophale) SiO2 
 PCOD9063674
Probable space group: P -1
;
_chemical_formula_sum "Si O2"
_cell_formula_units_Z 15
_cell_length_a 21.268805
_cell_length_b 9.564068
_cell_length_c 10.531753
_cell_angle_alpha 46.294169
_cell_angle_beta 36.335517
_cell_angle_gamma 30.559931
_cell_volume 645.365287
_symmetry_space_group_name_H-M "P -1"
_symmetry_group_IT_number 2
_symmetry_cell_setting 'triclinic'
loop_
_space_group_symop_operation_xyz
x,y,z
-x,-y,-z
loop_
_atom_site_type_symbol
_atom_site_label
_atom_site_fract_x
_atom_site_fract_y
_atom_site_fract_z
Si Si1 0.519648 0.544321 0.584114
Si Si2 0.067428 0.541050 0.202279
Si Si3 0.398918 0.182440 0.175310
Si Si4 0.585960 0.895063 0.292745
Si Si5 0.104690 0.269448 0.079415
Si Si6 0.790744 0.194984 0.965819
Si Si7 0.000000 0.000000 0.000000
Si Si8 0.231414 0.066832 0.437917
O O1 0.500000 0.500000 0.500000
O O2 0.585479 0.670404 0.401876
O O3 0.357927 0.732999 0.795115
O O4 0.646208 0.234382 0.629253
O O5 0.162972 0.308681 0.298410
O O6 0.915262 0.846240 0.316400
O O7 0.028713 0.422588 0.241450
O O8 0.130842 0.657580 0.974568
O O9 0.309574 0.098392 0.396478
O O10 0.497976 0.103624 0.185705
O O11 0.279957 0.504906 0.139273
O O12 0.500000 0.000000 0.000000
O O13 0.739455 0.813961 0.110735
O O14 0.500000 0.000000 0.500000
O O15 0.138074 0.009217 0.142593
O O16 0.000000 0.500000 0.000000
O O17 0.909100 0.057563 0.973972
#
# Coordination Sequence:
#
# PCOD9063674 Si02
#       8
#     2   2   2   2   2   2   1   2
#     4  12  24  43  75 104 140 186 247 298 361 421
#     4  11  26  44  71 103 144 191 237 299 359 441
#     4  12  24  45  75 108 143 185 249 307 362 422
#     4  12  28  47  74 108 146 190 242 303 368 437
#     4  12  28  47  71 102 153 190 234 293 375 435
#     4  12  26  45  73 108 141 198 238 307 363 440
#     4  12  24  42  74 102 140 188 256 278 370 420
#     4  11  24  44  72 105 142 182 246 304 354 421
#
# _framework density 23.242650999999999
#
# number of rings (size 3 to 8) (size 9 to 14) (size 15 to 20)
#    0.000    0.267    6.667    1.600    5.600    1.600 
#    0.000    0.667    0.000    0.000    0.000    0.000 
#    0.000    0.000    0.000    0.000    0.000    0.000 
#
# Total GULP energy -83645.482553 kJ/mol
# GULP energy per Si atom -5576.365504 kJ/mol
# Density = 2.318975 g / cm^3
# Si number density = 23.242651 Si / 1000 Ang^3
#
#
#
# Elastic Constant Matrix: (Units=GPa)
#
#
# Indices 1 2 3 4 5 6 
#
# 1 157.0574 62.2682 16.3874 -0.4086 -5.2029 -4.5612
# 2 62.2682 126.6356 13.0459 -20.1503 9.0201 17.4746
# 3 16.3874 13.0459 50.8366 14.9010 -10.3162 -5.3420
# 4 -0.4086 -20.1503 14.9010 40.6577 -2.0712 0.0747
# 5 -5.2029 9.0201 -10.3162 -2.0712 37.4105 -1.5595
# 6 -4.5612 17.4746 -5.3420 0.0747 -1.5595 52.8946
#
#
#
# Elastic Compliance Matrix: (Units=1/GPa)
#
#
# Indices 1 2 3 4 5 6 
#
# 1 0.008523 -0.005063 -0.000033 -0.002295 0.002373 0.002478
# 2 -0.005063 0.013557 -0.006072 0.008628 -0.005407 -0.005700
# 3 -0.000033 -0.006072 0.027160 -0.012542 0.008464 0.005013
# 4 -0.002295 0.008628 -0.012542 0.033239 -0.004205 -0.004486
# 5 0.002373 -0.005407 0.008464 -0.004205 0.030622 0.003755
# 6 0.002478 -0.005700 0.005013 -0.004486 0.003755 0.021626
#
#
# Mechanical properties :
#
#
# Convention : Reuss Voigt Hill
#
# Bulk Modulus (GPa) = 37.17156 57.54806 47.35981
# Shear Modulus (GPa) = 30.11484 42.38112 36.24798
#
# Velocity S-wave (km/s) = 3.60345 4.27478 3.95339
# Velocity P-wave (km/s) = 5.77414 7.01274 6.42336
#
# Compressibility (1/GPa) = 0.02690229
#
# Stress axis : x y z
#
# Youngs Moduli (GPa) = 117.33465 73.76498 36.81834
#
# Poissons Ratio (x) = 0.37350 0.00122
# Poissons Ratio (y) = 0.59411 0.22356
# Poissons Ratio (z) = 0.00390 0.44790
#
# Static dielectric constant tensor:
#      x y z
#    x 1.829300 -0.014900 0.172260 
#    y -0.014900 1.864020 0.262750 
#    z 0.172260 0.262750 1.336060 
# 
# From -- ./inp_files/346003.got.cif
#   From: 2010.05.17/outbox.cif.g08.bks.cpg/sg2_174_cif.got.tgz:346003.got - 2010.06.03 11:33:40.
