data_PCOD9063981
_publ_section_title
;
Structure prediction by ZEFSAII (Michael W. Deem and Ramdas Pophale) SiO2 
 PCOD9063981
Probable space group: P -1
;
_chemical_formula_sum "Si O2"
_cell_formula_units_Z 16
_cell_length_a 12.253546
_cell_length_b 8.977388
_cell_length_c 9.472645
_cell_angle_alpha 64.773390
_cell_angle_beta 120.141360
_cell_angle_gamma 118.668179
_cell_volume 766.732243
_symmetry_space_group_name_H-M "P -1"
_symmetry_group_IT_number 2
_symmetry_cell_setting 'triclinic'
loop_
_space_group_symop_operation_xyz
x,y,z
-x,-y,-z
loop_
_atom_site_type_symbol
_atom_site_label
_atom_site_fract_x
_atom_site_fract_y
_atom_site_fract_z
Si Si1 0.394263 0.304825 0.993964
Si Si2 0.603342 0.921407 0.170976
Si Si3 0.143428 0.750132 0.709467
Si Si4 0.101498 0.228382 0.274655
Si Si5 0.136988 0.370076 0.925752
Si Si6 0.400360 0.308070 0.491171
Si Si7 0.398589 0.079437 0.329626
Si Si8 0.107698 0.859984 0.329250
O O1 0.377630 0.229490 0.855975
O O2 0.254719 0.306291 0.968203
O O3 0.500000 0.500000 0.000000
O O4 0.435675 0.160276 0.167406
O O5 0.557697 0.824470 0.328803
O O6 0.739682 0.079517 0.226790
O O7 0.500000 0.000000 0.000000
O O8 0.174013 0.575097 0.836672
O O9 0.128841 0.767475 0.524517
O O10 0.008723 0.744000 0.705834
O O11 0.245139 0.285855 0.423172
O O12 0.067738 0.025729 0.289148
O O13 0.115857 0.331560 0.094332
O O14 0.003031 0.264821 0.794728
O O15 0.500000 0.500000 0.500000
O O16 0.403497 0.246874 0.358558
O O17 0.500000 0.000000 0.500000
O O18 0.248594 0.942378 0.304872
#
# Coordination Sequence:
#
# PCOD9063981 Si02
#       8
#     2   2   2   2   2   2   2   2
#     4  12  26  44  71 100 134 179 222 277 336 398
#     4  12  26  44  71 100 134 179 222 277 336 398
#     4  12  26  45  69 101 137 175 228 278 334 402
#     4  11  24  46  70  97 136 178 226 278 334 399
#     4  12  26  45  69 101 137 175 228 278 334 402
#     4  11  24  45  68  98 134 174 222 275 334 400
#     4  11  24  45  68  98 134 174 222 275 334 400
#     4  11  24  46  70  97 136 178 226 278 334 399
#
# _framework density 20.867778999999999
#
# number of rings (size 3 to 8) (size 9 to 14) (size 15 to 20)
#    0.000    0.500    5.000    4.500    7.000    1.000 
#    0.000    0.000    0.000    0.000    0.000    0.000 
#    0.000    0.000    0.000    0.000    0.000    0.000 
#
# Total GULP energy -89528.661707 kJ/mol
# GULP energy per Si atom -5595.541357 kJ/mol
# Density = 2.082028 g / cm^3
# Si number density = 20.867779 Si / 1000 Ang^3
#
#
#
# Elastic Constant Matrix: (Units=GPa)
#
#
# Indices 1 2 3 4 5 6 
#
# 1 54.0480 15.3882 11.7642 9.9544 6.0383 5.9872
# 2 15.3882 126.1545 38.0220 6.4430 6.4339 13.9082
# 3 11.7642 38.0220 122.5965 -8.6414 -3.6692 10.7698
# 4 9.9544 6.4430 -8.6414 45.2800 5.1673 9.8580
# 5 6.0383 6.4339 -3.6692 5.1673 34.4225 -2.6217
# 6 5.9872 13.9082 10.7698 9.8580 -2.6217 22.8744
#
#
#
# Elastic Compliance Matrix: (Units=1/GPa)
#
#
# Indices 1 2 3 4 5 6 
#
# 1 0.020581 -0.001373 -0.001688 -0.003745 -0.003162 -0.002506
# 2 -0.001373 0.009446 -0.002508 -0.000351 -0.002066 -0.004289
# 3 -0.001688 -0.002508 0.009705 0.003318 0.001003 -0.003918
# 4 -0.003745 -0.000351 0.003318 0.026717 -0.003873 -0.012327
# 5 -0.003162 -0.002066 0.001003 -0.003873 0.031202 0.006857
# 6 -0.002506 -0.004289 -0.003918 -0.012327 0.006857 0.054924
#
#
# Mechanical properties :
#
#
# Convention : Reuss Voigt Hill
#
# Bulk Modulus (GPa) = 34.97090 48.12753 41.54921
# Shear Modulus (GPa) = 28.86123 36.35702 32.60912
#
# Velocity S-wave (km/s) = 3.72298 4.17856 3.95733
# Velocity P-wave (km/s) = 5.93931 6.81129 6.39019
#
# Compressibility (1/GPa) = 0.02859520
#
# Stress axis : x y z
#
# Youngs Moduli (GPa) = 48.58876 105.86254 103.04382
#
# Poissons Ratio (x) = 0.14535 0.17389
# Poissons Ratio (y) = 0.06671 0.25841
# Poissons Ratio (z) = 0.08199 0.26547
#
# Static dielectric constant tensor:
#      x y z
#    x 1.754960 -0.007550 0.006720 
#    y -0.007550 1.699460 -0.007710 
#    z 0.006720 -0.007710 1.729930 
# 
# From -- ./inp_files/188771.got.cif
#   From: 2010.05.17/outbox.cif.g08.bks.cpg/sg2_95_cif.got.tgz:188771.got - 2010.06.03 11:33:40.
