data_PCOD9063227
_publ_section_title
;
Structure prediction by ZEFSAII (Michael W. Deem and Ramdas Pophale) SiO2 
 PCOD9063227
Probable space group: P -1
;
_chemical_formula_sum "Si O2"
_cell_formula_units_Z 12
_cell_length_a 9.786789
_cell_length_b 11.320936
_cell_length_c 7.564018
_cell_angle_alpha 136.293909
_cell_angle_beta 93.718139
_cell_angle_gamma 107.057504
_cell_volume 502.608518
_symmetry_space_group_name_H-M "P -1"
_symmetry_group_IT_number 2
_symmetry_cell_setting 'triclinic'
loop_
_space_group_symop_operation_xyz
x,y,z
-x,-y,-z
loop_
_atom_site_type_symbol
_atom_site_label
_atom_site_fract_x
_atom_site_fract_y
_atom_site_fract_z
Si Si1 0.873331 0.030553 0.623639
Si Si2 0.325810 0.821796 0.828196
Si Si3 0.682789 0.599335 0.090645
Si Si4 0.328935 0.452672 0.361935
Si Si5 0.003562 0.803368 0.822973
Si Si6 0.332529 0.801399 0.233427
O O1 0.785303 0.127865 0.621657
O O2 0.757310 0.804564 0.427318
O O3 0.000000 0.000000 0.500000
O O4 0.956872 0.183090 0.952511
O O5 0.334539 0.654738 0.537637
O O6 0.159142 0.813501 0.760849
O O7 0.322635 0.790222 0.006043
O O8 0.500000 0.000000 0.000000
O O9 0.706665 0.658728 0.948547
O O10 0.713926 0.419104 0.945806
O O11 0.500000 0.500000 0.000000
O O12 0.500000 0.500000 0.500000
O O13 0.180163 0.359286 0.383394
O O14 0.000000 0.000000 0.000000
O O15 0.500000 0.000000 0.500000
#
# Coordination Sequence:
#
# PCOD9063227 Si02
#       6
#     2   2   2   2   2   2
#     4  11  25  47  68 103 141 177 233 287 351 409
#     4  11  25  45  69 102 142 180 232 286 351 415
#     4  12  25  44  75 102 138 184 236 286 346 421
#     4  12  26  45  71 102 139 184 232 286 355 412
#     4  11  26  45  69 101 140 182 229 289 346 416
#     4  11  24  43  73 101 137 184 233 284 344 415
#
# _framework density 23.875440000000001
#
# number of rings (size 3 to 8) (size 9 to 14) (size 15 to 20)
#    0.000    0.667    3.333    3.500    7.000    3.333 
#    0.000    0.000    0.000    0.000    0.000    0.000 
#    0.000    0.000    0.000    0.000    0.000    0.000 
#
# Total GULP energy -66828.550199 kJ/mol
# GULP energy per Si atom -5569.045850 kJ/mol
# Density = 2.382110 g / cm^3
# Si number density = 23.875440 Si / 1000 Ang^3
#
#
#
# Elastic Constant Matrix: (Units=GPa)
#
#
# Indices 1 2 3 4 5 6 
#
# 1 220.9723 29.2202 25.4998 21.4373 -2.1102 2.1819
# 2 29.2202 56.9249 -2.1907 4.7215 7.9081 -2.5080
# 3 25.4998 -2.1907 68.3945 13.6974 7.4253 -1.6878
# 4 21.4373 4.7215 13.6974 53.5208 4.3070 -2.1030
# 5 -2.1102 7.9081 7.4253 4.3070 44.5438 13.1587
# 6 2.1819 -2.5080 -1.6878 -2.1030 13.1587 40.2145
#
#
#
# Elastic Compliance Matrix: (Units=1/GPa)
#
#
# Indices 1 2 3 4 5 6 
#
# 1 0.005319 -0.002951 -0.001971 -0.001540 0.001595 -0.001158
# 2 -0.002951 0.020064 0.002500 -0.000706 -0.004968 0.003105
# 3 -0.001971 0.002500 0.016530 -0.003300 -0.003548 0.001945
# 4 -0.001540 -0.000706 -0.003300 0.020417 -0.001835 0.001569
# 5 0.001595 -0.004968 -0.003548 -0.001835 0.026973 -0.009467
# 6 -0.001158 0.003105 0.001945 0.001569 -0.009467 0.028385
#
#
# Mechanical properties :
#
#
# Convention : Reuss Voigt Hill
#
# Bulk Modulus (GPa) = 26.97694 50.15004 38.56349
# Shear Modulus (GPa) = 37.06776 47.23996 42.15386
#
# Velocity S-wave (km/s) = 3.94451 4.45297 4.20643
# Velocity P-wave (km/s) = 5.66296 6.89123 6.30707
#
# Compressibility (1/GPa) = 0.03706870
#
# Stress axis : x y z
#
# Youngs Moduli (GPa) = 187.99772 49.84152 60.49564
#
# Poissons Ratio (x) = 0.14709 0.11925
# Poissons Ratio (y) = 0.55483 -0.15126
# Poissons Ratio (z) = 0.37057 -0.12462
#
# Static dielectric constant tensor:
#      x y z
#    x 2.761950 0.938680 -0.663400 
#    y 0.938680 3.048920 -1.031100 
#    z -0.663400 -1.031100 3.353350 
# 
# From -- ./inp_files/146932.got.cif
#   From: 2010.05.17/outbox.cif.g08.bks.cpg/sg2_74_cif.got.tgz:146932.got - 2010.06.03 11:33:40.
