data_PCOD9063535
_publ_section_title
;
Structure prediction by ZEFSAII (Michael W. Deem and Ramdas Pophale) SiO2 
 PCOD9063535
Probable space group: P -1
;
_chemical_formula_sum "Si O2"
_cell_formula_units_Z 16
_cell_length_a 9.449170
_cell_length_b 21.387998
_cell_length_c 12.711463
_cell_angle_alpha 141.746740
_cell_angle_beta 47.626352
_cell_angle_gamma 151.642194
_cell_volume 754.197463
_symmetry_space_group_name_H-M "P -1"
_symmetry_group_IT_number 2
_symmetry_cell_setting 'triclinic'
loop_
_space_group_symop_operation_xyz
x,y,z
-x,-y,-z
loop_
_atom_site_type_symbol
_atom_site_label
_atom_site_fract_x
_atom_site_fract_y
_atom_site_fract_z
Si Si1 0.216031 0.734606 0.459545
Si Si2 0.282065 0.321031 0.627348
Si Si3 0.808745 0.865880 0.008480
Si Si4 0.052666 0.405660 0.370990
Si Si5 0.140696 0.862516 0.003148
Si Si6 0.772437 0.057146 0.382400
Si Si7 0.207831 0.166519 0.671131
Si Si8 0.191463 0.502365 0.836626
O O1 0.183951 0.841950 0.596545
O O2 0.516844 0.789323 0.363034
O O3 0.154686 0.702879 0.571123
O O4 0.971049 0.587348 0.310374
O O5 0.601466 0.457724 0.593084
O O6 0.305707 0.281960 0.679792
O O7 0.183790 0.397223 0.771425
O O8 0.052158 0.166496 0.465693
O O9 0.690573 0.913516 0.196785
O O10 0.521216 0.680247 0.882960
O O11 0.028699 0.887298 0.996427
O O12 0.000000 0.000000 0.000000
O O13 0.000000 0.500000 0.500000
O O14 0.986852 0.301146 0.172075
O O15 0.984938 0.849480 0.166881
O O16 0.500000 0.000000 0.000000
O O17 0.500000 0.000000 0.500000
O O18 0.000000 0.000000 0.500000
O O19 0.000000 0.500000 0.000000
#
# Coordination Sequence:
#
# PCOD9063535 Si02
#       8
#     2   2   2   2   2   2   2   2
#     4  11  25  44  76 100 140 191 235 294 361 429
#     4  11  25  44  75  99 143 184 238 293 356 432
#     4  12  26  45  70 105 144 183 238 296 358 418
#     4  12  26  46  69 107 141 185 244 293 359 418
#     4  12  28  47  72 105 145 186 241 297 355 432
#     4  11  24  44  70 102 138 185 231 286 355 428
#     4  12  25  48  77 108 142 188 238 296 367 429
#     4  11  25  46  71 106 144 187 241 300 357 432
#
# _framework density 21.214606
#
# number of rings (size 3 to 8) (size 9 to 14) (size 15 to 20)
#    0.000    0.500    2.500    6.000    3.500    4.500 
#    0.000    0.000    0.000    0.000    0.000    0.000 
#    0.000    0.000    0.000    0.000    0.000    0.000 
#
# Total GULP energy -89367.867303 kJ/mol
# GULP energy per Si atom -5585.491706 kJ/mol
# Density = 2.116632 g / cm^3
# Si number density = 21.214606 Si / 1000 Ang^3
#
#
#
# Elastic Constant Matrix: (Units=GPa)
#
#
# Indices 1 2 3 4 5 6 
#
# 1 112.2916 21.5011 42.0324 13.2192 -9.1652 7.4071
# 2 21.5011 85.2125 29.6484 8.1757 11.0631 12.4508
# 3 42.0324 29.6484 125.3517 7.9711 -16.7198 3.7299
# 4 13.2192 8.1757 7.9711 45.1532 0.8228 0.7883
# 5 -9.1652 11.0631 -16.7198 0.8228 26.5597 -1.4268
# 6 7.4071 12.4508 3.7299 0.7883 -1.4268 48.0177
#
#
#
# Elastic Compliance Matrix: (Units=1/GPa)
#
#
# Indices 1 2 3 4 5 6 
#
# 1 0.010815 -0.001827 -0.002634 -0.002408 0.002863 -0.000865
# 2 -0.001827 0.015624 -0.004217 -0.001303 -0.009952 -0.003716
# 3 -0.002634 -0.004217 0.010904 -0.000548 0.007776 0.000893
# 4 -0.002408 -0.001303 -0.000548 0.023203 -0.001334 0.000331
# 5 0.002863 -0.009952 0.007776 -0.001334 0.047881 0.002979
# 6 -0.000865 -0.003716 0.000893 0.000331 0.002979 0.021936
#
#
# Mechanical properties :
#
#
# Convention : Reuss Voigt Hill
#
# Bulk Modulus (GPa) = 50.03042 56.57996 53.30519
# Shear Modulus (GPa) = 32.38764 39.25770 35.82267
#
# Velocity S-wave (km/s) = 3.91150 4.30641 4.11370
# Velocity P-wave (km/s) = 6.63581 7.17322 6.90974
#
# Compressibility (1/GPa) = 0.01998784
#
# Stress axis : x y z
#
# Youngs Moduli (GPa) = 92.46229 64.00593 91.71365
#
# Poissons Ratio (x) = 0.11693 0.24154
# Poissons Ratio (y) = 0.16892 0.38673
# Poissons Ratio (z) = 0.24351 0.26989
#
# Static dielectric constant tensor:
#      x y z
#    x 1.755200 0.013180 0.004310 
#    y 0.013180 1.763750 -0.017880 
#    z 0.004310 -0.017880 1.772350 
# 
# From -- ./inp_files/346000.got.cif
#   From: 2010.05.17/outbox.cif.g08.bks.cpg/sg2_173_cif.got.tgz:346000.got - 2010.06.03 11:33:40.
