data_PCOD9063468
_publ_section_title
;
Structure prediction by ZEFSAII (Michael W. Deem and Ramdas Pophale) SiO2 
 PCOD9063468
Probable space group: P -1
;
_chemical_formula_sum "Si O2"
_cell_formula_units_Z 16
_cell_length_a 18.699131
_cell_length_b 12.186810
_cell_length_c 9.016028
_cell_angle_alpha 32.688200
_cell_angle_beta 42.470755
_cell_angle_gamma 44.651304
_cell_volume 725.739534
_symmetry_space_group_name_H-M "P -1"
_symmetry_group_IT_number 2
_symmetry_cell_setting 'triclinic'
loop_
_space_group_symop_operation_xyz
x,y,z
-x,-y,-z
loop_
_atom_site_type_symbol
_atom_site_label
_atom_site_fract_x
_atom_site_fract_y
_atom_site_fract_z
Si Si1 0.740692 0.248415 0.247420
Si Si2 0.426302 0.429822 0.315314
Si Si3 0.273942 0.194534 0.674402
Si Si4 0.974337 0.292325 0.345278
Si Si5 0.820179 0.082416 0.634596
Si Si6 0.399543 0.994808 0.423998
Si Si7 0.472628 0.395223 0.806801
Si Si8 0.907505 0.451058 0.593348
O O1 0.758708 0.197577 0.452068
O O2 0.640278 0.450767 0.139427
O O3 0.702493 0.059183 0.441657
O O4 0.842742 0.309691 0.945199
O O5 0.319212 0.377825 0.474791
O O6 0.425866 0.602137 0.244380
O O7 0.499789 0.207063 0.509792
O O8 0.500000 0.500000 0.000000
O O9 0.362716 0.065862 0.567647
O O10 0.171032 0.324541 0.590602
O O11 0.243689 0.042330 0.016995
O O12 0.872729 0.236222 0.479032
O O13 0.951431 0.334067 0.506479
O O14 0.077953 0.097301 0.381373
O O15 0.000000 0.500000 0.000000
O O16 0.444534 0.177087 0.075741
O O17 0.500000 0.500000 0.500000
O O18 0.000000 0.500000 0.500000
#
# Coordination Sequence:
#
# PCOD9063468 Si02
#       8
#     2   2   2   2   2   2   2   2
#     4  11  26  45  69 105 138 182 237 278 350 421
#     4  11  24  44  69 102 136 178 236 284 342 418
#     4  12  24  45  70 103 135 185 232 280 353 411
#     4  11  24  48  68  97 141 175 235 295 342 405
#     4  11  27  42  71 104 133 185 233 286 351 406
#     4  11  24  45  71 100 141 185 230 285 347 421
#     4  11  26  43  68 101 144 179 227 287 350 414
#     4  12  26  47  75  99 141 188 231 289 349 414
#
# _framework density 22.046478
#
# number of rings (size 3 to 8) (size 9 to 14) (size 15 to 20)
#    0.000    0.750    3.750    2.625    7.000    3.500 
#    0.000    0.000    0.000    0.000    0.000    0.000 
#    0.000    0.000    0.000    0.000    0.000    0.000 
#
# Total GULP energy -89514.099557 kJ/mol
# GULP energy per Si atom -5594.631222 kJ/mol
# Density = 2.199630 g / cm^3
# Si number density = 22.046478 Si / 1000 Ang^3
#
#
#
# Elastic Constant Matrix: (Units=GPa)
#
#
# Indices 1 2 3 4 5 6 
#
# 1 161.6543 23.1786 69.8402 -1.5311 -17.9554 11.7375
# 2 23.1786 60.6489 23.7612 1.2389 -7.1388 9.3991
# 3 69.8402 23.7612 199.0401 8.6720 -17.7661 16.5138
# 4 -1.5311 1.2389 8.6720 41.6344 4.2506 6.3131
# 5 -17.9554 -7.1388 -17.7661 4.2506 43.3449 -3.6701
# 6 11.7375 9.3991 16.5138 6.3131 -3.6701 33.0297
#
#
#
# Elastic Compliance Matrix: (Units=1/GPa)
#
#
# Indices 1 2 3 4 5 6 
#
# 1 0.007701 -0.001686 -0.002285 0.000786 0.001808 -0.001063
# 2 -0.001686 0.018363 -0.001144 0.000066 0.001520 -0.003898
# 3 -0.002285 -0.001144 0.006278 -0.001260 0.001426 -0.001602
# 4 0.000786 0.000066 -0.001260 0.025359 -0.003078 -0.004857
# 5 0.001808 0.001520 0.001426 -0.003078 0.025091 0.001588
# 6 -0.001063 -0.003898 -0.001602 -0.004857 0.001588 0.033668
#
#
# Mechanical properties :
#
#
# Convention : Reuss Voigt Hill
#
# Bulk Modulus (GPa) = 45.22908 72.76702 58.99805
# Shear Modulus (GPa) = 37.29657 43.90601 40.60129
#
# Velocity S-wave (km/s) = 4.11752 4.46749 4.29607
# Velocity P-wave (km/s) = 6.57002 7.72587 7.17127
#
# Compressibility (1/GPa) = 0.02210967
#
# Stress axis : x y z
#
# Youngs Moduli (GPa) = 129.85877 54.45820 159.29452
#
# Poissons Ratio (x) = 0.09182 0.36405
# Poissons Ratio (y) = 0.21895 0.18228
# Poissons Ratio (z) = 0.29678 0.06232
#
# Static dielectric constant tensor:
#      x y z
#    x 1.837680 -0.020000 -0.011920 
#    y -0.020000 1.869660 0.024710 
#    z -0.011920 0.024710 1.781190 
# 
# From -- ./inp_files/47517.got.cif
#   From: 2010.05.17/outbox.cif.g08.bks.cpg/sg2_24_cif.got.tgz:47517.got - 2010.06.03 11:33:40.
