data_PCOD9063679
_publ_section_title
;
Structure prediction by ZEFSAII (Michael W. Deem and Ramdas Pophale) SiO2 
 PCOD9063679
Probable space group: P -1
;
_chemical_formula_sum "Si O2"
_cell_formula_units_Z 14
_cell_length_a 7.376359
_cell_length_b 9.505233
_cell_length_c 17.002471
_cell_angle_alpha 137.649194
_cell_angle_beta 46.196398
_cell_angle_gamma 105.404485
_cell_volume 499.993388
_symmetry_space_group_name_H-M "P -1"
_symmetry_group_IT_number 2
_symmetry_cell_setting 'triclinic'
loop_
_space_group_symop_operation_xyz
x,y,z
-x,-y,-z
loop_
_atom_site_type_symbol
_atom_site_label
_atom_site_fract_x
_atom_site_fract_y
_atom_site_fract_z
Si Si1 0.221509 0.751177 0.236414
Si Si2 0.002714 0.259481 0.876420
Si Si3 0.229957 0.500505 0.282924
Si Si4 0.629971 0.886118 0.497243
Si Si5 0.387576 0.112562 0.295483
Si Si6 0.103465 0.134895 0.221936
Si Si7 0.487233 0.517448 0.640466
O O1 0.123949 0.705696 0.160712
O O2 0.895269 0.932971 0.441932
O O3 0.329435 0.561723 0.196928
O O4 0.433624 0.853753 0.199194
O O5 0.342266 0.049156 0.700315
O O6 0.857177 0.126971 0.912440
O O7 0.000000 0.500000 0.000000
O O8 0.405056 0.498745 0.308151
O O9 0.890134 0.702351 0.490405
O O10 0.219925 0.253897 0.174906
O O11 0.711579 0.605686 0.354765
O O12 0.500000 0.000000 0.500000
O O13 0.599962 0.222338 0.263930
O O14 0.259934 0.133506 0.255321
O O15 0.770329 0.330689 0.427133
#
# Coordination Sequence:
#
# PCOD9063679 Si02
#       7
#     2   2   2   2   2   2   2
#     4  10  18  27  46  77  95 106 147 202 229 248
#     4   9  17  31  46  60  88 132 158 171 215 284
#     4   9  14  24  44  70  92 113 144 190 229 261
#     4   9  17  29  45  73  96 110 146 198 229 255
#     4   8  14  25  43  68  94 123 148 174 223 286
#     4   7  13  25  41  63  86 115 151 178 208 267
#     4   8  14  27  45  65  92 125 148 173 225 285
#
# _framework density 28.000371999999999
#
# number of rings (size 3 to 8) (size 9 to 14) (size 15 to 20)
#    0.000    3.429    0.000    4.714    0.000    0.000 
#    0.000    7.143    0.000    3.429    0.000  130.000 
#    0.000    0.000    0.000    0.000    0.000    0.000 
#
# Total GULP energy -78175.846438 kJ/mol
# GULP energy per Si atom -5583.989031 kJ/mol
# Density = 2.793664 g / cm^3
# Si number density = 28.000372 Si / 1000 Ang^3
#
#
#
# Elastic Constant Matrix: (Units=GPa)
#
#
# Indices 1 2 3 4 5 6 
#
# 1 111.4469 50.0178 33.1312 10.9235 44.8630 -5.3160
# 2 50.0178 217.9422 44.7865 48.7580 28.9952 9.6747
# 3 33.1312 44.7865 90.6835 26.1482 12.7864 19.8065
# 4 10.9235 48.7580 26.1482 52.5503 15.1301 11.5627
# 5 44.8630 28.9952 12.7864 15.1301 46.6366 7.1302
# 6 -5.3160 9.6747 19.8065 11.5627 7.1302 44.7567
#
#
#
# Elastic Compliance Matrix: (Units=1/GPa)
#
#
# Indices 1 2 3 4 5 6 
#
# 1 0.018685 -0.002011 -0.006210 0.004591 -0.017583 0.007017
# 2 -0.002011 0.006387 -0.000984 -0.005000 -0.000165 0.000134
# 3 -0.006210 -0.000984 0.016278 -0.005811 0.005084 -0.007037
# 4 0.004591 -0.005000 -0.005811 0.028499 -0.008688 -0.001781
# 5 -0.017583 -0.000165 0.005084 -0.008688 0.041202 -0.008622
# 6 0.007017 0.000134 -0.007037 -0.001781 -0.008622 0.028095
#
#
# Mechanical properties :
#
#
# Convention : Reuss Voigt Hill
#
# Bulk Modulus (GPa) = 43.59399 75.10485 59.34942
# Shear Modulus (GPa) = 30.26579 48.26452 39.26515
#
# Velocity S-wave (km/s) = 3.29128 4.15626 3.74880
# Velocity P-wave (km/s) = 5.48145 7.06496 6.32297
#
# Compressibility (1/GPa) = 0.02293894
#
# Stress axis : x y z
#
# Youngs Moduli (GPa) = 53.51994 156.57483 61.43259
#
# Poissons Ratio (x) = 0.31490 0.38152
# Poissons Ratio (y) = 0.10764 0.06043
# Poissons Ratio (z) = 0.33238 0.15402
#
# Static dielectric constant tensor:
#      x y z
#    x 2.270600 0.066190 -0.128140 
#    y 0.066190 2.458170 -0.112390 
#    z -0.128140 -0.112390 2.330630 
# 
# From -- ./inp_files/464826.got.cif
#   From: 2010.05.17/outbox.cif.g08.bks.cpg/sg2_233_cif.got.tgz:464826.got - 2010.06.03 11:33:40.
