data_PCOD9063643
_publ_section_title
;
Structure prediction by ZEFSAII (Michael W. Deem and Ramdas Pophale) SiO2 
 PCOD9063643
Probable space group: P -1
;
_chemical_formula_sum "Si O2"
_cell_formula_units_Z 16
_cell_length_a 13.300837
_cell_length_b 9.439911
_cell_length_c 8.056974
_cell_angle_alpha 85.297553
_cell_angle_beta 81.911233
_cell_angle_gamma 137.461157
_cell_volume 650.576242
_symmetry_space_group_name_H-M "P -1"
_symmetry_group_IT_number 2
_symmetry_cell_setting 'triclinic'
loop_
_space_group_symop_operation_xyz
x,y,z
-x,-y,-z
loop_
_atom_site_type_symbol
_atom_site_label
_atom_site_fract_x
_atom_site_fract_y
_atom_site_fract_z
Si Si1 0.336188 0.673921 0.921042
Si Si2 0.822418 0.356081 0.528474
Si Si3 0.663615 0.933465 0.772932
Si Si4 0.118850 0.224226 0.851316
Si Si5 0.880355 0.942226 0.656489
Si Si6 0.683306 0.835917 0.159596
Si Si7 0.842469 0.280415 0.153069
Si Si8 0.661916 0.446910 0.715388
O O1 0.484576 0.765783 0.787104
O O2 0.186481 0.431220 0.909743
O O3 0.303700 0.804879 0.899249
O O4 0.364002 0.673743 0.104857
O O5 0.808681 0.300802 0.343936
O O6 0.758457 0.448004 0.567835
O O7 0.000000 0.500000 0.500000
O O8 0.735057 0.163670 0.701301
O O9 0.763885 0.940894 0.626986
O O10 0.677573 0.867139 0.956653
O O11 0.261669 0.264089 0.794064
O O12 0.001406 0.140388 0.739389
O O13 0.000000 0.000000 0.000000
O O14 0.763898 0.686664 0.740431
O O15 0.000000 0.000000 0.500000
O O16 0.510048 0.683372 0.284234
O O17 0.815413 0.083791 0.172048
O O18 0.000000 0.500000 0.000000
#
# Coordination Sequence:
#
# PCOD9063643 Si02
#       8
#     2   2   2   2   2   2   2   2
#     4  11  24  44  72 100 134 180 223 277 332 409
#     4  12  27  44  69 101 138 175 222 282 340 397
#     4  11  24  46  69 100 139 177 221 274 347 396
#     4  12  23  43  71 101 134 178 234 273 328 399
#     4  12  27  43  67 101 138 181 225 282 334 393
#     4  11  24  44  72 100 134 180 223 277 332 409
#     4  12  27  44  71 101 132 177 232 275 331 401
#     4  11  24  46  69 100 139 177 221 274 347 396
#
# _framework density 24.593581
#
# number of rings (size 3 to 8) (size 9 to 14) (size 15 to 20)
#    0.000    0.500    2.500    5.250    7.000    6.000 
#    0.000    1.250    0.000    0.000    0.000    0.000 
#    0.000    0.000    0.000    0.000    0.000    0.000 
#
# Total GULP energy -89318.862419 kJ/mol
# GULP energy per Si atom -5582.428901 kJ/mol
# Density = 2.453760 g / cm^3
# Si number density = 24.593581 Si / 1000 Ang^3
#
#
#
# Elastic Constant Matrix: (Units=GPa)
#
#
# Indices 1 2 3 4 5 6 
#
# 1 153.5604 31.8323 19.3777 -11.6754 -39.1869 4.0222
# 2 31.8323 90.0203 12.0183 -8.6363 -20.9258 8.0157
# 3 19.3777 12.0183 45.2577 -2.3100 -23.6063 10.5570
# 4 -11.6754 -8.6363 -2.3100 27.5481 -3.4272 -8.0945
# 5 -39.1869 -20.9258 -23.6063 -3.4272 36.1434 -3.4808
# 6 4.0222 8.0157 10.5570 -8.0945 -3.4808 47.1600
#
#
#
# Elastic Compliance Matrix: (Units=1/GPa)
#
#
# Indices 1 2 3 4 5 6 
#
# 1 0.010050 -0.000317 0.002858 0.006222 0.013227 0.000601
# 2 -0.000317 0.013696 0.001789 0.005106 0.009127 -0.001151
# 3 0.002858 0.001789 0.036771 0.006744 0.028256 -0.005536
# 4 0.006222 0.005106 0.006744 0.045311 0.019007 0.006272
# 5 0.013227 0.009127 0.028256 0.019007 0.067476 -0.000762
# 6 0.000601 -0.001151 -0.005536 0.006272 -0.000762 0.023608
#
#
# Mechanical properties :
#
#
# Convention : Reuss Voigt Hill
#
# Bulk Modulus (GPa) = 14.45611 46.14390 30.30000
# Shear Modulus (GPa) = 23.66159 37.21098 30.43628
#
# Velocity S-wave (km/s) = 3.10515 3.89400 3.52173
# Velocity P-wave (km/s) = 4.32974 6.24667 5.37436
#
# Compressibility (1/GPa) = 0.06917492
#
# Stress axis : x y z
#
# Youngs Moduli (GPa) = 99.50400 73.01369 27.19521
#
# Poissons Ratio (x) = 0.02317 -0.07771
# Poissons Ratio (y) = 0.03157 -0.04864
# Poissons Ratio (z) = -0.28434 -0.13060
#
# Static dielectric constant tensor:
#      x y z
#    x 2.360170 0.229360 0.196450 
#    y 0.229360 2.121540 0.115940 
#    z 0.196450 0.115940 2.308220 
# 
# From -- ./inp_files/243980.got.cif
#   From: 2010.05.17/outbox.cif.g08.bks.cpg/sg2_122_cif.got.tgz:243980.got - 2010.06.03 11:33:40.
