data_PCOD9063586
_publ_section_title
;
Structure prediction by ZEFSAII (Michael W. Deem and Ramdas Pophale) SiO2 
 PCOD9063586
Probable space group: P -1
;
_chemical_formula_sum "Si O2"
_cell_formula_units_Z 14
_cell_length_a 13.347114
_cell_length_b 13.445280
_cell_length_c 7.955198
_cell_angle_alpha 147.867361
_cell_angle_beta 116.168905
_cell_angle_gamma 51.852438
_cell_volume 585.541700
_symmetry_space_group_name_H-M "P -1"
_symmetry_group_IT_number 2
_symmetry_cell_setting 'triclinic'
loop_
_space_group_symop_operation_xyz
x,y,z
-x,-y,-z
loop_
_atom_site_type_symbol
_atom_site_label
_atom_site_fract_x
_atom_site_fract_y
_atom_site_fract_z
Si Si1 0.785188 0.681568 0.689943
Si Si2 0.116438 0.920917 0.341217
Si Si3 0.380877 0.577844 0.222258
Si Si4 0.485887 0.189766 0.489010
Si Si5 0.884789 0.706568 0.302797
Si Si6 0.973945 0.769854 0.820227
Si Si7 0.675052 0.681343 0.963092
O O1 0.650812 0.765890 0.618102
O O2 0.850678 0.830393 0.936170
O O3 0.760860 0.625039 0.777590
O O4 0.900114 0.464642 0.378877
O O5 0.245079 0.714844 0.216124
O O6 0.157469 0.091883 0.563710
O O7 0.000000 0.000000 0.500000
O O8 0.041388 0.908541 0.102086
O O9 0.446749 0.726690 0.476838
O O10 0.363847 0.496576 0.275265
O O11 0.466750 0.348449 0.858007
O O12 0.566626 0.934298 0.224208
O O13 0.927512 0.753645 0.578445
O O14 0.764404 0.669567 0.168816
O O15 0.000000 0.500000 0.000000
#
# Coordination Sequence:
#
# PCOD9063586 Si02
#       7
#     2   2   2   2   2   2   2
#     4  11  24  44  71 101 146 183 241 296 354 431
#     4  12  25  45  71 107 146 187 239 299 357 427
#     4  11  25  44  72 102 141 188 239 293 356 427
#     4  11  24  48  69 101 145 188 240 295 353 426
#     4  12  24  44  72 105 142 187 239 295 359 430
#     4  11  25  44  71 106 143 190 235 299 362 423
#     4  12  24  44  74 107 136 194 237 291 364 425
#
# _framework density 23.909482000000001
#
# number of rings (size 3 to 8) (size 9 to 14) (size 15 to 20)
#    0.000    0.571    4.286    3.857    4.000    0.571 
#    0.000    0.000    0.000    0.000    0.000    0.000 
#    0.000    0.000    0.000    0.000    0.000    0.000 
#
# Total GULP energy -78238.485603 kJ/mol
# GULP energy per Si atom -5588.463257 kJ/mol
# Density = 2.385506 g / cm^3
# Si number density = 23.909482 Si / 1000 Ang^3
#
#
#
# Elastic Constant Matrix: (Units=GPa)
#
#
# Indices 1 2 3 4 5 6 
#
# 1 141.7472 62.3165 25.2783 14.8155 17.2480 1.0086
# 2 62.3165 117.8762 25.8183 10.4807 8.2238 -6.8963
# 3 25.2783 25.8183 32.9230 0.6815 5.6499 7.0022
# 4 14.8155 10.4807 0.6815 38.1033 4.3448 11.0066
# 5 17.2480 8.2238 5.6499 4.3448 37.0096 -2.2240
# 6 1.0086 -6.8963 7.0022 11.0066 -2.2240 51.3920
#
#
#
# Elastic Compliance Matrix: (Units=1/GPa)
#
#
# Indices 1 2 3 4 5 6 
#
# 1 0.010184 -0.004033 -0.004156 -0.002513 -0.002906 0.000238
# 2 -0.004033 0.012704 -0.007679 -0.002883 0.000777 0.003481
# 3 -0.004156 -0.007679 0.041850 0.005751 -0.003905 -0.008052
# 4 -0.002513 -0.002883 0.005751 0.030518 -0.003117 -0.007792
# 5 -0.002906 0.000777 -0.003905 -0.003117 0.029322 0.002630
# 6 0.000238 0.003481 -0.008052 -0.007792 0.002630 0.022800
#
#
# Mechanical properties :
#
#
# Convention : Reuss Voigt Hill
#
# Bulk Modulus (GPa) = 30.30263 57.70807 44.00535
# Shear Modulus (GPa) = 26.29982 37.24320 31.77151
#
# Velocity S-wave (km/s) = 3.32018 3.95102 3.64926
# Velocity P-wave (km/s) = 5.23446 6.70839 6.01673
#
# Compressibility (1/GPa) = 0.03300044
#
# Stress axis : x y z
#
# Youngs Moduli (GPa) = 98.19559 78.71805 23.89461
#
# Poissons Ratio (x) = 0.31750 0.09930
# Poissons Ratio (y) = 0.39606 0.18350
# Poissons Ratio (z) = 0.40809 0.60451
#
# Static dielectric constant tensor:
#      x y z
#    x 2.018450 0.013740 0.057860 
#    y 0.013740 1.932240 -0.028830 
#    z 0.057860 -0.028830 2.028800 
# 
# From -- ./inp_files/274935.got.cif
#   From: 2010.05.17/outbox.cif.g08.bks.cpg/sg2_138_cif.got.tgz:274935.got - 2010.06.03 11:33:40.
