data_PCOD9063415
_publ_section_title
;
Structure prediction by ZEFSAII (Michael W. Deem and Ramdas Pophale) SiO2 
 PCOD9063415
Probable space group: P -1
;
_chemical_formula_sum "Si O2"
_cell_formula_units_Z 16
_cell_length_a 12.414988
_cell_length_b 8.767657
_cell_length_c 18.216176
_cell_angle_alpha 58.036310
_cell_angle_beta 151.005770
_cell_angle_gamma 130.069465
_cell_volume 732.480317
_symmetry_space_group_name_H-M "P -1"
_symmetry_group_IT_number 2
_symmetry_cell_setting 'triclinic'
loop_
_space_group_symop_operation_xyz
x,y,z
-x,-y,-z
loop_
_atom_site_type_symbol
_atom_site_label
_atom_site_fract_x
_atom_site_fract_y
_atom_site_fract_z
Si Si1 0.388862 0.425064 0.532220
Si Si2 0.877561 0.292287 0.522850
Si Si3 0.529524 0.890233 0.910788
Si Si4 0.047563 0.692564 0.933711
Si Si5 0.229295 0.002025 0.590633
Si Si6 0.625972 0.805513 0.681502
Si Si7 0.081433 0.619225 0.803994
Si Si8 0.974204 0.762676 0.214986
O O1 0.500000 0.500000 0.500000
O O2 0.420528 0.235481 0.630619
O O3 0.483651 0.625157 0.585562
O O4 0.097083 0.338093 0.368282
O O5 0.586721 0.229824 0.378341
O O6 0.000000 0.500000 0.500000
O O7 0.018314 0.315220 0.678365
O O8 0.879106 0.112940 0.520837
O O9 0.355750 0.774930 0.904690
O O10 0.361217 0.882629 0.742126
O O11 0.738246 0.809017 0.050254
O O12 0.681522 0.126999 0.952596
O O13 0.000276 0.636817 0.833651
O O14 0.867362 0.769599 0.847377
O O15 0.000000 0.500000 0.000000
O O16 0.000000 0.000000 0.500000
O O17 0.763231 0.038356 0.681821
O O18 0.041163 0.397526 0.814374
#
# Coordination Sequence:
#
# PCOD9063415 Si02
#       8
#     2   2   2   2   2   2   2   2
#     4  12  23  41  73 102 138 178 242 290 348 407
#     4  12  26  44  71 105 142 184 237 294 348 417
#     4  11  26  47  69 104 143 186 235 290 360 420
#     4  11  26  45  70 104 144 185 234 293 353 420
#     4  12  26  45  72 104 140 181 240 291 348 420
#     4  11  24  44  68 102 137 182 234 285 348 419
#     4  12  24  44  73 101 139 192 234 290 350 420
#     4  11  26  46  73 103 143 189 234 289 358 424
#
# _framework density 21.843592000000001
#
# number of rings (size 3 to 8) (size 9 to 14) (size 15 to 20)
#    0.000    0.500    3.750    4.125    3.500    3.000 
#    0.000    2.500    0.000    0.000    0.000    0.000 
#    0.000    0.000    0.000    0.000    0.000    0.000 
#
# Total GULP energy -89321.225222 kJ/mol
# GULP energy per Si atom -5582.576576 kJ/mol
# Density = 2.179387 g / cm^3
# Si number density = 21.843592 Si / 1000 Ang^3
#
#
#
# Elastic Constant Matrix: (Units=GPa)
#
#
# Indices 1 2 3 4 5 6 
#
# 1 72.0086 32.4321 1.2687 -0.6571 25.7171 8.6963
# 2 32.4321 130.0933 8.9175 -1.0719 5.9191 20.1825
# 3 1.2687 8.9175 65.6164 -5.4377 14.5270 13.7048
# 4 -0.6571 -1.0719 -5.4377 34.7617 0.7731 -3.3834
# 5 25.7171 5.9191 14.5270 0.7731 30.1294 4.0138
# 6 8.6963 20.1825 13.7048 -3.3834 4.0138 38.7768
#
#
#
# Elastic Compliance Matrix: (Units=1/GPa)
#
#
# Indices 1 2 3 4 5 6 
#
# 1 0.024322 -0.005057 0.005776 0.001466 -0.022265 -0.002431
# 2 -0.005057 0.009449 -0.001227 -0.000441 0.003564 -0.003757
# 3 0.005776 -0.001227 0.019775 0.002881 -0.013498 -0.005997
# 4 0.001466 -0.000441 0.002881 0.029489 -0.003553 0.001823
# 5 -0.022265 0.003564 -0.013498 -0.003553 0.057880 0.001608
# 6 -0.002431 -0.003757 -0.005997 0.001823 0.001608 0.030402
#
#
# Mechanical properties :
#
#
# Convention : Reuss Voigt Hill
#
# Bulk Modulus (GPa) = 19.03733 39.21721 29.12727
# Shear Modulus (GPa) = 26.33771 35.74024 31.03897
#
# Velocity S-wave (km/s) = 3.47614 4.04937 3.77366
# Velocity P-wave (km/s) = 4.98454 6.31315 5.68777
#
# Compressibility (1/GPa) = 0.05252838
#
# Stress axis : x y z
#
# Youngs Moduli (GPa) = 41.11545 105.83399 50.56909
#
# Poissons Ratio (x) = 0.53520 -0.29207
# Poissons Ratio (y) = 0.20792 0.06205
# Poissons Ratio (z) = -0.23747 0.12987
#
# Static dielectric constant tensor:
#      x y z
#    x 1.804850 -0.036760 0.028020 
#    y -0.036760 1.884420 -0.000980 
#    z 0.028020 -0.000980 1.871740 
# 
# From -- ./inp_files/279245.got.cif
#   From: 2010.05.17/outbox.cif.g08.bks.cpg/sg2_140_cif.got.tgz:279245.got - 2010.06.03 11:33:40.
