data_PCOD9063568
_publ_section_title
;
Structure prediction by ZEFSAII (Michael W. Deem and Ramdas Pophale) SiO2 
 PCOD9063568
Probable space group: P -1
;
_chemical_formula_sum "Si O2"
_cell_formula_units_Z 16
_cell_length_a 17.028120
_cell_length_b 14.131307
_cell_length_c 25.723955
_cell_angle_alpha 20.950465
_cell_angle_beta 159.517533
_cell_angle_gamma 157.795272
_cell_volume 707.238540
_symmetry_space_group_name_H-M "P -1"
_symmetry_group_IT_number 2
_symmetry_cell_setting 'triclinic'
loop_
_space_group_symop_operation_xyz
x,y,z
-x,-y,-z
loop_
_atom_site_type_symbol
_atom_site_label
_atom_site_fract_x
_atom_site_fract_y
_atom_site_fract_z
Si Si1 0.428556 0.658970 0.626824
Si Si2 0.086780 0.454179 0.020700
Si Si3 0.122494 0.856375 0.740997
Si Si4 0.317969 0.651821 0.321829
Si Si5 0.970986 0.348585 0.427712
Si Si6 0.602535 0.972358 0.918548
Si Si7 0.427080 0.632221 0.755650
Si Si8 0.129361 0.858090 0.192208
O O1 0.669385 0.602455 0.794443
O O2 0.224821 0.511790 0.532721
O O3 0.336793 0.539479 0.688872
O O4 0.500000 0.000000 0.500000
O O5 0.140310 0.725000 0.875869
O O6 0.000000 0.500000 0.000000
O O7 0.864991 0.181173 0.997754
O O8 0.385735 0.006514 0.799699
O O9 0.951659 0.582343 0.741286
O O10 0.991062 0.075531 0.552799
O O11 0.500000 0.500000 0.500000
O O12 0.299188 0.746548 0.319830
O O13 0.395949 0.926253 0.191378
O O14 0.951294 0.580798 0.255884
O O15 0.755844 0.268461 0.377243
O O16 0.561385 0.642446 0.067875
O O17 0.696671 0.891209 0.790276
O O18 0.000000 0.000000 0.000000
#
# Coordination Sequence:
#
# PCOD9063568 Si02
#       8
#     2   2   2   2   2   2   2   2
#     4  12  25  46  72  99 146 179 224 285 341 410
#     4  11  26  43  68 102 138 180 225 278 338 406
#     4  11  25  45  68 101 140 177 232 280 341 410
#     4  11  25  44  69  99 137 180 229 290 340 398
#     4  12  27  44  71 104 138 181 229 282 344 409
#     4  11  24  44  70  97 137 180 227 278 348 404
#     4  12  26  45  70 103 137 184 228 276 349 407
#     4  12  27  46  70 100 139 178 235 286 336 404
#
# _framework density 22.623201000000002
#
# number of rings (size 3 to 8) (size 9 to 14) (size 15 to 20)
#    0.000    0.500    2.500    4.875    5.250    9.000 
#    0.000    0.000    0.000    0.000    0.000    0.000 
#    0.000    0.000    0.000    0.000    0.000    0.000 
#
# Total GULP energy -89669.821895 kJ/mol
# GULP energy per Si atom -5604.363868 kJ/mol
# Density = 2.257171 g / cm^3
# Si number density = 22.623201 Si / 1000 Ang^3
#
#
#
# Elastic Constant Matrix: (Units=GPa)
#
#
# Indices 1 2 3 4 5 6 
#
# 1 92.1021 4.5542 5.0948 1.9133 6.7946 7.5008
# 2 4.5542 56.2141 10.7441 -9.6300 -4.8989 5.7043
# 3 5.0948 10.7441 88.0961 -7.9918 5.9021 7.9968
# 4 1.9133 -9.6300 -7.9918 38.7831 4.2511 4.1170
# 5 6.7946 -4.8989 5.9021 4.2511 45.5978 3.1008
# 6 7.5008 5.7043 7.9968 4.1170 3.1008 30.8532
#
#
#
# Elastic Compliance Matrix: (Units=1/GPa)
#
#
# Indices 1 2 3 4 5 6 
#
# 1 0.011222 -0.000826 -0.000274 -0.000404 -0.001532 -0.002297
# 2 -0.000826 0.019577 -0.001717 0.004706 0.002270 -0.003830
# 3 -0.000274 -0.001717 0.012199 0.002607 -0.001765 -0.002948
# 4 -0.000404 0.004706 0.002607 0.028269 -0.002066 -0.005012
# 5 -0.001532 0.002270 -0.001765 -0.002066 0.022934 -0.001619
# 6 -0.002297 -0.003830 -0.002948 -0.005012 -0.001619 0.035274
#
#
# Mechanical properties :
#
#
# Convention : Reuss Voigt Hill
#
# Bulk Modulus (GPa) = 26.76465 30.79984 28.78225
# Shear Modulus (GPa) = 33.88372 37.44810 35.66591
#
# Velocity S-wave (km/s) = 3.87427 4.07295 3.97485
# Velocity P-wave (km/s) = 5.64531 5.98016 5.81515
#
# Compressibility (1/GPa) = 0.03736271
#
# Stress axis : x y z
#
# Youngs Moduli (GPa) = 89.11112 51.08069 81.97433
#
# Poissons Ratio (x) = 0.04221 0.02244
# Poissons Ratio (y) = 0.07364 0.14078
# Poissons Ratio (z) = 0.02439 0.08773
#
# Static dielectric constant tensor:
#      x y z
#    x 1.761700 0.029590 0.049190 
#    y 0.029590 1.816320 -0.006050 
#    z 0.049190 -0.006050 1.761780 
# 
# From -- ./inp_files/109718.got.cif
#   From: 2010.05.17/outbox.cif.g08.bks.cpg/sg2_55_cif.got.tgz:109718.got - 2010.06.03 11:33:40.
