data_PCOD9063129
_publ_section_title
;
Structure prediction by ZEFSAII (Michael W. Deem and Ramdas Pophale) SiO2 
 PCOD9063129
Probable space group: P -1
;
_chemical_formula_sum "Si O2"
_cell_formula_units_Z 16
_cell_length_a 5.473415
_cell_length_b 18.425576
_cell_length_c 23.151252
_cell_angle_alpha 161.808661
_cell_angle_beta 80.478419
_cell_angle_gamma 90.504312
_cell_volume 629.921602
_symmetry_space_group_name_H-M "P -1"
_symmetry_group_IT_number 2
_symmetry_cell_setting 'triclinic'
loop_
_space_group_symop_operation_xyz
x,y,z
-x,-y,-z
loop_
_atom_site_type_symbol
_atom_site_label
_atom_site_fract_x
_atom_site_fract_y
_atom_site_fract_z
Si Si1 0.809494 0.939295 0.312144
Si Si2 0.626520 0.601461 0.122843
Si Si3 0.794755 0.203387 0.115250
Si Si4 0.576070 0.801340 0.059807
Si Si5 0.585885 0.338053 0.434485
Si Si6 0.818418 0.249437 0.654547
Si Si7 0.716211 0.706810 0.864175
Si Si8 0.032203 0.838274 0.620996
O O1 0.588725 0.878762 0.308744
O O2 0.873687 0.117226 0.489191
O O3 0.760504 0.069552 0.349363
O O4 0.061196 0.643347 0.069358
O O5 0.487001 0.652563 0.229834
O O6 0.500000 0.500000 0.000000
O O7 0.608087 0.464451 0.358227
O O8 0.566448 0.130019 0.040493
O O9 0.032914 0.219256 0.077992
O O10 0.000000 0.000000 0.000000
O O11 0.568991 0.067887 0.236397
O O12 0.827825 0.529828 0.871980
O O13 0.572523 0.670599 0.899734
O O14 0.282442 0.929841 0.202132
O O15 0.500000 0.500000 0.500000
O O16 0.901777 0.234721 0.369314
O O17 0.000000 0.000000 0.500000
O O18 0.897766 0.431358 0.616369
#
# Coordination Sequence:
#
# PCOD9063129 Si02
#       8
#     2   2   2   2   2   2   2   2
#     4  11  24  45  69 100 147 187 250 299 378 448
#     4  11  24  43  71 103 141 190 239 310 368 443
#     4  11  24  47  74 109 154 196 257 321 394 459
#     4  12  26  46  76 102 153 196 255 315 389 458
#     4  11  27  47  74 110 148 197 258 320 387 464
#     4  12  25  46  72 110 146 196 251 306 381 453
#     4  11  25  47  71 110 147 203 253 316 385 469
#     4  11  25  47  70 104 144 200 250 313 388 456
#
# _framework density 25.399985999999998
#
# number of rings (size 3 to 8) (size 9 to 14) (size 15 to 20)
#    0.000    0.750    5.000    1.500    5.250    1.500 
#    6.750    0.000    0.000    0.000    0.000    0.000 
#    0.000    0.000    0.000    0.000    0.000    0.000 
#
# Total GULP energy -89068.398946 kJ/mol
# GULP energy per Si atom -5566.774934 kJ/mol
# Density = 2.534217 g / cm^3
# Si number density = 25.399986 Si / 1000 Ang^3
#
#
#
# Elastic Constant Matrix: (Units=GPa)
#
#
# Indices 1 2 3 4 5 6 
#
# 1 53.9110 7.7566 9.6858 -2.2548 -10.1312 -3.2414
# 2 7.7566 108.0813 15.2535 10.1398 -3.9336 -2.7585
# 3 9.6858 15.2535 119.1676 16.2565 -20.7735 -9.0859
# 4 -2.2548 10.1398 16.2565 52.1842 8.2273 -6.6576
# 5 -10.1312 -3.9336 -20.7735 8.2273 28.9758 3.7790
# 6 -3.2414 -2.7585 -9.0859 -6.6576 3.7790 37.0032
#
#
#
# Elastic Compliance Matrix: (Units=1/GPa)
#
#
# Indices 1 2 3 4 5 6 
#
# 1 0.020051 -0.001163 -0.000333 0.000314 0.006395 0.000991
# 2 -0.001163 0.009644 -0.000732 -0.001836 0.000897 0.000015
# 3 -0.000333 -0.000732 0.010682 -0.004444 0.008592 0.000862
# 4 0.000314 -0.001836 -0.004444 0.023069 -0.010399 0.004012
# 5 0.006395 0.000897 0.008592 -0.010399 0.046488 -0.003882
# 6 0.000991 0.000015 0.000862 0.004012 -0.003882 0.028443
#
#
# Mechanical properties :
#
#
# Convention : Reuss Voigt Hill
#
# Bulk Modulus (GPa) = 27.83960 38.50574 33.17267
# Shear Modulus (GPa) = 32.29812 40.19690 36.24751
#
# Velocity S-wave (km/s) = 3.56979 3.98245 3.78175
# Velocity P-wave (km/s) = 5.28919 6.02820 5.67074
#
# Compressibility (1/GPa) = 0.03592006
#
# Stress axis : x y z
#
# Youngs Moduli (GPa) = 49.87296 103.68774 93.61452
#
# Poissons Ratio (x) = 0.12063 0.03120
# Poissons Ratio (y) = 0.05802 0.06852
# Poissons Ratio (z) = 0.01662 0.07590
#
# Static dielectric constant tensor:
#      x y z
#    x 2.905510 0.641130 0.250840 
#    y 0.641130 2.689800 0.207760 
#    z 0.250840 0.207760 2.105070 
# 
# From -- ./inp_files/126515.got.cif
#   From: 2010.05.17/outbox.cif.g08.bks.cpg/sg2_64_cif.got.tgz:126515.got - 2010.06.03 11:33:40.
