data_PCOD9063269
_publ_section_title
;
Structure prediction by ZEFSAII (Michael W. Deem and Ramdas Pophale) SiO2 
 PCOD9063269
Probable space group: P -1
;
_chemical_formula_sum "Si O2"
_cell_formula_units_Z 12
_cell_length_a 14.614895
_cell_length_b 14.315863
_cell_length_c 8.176853
_cell_angle_alpha 46.185101
_cell_angle_beta 38.309121
_cell_angle_gamma 28.289749
_cell_volume 502.613213
_symmetry_space_group_name_H-M "P -1"
_symmetry_group_IT_number 2
_symmetry_cell_setting 'triclinic'
loop_
_space_group_symop_operation_xyz
x,y,z
-x,-y,-z
loop_
_atom_site_type_symbol
_atom_site_label
_atom_site_fract_x
_atom_site_fract_y
_atom_site_fract_z
Si Si1 0.170305 0.506712 0.948490
Si Si2 0.096430 0.097893 0.047646
Si Si3 0.218131 0.945585 0.715975
Si Si4 0.322580 0.756130 0.366984
Si Si5 0.616454 0.497691 0.696419
Si Si6 0.940099 0.705466 0.673648
O O1 0.183303 0.344149 0.138066
O O2 0.001980 0.692864 0.077989
O O3 0.418183 0.402479 0.751418
O O4 0.041164 0.623608 0.815642
O O5 0.865948 0.166584 0.330411
O O6 0.246711 0.944456 0.171385
O O7 0.243033 0.983881 0.817850
O O8 0.435035 0.723479 0.625512
O O9 0.180628 0.084057 0.469165
O O10 0.000000 0.000000 0.000000
O O11 0.314483 0.657184 0.346944
O O12 0.819673 0.436360 0.575857
O O13 0.500000 0.500000 0.000000
#
# Coordination Sequence:
#
# PCOD9063269 Si02
#       6
#     2   2   2   2   2   2
#     4  11  26  47  71 100 146 190 225 289 350 414
#     4  11  24  43  74 106 135 180 241 289 339 411
#     4  12  25  42  73 106 138 179 233 293 346 408
#     4  11  24  45  76 104 137 184 241 284 343 415
#     4  12  23  45  72 105 139 182 231 290 347 410
#     4  11  27  47  68 105 145 184 234 282 353 418
#
# _framework density 23.875218
#
# number of rings (size 3 to 8) (size 9 to 14) (size 15 to 20)
#    0.000    0.667    5.000    1.500    4.667    2.000 
#    0.000    5.000    0.000    0.000    0.000    0.000 
#    0.000    0.000    0.000    0.000    0.000    0.000 
#
# Total GULP energy -66916.108037 kJ/mol
# GULP energy per Si atom -5576.342336 kJ/mol
# Density = 2.382088 g / cm^3
# Si number density = 23.875218 Si / 1000 Ang^3
#
#
#
# Elastic Constant Matrix: (Units=GPa)
#
#
# Indices 1 2 3 4 5 6 
#
# 1 58.9962 13.1585 22.8358 0.0335 -2.1651 2.2055
# 2 13.1585 131.9880 14.1036 -33.2410 6.9405 -5.1465
# 3 22.8358 14.1036 80.0247 -27.6325 -2.1413 5.3899
# 4 0.0335 -33.2410 -27.6325 51.6170 1.6578 11.2600
# 5 -2.1651 6.9405 -2.1413 1.6578 32.9623 1.3555
# 6 2.2055 -5.1465 5.3899 11.2600 1.3555 33.0614
#
#
#
# Elastic Compliance Matrix: (Units=1/GPa)
#
#
# Indices 1 2 3 4 5 6 
#
# 1 0.020532 -0.002853 -0.007584 -0.006292 0.001712 0.001495
# 2 -0.002853 0.009635 0.001673 0.007399 -0.002438 -0.001003
# 3 -0.007584 0.001673 0.019265 0.012869 0.000032 -0.006759
# 4 -0.006292 0.007399 0.012869 0.033705 -0.002341 -0.011910
# 5 0.001712 -0.002438 0.000032 -0.002341 0.031123 -0.000978
# 6 0.001495 -0.001003 -0.006759 -0.011910 -0.000978 0.035189
#
#
# Mechanical properties :
#
#
# Convention : Reuss Voigt Hill
#
# Bulk Modulus (GPa) = 31.34206 41.24496 36.29351
# Shear Modulus (GPa) = 28.15125 38.25554 33.20340
#
# Velocity S-wave (km/s) = 3.43753 4.00723 3.73326
# Velocity P-wave (km/s) = 5.37693 6.22280 5.81527
#
# Compressibility (1/GPa) = 0.03190601
#
# Stress axis : x y z
#
# Youngs Moduli (GPa) = 48.70332 103.79150 51.90719
#
# Poissons Ratio (x) = 0.29610 0.39365
# Poissons Ratio (y) = 0.13894 -0.08686
# Poissons Ratio (z) = 0.36935 -0.17368
#
# Static dielectric constant tensor:
#      x y z
#    x 2.070430 -0.018570 0.041830 
#    y -0.018570 1.969410 -0.025600 
#    z 0.041830 -0.025600 1.930600 
# 
# From -- ./inp_files/314433.got.cif
#   From: 2010.05.17/outbox.cif.g08.bks.cpg/sg2_158_cif.got.tgz:314433.got - 2010.06.03 11:33:40.
