data_PCOD9063495
_publ_section_title
;
Structure prediction by ZEFSAII (Michael W. Deem and Ramdas Pophale) SiO2 
 PCOD9063495
Probable space group: P -1
;
_chemical_formula_sum "Si O2"
_cell_formula_units_Z 16
_cell_length_a 13.932665
_cell_length_b 8.569528
_cell_length_c 11.776209
_cell_angle_alpha 109.527589
_cell_angle_beta 48.730965
_cell_angle_gamma 138.664322
_cell_volume 660.260589
_symmetry_space_group_name_H-M "P -1"
_symmetry_group_IT_number 2
_symmetry_cell_setting 'triclinic'
loop_
_space_group_symop_operation_xyz
x,y,z
-x,-y,-z
loop_
_atom_site_type_symbol
_atom_site_label
_atom_site_fract_x
_atom_site_fract_y
_atom_site_fract_z
Si Si1 0.661765 0.613557 0.992440
Si Si2 0.899075 0.204655 0.115153
Si Si3 0.156213 0.239530 0.523203
Si Si4 0.217273 0.766475 0.419375
Si Si5 0.056074 0.706061 0.159212
Si Si6 0.493682 0.236589 0.731627
Si Si7 0.915888 0.069824 0.295852
Si Si8 0.408169 0.082656 0.125781
O O1 0.663835 0.785641 0.100980
O O2 0.571991 0.378249 0.078032
O O3 0.500000 0.500000 0.000000
O O4 0.856200 0.738570 0.812736
O O5 0.914617 0.069885 0.160377
O O6 0.029511 0.483448 0.129894
O O7 0.673154 0.042368 0.258735
O O8 0.974639 0.270211 0.941646
O O9 0.357984 0.487649 0.371313
O O10 0.080692 0.340461 0.654676
O O11 0.178340 0.152525 0.598913
O O12 0.000000 0.000000 0.500000
O O13 0.363203 0.753639 0.315621
O O14 0.187336 0.859586 0.571203
O O15 0.000000 0.500000 0.500000
O O16 0.292554 0.947831 0.299064
O O17 0.261036 0.968731 0.109388
O O18 0.500000 0.000000 0.000000
#
# Coordination Sequence:
#
# PCOD9063495 Si02
#       8
#     2   2   2   2   2   2   2   2
#     4  12  24  42  70 103 136 177 231 294 353 403
#     4  11  26  47  68  98 142 195 236 269 342 436
#     4  12  25  44  71 103 136 175 231 302 362 402
#     4  12  24  42  70 103 136 177 231 294 353 403
#     4  11  24  44  69  97 140 188 230 284 348 421
#     4  12  26  44  69 101 141 184 229 284 346 421
#     4  12  26  44  69 101 141 184 229 284 346 421
#     4  12  23  41  70 105 138 176 236 297 351 409
#
# _framework density 24.232856999999999
#
# number of rings (size 3 to 8) (size 9 to 14) (size 15 to 20)
#    0.000    0.250    0.000   12.000    0.000    5.500 
#    0.000    0.000    0.000    0.000    0.000    0.000 
#    0.000    0.000    0.000    0.000    0.000    0.000 
#
# Total GULP energy -89288.705341 kJ/mol
# GULP energy per Si atom -5580.544084 kJ/mol
# Density = 2.417770 g / cm^3
# Si number density = 24.232857 Si / 1000 Ang^3
#
#
#
# Elastic Constant Matrix: (Units=GPa)
#
#
# Indices 1 2 3 4 5 6 
#
# 1 87.7488 5.6140 17.1165 2.2883 16.6829 -7.4120
# 2 5.6140 61.9882 31.9188 -19.6015 0.0114 -10.6191
# 3 17.1165 31.9188 116.8330 2.1249 10.3823 -12.8313
# 4 2.2883 -19.6015 2.1249 52.3429 -10.5911 6.3943
# 5 16.6829 0.0114 10.3823 -10.5911 49.1580 -4.0940
# 6 -7.4120 -10.6191 -12.8313 6.3943 -4.0940 36.0306
#
#
#
# Elastic Compliance Matrix: (Units=1/GPa)
#
#
# Indices 1 2 3 4 5 6 
#
# 1 0.012685 -0.000962 -0.000969 -0.001985 -0.004375 0.001836
# 2 -0.000962 0.022936 -0.006300 0.009299 0.003915 0.003113
# 3 -0.000969 -0.006300 0.010955 -0.003548 -0.002566 0.002183
# 4 -0.001985 0.009299 -0.003548 0.024437 0.006475 -0.002532
# 5 -0.004375 0.003915 -0.002566 0.006475 0.023838 0.000899
# 6 0.001836 0.003113 0.002183 -0.002532 0.000899 0.030378
#
#
# Mechanical properties :
#
#
# Convention : Reuss Voigt Hill
#
# Bulk Modulus (GPa) = 33.20806 41.76319 37.48562
# Shear Modulus (GPa) = 32.95292 41.63435 37.29364
#
# Velocity S-wave (km/s) = 3.69161 4.14949 3.92723
# Velocity P-wave (km/s) = 5.64837 6.34265 6.00555
#
# Compressibility (1/GPa) = 0.03011317
#
# Stress axis : x y z
#
# Youngs Moduli (GPa) = 78.83088 43.59884 91.28464
#
# Poissons Ratio (x) = 0.04195 0.08846
# Poissons Ratio (y) = 0.07586 0.57513
# Poissons Ratio (z) = 0.07639 0.27469
#
# Static dielectric constant tensor:
#      x y z
#    x 8.142010 7.118140 -3.600450 
#    y 7.118140 10.272040 -4.030620 
#    z -3.600450 -4.030620 4.168730 
# 
# From -- ./inp_files/447801.got.cif
#   From: 2010.05.17/outbox.cif.g08.bks.cpg/sg2_224_cif.got.tgz:447801.got - 2010.06.03 11:33:40.
