data_PCOD9063037
_publ_section_title
;
Structure prediction by ZEFSAII (Michael W. Deem and Ramdas Pophale) SiO2 
 PCOD9063037
Probable space group: P -1
;
_chemical_formula_sum "Si O2"
_cell_formula_units_Z 15
_cell_length_a 12.069357
_cell_length_b 18.561525
_cell_length_c 9.724551
_cell_angle_alpha 129.912735
_cell_angle_beta 70.413006
_cell_angle_gamma 150.557531
_cell_volume 661.473568
_symmetry_space_group_name_H-M "P -1"
_symmetry_group_IT_number 2
_symmetry_cell_setting 'triclinic'
loop_
_space_group_symop_operation_xyz
x,y,z
-x,-y,-z
loop_
_atom_site_type_symbol
_atom_site_label
_atom_site_fract_x
_atom_site_fract_y
_atom_site_fract_z
Si Si1 0.351412 0.796364 0.348906
Si Si2 0.000000 0.000000 0.500000
Si Si3 0.221993 0.216770 0.978732
Si Si4 0.730042 0.958189 0.595877
Si Si5 0.638319 0.469062 0.648334
Si Si6 0.236700 0.660094 0.927095
Si Si7 0.605762 0.769808 0.819888
Si Si8 0.789627 0.175477 0.027116
O O1 0.527362 0.859539 0.453554
O O2 0.052374 0.602664 0.302420
O O3 0.500000 0.000000 0.500000
O O4 0.300582 0.705794 0.117162
O O5 0.834540 0.866117 0.249158
O O6 0.016712 0.128938 0.625560
O O7 0.333481 0.404180 0.160283
O O8 0.401174 0.283261 0.092338
O O9 0.919055 0.002006 0.917197
O O10 0.620411 0.774241 0.465765
O O11 0.755231 0.048196 0.819509
O O12 0.571669 0.413487 0.446669
O O13 0.927216 0.623693 0.754572
O O14 0.482572 0.785471 0.900949
O O15 0.176330 0.722531 0.982041
O O16 0.500000 0.000000 0.000000
#
# Coordination Sequence:
#
# PCOD9063037 Si02
#       8
#     2   1   2   2   2   2   2   2
#     4  11  24  44  68  99 146 187 234 299 366 431
#     4  12  24  48  70 104 144 188 238 300 354 430
#     4  11  25  47  72 103 150 185 242 298 358 428
#     4  12  25  45  67 105 142 185 238 299 354 432
#     4  12  23  45  70 105 140 188 242 289 363 426
#     4  11  24  43  69 105 140 186 240 294 367 436
#     4  11  25  47  71 107 142 190 243 299 356 434
#     4  12  25  42  73 106 142 186 236 305 356 427
#
# _framework density 22.676642999999999
#
# number of rings (size 3 to 8) (size 9 to 14) (size 15 to 20)
#    0.000    0.533    5.333    2.800    1.867    2.667 
#    2.400    0.000    0.000    0.000    0.000    0.000 
#    0.000    0.000    0.000    0.000    0.000    0.000 
#
# Total GULP energy -83666.465166 kJ/mol
# GULP energy per Si atom -5577.764344 kJ/mol
# Density = 2.262503 g / cm^3
# Si number density = 22.676643 Si / 1000 Ang^3
#
#
#
# Elastic Constant Matrix: (Units=GPa)
#
#
# Indices 1 2 3 4 5 6 
#
# 1 135.4274 21.2112 74.0415 -8.8090 12.2671 -6.0634
# 2 21.2112 52.5631 38.0581 -4.7869 2.9815 -2.0615
# 3 74.0415 38.0581 127.3078 -21.2670 12.1948 -9.3600
# 4 -8.8090 -4.7869 -21.2670 30.2501 -0.5461 -1.5199
# 5 12.2671 2.9815 12.1948 -0.5461 57.3398 -8.6188
# 6 -6.0634 -2.0615 -9.3600 -1.5199 -8.6188 41.6027
#
#
#
# Elastic Compliance Matrix: (Units=1/GPa)
#
#
# Indices 1 2 3 4 5 6 
#
# 1 0.010939 0.000286 -0.006603 -0.001436 -0.000985 -0.000134
# 2 0.000286 0.024358 -0.007766 -0.001543 0.000233 -0.000507
# 3 -0.006603 -0.007766 0.015607 0.007913 -0.001093 0.002227
# 4 -0.001436 -0.001543 0.007913 0.038089 -0.000515 0.002779
# 5 -0.000985 0.000233 -0.001093 -0.000515 0.018379 0.003411
# 6 -0.000134 -0.000507 0.002227 0.002779 0.003411 0.025302
#
#
# Mechanical properties :
#
#
# Convention : Reuss Voigt Hill
#
# Bulk Modulus (GPa) = 43.97579 64.65776 54.31678
# Shear Modulus (GPa) = 29.68803 37.97102 33.82952
#
# Velocity S-wave (km/s) = 3.62220 4.09645 3.86660
# Velocity P-wave (km/s) = 6.07687 7.13788 6.62864
#
# Compressibility (1/GPa) = 0.02273978
#
# Stress axis : x y z
#
# Youngs Moduli (GPa) = 91.41558 41.05374 64.07342
#
# Poissons Ratio (x) = -0.01176 0.42308
# Poissons Ratio (y) = -0.02619 0.49758
# Poissons Ratio (z) = 0.60363 0.31881
#
# Static dielectric constant tensor:
#      x y z
#    x 1.717930 -0.216300 0.023810 
#    y -0.216300 1.471530 0.040300 
#    z 0.023810 0.040300 1.828440 
# 
# From -- ./inp_files/279843.got.cif
#   From: 2010.05.17/outbox.cif.g08.bks.cpg/sg2_140_cif.got.tgz:279843.got - 2010.06.03 11:33:40.
