data_PCOD9063682
_publ_section_title
;
Structure prediction by ZEFSAII (Michael W. Deem and Ramdas Pophale) SiO2 
 PCOD9063682
Probable space group: P -1
;
_chemical_formula_sum "Si O2"
_cell_formula_units_Z 16
_cell_length_a 6.040653
_cell_length_b 13.759722
_cell_length_c 11.969948
_cell_angle_alpha 52.549739
_cell_angle_beta 104.976992
_cell_angle_gamma 78.319111
_cell_volume 673.932259
_symmetry_space_group_name_H-M "P -1"
_symmetry_group_IT_number 2
_symmetry_cell_setting 'triclinic'
loop_
_space_group_symop_operation_xyz
x,y,z
-x,-y,-z
loop_
_atom_site_type_symbol
_atom_site_label
_atom_site_fract_x
_atom_site_fract_y
_atom_site_fract_z
Si Si1 0.194511 0.383919 0.826030
Si Si2 0.573593 0.619621 0.902842
Si Si3 0.587157 0.919075 0.951961
Si Si4 0.378407 0.836106 0.334845
Si Si5 0.924514 0.993651 0.298782
Si Si6 0.212331 0.358795 0.307148
Si Si7 0.983959 0.165213 0.351329
Si Si8 0.672007 0.567159 0.415008
O O1 0.367942 0.415978 0.736953
O O2 0.919596 0.521243 0.702816
O O3 0.290169 0.367190 0.977535
O O4 0.199056 0.240245 0.893551
O O5 0.725005 0.579595 0.835522
O O6 0.326568 0.766753 0.740991
O O7 0.500000 0.500000 0.000000
O O8 0.654411 0.017614 0.814435
O O9 0.341414 0.915945 0.862659
O O10 0.500000 0.000000 0.000000
O O11 0.094418 0.872555 0.318001
O O12 0.551282 0.768885 0.513612
O O13 0.528215 0.721768 0.340072
O O14 0.899452 0.925942 0.459063
O O15 0.065800 0.080060 0.305832
O O16 0.036899 0.293957 0.282606
O O17 0.500000 0.500000 0.500000
O O18 0.000000 0.500000 0.500000
#
# Coordination Sequence:
#
# PCOD9063682 Si02
#       8
#     2   2   2   2   2   2   2   2
#     4  12  27  49  74 115 154 200 258 337 395 468
#     4  12  26  43  71 111 149 192 248 326 400 458
#     4  12  27  50  71 108 155 195 260 317 401 458
#     4  12  27  47  80 107 152 208 261 321 390 483
#     4  11  26  45  73 107 149 203 249 319 385 487
#     4  12  26  46  77 111 150 200 260 315 400 479
#     4  11  24  44  72 106 151 196 255 306 398 477
#     4  12  30  53  84 116 155 217 278 331 397 475
#
# _framework density 23.741257000000001
#
# number of rings (size 3 to 8) (size 9 to 14) (size 15 to 20)
#    0.000    0.250    7.500    0.375    7.000    1.000 
#    2.250    0.000    0.000    0.000    0.000    0.000 
#    0.000    0.000    0.000    0.000    0.000    0.000 
#
# Total GULP energy -89254.172730 kJ/mol
# GULP energy per Si atom -5578.385796 kJ/mol
# Density = 2.368722 g / cm^3
# Si number density = 23.741257 Si / 1000 Ang^3
#
#
#
# Elastic Constant Matrix: (Units=GPa)
#
#
# Indices 1 2 3 4 5 6 
#
# 1 54.6337 36.7522 29.8850 -1.1233 -17.2360 -11.0420
# 2 36.7522 142.3563 29.0425 -3.7243 -28.2859 -22.6332
# 3 29.8850 29.0425 102.2858 1.8213 -31.1631 -8.8407
# 4 -1.1233 -3.7243 1.8213 56.5901 -4.2878 -8.5421
# 5 -17.2360 -28.2859 -31.1631 -4.2878 37.0670 6.2097
# 6 -11.0420 -22.6332 -8.8407 -8.5421 6.2097 32.7244
#
#
#
# Elastic Compliance Matrix: (Units=1/GPa)
#
#
# Indices 1 2 3 4 5 6 
#
# 1 0.025935 -0.004175 -0.004732 0.001343 0.004363 0.004108
# 2 -0.004175 0.009917 0.000437 0.001716 0.005355 0.005000
# 3 -0.004732 0.000437 0.014113 0.000342 0.009916 0.000726
# 4 0.001343 0.001716 0.000342 0.018969 0.003404 0.006038
# 5 0.004363 0.005355 0.009916 0.003404 0.041684 0.000833
# 6 0.004108 0.005000 0.000726 0.006038 0.000833 0.037017
#
#
# Mechanical properties :
#
#
# Convention : Reuss Voigt Hill
#
# Bulk Modulus (GPa) = 30.28007 54.51500 42.39754
# Shear Modulus (GPa) = 28.47676 38.84940 33.66308
#
# Velocity S-wave (km/s) = 3.46708 4.04959 3.76961
# Velocity P-wave (km/s) = 5.36744 6.69907 6.06989
#
# Compressibility (1/GPa) = 0.03302502
#
# Stress axis : x y z
#
# Youngs Moduli (GPa) = 38.55826 100.83454 70.85856
#
# Poissons Ratio (x) = 0.42101 0.33528
# Poissons Ratio (y) = 0.16099 -0.03097
# Poissons Ratio (z) = 0.18244 -0.04407
#
# Static dielectric constant tensor:
#      x y z
#    x 1.937970 0.092610 0.156580 
#    y 0.092610 1.776540 -0.270460 
#    z 0.156580 -0.270460 1.641500 
# 
# From -- ./inp_files/367494.got.cif
#   From: 2010.05.17/outbox.cif.g08.bks.cpg/sg2_184_cif.got.tgz:367494.got - 2010.06.03 11:33:40.
