data_PCOD9063936
_publ_section_title
;
Structure prediction by ZEFSAII (Michael W. Deem and Ramdas Pophale) SiO2 
 PCOD9063936
Probable space group: P -1
;
_chemical_formula_sum "Si O2"
_cell_formula_units_Z 16
_cell_length_a 15.667728
_cell_length_b 5.475405
_cell_length_c 24.927961
_cell_angle_alpha 70.409654
_cell_angle_beta 160.514169
_cell_angle_gamma 108.854667
_cell_volume 671.883652
_symmetry_space_group_name_H-M "P -1"
_symmetry_group_IT_number 2
_symmetry_cell_setting 'triclinic'
loop_
_space_group_symop_operation_xyz
x,y,z
-x,-y,-z
loop_
_atom_site_type_symbol
_atom_site_label
_atom_site_fract_x
_atom_site_fract_y
_atom_site_fract_z
Si Si1 0.255416 0.384360 0.988913
Si Si2 0.549914 0.777155 0.619327
Si Si3 0.881052 0.516708 0.554509
Si Si4 0.080090 0.866415 0.487465
Si Si5 0.438254 0.062976 0.777046
Si Si6 0.573990 0.702366 0.076443
Si Si7 0.693890 0.272273 0.631564
Si Si8 0.909234 0.432168 0.011966
O O1 0.203185 0.377500 0.022718
O O2 0.981618 0.365678 0.800654
O O3 0.417868 0.139607 0.086085
O O4 0.414645 0.623736 0.041498
O O5 0.381578 0.568867 0.566345
O O6 0.359345 0.831300 0.452128
O O7 0.840536 0.673727 0.800117
O O8 0.619406 0.078247 0.650504
O O9 0.922178 0.829665 0.557361
O O10 0.126805 0.361542 0.733014
O O11 0.842087 0.371938 0.485365
O O12 0.791293 0.801451 0.339015
O O13 0.279197 0.895439 0.651551
O O14 0.667348 0.236181 0.876184
O O15 0.500000 0.500000 0.000000
O O16 0.500000 0.000000 0.000000
O O17 0.500000 0.500000 0.500000
O O18 0.000000 0.500000 0.000000
#
# Coordination Sequence:
#
# PCOD9063936 Si02
#       8
#     2   2   2   2   2   2   2   2
#     4  12  26  47  79 105 154 196 257 319 383 456
#     4  11  26  43  71 103 147 193 250 314 374 459
#     4  12  26  48  72 108 149 191 250 309 382 447
#     4  11  27  47  76 107 145 198 246 306 383 453
#     4  11  26  47  74 104 148 195 250 308 380 448
#     4  12  28  47  79 114 150 197 258 323 385 449
#     4  11  24  45  67 102 141 199 249 304 386 443
#     4  12  27  46  73 113 150 200 256 311 381 459
#
# _framework density 23.813647
#
# number of rings (size 3 to 8) (size 9 to 14) (size 15 to 20)
#    0.000    0.500    3.750    3.000    8.750    2.500 
#    0.000    0.000    0.000    0.000    0.000    0.000 
#    0.000    0.000    0.000    0.000    0.000    0.000 
#
# Total GULP energy -89190.840327 kJ/mol
# GULP energy per Si atom -5574.427520 kJ/mol
# Density = 2.375945 g / cm^3
# Si number density = 23.813647 Si / 1000 Ang^3
#
#
#
# Elastic Constant Matrix: (Units=GPa)
#
#
# Indices 1 2 3 4 5 6 
#
# 1 81.8943 29.4498 12.9613 22.0385 16.7066 13.3446
# 2 29.4498 107.5930 20.6609 -2.5268 21.5391 21.5128
# 3 12.9613 20.6609 158.8636 12.6610 26.4307 9.6290
# 4 22.0385 -2.5268 12.6610 43.3689 2.5173 -0.8120
# 5 16.7066 21.5391 26.4307 2.5173 34.9865 20.5481
# 6 13.3446 21.5128 9.6290 -0.8120 20.5481 35.9377
#
#
#
# Elastic Compliance Matrix: (Units=1/GPa)
#
#
# Indices 1 2 3 4 5 6 
#
# 1 0.017071 -0.003711 0.000684 -0.008854 -0.004672 -0.001829
# 2 -0.003711 0.011868 -0.000750 0.002898 -0.002965 -0.003765
# 3 0.000684 -0.000750 0.007466 -0.002165 -0.006414 0.001813
# 4 -0.008854 0.002898 -0.002165 0.028367 0.000616 0.002422
# 5 -0.004672 -0.002965 -0.006414 0.000616 0.051734 -0.024338
# 6 -0.001829 -0.003765 0.001813 0.002422 -0.024338 0.044243
#
#
# Mechanical properties :
#
#
# Convention : Reuss Voigt Hill
#
# Bulk Modulus (GPa) = 34.66061 52.72166 43.69114
# Shear Modulus (GPa) = 28.10220 41.87722 34.98971
#
# Velocity S-wave (km/s) = 3.43897 4.19804 3.83732
# Velocity P-wave (km/s) = 5.50956 6.75910 6.16606
#
# Compressibility (1/GPa) = 0.02885120
#
# Stress axis : x y z
#
# Youngs Moduli (GPa) = 58.57941 84.25694 133.93581
#
# Poissons Ratio (x) = 0.31265 -0.09156
# Poissons Ratio (y) = 0.21737 0.10048
# Poissons Ratio (z) = -0.04005 0.06321
#
# Static dielectric constant tensor:
#      x y z
#    x 2.004900 0.076200 -0.002970 
#    y 0.076200 1.992970 -0.013810 
#    z -0.002970 -0.013810 1.825070 
# 
# From -- ./inp_files/511023.got.cif
#   From: 2010.05.17/outbox.cif.g08.bks.cpg/sg2_256_cif.got.tgz:511023.got - 2010.06.03 11:33:40.
