data_PCOD9063237
_publ_section_title
;
Structure prediction by ZEFSAII (Michael W. Deem and Ramdas Pophale) SiO2 
 PCOD9063237
Probable space group: P -1
;
_chemical_formula_sum "Si O2"
_cell_formula_units_Z 16
_cell_length_a 12.391515
_cell_length_b 8.951137
_cell_length_c 19.104142
_cell_angle_alpha 31.159734
_cell_angle_beta 134.353261
_cell_angle_gamma 139.221608
_cell_volume 707.882754
_symmetry_space_group_name_H-M "P -1"
_symmetry_group_IT_number 2
_symmetry_cell_setting 'triclinic'
loop_
_space_group_symop_operation_xyz
x,y,z
-x,-y,-z
loop_
_atom_site_type_symbol
_atom_site_label
_atom_site_fract_x
_atom_site_fract_y
_atom_site_fract_z
Si Si1 0.205204 0.781298 0.182147
Si Si2 0.702627 0.494054 0.414859
Si Si3 0.232099 0.697752 0.632113
Si Si4 0.145073 0.821098 0.760598
Si Si5 0.656677 0.624499 0.658390
Si Si6 0.119298 0.763141 0.306167
Si Si7 0.980695 0.779740 0.840149
Si Si8 0.322899 0.458216 0.908478
O O1 0.351773 0.682670 0.265487
O O2 0.202453 0.864642 0.228267
O O3 0.037174 0.450589 0.232034
O O4 0.208001 0.075941 0.019354
O O5 0.764759 0.466161 0.375715
O O6 0.511219 0.434755 0.352853
O O7 0.741057 0.232068 0.579007
O O8 0.791976 0.809664 0.378710
O O9 0.322638 0.589232 0.777618
O O10 0.042903 0.578490 0.623238
O O11 0.303854 0.072732 0.495974
O O12 0.261733 0.665190 0.848156
O O13 0.132018 0.879354 0.813877
O O14 0.811538 0.694518 0.753033
O O15 0.031440 0.982470 0.203732
O O16 0.000000 0.500000 0.000000
O O17 0.500000 0.500000 0.000000
#
# Coordination Sequence:
#
# PCOD9063237 Si02
#       8
#     2   2   2   2   2   2   2   2
#     4  11  26  46  73 105 145 193 245 293 357 440
#     4  12  26  45  74 110 147 188 241 308 363 426
#     4  12  26  47  72 106 145 191 245 299 355 439
#     4  11  24  45  70 104 144 189 247 290 359 429
#     4  11  27  47  70 110 147 189 244 299 372 424
#     4  12  24  44  75 104 146 188 247 296 362 429
#     4  11  24  43  73 104 142 192 245 294 358 436
#     4  12  28  48  73 108 151 192 242 299 371 426
#
# _framework density 22.602612000000001
#
# number of rings (size 3 to 8) (size 9 to 14) (size 15 to 20)
#    0.000    0.500    3.750    4.125    7.000    2.500 
#    0.000    1.875    0.000    0.000    0.000    0.000 
#    0.000    0.000    0.000    0.000    0.000    0.000 
#
# Total GULP energy -89291.995468 kJ/mol
# GULP energy per Si atom -5580.749717 kJ/mol
# Density = 2.255117 g / cm^3
# Si number density = 22.602612 Si / 1000 Ang^3
#
#
#
# Elastic Constant Matrix: (Units=GPa)
#
#
# Indices 1 2 3 4 5 6 
#
# 1 80.4783 5.8645 51.7314 -3.7034 14.2117 -21.0117
# 2 5.8645 58.1710 46.9884 -6.1162 4.1967 -10.3424
# 3 51.7314 46.9884 159.1418 4.3344 11.1528 -18.2765
# 4 -3.7034 -6.1162 4.3344 40.6005 -8.7895 8.5042
# 5 14.2117 4.1967 11.1528 -8.7895 37.3463 0.0899
# 6 -21.0117 -10.3424 -18.2765 8.5042 0.0899 40.9099
#
#
#
# Elastic Compliance Matrix: (Units=1/GPa)
#
#
# Indices 1 2 3 4 5 6 
#
# 1 0.019491 0.005234 -0.006498 0.000192 -0.006040 0.008404
# 2 0.005234 0.024856 -0.008558 0.003944 -0.001311 0.004331
# 3 -0.006498 -0.008558 0.011068 -0.003224 -0.000630 0.000115
# 4 0.000192 0.003944 -0.003224 0.028450 0.007157 -0.006274
# 5 -0.006040 -0.001311 -0.000630 0.007157 0.031107 -0.005271
# 6 0.008404 0.004331 0.000115 -0.006274 -0.005271 0.031223
#
#
# Mechanical properties :
#
#
# Convention : Reuss Voigt Hill
#
# Bulk Modulus (GPa) = 27.95652 56.32882 42.14267
# Shear Modulus (GPa) = 28.12742 36.65178 32.38960
#
# Velocity S-wave (km/s) = 3.53148 4.03124 3.78961
# Velocity P-wave (km/s) = 5.38739 6.82960 6.15091
#
# Compressibility (1/GPa) = 0.03576983
#
# Stress axis : x y z
#
# Youngs Moduli (GPa) = 51.30629 40.23239 90.34970
#
# Poissons Ratio (x) = -0.21058 0.58709
# Poissons Ratio (y) = -0.26854 0.77325
# Poissons Ratio (z) = 0.33339 0.34432
#
# Static dielectric constant tensor:
#      x y z
#    x 1.800910 -0.019180 -0.008580 
#    y -0.019180 2.001340 -0.108780 
#    z -0.008580 -0.108780 1.913050 
# 
# From -- ./inp_files/206973.got.cif
#   From: 2010.05.17/outbox.cif.g08.bks.cpg/sg2_104_cif.got.tgz:206973.got - 2010.06.03 11:33:40.
