data_PCOD9063980
_publ_section_title
;
Structure prediction by ZEFSAII (Michael W. Deem and Ramdas Pophale) SiO2 
 PCOD9063980
Probable space group: P -1
;
_chemical_formula_sum "Si O2"
_cell_formula_units_Z 14
_cell_length_a 4.912432
_cell_length_b 10.012069
_cell_length_c 25.182888
_cell_angle_alpha 24.748359
_cell_angle_beta 75.140513
_cell_angle_gamma 71.329042
_cell_volume 489.387117
_symmetry_space_group_name_H-M "P -1"
_symmetry_group_IT_number 2
_symmetry_cell_setting 'triclinic'
loop_
_space_group_symop_operation_xyz
x,y,z
-x,-y,-z
loop_
_atom_site_type_symbol
_atom_site_label
_atom_site_fract_x
_atom_site_fract_y
_atom_site_fract_z
Si Si1 0.925419 0.297025 0.219753
Si Si2 0.635589 0.303868 0.390338
Si Si3 0.205665 0.944912 0.137122
Si Si4 0.684307 0.739055 0.878804
Si Si5 0.226243 0.127801 0.905313
Si Si6 0.325179 0.254119 0.628052
Si Si7 0.884299 0.125696 0.547669
O O1 0.085453 0.435715 0.113524
O O2 0.740469 0.557975 0.174454
O O3 0.166797 0.092802 0.321357
O O4 0.775478 0.019795 0.303998
O O5 0.424827 0.610563 0.265017
O O6 0.662142 0.314743 0.447917
O O7 0.500000 0.000000 0.500000
O O8 0.929544 0.160178 0.395490
O O9 0.943277 0.857749 0.148401
O O10 0.451466 0.085886 0.041572
O O11 0.144859 0.133949 0.127342
O O12 0.487074 0.035505 0.748166
O O13 0.500000 0.500000 0.000000
O O14 0.000000 0.000000 0.000000
O O15 0.500000 0.500000 0.500000
O O16 0.037339 0.538329 0.555539
#
# Coordination Sequence:
#
# PCOD9063980 Si02
#       7
#     2   2   2   2   2   2   2
#     4  12  28  48  82 115 168 216 285 350 417 503
#     4  11  25  40  75 107 160 198 269 335 422 476
#     4  12  28  51  81 117 163 213 280 343 421 497
#     4  12  30  50  80 120 170 223 277 351 428 506
#     4  12  29  54  83 115 161 223 285 344 416 508
#     4  12  28  47  80 115 162 216 281 342 427 498
#     4  11  24  45  68 117 147 212 265 343 404 496
#
# _framework density 28.607211
#
# number of rings (size 3 to 8) (size 9 to 14) (size 15 to 20)
#    0.000    0.286    4.286    2.571   12.000    0.571 
#    0.000    0.000    0.000    0.000    0.000    0.000 
#    0.000    0.000    0.000    0.000    0.000    0.000 
#
# Total GULP energy -78219.365951 kJ/mol
# GULP energy per Si atom -5587.097568 kJ/mol
# Density = 2.854210 g / cm^3
# Si number density = 28.607211 Si / 1000 Ang^3
#
#
#
# Elastic Constant Matrix: (Units=GPa)
#
#
# Indices 1 2 3 4 5 6 
#
# 1 139.1153 67.5447 38.6740 7.8476 7.4803 10.6506
# 2 67.5447 214.7599 68.2385 5.2471 6.8832 19.8876
# 3 38.6740 68.2385 116.4236 21.4961 1.8080 15.6313
# 4 7.8476 5.2471 21.4961 68.0292 2.0693 1.5290
# 5 7.4803 6.8832 1.8080 2.0693 51.5542 -1.1521
# 6 10.6506 19.8876 15.6313 1.5290 -1.1521 52.8203
#
#
#
# Elastic Compliance Matrix: (Units=1/GPa)
#
#
# Indices 1 2 3 4 5 6 
#
# 1 0.008778 -0.002206 -0.001478 -0.000336 -0.000925 -0.000513
# 2 -0.002206 0.006404 -0.003003 0.000749 -0.000485 -0.001110
# 3 -0.001478 -0.003003 0.011697 -0.003259 0.000293 -0.001932
# 4 -0.000336 0.000749 -0.003259 0.015721 -0.000562 0.000283
# 5 -0.000925 -0.000485 0.000293 -0.000562 0.019625 0.000727
# 6 -0.000513 -0.001110 -0.001932 0.000283 0.000727 0.020033
#
#
# Mechanical properties :
#
#
# Convention : Reuss Voigt Hill
#
# Bulk Modulus (GPa) = 74.03856 91.02372 82.53114
# Shear Modulus (GPa) = 49.93375 54.20350 52.06863
#
# Velocity S-wave (km/s) = 4.18245 4.35759 4.27092
# Velocity P-wave (km/s) = 7.01862 7.56345 7.29612
#
# Compressibility (1/GPa) = 0.01350648
#
# Stress axis : x y z
#
# Youngs Moduli (GPa) = 113.91986 156.14622 85.49342
#
# Poissons Ratio (x) = 0.34445 0.12634
# Poissons Ratio (y) = 0.25130 0.25670
# Poissons Ratio (z) = 0.16835 0.46885
#
# Static dielectric constant tensor:
#      x y z
#    x 2.325540 -0.123160 -0.021050 
#    y -0.123160 2.079980 0.038670 
#    z -0.021050 0.038670 2.376660 
# 
# From -- ./inp_files/603939.got.cif
#   From: 2010.05.17/outbox.cif.g08.bks.cpg/sg2_302_cif.got.tgz:603939.got - 2010.06.03 11:33:40.
