data_PCOD9063120
_publ_section_title
;
Structure prediction by ZEFSAII (Michael W. Deem and Ramdas Pophale) SiO2 
 PCOD9063120
Probable space group: P -1
;
_chemical_formula_sum "Si O2"
_cell_formula_units_Z 16
_cell_length_a 12.191336
_cell_length_b 11.921926
_cell_length_c 8.926023
_cell_angle_alpha 72.824146
_cell_angle_beta 127.621441
_cell_angle_gamma 131.506857
_cell_volume 756.365501
_symmetry_space_group_name_H-M "P -1"
_symmetry_group_IT_number 2
_symmetry_cell_setting 'triclinic'
loop_
_space_group_symop_operation_xyz
x,y,z
-x,-y,-z
loop_
_atom_site_type_symbol
_atom_site_label
_atom_site_fract_x
_atom_site_fract_y
_atom_site_fract_z
Si Si1 0.365750 0.568279 0.694428
Si Si2 0.872397 0.580457 0.957316
Si Si3 0.167788 0.027358 0.700438
Si Si4 0.531796 0.902850 0.663345
Si Si5 0.019941 0.439255 0.275700
Si Si6 0.060164 0.917302 0.994481
Si Si7 0.667367 0.115929 0.201919
Si Si8 0.505562 0.382056 0.873305
O O1 0.467834 0.735211 0.639400
O O2 0.159607 0.478367 0.506521
O O3 0.436586 0.477181 0.745025
O O4 0.407397 0.586918 0.900300
O O5 0.916664 0.582000 0.820291
O O6 0.665624 0.439661 0.870791
O O7 0.915329 0.737384 0.970427
O O8 0.998431 0.565402 0.171077
O O9 0.337115 0.204571 0.792460
O O10 0.097500 0.951095 0.835295
O O11 0.231168 0.953863 0.678412
O O12 0.000000 0.000000 0.500000
O O13 0.420925 0.874462 0.731208
O O14 0.500000 0.000000 0.500000
O O15 0.744689 0.013402 0.813248
O O16 0.820842 0.284878 0.203078
O O17 0.000000 0.000000 0.000000
O O18 0.500000 0.000000 0.000000
#
# Coordination Sequence:
#
# PCOD9063120 Si02
#       8
#     2   2   2   2   2   2   2   2
#     4  11  24  45  67 102 139 182 235 280 358 412
#     4  11  24  44  69 104 137 181 232 289 352 410
#     4  12  26  48  72 103 135 192 237 283 356 418
#     4  12  26  44  70 105 139 185 233 288 354 413
#     4  11  24  43  71 101 141 181 233 291 348 416
#     4  12  26  47  69 103 145 179 233 296 352 417
#     4  12  23  47  72  97 142 184 237 290 339 422
#     4  11  25  45  72  98 141 183 232 289 346 423
#
# _framework density 21.153794999999999
#
# number of rings (size 3 to 8) (size 9 to 14) (size 15 to 20)
#    0.000    0.500    3.750    3.750    3.500    6.500 
#    0.000    0.000    0.000    0.000    0.000    0.000 
#    0.000    0.000    0.000    0.000    0.000    0.000 
#
# Total GULP energy -89435.758427 kJ/mol
# GULP energy per Si atom -5589.734902 kJ/mol
# Density = 2.110565 g / cm^3
# Si number density = 21.153795 Si / 1000 Ang^3
#
#
#
# Elastic Constant Matrix: (Units=GPa)
#
#
# Indices 1 2 3 4 5 6 
#
# 1 91.7149 18.7269 24.1254 -5.6187 18.6237 -1.1749
# 2 18.7269 114.9525 52.1477 -9.0960 6.3634 -5.0796
# 3 24.1254 52.1477 110.3093 -1.6454 34.6120 6.0306
# 4 -5.6187 -9.0960 -1.6454 29.1782 -1.7993 13.5410
# 5 18.6237 6.3634 34.6120 -1.7993 25.5521 -3.2442
# 6 -1.1749 -5.0796 6.0306 13.5410 -3.2442 47.9774
#
#
#
# Elastic Compliance Matrix: (Units=1/GPa)
#
#
# Indices 1 2 3 4 5 6 
#
# 1 0.013386 -0.002379 0.002096 0.001928 -0.012063 -0.001548
# 2 -0.002379 0.013039 -0.009445 0.002608 0.011791 0.002571
# 3 0.002096 -0.009445 0.023256 -0.000443 -0.031454 -0.005874
# 4 0.001928 0.002608 -0.000443 0.040569 -0.000004 -0.011071
# 5 -0.012063 0.011791 -0.031454 -0.000004 0.088985 0.010925
# 6 -0.001548 0.002571 -0.005874 -0.011071 0.010925 0.025679
#
#
# Mechanical properties :
#
#
# Convention : Reuss Voigt Hill
#
# Bulk Modulus (GPa) = 33.08683 56.33073 44.70878
# Shear Modulus (GPa) = 21.32694 35.33997 28.33346
#
# Velocity S-wave (km/s) = 3.17864 4.09176 3.66376
# Velocity P-wave (km/s) = 5.39877 7.00073 6.25128
#
# Compressibility (1/GPa) = 0.03022350
#
# Stress axis : x y z
#
# Youngs Moduli (GPa) = 74.70612 76.69467 42.99990
#
# Poissons Ratio (x) = 0.18249 -0.09012
# Poissons Ratio (y) = 0.17776 0.40612
# Poissons Ratio (z) = -0.15656 0.72436
#
# Static dielectric constant tensor:
#      x y z
#    x 1.656930 -0.025120 0.016940 
#    y -0.025120 1.765190 -0.017620 
#    z 0.016940 -0.017620 1.740330 
# 
# From -- ./inp_files/185815.got.cif
#   From: 2010.05.17/outbox.cif.g08.bks.cpg/sg2_93_cif.got.tgz:185815.got - 2010.06.03 11:33:40.
