data_PCOD9063238
_publ_section_title
;
Structure prediction by ZEFSAII (Michael W. Deem and Ramdas Pophale) SiO2 
 PCOD9063238
Probable space group: P -1
;
_chemical_formula_sum "Si O2"
_cell_formula_units_Z 16
_cell_length_a 8.821623
_cell_length_b 26.131573
_cell_length_c 14.342648
_cell_angle_alpha 20.487424
_cell_angle_beta 128.647498
_cell_angle_gamma 139.903364
_cell_volume 680.371687
_symmetry_space_group_name_H-M "P -1"
_symmetry_group_IT_number 2
_symmetry_cell_setting 'triclinic'
loop_
_space_group_symop_operation_xyz
x,y,z
-x,-y,-z
loop_
_atom_site_type_symbol
_atom_site_label
_atom_site_fract_x
_atom_site_fract_y
_atom_site_fract_z
Si Si1 0.564638 0.690690 0.154689
Si Si2 0.632200 0.204481 0.248394
Si Si3 0.806029 0.598335 0.883837
Si Si4 0.693443 0.532681 0.153386
Si Si5 0.274330 0.059279 0.026642
Si Si6 0.019407 0.192680 0.029361
Si Si7 0.481775 0.840241 0.512203
Si Si8 0.652278 0.208088 0.754545
O O1 0.500000 0.500000 0.500000
O O2 0.617406 0.820205 0.041730
O O3 0.815837 0.809995 0.980315
O O4 0.360626 0.662158 0.052984
O O5 0.488264 0.167293 0.352489
O O6 0.500000 0.000000 0.500000
O O7 0.915954 0.293304 0.234098
O O8 0.817100 0.658771 0.891295
O O9 0.662663 0.372494 0.216269
O O10 0.614361 0.601997 0.744452
O O11 0.746810 0.387251 0.422579
O O12 0.805637 0.665261 0.061031
O O13 0.461808 0.183564 0.799642
O O14 0.313301 0.902739 0.319586
O O15 0.000000 0.000000 0.000000
O O16 0.900415 0.270175 0.796145
O O17 0.761790 0.991901 0.314116
O O18 0.500000 0.000000 0.000000
#
# Coordination Sequence:
#
# PCOD9063238 Si02
#       8
#     2   2   2   2   2   2   2   2
#     4  12  28  46  74 111 145 197 244 309 376 440
#     4  12  26  47  75 105 151 195 247 313 370 443
#     4  11  27  43  74 106 149 191 251 310 367 452
#     4  11  24  44  69 107 142 194 244 303 372 440
#     4  11  25  42  69 106 146 187 241 301 368 445
#     4  11  25  46  76 105 152 190 253 307 369 452
#     4  11  25  48  72 109 143 203 246 307 381 432
#     4  11  24  43  73 104 144 194 240 306 370 439
#
# _framework density 23.516559999999998
#
# number of rings (size 3 to 8) (size 9 to 14) (size 15 to 20)
#    0.000    0.750    1.250    5.250    7.000    5.000 
#    0.000    0.000    0.000    0.000    0.000    0.000 
#    0.000    0.000    0.000    0.000    0.000    0.000 
#
# Total GULP energy -89550.632442 kJ/mol
# GULP energy per Si atom -5596.914528 kJ/mol
# Density = 2.346303 g / cm^3
# Si number density = 23.516560 Si / 1000 Ang^3
#
#
#
# Elastic Constant Matrix: (Units=GPa)
#
#
# Indices 1 2 3 4 5 6 
#
# 1 121.1656 33.2678 10.5274 -4.0765 -9.6879 -11.5325
# 2 33.2678 94.7953 18.8584 17.7397 -10.3133 -10.3223
# 3 10.5274 18.8584 77.5732 18.2156 4.9742 -4.6967
# 4 -4.0765 17.7397 18.2156 33.3913 2.4945 -2.0628
# 5 -9.6879 -10.3133 4.9742 2.4945 31.9258 -0.6301
# 6 -11.5325 -10.3223 -4.6967 -2.0628 -0.6301 46.6530
#
#
#
# Elastic Compliance Matrix: (Units=1/GPa)
#
#
# Indices 1 2 3 4 5 6 
#
# 1 0.009758 -0.003475 -0.001374 0.003758 0.001792 0.001695
# 2 -0.003475 0.014096 -0.001392 -0.007362 0.004328 0.001853
# 3 -0.001374 -0.001392 0.015403 -0.007599 -0.002662 0.000531
# 4 0.003758 -0.007362 -0.007599 0.038706 -0.003074 0.000205
# 5 0.001792 0.004328 -0.002662 -0.003074 0.033948 0.001455
# 6 0.001695 0.001853 0.000531 0.000205 0.001455 0.022346
#
#
# Mechanical properties :
#
#
# Convention : Reuss Voigt Hill
#
# Bulk Modulus (GPa) = 37.34742 46.53792 41.94267
# Shear Modulus (GPa) = 32.12069 37.78606 34.95337
#
# Velocity S-wave (km/s) = 3.69978 4.01282 3.85948
# Velocity P-wave (km/s) = 5.84526 6.42672 6.14287
#
# Compressibility (1/GPa) = 0.02677561
#
# Stress axis : x y z
#
# Youngs Moduli (GPa) = 102.48359 70.94393 64.92152
#
# Poissons Ratio (x) = 0.24650 0.08921
# Poissons Ratio (y) = 0.35609 0.09035
# Poissons Ratio (z) = 0.14083 0.09873
#
# Static dielectric constant tensor:
#      x y z
#    x 1.913530 0.031020 0.009360 
#    y 0.031020 1.945400 0.086230 
#    z 0.009360 0.086230 1.931510 
# 
# From -- ./inp_files/508985.got.cif
#   From: 2010.05.17/outbox.cif.g08.bks.cpg/sg2_255_cif.got.tgz:508985.got - 2010.06.03 11:33:40.
