data_PCOD9063523
_publ_section_title
;
Structure prediction by ZEFSAII (Michael W. Deem and Ramdas Pophale) SiO2 
 PCOD9063523
Probable space group: P -1
;
_chemical_formula_sum "Si O2"
_cell_formula_units_Z 14
_cell_length_a 6.775515
_cell_length_b 10.725879
_cell_length_c 11.595260
_cell_angle_alpha 71.420002
_cell_angle_beta 67.421846
_cell_angle_gamma 46.347360
_cell_volume 561.156973
_symmetry_space_group_name_H-M "P -1"
_symmetry_group_IT_number 2
_symmetry_cell_setting 'triclinic'
loop_
_space_group_symop_operation_xyz
x,y,z
-x,-y,-z
loop_
_atom_site_type_symbol
_atom_site_label
_atom_site_fract_x
_atom_site_fract_y
_atom_site_fract_z
Si Si1 0.149959 0.795331 0.018112
Si Si2 0.250098 0.243476 0.515557
Si Si3 0.295544 0.302457 0.003254
Si Si4 0.223194 0.559629 0.610049
Si Si5 0.244232 0.264598 0.779027
Si Si6 0.141799 0.978578 0.594484
Si Si7 0.972709 0.819401 0.796011
O O1 0.468396 0.692356 0.011711
O O2 0.009521 0.738699 0.145910
O O3 0.125557 0.754727 0.903877
O O4 0.000000 0.000000 0.000000
O O5 0.332191 0.208316 0.643219
O O6 0.531409 0.189764 0.411283
O O7 0.987447 0.403430 0.454958
O O8 0.172895 0.121687 0.549415
O O9 0.380194 0.198315 0.894863
O O10 0.000000 0.500000 0.000000
O O11 0.270196 0.191886 0.132076
O O12 0.500000 0.500000 0.500000
O O13 0.230011 0.428740 0.727707
O O14 0.126547 0.709335 0.677684
O O15 0.943266 0.986222 0.728751
O O16 0.000000 0.000000 0.500000
#
# Coordination Sequence:
#
# PCOD9063523 Si02
#       7
#     2   2   2   2   2   2   2
#     4  11  28  49  73 106 141 193 241 304 357 422
#     4  11  26  43  69 105 139 186 234 288 363 426
#     4  11  26  47  73 105 139 188 239 301 354 420
#     4  12  26  46  70 108 146 190 233 298 358 434
#     4  11  26  46  73 100 144 182 242 291 357 422
#     4  11  24  44  70 101 141 186 229 293 357 424
#     4  11  25  46  74 101 146 184 242 293 359 428
#
# _framework density 24.948457000000001
#
# number of rings (size 3 to 8) (size 9 to 14) (size 15 to 20)
#    0.000    0.857    2.857    2.143    4.000    9.143 
#    0.000    0.000    0.000    0.000    0.000    0.000 
#    0.000    0.000    0.000    0.000    0.000    0.000 
#
# Total GULP energy -78057.096410 kJ/mol
# GULP energy per Si atom -5575.506886 kJ/mol
# Density = 2.489167 g / cm^3
# Si number density = 24.948457 Si / 1000 Ang^3
#
#
#
# Elastic Constant Matrix: (Units=GPa)
#
#
# Indices 1 2 3 4 5 6 
#
# 1 98.2717 5.8873 17.9393 10.2169 -13.6981 13.6796
# 2 5.8873 39.2500 18.4217 6.5536 -8.4509 -2.2558
# 3 17.9393 18.4217 136.8699 5.7897 -28.5641 -1.7256
# 4 10.2169 6.5536 5.7897 33.9859 21.4709 -4.5266
# 5 -13.6981 -8.4509 -28.5641 21.4709 71.5755 -0.3399
# 6 13.6796 -2.2558 -1.7256 -4.5266 -0.3399 41.3375
#
#
#
# Elastic Compliance Matrix: (Units=1/GPa)
#
#
# Indices 1 2 3 4 5 6 
#
# 1 0.012231 0.000197 -0.000518 -0.006924 0.004212 -0.004782
# 2 0.000197 0.029129 -0.002556 -0.008293 0.004947 0.000550
# 3 -0.000518 -0.002556 0.008721 -0.003424 0.004107 0.000055
# 4 -0.006924 -0.008293 -0.003424 0.045476 -0.017281 0.006534
# 5 0.004212 0.004947 0.004107 -0.017281 0.022172 -0.002662
# 6 -0.004782 0.000550 0.000055 0.006534 -0.002662 0.026500
#
#
# Mechanical properties :
#
#
# Convention : Reuss Voigt Hill
#
# Bulk Modulus (GPa) = 22.56001 39.87647 31.21824
# Shear Modulus (GPa) = 30.34734 44.85602 37.60168
#
# Velocity S-wave (km/s) = 3.49148 4.24482 3.88645
# Velocity P-wave (km/s) = 5.03152 6.32795 5.71660
#
# Compressibility (1/GPa) = 0.04432622
#
# Stress axis : x y z
#
# Youngs Moduli (GPa) = 81.75739 34.32960 114.66933
#
# Poissons Ratio (x) = -0.00675 0.05940
# Poissons Ratio (y) = -0.01608 0.29312
# Poissons Ratio (z) = 0.04235 0.08775
#
# Static dielectric constant tensor:
#      x y z
#    x 2.270710 0.008080 0.057980 
#    y 0.008080 2.283370 0.013320 
#    z 0.057980 0.013320 1.925050 
# 
# From -- ./inp_files/364009.got.cif
#   From: 2010.05.17/outbox.cif.g08.bks.cpg/sg2_183_cif.got.tgz:364009.got - 2010.06.03 11:33:40.
