data_PCOD9063244
_publ_section_title
;
Structure prediction by ZEFSAII (Michael W. Deem and Ramdas Pophale) SiO2 
 PCOD9063244
Probable space group: P -1
;
_chemical_formula_sum "Si O2"
_cell_formula_units_Z 14
_cell_length_a 9.350322
_cell_length_b 13.605688
_cell_length_c 17.798116
_cell_angle_alpha 157.566237
_cell_angle_beta 139.522336
_cell_angle_gamma 43.603662
_cell_volume 558.883850
_symmetry_space_group_name_H-M "P -1"
_symmetry_group_IT_number 2
_symmetry_cell_setting 'triclinic'
loop_
_space_group_symop_operation_xyz
x,y,z
-x,-y,-z
loop_
_atom_site_type_symbol
_atom_site_label
_atom_site_fract_x
_atom_site_fract_y
_atom_site_fract_z
Si Si1 0.047194 0.712705 0.782641
Si Si2 0.261822 0.089449 0.779312
Si Si3 0.436673 0.367132 0.456467
Si Si4 0.452989 0.209678 0.792482
Si Si5 0.062065 0.002068 0.194538
Si Si6 0.669132 0.746875 0.911377
Si Si7 0.142263 0.204451 0.535211
O O1 0.819075 0.579851 0.596772
O O2 0.084231 0.778552 0.756944
O O3 0.183493 0.503807 0.741495
O O4 0.000000 0.000000 0.000000
O O5 0.495530 0.925451 0.745258
O O6 0.077505 0.885716 0.573917
O O7 0.268403 0.224689 0.796543
O O8 0.277906 0.246393 0.973808
O O9 0.500000 0.500000 0.500000
O O10 0.567722 0.487301 0.661194
O O11 0.337642 0.102652 0.596754
O O12 0.698172 0.059712 0.790969
O O13 0.500000 0.500000 0.000000
O O14 0.120655 0.080487 0.357341
O O15 0.896730 0.777376 0.978546
O O16 0.500000 0.000000 0.000000
#
# Coordination Sequence:
#
# PCOD9063244 Si02
#       7
#     2   2   2   2   2   2   2
#     4  12  24  41  71 108 139 182 232 294 350 412
#     4  11  25  47  69 102 139 190 235 286 350 429
#     4  12  21  41  72 103 141 181 231 286 357 414
#     4  12  27  47  70  99 144 189 233 295 358 415
#     4  11  25  46  69 107 139 182 240 295 354 417
#     4  11  24  43  73 106 143 181 236 291 352 426
#     4  11  25  46  71  98 144 189 237 288 351 425
#
# _framework density 25.049927
#
# number of rings (size 3 to 8) (size 9 to 14) (size 15 to 20)
#    0.000    0.571    4.286    3.857    2.000    1.143 
#    2.571    1.429    0.000    0.000    0.000    0.000 
#    0.000    0.000    0.000    0.000    0.000    0.000 
#
# Total GULP energy -78141.822494 kJ/mol
# GULP energy per Si atom -5581.558750 kJ/mol
# Density = 2.499291 g / cm^3
# Si number density = 25.049927 Si / 1000 Ang^3
#
#
#
# Elastic Constant Matrix: (Units=GPa)
#
#
# Indices 1 2 3 4 5 6 
#
# 1 130.8598 29.7204 13.6935 -5.2782 13.6186 31.4954
# 2 29.7204 84.2921 14.5738 -18.8765 11.4417 19.6393
# 3 13.6935 14.5738 72.1763 -24.2759 -5.4892 18.8495
# 4 -5.2782 -18.8765 -24.2759 37.5164 4.0197 4.8898
# 5 13.6186 11.4417 -5.4892 4.0197 26.7572 -0.3239
# 6 31.4954 19.6393 18.8495 4.8898 -0.3239 43.9114
#
#
#
# Elastic Compliance Matrix: (Units=1/GPa)
#
#
# Indices 1 2 3 4 5 6 
#
# 1 0.010280 -0.000377 0.001012 0.003553 -0.005495 -0.008076
# 2 -0.000377 0.018232 0.003031 0.013462 -0.009135 -0.010752
# 3 0.001012 0.003031 0.022819 0.018250 -0.000040 -0.013909
# 4 0.003553 0.013462 0.018250 0.049850 -0.011576 -0.022039
# 5 -0.005495 -0.009135 -0.000040 -0.011576 0.045924 0.009672
# 6 -0.008076 -0.010752 -0.013909 -0.022039 0.009672 0.041870
#
#
# Mechanical properties :
#
#
# Convention : Reuss Voigt Hill
#
# Bulk Modulus (GPa) = 17.04653 44.81150 30.92902
# Shear Modulus (GPa) = 24.85121 36.92637 30.88879
#
# Velocity S-wave (km/s) = 3.15313 3.84358 3.51535
# Velocity P-wave (km/s) = 4.48063 6.13394 5.37128
#
# Compressibility (1/GPa) = 0.05866296
#
# Stress axis : x y z
#
# Youngs Moduli (GPa) = 97.27407 54.84882 43.82392
#
# Poissons Ratio (x) = 0.02065 -0.04433
# Poissons Ratio (y) = 0.03663 -0.13283
# Poissons Ratio (z) = -0.09841 -0.16625
#
# Static dielectric constant tensor:
#      x y z
#    x 1.902360 -0.166080 -0.075050 
#    y -0.166080 1.587890 -0.178420 
#    z -0.075050 -0.178420 1.933330 
# 
# From -- ./inp_files/178312.got.cif
#   From: 2010.05.17/outbox.cif.g08.bks.cpg/sg2_90_cif.got.tgz:178312.got - 2010.06.03 11:33:40.
