data_PCOD9063365
_publ_section_title
;
Structure prediction by ZEFSAII (Michael W. Deem and Ramdas Pophale) SiO2 
 PCOD9063365
Probable space group: P -1
;
_chemical_formula_sum "Si O2"
_cell_formula_units_Z 16
_cell_length_a 9.274879
_cell_length_b 15.040742
_cell_length_c 14.976240
_cell_angle_alpha 27.832752
_cell_angle_beta 128.449474
_cell_angle_gamma 130.219930
_cell_volume 737.211021
_symmetry_space_group_name_H-M "P -1"
_symmetry_group_IT_number 2
_symmetry_cell_setting 'triclinic'
loop_
_space_group_symop_operation_xyz
x,y,z
-x,-y,-z
loop_
_atom_site_type_symbol
_atom_site_label
_atom_site_fract_x
_atom_site_fract_y
_atom_site_fract_z
Si Si1 0.805578 0.021455 0.453260
Si Si2 0.413080 0.377048 0.935552
Si Si3 0.112630 0.599775 0.544017
Si Si4 0.979884 0.452562 0.138353
Si Si5 0.418320 0.951144 0.267422
Si Si6 0.510722 0.183552 0.777380
Si Si7 0.738051 0.714040 0.846163
Si Si8 0.207862 0.402718 0.429230
O O1 0.816596 0.250873 0.264692
O O2 0.616559 0.932289 0.403129
O O3 0.786866 0.919623 0.632369
O O4 0.000000 0.000000 0.500000
O O5 0.254325 0.470923 0.747209
O O6 0.600704 0.556320 0.866293
O O7 0.356319 0.294927 0.086538
O O8 0.429376 0.183699 0.060576
O O9 0.243491 0.817226 0.375653
O O10 0.000000 0.500000 0.500000
O O11 0.967809 0.611504 0.558067
O O12 0.149353 0.404675 0.301444
O O13 0.924851 0.635648 0.999358
O O14 0.000000 0.500000 0.000000
O O15 0.404766 0.861552 0.243699
O O16 0.307228 0.229199 0.642151
O O17 0.644091 0.386403 0.685779
O O18 0.500000 0.000000 0.000000
#
# Coordination Sequence:
#
# PCOD9063365 Si02
#       8
#     2   2   2   2   2   2   2   2
#     4  12  25  42  71 107 144 189 241 297 364 438
#     4  11  26  44  74 100 147 190 240 302 364 441
#     4  12  26  49  74 103 147 193 249 304 364 432
#     4  12  25  43  72 105 146 192 238 299 371 439
#     4  12  27  46  73 109 143 194 246 302 364 442
#     4  11  28  49  77 104 149 193 245 306 372 431
#     4  11  24  44  66 106 143 188 236 296 370 430
#     4  11  27  50  73 111 146 194 247 307 363 442
#
# _framework density 21.703419
#
# number of rings (size 3 to 8) (size 9 to 14) (size 15 to 20)
#    0.000    0.500    6.250    0.750    5.250    3.000 
#    0.000    0.000    0.000    0.000    0.000    0.000 
#    0.000    0.000    0.000    0.000    0.000    0.000 
#
# Total GULP energy -89502.514849 kJ/mol
# GULP energy per Si atom -5593.907178 kJ/mol
# Density = 2.165402 g / cm^3
# Si number density = 21.703419 Si / 1000 Ang^3
#
#
#
# Elastic Constant Matrix: (Units=GPa)
#
#
# Indices 1 2 3 4 5 6 
#
# 1 63.8089 2.3389 38.2987 9.6769 2.0460 1.8706
# 2 2.3389 81.9076 30.2415 13.1129 -3.7245 -0.1700
# 3 38.2987 30.2415 166.1054 9.0481 -9.2915 4.6926
# 4 9.6769 13.1129 9.0481 35.5507 2.1180 3.4612
# 5 2.0460 -3.7245 -9.2915 2.1180 39.3074 1.3182
# 6 1.8706 -0.1700 4.6926 3.4612 1.3182 29.1434
#
#
#
# Elastic Compliance Matrix: (Units=1/GPa)
#
#
# Indices 1 2 3 4 5 6 
#
# 1 0.019103 0.001809 -0.004580 -0.004617 -0.001662 0.000145
# 2 0.001809 0.014003 -0.002667 -0.005123 0.000846 0.000965
# 3 -0.004580 -0.002667 0.007679 0.000272 0.001822 -0.001073
# 4 -0.004617 -0.005123 0.000272 0.031648 -0.001770 -0.003456
# 5 -0.001662 0.000846 0.001822 -0.001770 0.026172 -0.001155
# 6 0.000145 0.000965 -0.001073 -0.003456 -0.001155 0.034945
#
#
# Mechanical properties :
#
#
# Convention : Reuss Voigt Hill
#
# Bulk Modulus (GPa) = 33.43391 50.39778 41.91584
# Shear Modulus (GPa) = 32.38438 36.86315 34.62377
#
# Velocity S-wave (km/s) = 3.86700 4.12575 3.99847
# Velocity P-wave (km/s) = 5.94783 6.77992 6.37746
#
# Compressibility (1/GPa) = 0.02990975
#
# Stress axis : x y z
#
# Youngs Moduli (GPa) = 52.34679 71.41498 130.22112
#
# Poissons Ratio (x) = -0.12921 0.59636
# Poissons Ratio (y) = -0.09471 0.34735
# Poissons Ratio (z) = 0.23973 0.19049
#
# Static dielectric constant tensor:
#      x y z
#    x 1.802830 0.025170 0.022780 
#    y 0.025170 1.818030 0.024400 
#    z 0.022780 0.024400 1.776450 
# 
# From -- ./inp_files/505172.got.cif
#   From: 2010.05.17/outbox.cif.g08.bks.cpg/sg2_253_cif.got.tgz:505172.got - 2010.06.03 11:33:40.
