data_PCOD9063231
_publ_section_title
;
Structure prediction by ZEFSAII (Michael W. Deem and Ramdas Pophale) SiO2 
 PCOD9063231
Probable space group: P -1
;
_chemical_formula_sum "Si O2"
_cell_formula_units_Z 16
_cell_length_a 12.190081
_cell_length_b 28.087462
_cell_length_c 9.612475
_cell_angle_alpha 25.968888
_cell_angle_beta 141.127402
_cell_angle_gamma 148.949352
_cell_volume 742.838353
_symmetry_space_group_name_H-M "P -1"
_symmetry_group_IT_number 2
_symmetry_cell_setting 'triclinic'
loop_
_space_group_symop_operation_xyz
x,y,z
-x,-y,-z
loop_
_atom_site_type_symbol
_atom_site_label
_atom_site_fract_x
_atom_site_fract_y
_atom_site_fract_z
Si Si1 0.801673 0.576333 0.116052
Si Si2 0.713419 0.211819 0.984122
Si Si3 0.447515 0.028873 0.722477
Si Si4 0.658705 0.447259 0.622960
Si Si5 0.439817 0.307971 0.351301
Si Si6 0.194337 0.342860 0.546036
Si Si7 0.198446 0.143247 0.270414
Si Si8 0.759922 0.228134 0.294284
O O1 0.733972 0.513586 0.370336
O O2 0.653781 0.457813 0.173629
O O3 0.052983 0.650835 0.151630
O O4 0.731078 0.678033 0.772995
O O5 0.524830 0.227469 0.715764
O O6 0.685023 0.163460 0.239826
O O7 0.709447 0.110667 0.140340
O O8 0.348311 0.111862 0.422267
O O9 0.653090 0.117548 0.597583
O O10 0.500000 0.000000 0.000000
O O11 0.415240 0.394485 0.551768
O O12 0.781117 0.551177 0.596258
O O13 0.694392 0.331139 0.971500
O O14 0.333632 0.241770 0.272975
O O15 0.011470 0.306492 0.353421
O O16 0.135286 0.217274 0.910938
O O17 0.000000 0.000000 0.500000
#
# Coordination Sequence:
#
# PCOD9063231 Si02
#       8
#     2   2   2   2   2   2   2   2
#     4  11  25  43  74 109 139 189 236 286 362 423
#     4  12  27  46  72 107 145 187 237 294 353 421
#     4  12  26  48  73 100 141 187 242 289 348 427
#     4  11  24  45  68 104 144 186 236 292 354 423
#     4  11  24  43  73 102 145 179 238 292 349 417
#     4  11  26  44  68 103 146 183 234 299 353 418
#     4  12  24  46  73 105 138 190 246 291 351 420
#     4  12  27  46  70 106 141 188 234 292 361 420
#
# _framework density 21.539006000000001
#
# number of rings (size 3 to 8) (size 9 to 14) (size 15 to 20)
#    0.000    0.500    5.000    2.625    5.250    0.000 
#    0.000    0.625    0.000    0.000    0.000    0.000 
#    0.000    0.000    0.000    0.000    0.000    0.000 
#
# Total GULP energy -89533.470656 kJ/mol
# GULP energy per Si atom -5595.841916 kJ/mol
# Density = 2.148998 g / cm^3
# Si number density = 21.539006 Si / 1000 Ang^3
#
#
#
# Elastic Constant Matrix: (Units=GPa)
#
#
# Indices 1 2 3 4 5 6 
#
# 1 65.4194 37.1220 37.5150 3.8083 -11.1741 -14.3229
# 2 37.1220 76.3060 62.9966 7.1743 24.0550 -20.2478
# 3 37.5150 62.9966 42.4014 12.0386 -32.0884 -15.9456
# 4 3.8083 7.1743 12.0386 36.0604 2.2483 2.6811
# 5 -11.1741 24.0550 -32.0884 2.2483 25.6200 -10.2184
# 6 -14.3229 -20.2478 -15.9456 2.6811 -10.2184 41.3487
#
#
#
# Elastic Compliance Matrix: (Units=1/GPa)
#
#
# Indices 1 2 3 4 5 6 
#
# 1 0.025432 -0.005168 -0.009637 0.000945 0.005312 0.003814
# 2 -0.005168 0.004579 0.012031 -0.005791 0.012429 0.008539
# 3 -0.009637 0.012031 -0.002453 0.000943 -0.020010 -0.003399
# 4 0.000945 -0.005791 0.000943 0.028503 0.003259 -0.003188
# 5 0.005312 0.012429 -0.020010 0.003259 0.004804 0.001186
# 6 0.003814 0.008539 -0.003399 -0.003188 0.001186 0.028876
#
#
# Mechanical properties :
#
#
# Convention : Reuss Voigt Hill
#
# Bulk Modulus (GPa) = 45.43373 51.04377 48.23875
# Shear Modulus (GPa) = 48.72059 23.70537 36.21298
#
# Velocity S-wave (km/s) = 4.76118 3.32110 4.10478
# Velocity P-wave (km/s) = 7.16691 6.20129 6.70151
#
# Compressibility (1/GPa) = 0.02201008
#
# Stress axis : x y z
#
# Youngs Moduli (GPa) = 39.31994 218.39445 -407.67070
#
# Poissons Ratio (x) = 1.12862 -3.92878
# Poissons Ratio (y) = 0.20320 4.90463
# Poissons Ratio (z) = 0.37893 -2.62747
#
# Static dielectric constant tensor:
#      x y z
#    x 1.783190 0.013940 -0.016910 
#    y 0.013940 1.766550 -0.023070 
#    z -0.016910 -0.023070 1.780010 
# 
# From -- ./inp_files/285780.got.cif
#   From: 2010.05.17/outbox.cif.g08.bks.cpg/sg2_143_cif.got.tgz:285780.got - 2010.06.03 11:33:40.
