data_PCOD9063400
_publ_section_title
;
Structure prediction by ZEFSAII (Michael W. Deem and Ramdas Pophale) SiO2 
 PCOD9063400
Probable space group: P -1
;
_chemical_formula_sum "Si O2"
_cell_formula_units_Z 16
_cell_length_a 17.416529
_cell_length_b 10.670579
_cell_length_c 22.756073
_cell_angle_alpha 26.969586
_cell_angle_beta 22.629131
_cell_angle_gamma 38.924621
_cell_volume 713.385551
_symmetry_space_group_name_H-M "P -1"
_symmetry_group_IT_number 2
_symmetry_cell_setting 'triclinic'
loop_
_space_group_symop_operation_xyz
x,y,z
-x,-y,-z
loop_
_atom_site_type_symbol
_atom_site_label
_atom_site_fract_x
_atom_site_fract_y
_atom_site_fract_z
Si Si1 0.549863 0.619006 0.770071
Si Si2 0.113119 0.655660 0.077944
Si Si3 0.043023 0.320701 0.600492
Si Si4 0.258376 0.312411 0.754131
Si Si5 0.406679 0.172105 0.222045
Si Si6 0.997901 0.724839 0.568940
Si Si7 0.458197 0.980359 0.107245
Si Si8 0.694151 0.828568 0.095918
O O1 0.721665 0.693509 0.567501
O O2 0.600248 0.831956 0.700798
O O3 0.315364 0.602488 0.925550
O O4 0.558851 0.307156 0.918248
O O5 0.912817 0.586337 0.206056
O O6 0.054714 0.452474 0.260358
O O7 0.194890 0.981266 0.911488
O O8 0.991457 0.488744 0.622300
O O9 0.000000 0.500000 0.500000
O O10 0.891878 0.013073 0.844769
O O11 0.500000 0.500000 0.500000
O O12 0.225444 0.326937 0.841888
O O13 0.550850 0.991010 0.167724
O O14 0.173609 0.105365 0.392449
O O15 0.500000 0.500000 0.000000
O O16 0.222505 0.922596 0.315613
O O17 0.541944 0.743571 0.182667
O O18 0.500000 0.000000 0.000000
#
# Coordination Sequence:
#
# PCOD9063400 Si02
#       8
#     2   2   2   2   2   2   2   2
#     4  12  22  39  60  95 133 166 208 261 321 395
#     4  11  24  44  67  95 126 167 228 279 317 375
#     4  12  19  35  62  88 127 174 196 237 324 399
#     4  11  24  44  71  94 120 169 229 282 324 364
#     4  12  18  36  62  90 122 160 210 254 319 393
#     4  12  21  36  59  93 127 168 206 254 328 387
#     4  12  24  35  58 100 138 164 202 256 325 406
#     4  12  22  41  64  90 126 167 212 264 322 390
#
# _framework density 22.428265
#
# number of rings (size 3 to 8) (size 9 to 14) (size 15 to 20)
#    0.000    0.250   10.000    0.750    0.000    3.000 
#    0.000    0.625    0.000    1.500    0.000    0.000 
#    0.000    0.000    0.000    0.000    0.000    0.000 
#
# Total GULP energy -89218.759782 kJ/mol
# GULP energy per Si atom -5576.172486 kJ/mol
# Density = 2.237722 g / cm^3
# Si number density = 22.428265 Si / 1000 Ang^3
#
#
#
# Elastic Constant Matrix: (Units=GPa)
#
#
# Indices 1 2 3 4 5 6 
#
# 1 159.0662 27.7511 44.8327 21.0484 -6.2125 -18.2129
# 2 27.7511 43.5046 22.7659 18.9383 -0.7412 -1.0263
# 3 44.8327 22.7659 172.7001 31.4843 -14.4848 -16.3190
# 4 21.0484 18.9383 31.4843 36.4856 -0.9867 -4.0291
# 5 -6.2125 -0.7412 -14.4848 -0.9867 30.7094 5.4465
# 6 -18.2129 -1.0263 -16.3190 -4.0291 5.4465 32.7995
#
#
#
# Elastic Compliance Matrix: (Units=1/GPa)
#
#
# Indices 1 2 3 4 5 6 
#
# 1 0.007809 -0.003836 -0.000913 -0.001324 0.000387 0.003534
# 2 -0.003836 0.031911 -0.001028 -0.013835 -0.000353 -0.003284
# 3 -0.000913 -0.001028 0.007533 -0.005131 0.002804 0.002113
# 4 -0.001324 -0.013835 -0.005131 0.039894 -0.002008 0.001513
# 5 0.000387 -0.000353 0.002804 -0.002008 0.034672 -0.004405
# 6 0.003534 -0.003284 0.002113 0.001513 -0.004405 0.034317
#
#
# Mechanical properties :
#
#
# Convention : Reuss Voigt Hill
#
# Bulk Modulus (GPa) = 28.01447 62.88560 45.45004
# Shear Modulus (GPa) = 27.84113 38.66033 33.25073
#
# Velocity S-wave (km/s) = 3.52709 4.15629 3.85455
# Velocity P-wave (km/s) = 5.39490 7.15069 6.33393
#
# Compressibility (1/GPa) = 0.03569584
#
# Stress axis : x y z
#
# Youngs Moduli (GPa) = 128.06528 31.33744 132.74434
#
# Poissons Ratio (x) = 0.12023 0.12126
# Poissons Ratio (y) = 0.49132 0.13651
# Poissons Ratio (z) = 0.11699 0.03223
#
# Static dielectric constant tensor:
#      x y z
#    x 2.019720 -0.006010 -0.185480 
#    y -0.006010 1.881210 -0.041060 
#    z -0.185480 -0.041060 2.015860 
# 
# From -- ./inp_files/304677.got.cif
#   From: 2010.05.17/outbox.cif.g08.bks.cpg/sg2_153_cif.got.tgz:304677.got - 2010.06.03 11:33:40.
