data_PCOD9063770
_publ_section_title
;
Structure prediction by ZEFSAII (Michael W. Deem and Ramdas Pophale) SiO2 
 PCOD9063770
Probable space group: P -1
;
_chemical_formula_sum "Si O2"
_cell_formula_units_Z 14
_cell_length_a 12.025724
_cell_length_b 5.761244
_cell_length_c 8.965211
_cell_angle_alpha 72.443921
_cell_angle_beta 95.041284
_cell_angle_gamma 78.389515
_cell_volume 572.700765
_symmetry_space_group_name_H-M "P -1"
_symmetry_group_IT_number 2
_symmetry_cell_setting 'triclinic'
loop_
_space_group_symop_operation_xyz
x,y,z
-x,-y,-z
loop_
_atom_site_type_symbol
_atom_site_label
_atom_site_fract_x
_atom_site_fract_y
_atom_site_fract_z
Si Si1 0.888041 0.039129 0.873122
Si Si2 0.724192 0.549055 0.248915
Si Si3 0.939493 0.267618 0.522240
Si Si4 0.312557 0.128817 0.219149
Si Si5 0.314609 0.623105 0.034407
Si Si6 0.553525 0.057367 0.187605
Si Si7 0.428469 0.736821 0.542743
O O1 0.910448 0.192981 0.700792
O O2 0.782870 0.169790 0.941396
O O3 0.823876 0.830447 0.840714
O O4 0.000000 0.000000 0.000000
O O5 0.832827 0.403156 0.381389
O O6 0.627798 0.415343 0.316450
O O7 0.668055 0.836627 0.222609
O O8 0.738959 0.500755 0.085388
O O9 0.000000 0.500000 0.500000
O O10 0.000000 0.000000 0.500000
O O11 0.338802 0.400364 0.202072
O O12 0.424149 0.028700 0.139936
O O13 0.336412 0.916870 0.390102
O O14 0.415998 0.724973 0.951749
O O15 0.539005 0.077866 0.362725
O O16 0.500000 0.500000 0.500000
#
# Coordination Sequence:
#
# PCOD9063770 Si02
#       7
#     2   2   2   2   2   2   2
#     4  12  30  51  77 110 155 204 268 329 399 477
#     4  11  25  48  75 109 157 203 262 325 401 478
#     4  12  31  53  86 114 158 214 279 336 409 478
#     4  12  26  45  77 112 155 202 261 321 408 471
#     4  11  28  46  76 109 160 201 261 323 409 477
#     4  11  26  46  76 115 161 203 257 328 403 491
#     4  11  24  44  73 113 153 200 259 320 401 480
#
# _framework density 24.445575000000002
#
# number of rings (size 3 to 8) (size 9 to 14) (size 15 to 20)
#    0.000    0.571    2.857    2.571   14.000    2.857 
#    0.000    0.000    0.000    0.000    0.000    0.000 
#    0.000    0.000    0.000    0.000    0.000    0.000 
#
# Total GULP energy -77937.571543 kJ/mol
# GULP energy per Si atom -5566.969396 kJ/mol
# Density = 2.438994 g / cm^3
# Si number density = 24.445575 Si / 1000 Ang^3
#
#
#
# Elastic Constant Matrix: (Units=GPa)
#
#
# Indices 1 2 3 4 5 6 
#
# 1 91.0449 13.1395 49.5328 4.3772 -14.2438 1.4548
# 2 13.1395 52.5839 37.5414 1.2264 0.7513 -8.9329
# 3 49.5328 37.5414 112.6515 -1.3308 -8.6010 6.0528
# 4 4.3772 1.2264 -1.3308 49.8898 5.0290 -2.6179
# 5 -14.2438 0.7513 -8.6010 5.0290 51.6802 -18.7834
# 6 1.4548 -8.9329 6.0528 -2.6179 -18.7834 36.1125
#
#
#
# Elastic Compliance Matrix: (Units=1/GPa)
#
#
# Indices 1 2 3 4 5 6 
#
# 1 0.015371 0.001844 -0.007234 -0.001858 0.004339 0.003172
# 2 0.001844 0.027540 -0.010360 -0.000811 0.001876 0.009391
# 3 -0.007234 -0.010360 0.015718 0.001155 -0.001347 -0.005522
# 4 -0.001858 -0.000811 0.001155 0.020489 -0.002316 -0.000039
# 5 0.004339 0.001876 -0.001347 -0.002316 0.025459 0.013589
# 6 0.003172 0.009391 -0.005522 -0.000039 0.013589 0.037878
#
#
# Mechanical properties :
#
#
# Convention : Reuss Voigt Hill
#
# Bulk Modulus (GPa) = 36.86078 50.74530 43.80304
# Shear Modulus (GPa) = 27.32299 37.94095 32.63197
#
# Velocity S-wave (km/s) = 3.34684 3.94389 3.65757
# Velocity P-wave (km/s) = 5.48147 6.44535 5.98286
#
# Compressibility (1/GPa) = 0.02712911
#
# Stress axis : x y z
#
# Youngs Moduli (GPa) = 65.05920 36.31075 63.62285
#
# Poissons Ratio (x) = -0.06696 0.46025
# Poissons Ratio (y) = -0.11997 0.65911
# Poissons Ratio (z) = 0.47064 0.37616
#
# Static dielectric constant tensor:
#      x y z
#    x 2.047500 0.177160 0.122270 
#    y 0.177160 2.296180 0.157080 
#    z 0.122270 0.157080 2.024190 
# 
# From -- ./inp_files/229626.got.cif
#   From: 2010.05.17/outbox.cif.g08.bks.cpg/sg2_115_cif.got.tgz:229626.got - 2010.06.03 11:33:40.
