data_PCOD9063247
_publ_section_title
;
Structure prediction by ZEFSAII (Michael W. Deem and Ramdas Pophale) SiO2 
 PCOD9063247
Probable space group: P -1
;
_chemical_formula_sum "Si O2"
_cell_formula_units_Z 13
_cell_length_a 8.518153
_cell_length_b 9.397139
_cell_length_c 12.980133
_cell_angle_alpha 131.737703
_cell_angle_beta 126.791855
_cell_angle_gamma 84.085873
_cell_volume 539.554982
_symmetry_space_group_name_H-M "P -1"
_symmetry_group_IT_number 2
_symmetry_cell_setting 'triclinic'
loop_
_space_group_symop_operation_xyz
x,y,z
-x,-y,-z
loop_
_atom_site_type_symbol
_atom_site_label
_atom_site_fract_x
_atom_site_fract_y
_atom_site_fract_z
Si Si1 0.572437 0.471265 0.864473
Si Si2 0.301770 0.892257 0.951134
Si Si3 0.338352 0.889635 0.187869
Si Si4 0.000000 0.500000 0.500000
Si Si5 0.874897 0.738449 0.303659
Si Si6 0.820156 0.735667 0.891100
Si Si7 0.738880 0.361283 0.535940
O O1 0.602587 0.258295 0.786836
O O2 0.307477 0.381452 0.734886
O O3 0.657137 0.583043 0.843056
O O4 0.728227 0.648782 0.098479
O O5 0.106336 0.690039 0.718250
O O6 0.367791 0.823832 0.050946
O O7 0.500000 0.000000 0.000000
O O8 0.217232 0.058702 0.033376
O O9 0.510779 0.148402 0.383169
O O10 0.078026 0.819024 0.065130
O O11 0.217580 0.641975 0.570225
O O12 0.062402 0.666112 0.344997
O O13 0.000000 0.000000 0.500000
O O14 0.757479 0.583969 0.692950
#
# Coordination Sequence:
#
# PCOD9063247 Si02
#       7
#     2   2   2   1   2   2   2
#     4  11  26  45  75 104 152 193 239 302 364 427
#     4  12  28  49  76 105 144 192 250 303 369 434
#     4  12  25  49  71 107 151 190 240 303 364 437
#     4  12  26  46  80 102 142 194 248 298 360 444
#     4  11  24  43  73 107 142 194 247 292 355 434
#     4  12  29  47  72 111 150 190 242 311 367 434
#     4  12  27  46  76 110 147 192 250 299 369 433
#
# _framework density 24.09393
#
# number of rings (size 3 to 8) (size 9 to 14) (size 15 to 20)
#    0.000    0.308    6.154    0.923    8.615    3.692 
#    0.000    0.000    0.000    0.000    0.000    0.000 
#    0.000    0.000    0.000    0.000    0.000    0.000 
#
# Total GULP energy -72640.725304 kJ/mol
# GULP energy per Si atom -5587.748100 kJ/mol
# Density = 2.403909 g / cm^3
# Si number density = 24.093930 Si / 1000 Ang^3
#
#
#
# Elastic Constant Matrix: (Units=GPa)
#
#
# Indices 1 2 3 4 5 6 
#
# 1 88.9455 13.6829 32.7664 -1.4267 14.2038 4.9964
# 2 13.6829 77.4012 20.2152 14.2613 -7.7804 -0.3533
# 3 32.7664 20.2152 152.3262 29.5496 -0.2748 -9.0394
# 4 -1.4267 14.2613 29.5496 26.6850 9.7191 -7.3221
# 5 14.2038 -7.7804 -0.2748 9.7191 50.1869 3.1106
# 6 4.9964 -0.3533 -9.0394 -7.3221 3.1106 57.2765
#
#
#
# Elastic Compliance Matrix: (Units=1/GPa)
#
#
# Indices 1 2 3 4 5 6 
#
# 1 0.014924 -0.004057 -0.004777 0.010687 -0.006927 -0.000338
# 2 -0.004057 0.016332 0.001128 -0.012843 0.006257 -0.001349
# 3 -0.004777 0.001128 0.010079 -0.013533 0.004200 0.000056
# 4 0.010687 -0.012843 -0.013533 0.068556 -0.018777 0.006637
# 5 -0.006927 0.006257 0.004200 -0.018777 0.026673 -0.002543
# 6 -0.000338 -0.001349 0.000056 0.006637 -0.002543 0.018476
#
#
# Mechanical properties :
#
#
# Convention : Reuss Voigt Hill
#
# Bulk Modulus (GPa) = 38.57893 50.22244 44.40068
# Shear Modulus (GPa) = 27.91850 43.63025 35.77437
#
# Velocity S-wave (km/s) = 3.40771 4.26001 3.85747
# Velocity P-wave (km/s) = 5.61516 6.71466 6.18937
#
# Compressibility (1/GPa) = 0.02592089
#
# Stress axis : x y z
#
# Youngs Moduli (GPa) = 67.00799 61.23111 99.21574
#
# Poissons Ratio (x) = 0.24844 0.47399
# Poissons Ratio (y) = 0.27188 -0.11193
# Poissons Ratio (z) = 0.32012 -0.06908
#
# Static dielectric constant tensor:
#      x y z
#    x 1.940770 -0.023440 0.043270 
#    y -0.023440 1.942560 0.012510 
#    z 0.043270 0.012510 1.893000 
# 
# From -- ./inp_files/380730.got.cif
#   From: 2010.05.17/outbox.cif.g08.bks.cpg/sg2_191_cif.got.tgz:380730.got - 2010.06.03 11:33:40.
