data_PCOD9063896
_publ_section_title
;
Structure prediction by ZEFSAII (Michael W. Deem and Ramdas Pophale) SiO2 
 PCOD9063896
Probable space group: P -1
;
_chemical_formula_sum "Si O2"
_cell_formula_units_Z 16
_cell_length_a 9.280450
_cell_length_b 11.653653
_cell_length_c 14.893456
_cell_angle_alpha 71.400492
_cell_angle_beta 64.226842
_cell_angle_gamma 127.582875
_cell_volume 660.317029
_symmetry_space_group_name_H-M "P -1"
_symmetry_group_IT_number 2
_symmetry_cell_setting 'triclinic'
loop_
_space_group_symop_operation_xyz
x,y,z
-x,-y,-z
loop_
_atom_site_type_symbol
_atom_site_label
_atom_site_fract_x
_atom_site_fract_y
_atom_site_fract_z
Si Si1 0.596744 0.189976 0.479021
Si Si2 0.460013 0.982946 0.288371
Si Si3 0.283108 0.572357 0.137532
Si Si4 0.671076 0.846539 0.663936
Si Si5 0.720066 0.079864 0.846142
Si Si6 0.693433 0.711369 0.128470
Si Si7 0.618209 0.446139 0.345811
Si Si8 0.813432 0.592875 0.977781
O O1 0.600667 0.166830 0.589660
O O2 0.414723 0.198737 0.509608
O O3 0.972220 0.451528 0.275146
O O4 0.500000 0.000000 0.500000
O O5 0.345754 0.903662 0.236608
O O6 0.284539 0.983052 0.379067
O O7 0.859179 0.265329 0.117469
O O8 0.398018 0.591269 0.194753
O O9 0.181586 0.404630 0.132385
O O10 0.576783 0.849066 0.948337
O O11 0.361887 0.612773 0.739771
O O12 0.535300 0.699630 0.828030
O O13 0.000000 0.000000 0.500000
O O14 0.096218 0.335880 0.714735
O O15 0.500000 0.000000 0.000000
O O16 0.564293 0.542255 0.288640
O O17 0.819999 0.715634 0.007550
O O18 0.000000 0.000000 0.000000
#
# Coordination Sequence:
#
# PCOD9063896 Si02
#       8
#     2   2   2   2   2   2   2   2
#     4  12  25  44  75 113 153 197 255 321 377 454
#     4  12  26  46  78 114 150 202 261 311 385 468
#     4  12  24  45  76 109 150 197 265 316 384 457
#     4  11  24  44  78 111 154 197 251 323 390 448
#     4  12  24  45  78 111 151 203 259 322 383 462
#     4  11  25  44  73 108 147 198 254 324 390 454
#     4  11  24  46  71 105 152 200 245 313 382 453
#     4  11  24  44  77 109 145 201 267 315 380 467
#
# _framework density 24.230785000000001
#
# number of rings (size 3 to 8) (size 9 to 14) (size 15 to 20)
#    0.000    0.500    6.250    2.250    3.500    0.500 
#    2.250    0.625    0.000    0.000    0.000    0.000 
#    0.000    0.000    0.000    0.000    0.000    0.000 
#
# Total GULP energy -89170.357494 kJ/mol
# GULP energy per Si atom -5573.147343 kJ/mol
# Density = 2.417563 g / cm^3
# Si number density = 24.230785 Si / 1000 Ang^3
#
#
#
# Elastic Constant Matrix: (Units=GPa)
#
#
# Indices 1 2 3 4 5 6 
#
# 1 132.8473 48.3179 35.4003 2.4307 20.4605 21.5499
# 2 48.3179 111.6448 12.0155 -15.6907 18.1397 21.8460
# 3 35.4003 12.0155 81.4651 -5.1794 9.3831 5.5108
# 4 2.4307 -15.6907 -5.1794 27.0620 0.3922 6.1439
# 5 20.4605 18.1397 9.3831 0.3922 48.2597 3.5493
# 6 21.5499 21.8460 5.5108 6.1439 3.5493 49.3908
#
#
#
# Elastic Compliance Matrix: (Units=1/GPa)
#
#
# Indices 1 2 3 4 5 6 
#
# 1 0.010729 -0.004017 -0.003929 -0.003590 -0.002108 -0.001868
# 2 -0.004017 0.013505 0.001104 0.009655 -0.003276 -0.005309
# 3 -0.003929 0.001104 0.014293 0.003920 -0.001505 -0.000748
# 4 -0.003590 0.009655 0.003920 0.045620 -0.002605 -0.008629
# 5 -0.002108 -0.003276 -0.001505 -0.002605 0.023072 0.001203
# 6 -0.001868 -0.005309 -0.000748 -0.008629 0.001203 0.024481
#
#
# Mechanical properties :
#
#
# Convention : Reuss Voigt Hill
#
# Bulk Modulus (GPa) = 40.25271 57.49162 48.87217
# Shear Modulus (GPa) = 32.53883 40.29072 36.41478
#
# Velocity S-wave (km/s) = 3.66850 4.08216 3.88084
# Velocity P-wave (km/s) = 5.88151 6.78210 6.34779
#
# Compressibility (1/GPa) = 0.02484305
#
# Stress axis : x y z
#
# Youngs Moduli (GPa) = 93.20775 74.04845 69.96539
#
# Poissons Ratio (x) = 0.29744 0.27487
# Poissons Ratio (y) = 0.37440 -0.07724
# Poissons Ratio (z) = 0.36619 -0.08175
#
# Static dielectric constant tensor:
#      x y z
#    x 2.070760 -0.024230 0.007330 
#    y -0.024230 1.994340 0.004500 
#    z 0.007330 0.004500 2.009420 
# 
# From -- ./inp_files/500267.got.cif
#   From: 2010.05.17/outbox.cif.g08.bks.cpg/sg2_251_cif.got.tgz:500267.got - 2010.06.03 11:33:40.
