data_PCOD9063808
_publ_section_title
;
Structure prediction by ZEFSAII (Michael W. Deem and Ramdas Pophale) SiO2 
 PCOD9063808
Probable space group: P -1
;
_chemical_formula_sum "Si O2"
_cell_formula_units_Z 16
_cell_length_a 8.996608
_cell_length_b 11.932049
_cell_length_c 11.766867
_cell_angle_alpha 42.659279
_cell_angle_beta 50.417377
_cell_angle_gamma 66.872933
_cell_volume 652.703388
_symmetry_space_group_name_H-M "P -1"
_symmetry_group_IT_number 2
_symmetry_cell_setting 'triclinic'
loop_
_space_group_symop_operation_xyz
x,y,z
-x,-y,-z
loop_
_atom_site_type_symbol
_atom_site_label
_atom_site_fract_x
_atom_site_fract_y
_atom_site_fract_z
Si Si1 0.650171 0.556454 0.480491
Si Si2 0.992725 0.587869 0.559054
Si Si3 0.204285 0.942663 0.473692
Si Si4 0.819037 0.931264 0.365729
Si Si5 0.229573 0.130103 0.961906
Si Si6 0.493814 0.858697 0.976103
Si Si7 0.442842 0.737785 0.620363
Si Si8 0.354970 0.632867 0.993322
O O1 0.500000 0.500000 0.500000
O O2 0.756944 0.736889 0.247010
O O3 0.547142 0.589877 0.625137
O O4 0.784861 0.411534 0.518856
O O5 0.912627 0.760571 0.455911
O O6 0.000000 0.500000 0.500000
O O7 0.855192 0.469964 0.799351
O O8 0.255985 0.761483 0.616964
O O9 0.256689 0.038105 0.494702
O O10 0.345763 0.999247 0.260790
O O11 0.000000 0.000000 0.500000
O O12 0.625354 0.890777 0.413610
O O13 0.000001 0.074201 0.142681
O O14 0.317221 0.958091 0.021997
O O15 0.375835 0.204713 0.938160
O O16 0.423343 0.737970 0.994871
O O17 0.368516 0.722620 0.797285
O O18 0.500000 0.500000 0.000000
#
# Coordination Sequence:
#
# PCOD9063808 Si02
#       8
#     2   2   2   2   2   2   2   2
#     4  12  30  50  74 108 157 194 254 313 379 452
#     4  12  26  48  76 113 147 199 245 312 376 446
#     4  12  25  45  70 105 152 188 246 307 373 440
#     4  12  25  47  76 108 148 187 255 305 374 444
#     4  11  27  44  75 113 147 202 247 308 377 446
#     4  11  24  44  74 107 151 198 251 305 370 449
#     4  12  27  48  75 110 146 203 248 313 372 450
#     4  12  25  47  77 111 153 199 253 306 381 443
#
# _framework density 24.51343
#
# number of rings (size 3 to 8) (size 9 to 14) (size 15 to 20)
#    0.000    0.250    6.250    1.125   10.500    0.500 
#    0.000    0.625    0.000    0.000    0.000    0.000 
#    0.000    0.000    0.000    0.000    0.000    0.000 
#
# Total GULP energy -89403.455608 kJ/mol
# GULP energy per Si atom -5587.715975 kJ/mol
# Density = 2.445764 g / cm^3
# Si number density = 24.513430 Si / 1000 Ang^3
#
#
#
# Elastic Constant Matrix: (Units=GPa)
#
#
# Indices 1 2 3 4 5 6 
#
# 1 99.6976 20.4094 19.5450 6.5180 -9.5086 -24.3546
# 2 20.4094 115.3348 16.9240 17.8696 -3.3144 -7.5610
# 3 19.5450 16.9240 114.7115 16.4504 2.5623 -5.2912
# 4 6.5180 17.8696 16.4504 38.0522 -7.3118 0.7449
# 5 -9.5086 -3.3144 2.5623 -7.3118 42.7095 3.9117
# 6 -24.3546 -7.5610 -5.2912 0.7449 3.9117 51.8177
#
#
#
# Elastic Compliance Matrix: (Units=1/GPa)
#
#
# Indices 1 2 3 4 5 6 
#
# 1 0.012136 -0.001450 -0.001607 -0.000392 0.002145 0.005172
# 2 -0.001450 0.009690 -0.000546 -0.004141 -0.000317 0.000760
# 3 -0.001607 -0.000546 0.009698 -0.003994 -0.001697 0.000341
# 4 -0.000392 -0.004141 -0.003994 0.031084 0.005340 -0.002046
# 5 0.002145 -0.000317 -0.001697 0.005340 0.024991 -0.001175
# 6 0.005172 0.000760 0.000341 -0.002046 -0.001175 0.021993
#
#
# Mechanical properties :
#
#
# Convention : Reuss Voigt Hill
#
# Bulk Modulus (GPa) = 41.12437 49.27784 45.20111
# Shear Modulus (GPa) = 40.03065 44.70693 42.36879
#
# Velocity S-wave (km/s) = 4.04543 4.27520 4.16190
# Velocity P-wave (km/s) = 6.21558 6.67202 6.44784
#
# Compressibility (1/GPa) = 0.02431648
#
# Stress axis : x y z
#
# Youngs Moduli (GPa) = 82.40033 103.20342 103.11133
#
# Poissons Ratio (x) = 0.14968 0.16569
# Poissons Ratio (y) = 0.11951 0.05634
# Poissons Ratio (z) = 0.13241 0.05639
#
# Static dielectric constant tensor:
#      x y z
#    x 1.845510 0.010790 0.005280 
#    y 0.010790 1.965370 -0.056440 
#    z 0.005280 -0.056440 1.989820 
# 
# From -- ./inp_files/298244.got.cif
#   From: 2010.05.17/outbox.cif.g08.bks.cpg/sg2_150_cif.got.tgz:298244.got - 2010.06.03 11:33:40.
