data_PCOD9063355
_publ_section_title
;
Structure prediction by ZEFSAII (Michael W. Deem and Ramdas Pophale) SiO2 
 PCOD9063355
Probable space group: P -1
;
_chemical_formula_sum "Si O2"
_cell_formula_units_Z 10
_cell_length_a 13.702842
_cell_length_b 4.957789
_cell_length_c 8.006035
_cell_angle_alpha 124.586020
_cell_angle_beta 110.733660
_cell_angle_gamma 67.749064
_cell_volume 407.470305
_symmetry_space_group_name_H-M "P -1"
_symmetry_group_IT_number 2
_symmetry_cell_setting 'triclinic'
loop_
_space_group_symop_operation_xyz
x,y,z
-x,-y,-z
loop_
_atom_site_type_symbol
_atom_site_label
_atom_site_fract_x
_atom_site_fract_y
_atom_site_fract_z
Si Si1 0.263032 0.786525 0.795531
Si Si2 0.603892 0.676809 0.846858
Si Si3 0.882761 0.935681 0.893104
Si Si4 0.800473 0.282840 0.633224
Si Si5 0.471137 0.204984 0.724366
O O1 0.190825 0.822977 0.930838
O O2 0.198785 0.825368 0.596204
O O3 0.352242 0.435671 0.723779
O O4 0.322080 0.093690 0.953261
O O5 0.678047 0.457959 0.672867
O O6 0.558387 0.437533 0.859557
O O7 0.502824 0.923766 0.785990
O O8 0.839449 0.010337 0.704707
O O9 0.871024 0.560526 0.793984
O O10 0.000000 0.000000 0.000000
O O11 0.500000 0.000000 0.500000
#
# Coordination Sequence:
#
# PCOD9063355 Si02
#       5
#     2   2   2   2   2
#     4  11  26  45  75 103 142 193 231 285 354 408
#     4  11  24  44  65 105 146 184 230 281 336 420
#     4  11  27  49  71 104 139 176 238 300 351 417
#     4  11  25  45  74 103 141 179 236 288 348 421
#     4  12  24  42  68 102 148 188 228 280 339 415
#
# _framework density 24.541664999999998
#
# number of rings (size 3 to 8) (size 9 to 14) (size 15 to 20)
#    0.000    0.800    2.000    4.800    0.000    9.600 
#    0.000    0.000    0.000    0.000    0.000    0.000 
#    0.000    0.000    0.000    0.000    0.000    0.000 
#
# Total GULP energy -56114.799269 kJ/mol
# GULP energy per Si atom -5611.479927 kJ/mol
# Density = 2.448581 g / cm^3
# Si number density = 24.541665 Si / 1000 Ang^3
#
#
#
# Elastic Constant Matrix: (Units=GPa)
#
#
# Indices 1 2 3 4 5 6 
#
# 1 138.0550 18.8323 18.8738 -6.9219 7.9570 9.0933
# 2 18.8323 76.5674 10.4800 -15.9417 -6.1158 18.7979
# 3 18.8738 10.4800 101.8142 -29.0345 -8.5639 -10.8042
# 4 -6.9219 -15.9417 -29.0345 40.8026 6.7841 -3.4407
# 5 7.9570 -6.1158 -8.5639 6.7841 19.4087 -4.4756
# 6 9.0933 18.7979 -10.8042 -3.4407 -4.4756 30.7678
#
#
#
# Elastic Compliance Matrix: (Units=1/GPa)
#
#
# Indices 1 2 3 4 5 6 
#
# 1 0.008259 -0.001407 -0.002205 -0.000069 -0.005508 -0.003165
# 2 -0.001407 0.016987 -0.001067 0.004555 0.001656 -0.009587
# 3 -0.002205 -0.001067 0.014276 0.009131 0.005554 0.008145
# 4 -0.000069 0.004555 0.009131 0.033994 -0.005599 0.003431
# 5 -0.005508 0.001656 0.005554 -0.005599 0.061211 0.010844
# 6 -0.003165 -0.009587 0.008145 0.003431 0.010844 0.044115
#
#
# Mechanical properties :
#
#
# Convention : Reuss Voigt Hill
#
# Bulk Modulus (GPa) = 33.15127 45.86765 39.50946
# Shear Modulus (GPa) = 25.22013 36.07918 30.64966
#
# Velocity S-wave (km/s) = 3.20917 3.83837 3.53779
# Velocity P-wave (km/s) = 5.22199 6.19471 5.72903
#
# Compressibility (1/GPa) = 0.03016476
#
# Stress axis : x y z
#
# Youngs Moduli (GPa) = 121.07514 58.86949 70.04882
#
# Poissons Ratio (x) = 0.08283 0.15445
# Poissons Ratio (y) = 0.17035 0.07472
# Poissons Ratio (z) = 0.26696 0.06279
#
# Static dielectric constant tensor:
#      x y z
#    x 1.894610 -0.002150 -0.027840 
#    y -0.002150 1.914400 0.017540 
#    z -0.027840 0.017540 2.045690 
# 
# From -- ./inp_files/288282.got.cif
#   From: 2010.05.17/outbox.cif.g08.bks.cpg/sg2_145_cif.got.tgz:288282.got - 2010.06.03 11:33:40.
