data_PCOD9063175
_publ_section_title
;
Structure prediction by ZEFSAII (Michael W. Deem and Ramdas Pophale) SiO2 
 PCOD9063175
Probable space group: P -1
;
_chemical_formula_sum "Si O2"
_cell_formula_units_Z 16
_cell_length_a 8.287193
_cell_length_b 11.882224
_cell_length_c 16.496155
_cell_angle_alpha 51.899209
_cell_angle_beta 63.947650
_cell_angle_gamma 33.851636
_cell_volume 702.039100
_symmetry_space_group_name_H-M "P -1"
_symmetry_group_IT_number 2
_symmetry_cell_setting 'triclinic'
loop_
_space_group_symop_operation_xyz
x,y,z
-x,-y,-z
loop_
_atom_site_type_symbol
_atom_site_label
_atom_site_fract_x
_atom_site_fract_y
_atom_site_fract_z
Si Si1 0.117583 0.799417 0.842985
Si Si2 0.088698 0.413034 0.611101
Si Si3 0.475515 0.161969 0.883284
Si Si4 0.179364 0.778890 0.650694
Si Si5 0.667655 0.040763 0.204669
Si Si6 0.927388 0.633355 0.710128
Si Si7 0.676345 0.631744 0.010766
Si Si8 0.406423 0.700171 0.477684
O O1 0.226692 0.738383 0.753429
O O2 0.189742 0.899727 0.827618
O O3 0.270516 0.560244 0.950337
O O4 0.765919 0.998558 0.838290
O O5 0.900616 0.618234 0.627545
O O6 0.411215 0.281840 0.603560
O O7 0.000000 0.500000 0.500000
O O8 0.121105 0.226852 0.709232
O O9 0.178358 0.367400 0.806609
O O10 0.448289 0.293855 0.903738
O O11 0.500000 0.000000 0.000000
O O12 0.048230 0.714008 0.671489
O O13 0.439290 0.658005 0.586000
O O14 0.932322 0.056046 0.573054
O O15 0.540590 0.139810 0.098398
O O16 0.379174 0.198038 0.253301
O O17 0.000000 0.500000 0.000000
O O18 0.500000 0.500000 0.500000
#
# Coordination Sequence:
#
# PCOD9063175 Si02
#       8
#     2   2   2   2   2   2   2   2
#     4  12  27  43  72 109 146 184 235 297 366 421
#     4  12  29  45  70 104 148 187 239 296 364 418
#     4  12  24  41  77 105 138 187 242 290 347 425
#     4  11  24  43  72 100 133 186 244 294 344 425
#     4  12  28  47  70 106 153 187 234 294 367 432
#     4  12  24  46  73 101 141 192 240 290 352 430
#     4  12  23  47  76 105 141 188 241 292 356 429
#     4  11  24  44  70  99 134 181 250 295 344 413
#
# _framework density 22.790752999999999
#
# number of rings (size 3 to 8) (size 9 to 14) (size 15 to 20)
#    0.000    0.250    6.250    1.875    3.500    2.000 
#    0.000    0.000    0.000    0.000    0.000    0.000 
#    0.000    0.000    0.000    0.000    0.000    0.000 
#
# Total GULP energy -89553.094672 kJ/mol
# GULP energy per Si atom -5597.068417 kJ/mol
# Density = 2.273888 g / cm^3
# Si number density = 22.790753 Si / 1000 Ang^3
#
#
#
# Elastic Constant Matrix: (Units=GPa)
#
#
# Indices 1 2 3 4 5 6 
#
# 1 72.6007 -3.1703 27.0321 -14.1240 -9.5322 25.5644
# 2 -3.1703 67.9104 11.8481 -0.6705 4.0497 18.2035
# 3 27.0321 11.8481 95.7492 -10.5189 9.6976 17.5960
# 4 -14.1240 -0.6705 -10.5189 51.8505 10.6428 -4.2382
# 5 -9.5322 4.0497 9.6976 10.6428 46.5250 5.1536
# 6 25.5644 18.2035 17.5960 -4.2382 5.1536 33.2972
#
#
#
# Elastic Compliance Matrix: (Units=1/GPa)
#
#
# Indices 1 2 3 4 5 6 
#
# 1 0.024700 0.007247 -0.004359 0.002738 0.007079 -0.021369
# 2 0.007247 0.019420 -0.001760 0.000226 0.001827 -0.015504
# 3 -0.004359 -0.001760 0.012784 0.002007 -0.003684 -0.001621
# 4 0.002738 0.000226 0.002007 0.021443 -0.004803 0.000187
# 5 0.007079 0.001827 -0.003684 -0.004803 0.025656 -0.009069
# 6 -0.021369 -0.015504 -0.001621 0.000187 -0.009069 0.057199
#
#
# Mechanical properties :
#
#
# Convention : Reuss Voigt Hill
#
# Bulk Modulus (GPa) = 16.90362 34.18668 25.54515
# Shear Modulus (GPa) = 27.98486 39.70456 33.84471
#
# Velocity S-wave (km/s) = 3.50795 4.17842 3.85778
# Velocity P-wave (km/s) = 4.88268 6.18964 5.57460
#
# Compressibility (1/GPa) = 0.05915892
#
# Stress axis : x y z
#
# Youngs Moduli (GPa) = 40.48541 51.49362 78.22294
#
# Poissons Ratio (x) = -0.37315 0.34100
# Poissons Ratio (y) = -0.29338 0.13766
# Poissons Ratio (z) = 0.17649 0.09062
#
# Static dielectric constant tensor:
#      x y z
#    x 1.856360 0.010750 0.008540 
#    y 0.010750 1.833530 -0.001190 
#    z 0.008540 -0.001190 1.890000 
# 
# From -- ./inp_files/90549.got.cif
#   From: 2010.05.17/outbox.cif.g08.bks.cpg/sg2_46_cif.got.tgz:90549.got - 2010.06.03 11:33:40.
