data_PCOD9063524
_publ_section_title
;
Structure prediction by ZEFSAII (Michael W. Deem and Ramdas Pophale) SiO2 
 PCOD9063524
Probable space group: P -1
;
_chemical_formula_sum "Si O2"
_cell_formula_units_Z 16
_cell_length_a 14.855295
_cell_length_b 9.903611
_cell_length_c 10.932619
_cell_angle_alpha 96.767716
_cell_angle_beta 62.439070
_cell_angle_gamma 148.661969
_cell_volume 592.415637
_symmetry_space_group_name_H-M "P -1"
_symmetry_group_IT_number 2
_symmetry_cell_setting 'triclinic'
loop_
_space_group_symop_operation_xyz
x,y,z
-x,-y,-z
loop_
_atom_site_type_symbol
_atom_site_label
_atom_site_fract_x
_atom_site_fract_y
_atom_site_fract_z
Si Si1 0.085112 0.852626 0.078327
Si Si2 0.569079 0.949676 0.378436
Si Si3 0.052328 0.303578 0.336900
Si Si4 0.577229 0.145754 0.203611
Si Si5 0.408349 0.223741 0.308014
Si Si6 0.696646 0.627017 0.926969
Si Si7 0.865590 0.361755 0.839763
Si Si8 0.666454 0.794074 0.304439
O O1 0.177467 0.849525 0.117823
O O2 0.824419 0.487470 0.156599
O O3 0.079267 0.998611 0.148734
O O4 0.240562 0.057821 0.877043
O O5 0.485373 0.893612 0.291731
O O6 0.859822 0.288757 0.245709
O O7 0.500000 0.000000 0.500000
O O8 0.483250 0.695797 0.437859
O O9 0.132752 0.557658 0.283192
O O10 0.875828 0.082052 0.541692
O O11 0.878894 0.055810 0.299923
O O12 0.245332 0.418405 0.211341
O O13 0.409229 0.068365 0.330392
O O14 0.679077 0.228785 0.017266
O O15 0.580574 0.425398 0.102051
O O16 0.538679 0.494473 0.338209
O O17 0.500000 0.500000 0.000000
#
# Coordination Sequence:
#
# PCOD9063524 Si02
#       8
#     2   2   2   2   2   2   2   2
#     4  10  18  34  59  83 117 152 182 225 273 332
#     4  10  18  27  45  79 123 153 171 210 263 342
#     4  11  21  37  58  83 117 142 183 234 279 340
#     4  11  16  32  55  86 117 144 175 217 283 346
#     4  11  23  35  59  85 113 151 181 230 287 333
#     4  11  25  42  59  78 106 152 200 238 276 318
#     4  10  18  32  54  84 116 147 175 219 280 341
#     4  10  18  33  52  90 119 147 181 216 284 349
#
# _framework density 27.008064999999998
#
# number of rings (size 3 to 8) (size 9 to 14) (size 15 to 20)
#    0.000    1.500    5.000    3.375    0.000    4.500 
#    0.000    0.625    0.000    0.750    0.000    0.000 
#    0.000    0.000    0.000    0.000    0.000    0.000 
#
# Total GULP energy -89355.890194 kJ/mol
# GULP energy per Si atom -5584.743137 kJ/mol
# Density = 2.694659 g / cm^3
# Si number density = 27.008065 Si / 1000 Ang^3
#
#
#
# Elastic Constant Matrix: (Units=GPa)
#
#
# Indices 1 2 3 4 5 6 
#
# 1 88.1281 41.4784 18.1664 8.7959 -14.5286 -38.8116
# 2 41.4784 135.6602 39.1379 23.0487 -3.9271 -26.4217
# 3 18.1664 39.1379 118.9051 5.4536 -19.6236 -31.0087
# 4 8.7959 23.0487 5.4536 31.9869 -13.8150 -4.3971
# 5 -14.5286 -3.9271 -19.6236 -13.8150 39.1483 0.8511
# 6 -38.8116 -26.4217 -31.0087 -4.3971 0.8511 42.7525
#
#
#
# Elastic Compliance Matrix: (Units=1/GPa)
#
#
# Indices 1 2 3 4 5 6 
#
# 1 0.024593 -0.005030 0.005991 0.004610 0.012735 0.023784
# 2 -0.005030 0.011030 -0.003710 -0.008516 -0.005599 -0.001205
# 3 0.005991 -0.003710 0.013643 0.004910 0.010133 0.013345
# 4 0.004610 -0.008516 0.004910 0.044339 0.018820 0.006669
# 5 0.012735 -0.005599 0.010133 0.018820 0.041069 0.016569
# 6 0.023784 -0.001205 0.013345 0.006669 0.016569 0.054272
#
#
# Mechanical properties :
#
#
# Convention : Reuss Voigt Hill
#
# Bulk Modulus (GPa) = 22.84753 60.02876 41.43815
# Shear Modulus (GPa) = 23.91963 39.03826 31.47894
#
# Velocity S-wave (km/s) = 2.97921 3.80601 3.41770
# Velocity P-wave (km/s) = 4.50690 6.44893 5.56331
#
# Compressibility (1/GPa) = 0.04376840
#
# Stress axis : x y z
#
# Youngs Moduli (GPa) = 40.66127 90.66476 73.29772
#
# Poissons Ratio (x) = 0.45608 -0.43914
# Poissons Ratio (y) = 0.20454 0.27191
# Poissons Ratio (z) = -0.24361 0.33633
#
# Static dielectric constant tensor:
#      x y z
#    x 2.283220 0.044550 0.110790 
#    y 0.044550 2.236720 -0.044380 
#    z 0.110790 -0.044380 2.191190 
# 
# From -- ./inp_files/251639.got.cif
#   From: 2010.05.17/outbox.cif.g08.bks.cpg/sg2_126_cif.got.tgz:251639.got - 2010.06.03 11:33:40.
