data_PCOD9063756
_publ_section_title
;
Structure prediction by ZEFSAII (Michael W. Deem and Ramdas Pophale) SiO2 
 PCOD9063756
Probable space group: P -1
;
_chemical_formula_sum "Si O2"
_cell_formula_units_Z 14
_cell_length_a 4.967283
_cell_length_b 12.056956
_cell_length_c 12.069302
_cell_angle_alpha 64.763072
_cell_angle_beta 94.066536
_cell_angle_gamma 123.232260
_cell_volume 534.107885
_symmetry_space_group_name_H-M "P -1"
_symmetry_group_IT_number 2
_symmetry_cell_setting 'triclinic'
loop_
_space_group_symop_operation_xyz
x,y,z
-x,-y,-z
loop_
_atom_site_type_symbol
_atom_site_label
_atom_site_fract_x
_atom_site_fract_y
_atom_site_fract_z
Si Si1 0.329609 0.342966 0.498485
Si Si2 0.458903 0.295683 0.162360
Si Si3 0.252955 0.710166 0.193511
Si Si4 0.660838 0.104305 0.685320
Si Si5 0.507879 0.514229 0.234209
Si Si6 0.220310 0.806595 0.918321
Si Si7 0.391320 0.126120 0.458866
O O1 0.500000 0.500000 0.500000
O O2 0.231337 0.380097 0.362160
O O3 0.500396 0.265917 0.487964
O O4 0.041025 0.219269 0.619449
O O5 0.509887 0.445745 0.147323
O O6 0.738337 0.317836 0.079850
O O7 0.467616 0.208095 0.307711
O O8 0.101987 0.208664 0.130254
O O9 0.416951 0.808311 0.265597
O O10 0.439168 0.639253 0.185221
O O11 0.871610 0.580652 0.264143
O O12 0.229792 0.799120 0.053470
O O13 0.517663 0.052325 0.578154
O O14 0.540303 0.957312 0.814352
O O15 0.000000 0.000000 0.500000
#
# Coordination Sequence:
#
# PCOD9063756 Si02
#       7
#     2   2   2   2   2   2   2
#     4  11  24  44  73 108 148 191 242 313 375 439
#     4  11  26  46  74 109 143 192 247 305 372 433
#     4  12  27  48  73 105 150 198 245 296 362 446
#     4  12  27  44  76 108 149 190 248 304 378 436
#     4  11  26  46  74 109 143 192 247 305 372 433
#     4  12  27  48  73 105 150 198 245 296 362 446
#     4  11  24  44  73 108 148 191 242 313 375 439
#
# _framework density 26.211935
#
# number of rings (size 3 to 8) (size 9 to 14) (size 15 to 20)
#    0.000    0.571    2.857    3.857    8.000    5.714 
#    0.000    2.857    0.000    0.000    0.000    0.000 
#    0.000    0.000    0.000    0.000    0.000    0.000 
#
# Total GULP energy -78254.979894 kJ/mol
# GULP energy per Si atom -5589.641421 kJ/mol
# Density = 2.615228 g / cm^3
# Si number density = 26.211935 Si / 1000 Ang^3
#
#
#
# Elastic Constant Matrix: (Units=GPa)
#
#
# Indices 1 2 3 4 5 6 
#
# 1 99.8489 4.1019 18.1090 9.2585 2.8891 2.7434
# 2 4.1019 60.7142 29.9455 6.8695 2.5892 11.3914
# 3 18.1090 29.9455 172.5377 30.3825 -4.5953 1.3255
# 4 9.2585 6.8695 30.3825 43.1397 7.4423 -1.9276
# 5 2.8891 2.5892 -4.5953 7.4423 33.7722 -2.4622
# 6 2.7434 11.3914 1.3255 -1.9276 -2.4622 20.7814
#
#
#
# Elastic Compliance Matrix: (Units=1/GPa)
#
#
# Indices 1 2 3 4 5 6 
#
# 1 0.010379 0.000257 -0.000860 -0.001601 -0.000796 -0.001699
# 2 0.000257 0.020504 -0.003397 -0.000979 -0.002676 -0.011465
# 3 -0.000860 -0.003397 0.007386 -0.004848 0.002506 0.001352
# 4 -0.001601 -0.000979 -0.004848 0.028343 -0.006481 0.002918
# 5 -0.000796 -0.002676 0.002506 -0.006481 0.031988 0.004601
# 6 -0.001699 -0.011465 0.001352 0.002918 0.004601 0.055358
#
#
# Mechanical properties :
#
#
# Convention : Reuss Voigt Hill
#
# Bulk Modulus (GPa) = 33.03675 48.60149 40.81912
# Shear Modulus (GPa) = 29.06178 38.26828 33.66503
#
# Velocity S-wave (km/s) = 3.33336 3.82508 3.58766
# Velocity P-wave (km/s) = 5.23891 6.17174 5.72435
#
# Compressibility (1/GPa) = 0.03026932
#
# Stress axis : x y z
#
# Youngs Moduli (GPa) = 96.35075 48.76991 135.39738
#
# Poissons Ratio (x) = -0.01253 0.11645
# Poissons Ratio (y) = -0.02475 0.45989
# Poissons Ratio (z) = 0.08287 0.16565
#
# Static dielectric constant tensor:
#      x y z
#    x 2.151040 -0.087670 0.057390 
#    y -0.087670 2.126340 -0.001890 
#    z 0.057390 -0.001890 2.093600 
# 
# From -- ./inp_files/364105.got.cif
#   From: 2010.05.17/outbox.cif.g08.bks.cpg/sg2_183_cif.got.tgz:364105.got - 2010.06.03 11:33:40.
