data_PCOD9063009
_publ_section_title
;
Structure prediction by ZEFSAII (Michael W. Deem and Ramdas Pophale) SiO2 
 PCOD9063009
Probable space group: P -1
;
_chemical_formula_sum "Si O2"
_cell_formula_units_Z 16
_cell_length_a 8.009912
_cell_length_b 10.718494
_cell_length_c 13.349118
_cell_angle_alpha 147.199263
_cell_angle_beta 89.932067
_cell_angle_gamma 78.267985
_cell_volume 574.992953
_symmetry_space_group_name_H-M "P -1"
_symmetry_group_IT_number 2
_symmetry_cell_setting 'triclinic'
loop_
_space_group_symop_operation_xyz
x,y,z
-x,-y,-z
loop_
_atom_site_type_symbol
_atom_site_label
_atom_site_fract_x
_atom_site_fract_y
_atom_site_fract_z
Si Si1 0.279906 0.620121 0.565011
Si Si2 0.939046 0.856566 0.195519
Si Si3 0.313931 0.731911 0.001452
Si Si4 0.292864 0.141974 0.125667
Si Si5 0.124893 0.466829 0.174853
Si Si6 0.537013 0.075683 0.708809
Si Si7 0.255577 0.902418 0.475388
Si Si8 0.229563 0.443086 0.646299
O O1 0.500000 0.500000 0.500000
O O2 0.246570 0.406299 0.357432
O O3 0.190902 0.638546 0.688011
O O4 0.187039 0.877655 0.677449
O O5 0.141619 0.774655 0.099135
O O6 0.934598 0.908869 0.350028
O O7 0.881675 0.635828 0.005284
O O8 0.252136 0.958908 0.077163
O O9 0.473827 0.731185 0.073390
O O10 0.349547 0.498755 0.770928
O O11 0.199148 0.210257 0.065283
O O12 0.500000 0.000000 0.000000
O O13 0.239689 0.635585 0.307604
O O14 0.931712 0.585489 0.310545
O O15 0.372597 0.020353 0.624714
O O16 0.658500 0.813167 0.580493
O O17 0.656940 0.103698 0.636157
#
# Coordination Sequence:
#
# PCOD9063009 Si02
#       8
#     2   2   2   2   2   2   2   2
#     4  12  23  40  67 102 140 183 219 270 339 404
#     4  11  24  43  69 100 139 178 222 277 334 405
#     4  11  25  43  68 102 138 177 223 277 338 399
#     4  12  25  38  67 104 138 177 217 272 331 406
#     4  11  25  43  68 102 138 177 223 277 338 399
#     4  11  26  46  69  97 132 179 232 285 336 394
#     4  11  26  46  69  97 132 179 232 285 336 394
#     4  11  24  43  69 100 139 178 222 277 334 405
#
# _framework density 27.826429999999998
#
# number of rings (size 3 to 8) (size 9 to 14) (size 15 to 20)
#    0.000    0.750    2.500    4.500    3.500    6.000 
#    0.000    5.000    0.000    0.000    0.000    0.000 
#    0.000    0.000    0.000    0.000    0.000    0.000 
#
# Total GULP energy -89600.501802 kJ/mol
# GULP energy per Si atom -5600.031363 kJ/mol
# Density = 2.776310 g / cm^3
# Si number density = 27.826430 Si / 1000 Ang^3
#
#
#
# Elastic Constant Matrix: (Units=GPa)
#
#
# Indices 1 2 3 4 5 6 
#
# 1 106.6301 26.0042 38.6295 -7.5932 27.4015 17.3286
# 2 26.0042 132.3557 35.3080 -21.0836 20.0659 25.2474
# 3 38.6295 35.3080 168.5864 -29.3173 16.0344 6.4832
# 4 -7.5932 -21.0836 -29.3173 56.9471 -5.6196 -0.7646
# 5 27.4015 20.0659 16.0344 -5.6196 38.4256 1.4848
# 6 17.3286 25.2474 6.4832 -0.7646 1.4848 51.6016
#
#
#
# Elastic Compliance Matrix: (Units=1/GPa)
#
#
# Indices 1 2 3 4 5 6 
#
# 1 0.012828 -0.000049 -0.002045 -0.000216 -0.008153 -0.003795
# 2 -0.000049 0.009716 -0.001012 0.002609 -0.004063 -0.004455
# 3 -0.002045 -0.001012 0.007175 0.002994 -0.000582 0.000342
# 4 -0.000216 0.002609 0.002994 0.020073 0.000528 -0.001298
# 5 -0.008153 -0.004063 -0.000582 0.000528 0.034133 0.003825
# 6 -0.003795 -0.004455 0.000342 -0.001298 0.003825 0.022661
#
#
# Mechanical properties :
#
#
# Convention : Reuss Voigt Hill
#
# Bulk Modulus (GPa) = 42.54196 67.49507 55.01852
# Shear Modulus (GPa) = 41.44740 49.90355 45.67547
#
# Velocity S-wave (km/s) = 3.86359 4.23943 4.05587
# Velocity P-wave (km/s) = 5.93503 6.94781 6.46130
#
# Compressibility (1/GPa) = 0.02350620
#
# Stress axis : x y z
#
# Youngs Moduli (GPa) = 77.95594 102.91899 139.36990
#
# Poissons Ratio (x) = 0.00505 0.28504
# Poissons Ratio (y) = 0.00382 0.14108
# Poissons Ratio (z) = 0.15944 0.10418
#
# Static dielectric constant tensor:
#      x y z
#    x 1.792310 0.608360 0.302130 
#    y 0.608360 1.174700 -0.441600 
#    z 0.302130 -0.441600 1.814770 
# 
# From -- ./inp_files/501176.got.cif
#   From: 2010.05.17/outbox.cif.g08.bks.cpg/sg2_251_cif.got.tgz:501176.got - 2010.06.03 11:33:40.
