data_PCOD9063651
_publ_section_title
;
Structure prediction by ZEFSAII (Michael W. Deem and Ramdas Pophale) SiO2 
 PCOD9063651
Probable space group: P -1
;
_chemical_formula_sum "Si O2"
_cell_formula_units_Z 16
_cell_length_a 7.851557
_cell_length_b 16.356952
_cell_length_c 8.945096
_cell_angle_alpha 52.524957
_cell_angle_beta 127.709338
_cell_angle_gamma 134.743146
_cell_volume 612.334003
_symmetry_space_group_name_H-M "P -1"
_symmetry_group_IT_number 2
_symmetry_cell_setting 'triclinic'
loop_
_space_group_symop_operation_xyz
x,y,z
-x,-y,-z
loop_
_atom_site_type_symbol
_atom_site_label
_atom_site_fract_x
_atom_site_fract_y
_atom_site_fract_z
Si Si1 0.885120 0.896421 0.726254
Si Si2 0.667587 0.029224 0.339095
Si Si3 0.909653 0.229733 0.479649
Si Si4 0.962291 0.511185 0.790422
Si Si5 0.680140 0.505870 0.219142
Si Si6 0.513432 0.672102 0.422821
Si Si7 0.650894 0.891382 0.091585
Si Si8 0.184871 0.247384 0.875174
O O1 0.063853 0.906303 0.677040
O O2 0.659199 0.910637 0.528935
O O3 0.822706 0.785319 0.920423
O O4 0.071027 0.012953 0.801718
O O5 0.476984 0.037483 0.115418
O O6 0.710556 0.117047 0.401616
O O7 0.889298 0.346223 0.323695
O O8 0.193706 0.280723 0.507234
O O9 0.930287 0.192586 0.700416
O O10 0.667438 0.432575 0.676073
O O11 0.072460 0.461827 0.778441
O O12 0.000000 0.500000 0.000000
O O13 0.568658 0.385976 0.393348
O O14 0.716415 0.611383 0.231554
O O15 0.500000 0.500000 0.000000
O O16 0.497213 0.790487 0.248576
O O17 0.668950 0.810418 0.060524
#
# Coordination Sequence:
#
# PCOD9063651 Si02
#       8
#     2   2   2   2   2   2   2   2
#     4  11  25  48  70 103 143 182 241 299 345 414
#     4  11  25  45  73 106 135 186 244 285 363 416
#     4  11  24  44  72 100 144 189 228 292 359 419
#     4  12  26  43  72 103 142 189 237 285 363 433
#     4  12  29  44  68 109 144 187 236 294 353 428
#     4  11  24  46  71 100 147 179 237 292 351 427
#     4  11  25  45  76 102 138 194 233 292 360 411
#     4  11  26  46  69 100 148 184 232 294 352 416
#
# _framework density 26.129529999999999
#
# number of rings (size 3 to 8) (size 9 to 14) (size 15 to 20)
#    0.000    0.750    3.750    3.000   12.250    0.500 
#    0.000    0.000    0.000    0.000    0.000    0.000 
#    0.000    0.000    0.000    0.000    0.000    0.000 
#
# Total GULP energy -89601.844060 kJ/mol
# GULP energy per Si atom -5600.115254 kJ/mol
# Density = 2.607006 g / cm^3
# Si number density = 26.129530 Si / 1000 Ang^3
#
#
#
# Elastic Constant Matrix: (Units=GPa)
#
#
# Indices 1 2 3 4 5 6 
#
# 1 112.3325 13.4131 35.2866 -4.7291 -9.0929 -9.3062
# 2 13.4131 87.6662 33.1125 -4.0240 -1.0354 -9.7199
# 3 35.2866 33.1125 218.3601 -13.9592 -2.7282 3.5176
# 4 -4.7291 -4.0240 -13.9592 53.8380 -2.1398 -5.8484
# 5 -9.0929 -1.0354 -2.7282 -2.1398 40.1602 -5.2221
# 6 -9.3062 -9.7199 3.5176 -5.8484 -5.2221 27.7255
#
#
#
# Elastic Compliance Matrix: (Units=1/GPa)
#
#
# Indices 1 2 3 4 5 6 
#
# 1 0.010041 -0.000421 -0.001526 0.001015 0.002753 0.004149
# 2 -0.000421 0.012783 -0.001876 0.001001 0.000803 0.004940
# 3 -0.001526 -0.001876 0.005191 0.000880 -0.000213 -0.001683
# 4 0.001015 0.001001 0.000880 0.019600 0.002022 0.005095
# 5 0.002753 0.000803 -0.000213 0.002022 0.026502 0.006651
# 6 0.004149 0.004940 -0.001683 0.005095 0.006651 0.041733
#
#
# Mechanical properties :
#
#
# Convention : Reuss Voigt Hill
#
# Bulk Modulus (GPa) = 49.09320 64.66480 56.87900
# Shear Modulus (GPa) = 38.37661 46.78120 42.57891
#
# Velocity S-wave (km/s) = 3.83653 4.23585 4.04113
# Velocity P-wave (km/s) = 6.20117 6.98031 6.60224
#
# Compressibility (1/GPa) = 0.02036942
#
# Stress axis : x y z
#
# Youngs Moduli (GPa) = 99.59052 78.22860 192.62339
#
# Poissons Ratio (x) = 0.03291 0.29402
# Poissons Ratio (y) = 0.04189 0.36137
# Poissons Ratio (z) = 0.15202 0.14676
#
# Static dielectric constant tensor:
#      x y z
#    x 1.670520 0.087510 0.043790 
#    y 0.087510 2.035740 -0.002890 
#    z 0.043790 -0.002890 2.049770 
# 
# From -- ./inp_files/216822.got.cif
#   From: 2010.05.17/outbox.cif.g08.bks.cpg/sg2_109_cif.got.tgz:216822.got - 2010.06.03 11:33:40.
