data_PCOD9063500
_publ_section_title
;
Structure prediction by ZEFSAII (Michael W. Deem and Ramdas Pophale) SiO2 
 PCOD9063500
Probable space group: P -1
;
_chemical_formula_sum "Si O2"
_cell_formula_units_Z 16
_cell_length_a 13.307677
_cell_length_b 8.636994
_cell_length_c 9.109407
_cell_angle_alpha 108.920348
_cell_angle_beta 114.423082
_cell_angle_gamma 49.701968
_cell_volume 724.656301
_symmetry_space_group_name_H-M "P -1"
_symmetry_group_IT_number 2
_symmetry_cell_setting 'triclinic'
loop_
_space_group_symop_operation_xyz
x,y,z
-x,-y,-z
loop_
_atom_site_type_symbol
_atom_site_label
_atom_site_fract_x
_atom_site_fract_y
_atom_site_fract_z
Si Si1 0.451878 0.698493 0.441816
Si Si2 0.923823 0.685452 0.130426
Si Si3 0.130798 0.982960 0.020154
Si Si4 0.311022 0.353298 0.591467
Si Si5 0.385974 0.563607 0.069152
Si Si6 0.368514 0.216258 0.924103
Si Si7 0.812489 0.885896 0.606700
Si Si8 0.951137 0.229006 0.500512
O O1 0.500000 0.500000 0.500000
O O2 0.569413 0.724643 0.479992
O O3 0.415619 0.652135 0.250184
O O4 0.314767 0.905396 0.482152
O O5 0.779158 0.735308 0.113460
O O6 0.013563 0.672639 0.317250
O O7 0.893140 0.879555 0.087114
O O8 0.000000 0.500000 0.000000
O O9 0.176975 0.059965 0.204695
O O10 0.241826 0.749096 0.977192
O O11 0.000000 0.000000 0.000000
O O12 0.368085 0.264900 0.763870
O O13 0.224215 0.270230 0.473546
O O14 0.207300 0.599494 0.587917
O O15 0.500000 0.500000 0.000000
O O16 0.378249 0.384067 0.058300
O O17 0.500000 0.000000 0.000000
O O18 0.953220 0.802493 0.586270
O O19 0.000000 0.000000 0.500000
#
# Coordination Sequence:
#
# PCOD9063500 Si02
#       8
#     2   2   2   2   2   2   2   2
#     4  11  26  44  71 105 141 188 239 300 353 427
#     4  12  27  47  73 109 145 184 245 302 356 436
#     4  11  25  43  72 102 140 185 234 298 357 419
#     4  12  26  47  73 104 148 189 238 297 358 429
#     4  11  24  44  69  98 140 187 238 290 358 418
#     4  12  28  45  74 106 141 193 243 295 358 428
#     4  11  25  45  71 103 144 189 236 292 367 425
#     4  12  27  46  75 108 143 191 240 294 368 435
#
# _framework density 22.079433000000002
#
# number of rings (size 3 to 8) (size 9 to 14) (size 15 to 20)
#    0.000    0.500    2.500    4.500    8.750    6.000 
#    0.000    0.000    0.000    0.000    0.000    0.000 
#    0.000    0.000    0.000    0.000    0.000    0.000 
#
# Total GULP energy -89454.660507 kJ/mol
# GULP energy per Si atom -5590.916282 kJ/mol
# Density = 2.202918 g / cm^3
# Si number density = 22.079433 Si / 1000 Ang^3
#
#
#
# Elastic Constant Matrix: (Units=GPa)
#
#
# Indices 1 2 3 4 5 6 
#
# 1 91.0925 9.5671 -5.5847 -9.1359 -2.8999 1.8647
# 2 9.5671 140.6090 14.0967 -15.8578 -3.1684 -2.8288
# 3 -5.5847 14.0967 72.2509 -3.6412 -0.7812 -3.3299
# 4 -9.1359 -15.8578 -3.6412 36.7039 8.4775 1.5537
# 5 -2.8999 -3.1684 -0.7812 8.4775 33.3886 7.3540
# 6 1.8647 -2.8288 -3.3299 1.5537 7.3540 43.7634
#
#
#
# Elastic Compliance Matrix: (Units=1/GPa)
#
#
# Indices 1 2 3 4 5 6 
#
# 1 0.011396 -0.000594 0.001105 0.002617 0.000428 -0.000605
# 2 -0.000594 0.007636 -0.001369 0.003049 -0.000208 0.000341
# 3 0.001105 -0.001369 0.014290 0.001105 -0.000188 0.000944
# 4 0.002617 0.003049 0.001105 0.031020 -0.007402 0.000312
# 5 0.000428 -0.000208 -0.000188 -0.007402 0.033017 -0.005331
# 6 -0.000605 0.000341 0.000944 0.000312 -0.005331 0.023855
#
#
# Mechanical properties :
#
#
# Convention : Reuss Voigt Hill
#
# Bulk Modulus (GPa) = 31.63697 37.79007 34.71352
# Shear Modulus (GPa) = 37.46342 41.82940 39.64641
#
# Velocity S-wave (km/s) = 4.12364 4.35730 4.24208
# Velocity P-wave (km/s) = 6.08542 6.51671 6.30475
#
# Compressibility (1/GPa) = 0.03160859
#
# Stress axis : x y z
#
# Youngs Moduli (GPa) = 87.74704 130.96617 69.97766
#
# Poissons Ratio (x) = 0.07775 -0.07735
# Poissons Ratio (y) = 0.05209 0.09576
# Poissons Ratio (z) = -0.09699 0.17923
#
# Static dielectric constant tensor:
#      x y z
#    x 1.727480 -0.004660 0.036190 
#    y -0.004660 1.812890 -0.011910 
#    z 0.036190 -0.011910 1.833200 
# 
# From -- ./inp_files/184135.got.cif
#   From: 2010.05.17/outbox.cif.g08.bks.cpg/sg2_93_cif.got.tgz:184135.got - 2010.06.03 11:33:40.
