data_PCOD9063333
_publ_section_title
;
Structure prediction by ZEFSAII (Michael W. Deem and Ramdas Pophale) SiO2 
 PCOD9063333
Probable space group: P -1
;
_chemical_formula_sum "Si O2"
_cell_formula_units_Z 14
_cell_length_a 10.362120
_cell_length_b 15.884066
_cell_length_c 10.137970
_cell_angle_alpha 140.962389
_cell_angle_beta 148.781342
_cell_angle_gamma 46.060122
_cell_volume 542.466084
_symmetry_space_group_name_H-M "P -1"
_symmetry_group_IT_number 2
_symmetry_cell_setting 'triclinic'
loop_
_space_group_symop_operation_xyz
x,y,z
-x,-y,-z
loop_
_atom_site_type_symbol
_atom_site_label
_atom_site_fract_x
_atom_site_fract_y
_atom_site_fract_z
Si Si1 0.746111 0.054712 0.726502
Si Si2 0.925852 0.285009 0.826713
Si Si3 0.379678 0.659796 0.148264
Si Si4 0.427894 0.124543 0.182567
Si Si5 0.216827 0.498990 0.582824
Si Si6 0.277739 0.612313 0.489007
Si Si7 0.800569 0.094589 0.119786
O O1 0.700511 0.188421 0.768379
O O2 0.500000 0.000000 0.500000
O O3 0.846735 0.108121 0.019606
O O4 0.907219 0.948186 0.644157
O O5 0.832579 0.380552 0.984822
O O6 0.689934 0.194237 0.498992
O O7 0.913466 0.361757 0.769497
O O8 0.190692 0.210485 0.009395
O O9 0.631793 0.645238 0.437386
O O10 0.403414 0.590069 0.940707
O O11 0.500000 0.000000 0.000000
O O12 0.329194 0.040346 0.119706
O O13 0.192433 0.553597 0.481989
O O14 0.000000 0.500000 0.500000
O O15 0.500000 0.500000 0.500000
O O16 0.322761 0.766888 0.758705
#
# Coordination Sequence:
#
# PCOD9063333 Si02
#       7
#     2   2   2   2   2   2   2
#     4  11  24  43  77 113 151 201 260 337 403 478
#     4  12  27  48  82 113 159 207 260 332 406 479
#     4  11  24  47  75 110 151 203 272 322 404 471
#     4  12  26  48  76 116 157 204 253 327 409 477
#     4  11  27  49  77 106 155 215 271 330 390 479
#     4  12  26  51  74 113 160 209 273 326 400 478
#     4  11  25  44  74 111 155 197 269 326 400 474
#
# _framework density 25.808064000000002
#
# number of rings (size 3 to 8) (size 9 to 14) (size 15 to 20)
#    0.000    0.571    5.714    1.286    4.000    0.000 
#    5.143    1.429    0.000    0.000    0.000    0.000 
#    0.000    0.000    0.000    0.000    0.000    0.000 
#
# Total GULP energy -78045.600257 kJ/mol
# GULP energy per Si atom -5574.685733 kJ/mol
# Density = 2.574932 g / cm^3
# Si number density = 25.808064 Si / 1000 Ang^3
#
#
#
# Elastic Constant Matrix: (Units=GPa)
#
#
# Indices 1 2 3 4 5 6 
#
# 1 172.6480 69.0071 54.3434 -15.6039 -23.0810 38.0512
# 2 69.0071 170.4066 51.9467 -24.3820 -7.8525 14.8850
# 3 54.3434 51.9467 96.9713 0.2346 1.7378 10.4899
# 4 -15.6039 -24.3820 0.2346 40.5229 6.1308 -6.9836
# 5 -23.0810 -7.8525 1.7378 6.1308 51.6837 -7.6953
# 6 38.0512 14.8850 10.4899 -6.9836 -7.6953 66.1476
#
#
#
# Elastic Compliance Matrix: (Units=1/GPa)
#
#
# Indices 1 2 3 4 5 6 
#
# 1 0.009079 -0.001886 -0.003737 0.001262 0.003193 -0.003701
# 2 -0.001886 0.008269 -0.003408 0.004300 0.000052 0.000225
# 3 -0.003737 -0.003408 0.014276 -0.003220 -0.002278 0.000048
# 4 0.001262 0.004300 -0.003220 0.028316 -0.001796 0.001598
# 5 0.003193 0.000052 -0.002278 -0.001796 0.021189 0.000788
# 6 -0.003701 0.000225 0.000048 0.001598 0.000788 0.017449
#
#
# Mechanical properties :
#
#
# Convention : Reuss Voigt Hill
#
# Bulk Modulus (GPa) = 73.74531 87.84671 80.79601
# Shear Modulus (GPa) = 41.26700 49.31943 45.29321
#
# Velocity S-wave (km/s) = 4.00308 4.37625 4.19382
# Velocity P-wave (km/s) = 7.07127 7.72320 7.40441
#
# Compressibility (1/GPa) = 0.01356018
#
# Stress axis : x y z
#
# Youngs Moduli (GPa) = 110.14353 120.93178 70.04788
#
# Poissons Ratio (x) = 0.22812 0.26180
# Poissons Ratio (y) = 0.20777 0.23874
# Poissons Ratio (z) = 0.41165 0.41216
#
# Static dielectric constant tensor:
#      x y z
#    x 2.097210 -0.002740 -0.071950 
#    y -0.002740 2.070500 0.027670 
#    z -0.071950 0.027670 2.360560 
# 
# From -- ./inp_files/436112.got.cif
#   From: 2010.05.17/outbox.cif.g08.bks.cpg/sg2_219_cif.got.tgz:436112.got - 2010.06.03 11:33:40.
