data_PCOD9063229
_publ_section_title
;
Structure prediction by ZEFSAII (Michael W. Deem and Ramdas Pophale) SiO2 
 PCOD9063229
Probable space group: P -1
;
_chemical_formula_sum "Si O2"
_cell_formula_units_Z 16
_cell_length_a 12.081355
_cell_length_b 12.227188
_cell_length_c 23.616182
_cell_angle_alpha 21.747471
_cell_angle_beta 142.057362
_cell_angle_gamma 144.855724
_cell_volume 737.092519
_symmetry_space_group_name_H-M "P -1"
_symmetry_group_IT_number 2
_symmetry_cell_setting 'triclinic'
loop_
_space_group_symop_operation_xyz
x,y,z
-x,-y,-z
loop_
_atom_site_type_symbol
_atom_site_label
_atom_site_fract_x
_atom_site_fract_y
_atom_site_fract_z
Si Si1 0.308070 0.790352 0.989106
Si Si2 0.716125 0.932895 0.674013
Si Si3 0.297655 0.800667 0.583919
Si Si4 0.770342 0.217704 0.799496
Si Si5 0.063051 0.091572 0.809711
Si Si6 0.656672 0.023644 0.216044
Si Si7 0.858505 0.695602 0.024935
Si Si8 0.058283 0.197527 0.487069
O O1 0.311243 0.931276 0.859830
O O2 0.136331 0.837556 0.932250
O O3 0.291874 0.427836 0.153474
O O4 0.500000 0.000000 0.000000
O O5 0.524328 0.942300 0.622634
O O6 0.717111 0.038754 0.558858
O O7 0.909914 0.153334 0.677126
O O8 0.237479 0.422596 0.732217
O O9 0.142590 0.835587 0.547983
O O10 0.817721 0.443862 0.655390
O O11 0.958460 0.362193 0.846044
O O12 0.567908 0.185551 0.761116
O O13 0.769852 0.872027 0.948689
O O14 0.951967 0.938540 0.895124
O O15 0.704643 0.373165 0.093808
O O16 0.806770 0.901338 0.367573
O O17 0.000000 0.000000 0.500000
#
# Coordination Sequence:
#
# PCOD9063229 Si02
#       8
#     2   2   2   2   2   2   2   2
#     4  12  25  44  72 105 141 178 229 287 343 411
#     4  11  25  44  71 101 133 183 222 284 347 406
#     4  11  26  47  66  98 141 176 229 280 345 409
#     4  11  25  47  70 100 141 182 234 280 345 406
#     4  12  23  44  71  99 137 178 230 278 347 408
#     4  12  26  45  70 104 137 184 231 283 347 408
#     4  11  24  43  73 102 132 186 226 291 341 404
#     4  12  26  48  70 100 141 186 227 287 342 407
#
# _framework density 21.706909
#
# number of rings (size 3 to 8) (size 9 to 14) (size 15 to 20)
#    0.000    0.500    5.000    3.000    1.750    2.000 
#    2.250    0.000    0.000    0.000    0.000    0.000 
#    0.000    0.000    0.000    0.000    0.000    0.000 
#
# Total GULP energy -89532.707222 kJ/mol
# GULP energy per Si atom -5595.794201 kJ/mol
# Density = 2.165750 g / cm^3
# Si number density = 21.706909 Si / 1000 Ang^3
#
#
#
# Elastic Constant Matrix: (Units=GPa)
#
#
# Indices 1 2 3 4 5 6 
#
# 1 83.4355 -26.2676 8.0747 -7.5758 13.2935 3.4478
# 2 -26.2676 32.2851 -16.3869 -3.4879 2.7883 -3.2424
# 3 8.0747 -16.3869 68.6408 2.8055 -7.4282 -3.5792
# 4 -7.5758 -3.4879 2.8055 18.5610 5.5265 -5.7032
# 5 13.2935 2.7883 -7.4282 5.5265 30.2555 5.1887
# 6 3.4478 -3.2424 -3.5792 -5.7032 5.1887 29.8487
#
#
#
# Elastic Compliance Matrix: (Units=1/GPa)
#
#
# Indices 1 2 3 4 5 6 
#
# 1 0.024331 0.024782 0.000568 0.022158 -0.018141 0.007337
# 2 0.024782 0.062682 0.009055 0.031983 -0.022877 0.015120
# 3 0.000568 0.009055 0.017127 -0.000797 0.002869 0.002321
# 4 0.022158 0.031983 -0.000797 0.085734 -0.032456 0.022842
# 5 -0.018141 -0.022877 0.002869 -0.032456 0.052397 -0.015356
# 6 0.007337 0.015120 0.002321 0.022842 -0.015356 0.041609
#
#
# Mechanical properties :
#
#
# Convention : Reuss Voigt Hill
#
# Bulk Modulus (GPa) = 5.78203 12.80019 9.29111
# Shear Modulus (GPa) = 18.33365 30.32910 24.33137
#
# Velocity S-wave (km/s) = 2.90935 3.74198 3.35162
# Velocity P-wave (km/s) = 3.73567 4.95778 4.38946
#
# Compressibility (1/GPa) = 0.17294965
#
# Stress axis : x y z
#
# Youngs Moduli (GPa) = 41.09927 15.95346 58.38578
#
# Poissons Ratio (x) = -0.39536 -0.03315
# Poissons Ratio (y) = -1.01852 -0.52866
# Poissons Ratio (z) = -0.02334 -0.14445
#
# Static dielectric constant tensor:
#      x y z
#    x 1.745570 -0.002950 0.014220 
#    y -0.002950 1.778460 0.000140 
#    z 0.014220 0.000140 1.828250 
# 
# From -- ./inp_files/273112.got.cif
#   From: 2010.05.17/outbox.cif.g08.bks.cpg/sg2_137_cif.got.tgz:273112.got - 2010.06.03 11:33:40.
