data_PCOD9063596
_publ_section_title
;
Structure prediction by ZEFSAII (Michael W. Deem and Ramdas Pophale) SiO2 
 PCOD9063596
Probable space group: P -1
;
_chemical_formula_sum "Si O2"
_cell_formula_units_Z 15
_cell_length_a 11.149092
_cell_length_b 8.908024
_cell_length_c 20.151917
_cell_angle_alpha 42.135257
_cell_angle_beta 32.160974
_cell_angle_gamma 50.518947
_cell_volume 714.545748
_symmetry_space_group_name_H-M "P -1"
_symmetry_group_IT_number 2
_symmetry_cell_setting 'triclinic'
loop_
_space_group_symop_operation_xyz
x,y,z
-x,-y,-z
loop_
_atom_site_type_symbol
_atom_site_label
_atom_site_fract_x
_atom_site_fract_y
_atom_site_fract_z
Si Si1 0.397654 0.273224 0.151852
Si Si2 0.500000 0.500000 0.500000
Si Si3 0.468456 0.938435 0.457143
Si Si4 0.470701 0.669106 0.790151
Si Si5 0.029146 0.095649 0.285233
Si Si6 0.771184 0.362502 0.657545
Si Si7 0.562040 0.778738 0.249542
Si Si8 0.008181 0.484367 0.922397
O O1 0.355899 0.300201 0.240912
O O2 0.176136 0.216245 0.232478
O O3 0.552512 0.045949 0.152770
O O4 0.500000 0.500000 0.000000
O O5 0.515057 0.684457 0.495356
O O6 0.542172 0.703528 0.359728
O O7 0.204424 0.985383 0.549113
O O8 0.500000 0.000000 0.500000
O O9 0.591994 0.116762 0.295327
O O10 0.584428 0.487912 0.747896
O O11 0.239625 0.592802 0.956677
O O12 0.962416 0.273209 0.202538
O O13 0.164753 0.882242 0.263912
O O14 0.654089 0.315409 0.657488
O O15 0.000000 0.500000 0.500000
O O16 0.790686 0.673435 0.146400
O O17 0.000000 0.500000 0.000000
#
# Coordination Sequence:
#
# PCOD9063596 Si02
#       8
#     2   1   2   2   2   2   2   2
#     4  11  25  47  67 101 148 185 244 303 365 452
#     4  12  24  44  76 108 144 190 246 310 372 432
#     4  12  25  47  72 110 150 189 248 310 375 445
#     4  12  24  44  72 100 141 194 241 300 374 429
#     4  11  25  44  73 101 145 191 241 306 370 444
#     4  11  24  44  71 103 140 187 243 297 368 442
#     4  11  25  46  73 105 144 190 245 304 373 446
#     4  12  24  45  72 104 143 187 244 311 365 443
#
# _framework density 20.992357999999999
#
# number of rings (size 3 to 8) (size 9 to 14) (size 15 to 20)
#    0.000    0.533    6.667    1.600    0.000    3.733 
#    2.400    0.000    0.000    0.000    0.000    0.000 
#    0.000    0.000    0.000    0.000    0.000    0.000 
#
# Total GULP energy -83527.037659 kJ/mol
# GULP energy per Si atom -5568.469177 kJ/mol
# Density = 2.094458 g / cm^3
# Si number density = 20.992358 Si / 1000 Ang^3
#
#
#
# Elastic Constant Matrix: (Units=GPa)
#
#
# Indices 1 2 3 4 5 6 
#
# 1 102.9946 40.7609 32.2482 -7.6841 13.7595 16.8642
# 2 40.7609 119.8254 28.3962 -22.1894 6.0030 2.2458
# 3 32.2482 28.3962 79.9019 -6.2122 -1.9035 -4.4472
# 4 -7.6841 -22.1894 -6.2122 26.5257 -4.0658 -2.0268
# 5 13.7595 6.0030 -1.9035 -4.0658 44.9539 -3.5690
# 6 16.8642 2.2458 -4.4472 -2.0268 -3.5690 36.1405
#
#
#
# Elastic Compliance Matrix: (Units=1/GPa)
#
#
# Indices 1 2 3 4 5 6 
#
# 1 0.014623 -0.003576 -0.005290 -0.001353 -0.004965 -0.007819
# 2 -0.003576 0.011515 -0.001930 0.008287 0.000321 0.001212
# 3 -0.005290 -0.001930 0.015791 0.001396 0.003062 0.004912
# 4 -0.001353 0.008287 0.001396 0.045382 0.003725 0.003201
# 5 -0.004965 0.000321 0.003062 0.003725 0.024610 0.005313
# 6 -0.007819 0.001212 0.004912 0.003201 0.005313 0.032552
#
#
# Mechanical properties :
#
#
# Convention : Reuss Voigt Hill
#
# Bulk Modulus (GPa) = 49.16791 56.17029 52.66910
# Shear Modulus (GPa) = 28.92794 34.94512 31.93653
#
# Velocity S-wave (km/s) = 3.71620 4.08445 3.90467
# Velocity P-wave (km/s) = 6.47195 7.00423 6.74335
#
# Compressibility (1/GPa) = 0.02033847
#
# Stress axis : x y z
#
# Youngs Moduli (GPa) = 68.38369 86.84380 63.32761
#
# Poissons Ratio (x) = 0.31056 0.33498
# Poissons Ratio (y) = 0.24454 0.12220
# Poissons Ratio (z) = 0.36173 0.16758
#
# Static dielectric constant tensor:
#      x y z
#    x 1.799810 0.009990 -0.047780 
#    y 0.009990 1.767570 -0.032290 
#    z -0.047780 -0.032290 1.817340 
# 
# From -- ./inp_files/155589.got.cif
#   From: 2010.05.17/outbox.cif.g08.bks.cpg/sg2_78_cif.got.tgz:155589.got - 2010.06.03 11:33:40.
