data_PCOD9063209
_publ_section_title
;
Structure prediction by ZEFSAII (Michael W. Deem and Ramdas Pophale) SiO2 
 PCOD9063209
Probable space group: P -1
;
_chemical_formula_sum "Si O2"
_cell_formula_units_Z 12
_cell_length_a 11.750693
_cell_length_b 14.818493
_cell_length_c 10.397125
_cell_angle_alpha 114.339978
_cell_angle_beta 118.332322
_cell_angle_gamma 19.528813
_cell_volume 528.883713
_symmetry_space_group_name_H-M "P -1"
_symmetry_group_IT_number 2
_symmetry_cell_setting 'triclinic'
loop_
_space_group_symop_operation_xyz
x,y,z
-x,-y,-z
loop_
_atom_site_type_symbol
_atom_site_label
_atom_site_fract_x
_atom_site_fract_y
_atom_site_fract_z
Si Si1 0.718706 0.788966 0.382872
Si Si2 0.382777 0.843652 0.317018
Si Si3 0.400616 0.023786 0.825539
Si Si4 0.525611 0.740207 0.608740
Si Si5 0.629501 0.442109 0.174022
Si Si6 0.595936 0.512213 0.667001
O O1 0.705368 0.683798 0.352040
O O2 0.560563 0.924985 0.237810
O O3 0.114075 0.550003 0.440757
O O4 0.500000 0.000000 0.500000
O O5 0.285872 0.929751 0.466737
O O6 0.481292 0.659204 0.240860
O O7 0.051917 0.123531 0.224520
O O8 0.002806 0.260967 0.747427
O O9 0.627064 0.766601 0.755033
O O10 0.500000 0.000000 0.000000
O O11 0.393689 0.754450 0.648447
O O12 0.490234 0.471898 0.232322
O O13 0.500000 0.500000 0.000000
O O14 0.500000 0.500000 0.500000
#
# Coordination Sequence:
#
# PCOD9063209 Si02
#       6
#     2   2   2   2   2   2
#     4  11  24  43  72 108 142 191 250 308 368 451
#     4  12  25  45  75 105 147 191 252 305 375 445
#     4  11  27  44  70 108 147 194 245 312 378 434
#     4  11  24  44  76 106 143 199 252 305 373 444
#     4  12  29  46  72 110 146 196 247 315 378 440
#     4  11  25  47  73 103 145 194 253 300 366 459
#
# _framework density 22.689297
#
# number of rings (size 3 to 8) (size 9 to 14) (size 15 to 20)
#    0.000    0.667    3.333    3.000    7.000    5.333 
#    0.000    0.000    0.000    0.000    0.000    0.000 
#    0.000    0.000    0.000    0.000    0.000    0.000 
#
# Total GULP energy -67078.261775 kJ/mol
# GULP energy per Si atom -5589.855148 kJ/mol
# Density = 2.263765 g / cm^3
# Si number density = 22.689297 Si / 1000 Ang^3
#
#
#
# Elastic Constant Matrix: (Units=GPa)
#
#
# Indices 1 2 3 4 5 6 
#
# 1 170.6929 16.0690 70.6799 0.9773 -22.2751 19.8347
# 2 16.0690 71.6171 34.7442 -7.3331 5.4575 0.7259
# 3 70.6799 34.7442 230.0300 -10.4305 -8.3965 15.5669
# 4 0.9773 -7.3331 -10.4305 31.5395 6.1116 2.6952
# 5 -22.2751 5.4575 -8.3965 6.1116 40.8091 0.2084
# 6 19.8347 0.7259 15.5669 2.6952 0.2084 45.5143
#
#
#
# Elastic Compliance Matrix: (Units=1/GPa)
#
#
# Indices 1 2 3 4 5 6 
#
# 1 0.007624 -0.001262 -0.001904 -0.001757 0.004215 -0.002566
# 2 -0.001262 0.015897 -0.002036 0.003730 -0.003796 0.000789
# 3 -0.001904 -0.002036 0.005382 0.001431 0.000131 -0.001064
# 4 -0.001757 0.003730 0.001431 0.034479 -0.006318 -0.001796
# 5 0.004215 -0.003796 0.000131 -0.006318 0.028294 -0.001576
# 6 -0.002566 0.000789 -0.001064 -0.001796 -0.001576 0.023554
#
#
# Mechanical properties :
#
#
# Convention : Reuss Voigt Hill
#
# Bulk Modulus (GPa) = 54.05896 79.48067 66.76982
# Shear Modulus (GPa) = 37.93607 46.96237 42.44922
#
# Velocity S-wave (km/s) = 4.09342 4.55444 4.33007
# Velocity P-wave (km/s) = 6.79845 7.92233 7.38181
#
# Compressibility (1/GPa) = 0.01849832
#
# Stress axis : x y z
#
# Youngs Moduli (GPa) = 131.16485 62.90334 185.82029
#
# Poissons Ratio (x) = 0.07938 0.35382
# Poissons Ratio (y) = 0.16552 0.37838
# Poissons Ratio (z) = 0.24975 0.12809
#
# Static dielectric constant tensor:
#      x y z
#    x 1.853460 0.014890 0.008300 
#    y 0.014890 2.031650 -0.030670 
#    z 0.008300 -0.030670 1.818530 
# 
# From -- ./inp_files/20995.got.cif
#   From: 2010.05.17/outbox.cif.g08.bks.cpg/sg2_11_cif.got.tgz:20995.got - 2010.06.03 11:33:40.
