data_PCOD9063790
_publ_section_title
;
Structure prediction by ZEFSAII (Michael W. Deem and Ramdas Pophale) SiO2 
 PCOD9063790
Probable space group: P -1
;
_chemical_formula_sum "Si O2"
_cell_formula_units_Z 14
_cell_length_a 8.883712
_cell_length_b 9.713285
_cell_length_c 8.688587
_cell_angle_alpha 126.571580
_cell_angle_beta 90.820958
_cell_angle_gamma 80.762927
_cell_volume 591.181668
_symmetry_space_group_name_H-M "P -1"
_symmetry_group_IT_number 2
_symmetry_cell_setting 'triclinic'
loop_
_space_group_symop_operation_xyz
x,y,z
-x,-y,-z
loop_
_atom_site_type_symbol
_atom_site_label
_atom_site_fract_x
_atom_site_fract_y
_atom_site_fract_z
Si Si1 0.881286 0.665676 0.543830
Si Si2 0.290513 0.169388 0.077480
Si Si3 0.364144 0.830608 0.020515
Si Si4 0.333214 0.448278 0.779110
Si Si5 0.606545 0.141981 0.600248
Si Si6 0.850663 0.523296 0.911146
Si Si7 0.092448 0.849219 0.508797
O O1 0.737011 0.722663 0.691632
O O2 0.801626 0.626027 0.357775
O O3 0.000000 0.500000 0.500000
O O4 0.980865 0.816878 0.622912
O O5 0.456888 0.163213 0.002273
O O6 0.166935 0.292203 0.052686
O O7 0.274644 0.978044 0.004331
O O8 0.334066 0.641791 0.850761
O O9 0.332390 0.859209 0.222628
O O10 0.495981 0.323451 0.680101
O O11 0.293711 0.460166 0.966838
O O12 0.740831 0.100532 0.448373
O O13 0.500000 0.000000 0.500000
O O14 0.865437 0.347397 0.694344
O O15 0.000000 0.500000 0.000000
O O16 0.000000 0.000000 0.500000
#
# Coordination Sequence:
#
# PCOD9063790 Si02
#       7
#     2   2   2   2   2   2   2
#     4  12  26  48  66 103 151 185 228 292 361 423
#     4  11  24  46  67  99 152 180 230 294 356 421
#     4  11  24  44  74 104 138 183 237 298 351 415
#     4  12  24  45  75 105 135 191 247 287 349 421
#     4  12  25  45  76 108 141 185 242 300 346 424
#     4  12  23  45  73  99 138 192 236 292 347 422
#     4  12  25  44  71 104 139 184 237 287 352 419
#
# _framework density 23.681384000000001
#
# number of rings (size 3 to 8) (size 9 to 14) (size 15 to 20)
#    0.000    0.286    5.714    3.857    0.000    0.571 
#    7.714    1.429    0.000    0.000    0.000    0.000 
#    0.000    0.000    0.000    0.000    0.000    0.000 
#
# Total GULP energy -78295.554537 kJ/mol
# GULP energy per Si atom -5592.539610 kJ/mol
# Density = 2.362748 g / cm^3
# Si number density = 23.681384 Si / 1000 Ang^3
#
#
#
# Elastic Constant Matrix: (Units=GPa)
#
#
# Indices 1 2 3 4 5 6 
#
# 1 81.8858 30.7209 3.3282 0.6102 0.1841 0.3119
# 2 30.7209 197.5658 9.1104 17.3114 -1.3044 -14.5759
# 3 3.3282 9.1104 35.3250 -1.4653 -10.9992 -3.5513
# 4 0.6102 17.3114 -1.4653 32.5614 4.3346 -5.9313
# 5 0.1841 -1.3044 -10.9992 4.3346 33.2423 6.0486
# 6 0.3119 -14.5759 -3.5513 -5.9313 6.0486 40.2839
#
#
#
# Elastic Compliance Matrix: (Units=1/GPa)
#
#
# Indices 1 2 3 4 5 6 
#
# 1 0.013038 -0.002113 -0.000853 0.000753 -0.000395 -0.000771
# 2 -0.002113 0.005813 -0.001290 -0.002800 -0.000115 0.001611
# 3 -0.000853 -0.001290 0.032053 0.000954 0.010260 0.000966
# 4 0.000753 -0.002800 0.000954 0.033779 -0.005076 0.004801
# 5 -0.000395 -0.000115 0.010260 -0.005076 0.035073 -0.005148
# 6 -0.000771 0.001611 0.000966 0.004801 -0.005148 0.026978
#
#
# Mechanical properties :
#
#
# Convention : Reuss Voigt Hill
#
# Bulk Modulus (GPa) = 23.58965 44.56617 34.07791
# Shear Modulus (GPa) = 29.51998 39.32533 34.42265
#
# Velocity S-wave (km/s) = 3.53448 4.07947 3.81671
# Velocity P-wave (km/s) = 5.16136 6.40698 5.81760
#
# Compressibility (1/GPa) = 0.04239148
#
# Stress axis : x y z
#
# Youngs Moduli (GPa) = 76.69945 172.02211 31.19847
#
# Poissons Ratio (x) = 0.36357 0.02660
# Poissons Ratio (y) = 0.16210 0.04025
# Poissons Ratio (z) = 0.06539 0.22193
#
# Static dielectric constant tensor:
#      x y z
#    x 2.080480 0.175600 -0.212770 
#    y 0.175600 2.055850 -0.203750 
#    z -0.212770 -0.203750 2.163600 
# 
# From -- ./inp_files/156915.got.cif
#   From: 2010.05.17/outbox.cif.g08.bks.cpg/sg2_79_cif.got.tgz:156915.got - 2010.06.03 11:33:40.
