data_PCOD9063923
_publ_section_title
;
Structure prediction by ZEFSAII (Michael W. Deem and Ramdas Pophale) SiO2 
 PCOD9063923
Probable space group: P -1
;
_chemical_formula_sum "Si O2"
_cell_formula_units_Z 16
_cell_length_a 14.914017
_cell_length_b 8.095858
_cell_length_c 15.483445
_cell_angle_alpha 103.284665
_cell_angle_beta 150.838504
_cell_angle_gamma 95.731518
_cell_volume 685.825739
_symmetry_space_group_name_H-M "P -1"
_symmetry_group_IT_number 2
_symmetry_cell_setting 'triclinic'
loop_
_space_group_symop_operation_xyz
x,y,z
-x,-y,-z
loop_
_atom_site_type_symbol
_atom_site_label
_atom_site_fract_x
_atom_site_fract_y
_atom_site_fract_z
Si Si1 0.955484 0.397260 0.356019
Si Si2 0.396029 0.281331 0.626483
Si Si3 0.875089 0.962947 0.205723
Si Si4 0.589729 0.618741 0.681013
Si Si5 0.495261 0.012368 0.357988
Si Si6 0.094534 0.746293 0.123318
Si Si7 0.419653 0.747005 0.677598
Si Si8 0.356567 0.484724 0.959304
O O1 0.186179 0.553353 0.507030
O O2 0.000000 0.500000 0.500000
O O3 0.891958 0.161901 0.284118
O O4 0.760079 0.403987 0.149221
O O5 0.439152 0.455439 0.614190
O O6 0.551847 0.223291 0.711942
O O7 0.117664 0.081063 0.372222
O O8 0.482239 0.393543 0.806032
O O9 0.828912 0.774490 0.204860
O O10 0.649221 0.842709 0.938141
O O11 0.500000 0.500000 0.500000
O O12 0.501444 0.759518 0.644722
O O13 0.862870 0.731675 0.936963
O O14 0.248184 0.907671 0.192328
O O15 0.727093 0.156000 0.634058
O O16 0.585829 0.062582 0.335043
O O17 0.000000 0.500000 0.000000
O O18 0.500000 0.500000 0.000000
#
# Coordination Sequence:
#
# PCOD9063923 Si02
#       8
#     2   2   2   2   2   2   2   2
#     4  12  28  49  78 112 148 188 247 306 366 446
#     4  12  25  47  70 108 144 192 247 298 366 439
#     4  12  25  48  77 106 152 192 242 300 377 435
#     4  12  26  43  71 100 151 190 239 309 358 425
#     4  11  26  41  73 102 139 201 242 302 375 424
#     4  11  24  45  66 101 146 189 253 303 359 440
#     4  12  26  46  70 108 143 188 247 300 364 440
#     4  12  28  50  78 110 149 191 241 310 368 439
#
# _framework density 23.329543000000001
#
# number of rings (size 3 to 8) (size 9 to 14) (size 15 to 20)
#    0.000    0.250    3.750    4.500    5.250    7.500 
#    0.000    0.000    0.000    0.000    0.000    0.000 
#    0.000    0.000    0.000    0.000    0.000    0.000 
#
# Total GULP energy -89345.994586 kJ/mol
# GULP energy per Si atom -5584.124662 kJ/mol
# Density = 2.327644 g / cm^3
# Si number density = 23.329543 Si / 1000 Ang^3
#
#
#
# Elastic Constant Matrix: (Units=GPa)
#
#
# Indices 1 2 3 4 5 6 
#
# 1 139.0707 25.3587 48.3708 8.0422 9.0074 -2.0597
# 2 25.3587 95.4474 6.9063 7.8018 2.8098 3.4671
# 3 48.3708 6.9063 90.7806 -0.7783 14.2172 1.7464
# 4 8.0422 7.8018 -0.7783 40.6925 -2.7634 5.8301
# 5 9.0074 2.8098 14.2172 -2.7634 49.9310 1.1047
# 6 -2.0597 3.4671 1.7464 5.8301 1.1047 47.5278
#
#
#
# Elastic Compliance Matrix: (Units=1/GPa)
#
#
# Indices 1 2 3 4 5 6 
#
# 1 0.009371 -0.002026 -0.004822 -0.001713 -0.000319 0.000949
# 2 -0.002026 0.011168 0.000295 -0.001664 -0.000424 -0.000699
# 3 -0.004822 0.000295 0.014069 0.001072 -0.003075 -0.000808
# 4 -0.001713 -0.001664 0.001072 0.025819 0.001597 -0.003197
# 5 -0.000319 -0.000424 -0.003075 0.001597 0.021085 -0.000556
# 6 0.000949 -0.000699 -0.000808 -0.003197 -0.000556 0.021567
#
#
# Mechanical properties :
#
#
# Convention : Reuss Voigt Hill
#
# Bulk Modulus (GPa) = 46.50602 54.06338 50.28470
# Shear Modulus (GPa) = 40.53460 43.94113 42.23786
#
# Velocity S-wave (km/s) = 4.17283 4.34464 4.25960
# Velocity P-wave (km/s) = 6.57224 6.95643 6.76706
#
# Compressibility (1/GPa) = 0.02150259
#
# Stress axis : x y z
#
# Youngs Moduli (GPa) = 106.71280 89.54400 71.07947
#
# Poissons Ratio (x) = 0.18140 0.34274
# Poissons Ratio (y) = 0.21618 -0.02099
# Poissons Ratio (z) = 0.51456 -0.02645
#
# Static dielectric constant tensor:
#      x y z
#    x 2.397290 -0.427760 -0.151850 
#    y -0.427760 2.265150 0.071560 
#    z -0.151850 0.071560 1.898470 
# 
# From -- ./inp_files/52165.got.cif
#   From: 2010.05.17/outbox.cif.g08.bks.cpg/sg2_27_cif.got.tgz:52165.got - 2010.06.03 11:33:40.
