data_PCOD9063501
_publ_section_title
;
Structure prediction by ZEFSAII (Michael W. Deem and Ramdas Pophale) SiO2 
 PCOD9063501
Probable space group: P -1
;
_chemical_formula_sum "Si O2"
_cell_formula_units_Z 16
_cell_length_a 25.420013
_cell_length_b 6.829280
_cell_length_c 20.622583
_cell_angle_alpha 55.515701
_cell_angle_beta 20.429297
_cell_angle_gamma 44.384581
_cell_volume 791.605769
_symmetry_space_group_name_H-M "P -1"
_symmetry_group_IT_number 2
_symmetry_cell_setting 'triclinic'
loop_
_space_group_symop_operation_xyz
x,y,z
-x,-y,-z
loop_
_atom_site_type_symbol
_atom_site_label
_atom_site_fract_x
_atom_site_fract_y
_atom_site_fract_z
Si Si1 0.767757 0.633650 0.399449
Si Si2 0.630095 0.326785 0.693992
Si Si3 0.100668 0.639613 0.835070
Si Si4 0.581733 0.680781 0.369441
Si Si5 0.626722 0.302417 0.953301
Si Si6 0.953402 0.307164 0.629083
Si Si7 0.302968 0.332939 0.013321
Si Si8 0.896675 0.344647 0.953048
O O1 0.667059 0.542762 0.578112
O O2 0.879498 0.380464 0.261062
O O3 0.925036 0.647883 0.248737
O O4 0.596989 0.963426 0.503352
O O5 0.504256 0.496793 0.871521
O O6 0.505504 0.271389 0.803626
O O7 0.840298 0.011602 0.528983
O O8 0.310223 0.407103 0.670577
O O9 0.986062 0.990225 0.923915
O O10 0.000000 0.500000 0.000000
O O11 0.500000 0.500000 0.500000
O O12 0.742109 0.545351 0.152011
O O13 0.825076 0.256216 0.742643
O O14 0.666680 0.980794 0.967153
O O15 0.500000 0.500000 0.000000
O O16 0.832390 0.480674 0.802331
O O17 0.000000 0.500000 0.500000
O O18 0.206298 0.520999 0.022897
#
# Coordination Sequence:
#
# PCOD9063501 Si02
#       8
#     2   2   2   2   2   2   2   2
#     4  12  26  44  66  95 131 172 215 268 327 386
#     4  11  26  43  66  99 131 171 218 261 323 386
#     4  12  25  44  68  93 130 171 217 273 326 381
#     4  12  25  44  68  95 128 171 221 269 326 387
#     4  11  24  44  69  99 134 170 214 266 316 381
#     4  11  24  44  69  99 133 171 216 262 317 385
#     4  11  26  43  66  98 133 170 215 267 321 381
#     4  12  26  45  64  96 134 167 216 273 321 386
#
# _framework density 20.212081000000001
#
# number of rings (size 3 to 8) (size 9 to 14) (size 15 to 20)
#    0.000    0.500    2.500    5.250    3.500   11.000 
#    0.000    0.000    0.000    0.000    0.000    0.000 
#    0.000    0.000    0.000    0.000    0.000    0.000 
#
# Total GULP energy -89527.159651 kJ/mol
# GULP energy per Si atom -5595.447478 kJ/mol
# Density = 2.016608 g / cm^3
# Si number density = 20.212081 Si / 1000 Ang^3
#
#
#
# Elastic Constant Matrix: (Units=GPa)
#
#
# Indices 1 2 3 4 5 6 
#
# 1 118.9980 33.8173 41.7438 -11.8529 -30.2755 -0.5508
# 2 33.8173 113.4574 46.5284 -12.8794 -27.1568 1.2904
# 3 41.7438 46.5284 111.7949 -19.7548 -31.7515 9.3545
# 4 -11.8529 -12.8794 -19.7548 48.8866 1.9890 -0.9991
# 5 -30.2755 -27.1568 -31.7515 1.9890 48.9201 -0.7168
# 6 -0.5508 1.2904 9.3545 -0.9991 -0.7168 36.8749
#
#
#
# Elastic Compliance Matrix: (Units=1/GPa)
#
#
# Indices 1 2 3 4 5 6 
#
# 1 0.010766 -0.001102 -0.002077 0.001308 0.004662 0.000852
# 2 -0.001102 0.011431 -0.003131 0.001343 0.003584 0.000484
# 3 -0.002077 -0.003131 0.013550 0.003856 0.005568 -0.003146
# 4 0.001308 0.001343 0.003856 0.022550 0.003136 -0.000334
# 5 0.004662 0.003584 0.005568 0.003136 0.028790 -0.000824
# 6 0.000852 0.000484 -0.003146 -0.000334 -0.000824 0.027888
#
#
# Mechanical properties :
#
#
# Convention : Reuss Voigt Hill
#
# Bulk Modulus (GPa) = 43.24336 65.38102 54.31219
# Shear Modulus (GPa) = 36.95351 41.74705 39.35028
#
# Velocity S-wave (km/s) = 4.28049 4.54965 4.41712
# Velocity P-wave (km/s) = 6.77284 7.74705 7.27627
#
# Compressibility (1/GPa) = 0.02312494
#
# Stress axis : x y z
#
# Youngs Moduli (GPa) = 92.88710 87.47862 73.80187
#
# Poissons Ratio (x) = 0.09643 0.15330
# Poissons Ratio (y) = 0.10239 0.23110
# Poissons Ratio (z) = 0.19295 0.27393
#
# Static dielectric constant tensor:
#      x y z
#    x 1.668300 -0.003520 0.005090 
#    y -0.003520 1.599110 0.004860 
#    z 0.005090 0.004860 1.683670 
# 
# From -- ./inp_files/47667.got.cif
#   From: 2010.05.17/outbox.cif.g08.bks.cpg/sg2_24_cif.got.tgz:47667.got - 2010.06.03 11:33:40.
