data_PCOD9063883
_publ_section_title
;
Structure prediction by ZEFSAII (Michael W. Deem and Ramdas Pophale) SiO2 
 PCOD9063883
Probable space group: P -1
;
_chemical_formula_sum "Si O2"
_cell_formula_units_Z 15
_cell_length_a 11.624252
_cell_length_b 8.564259
_cell_length_c 19.899752
_cell_angle_alpha 43.499453
_cell_angle_beta 30.155497
_cell_angle_gamma 44.640878
_cell_volume 664.363746
_symmetry_space_group_name_H-M "P -1"
_symmetry_group_IT_number 2
_symmetry_cell_setting 'triclinic'
loop_
_space_group_symop_operation_xyz
x,y,z
-x,-y,-z
loop_
_atom_site_type_symbol
_atom_site_label
_atom_site_fract_x
_atom_site_fract_y
_atom_site_fract_z
Si Si1 0.000000 0.000000 0.000000
Si Si2 0.617800 0.898453 0.371711
Si Si3 0.724560 0.471347 0.942856
Si Si4 0.770134 0.207234 0.307931
Si Si5 0.047973 0.623634 0.631441
Si Si6 0.344896 0.005838 0.345929
Si Si7 0.307918 0.262463 0.844656
Si Si8 0.707064 0.775800 0.977511
O O1 0.086400 0.204374 0.937325
O O2 0.149626 0.799786 0.035930
O O3 0.366740 0.896213 0.532860
O O4 0.789043 0.639829 0.377068
O O5 0.564263 0.977025 0.296546
O O6 0.717908 0.086146 0.303169
O O7 0.655512 0.573786 0.019303
O O8 0.904298 0.605795 0.776848
O O9 0.500000 0.500000 0.000000
O O10 0.667005 0.485321 0.271606
O O11 0.048048 0.168052 0.185479
O O12 0.209276 0.808049 0.496272
O O13 0.843755 0.744496 0.642677
O O14 0.462981 0.927965 0.238463
O O15 0.277632 0.278404 0.934409
O O16 0.500000 0.000000 0.000000
#
# Coordination Sequence:
#
# PCOD9063883 Si02
#       8
#     1   2   2   2   2   2   2   2
#     4  12  26  44  72 100 142 192 240 294 360 432
#     4  11  25  47  77 102 147 191 241 306 367 437
#     4  12  27  46  74 109 144 190 247 300 365 442
#     4  11  26  49  69 106 142 193 243 298 375 432
#     4  11  24  44  76 108 144 187 252 300 364 437
#     4  11  24  45  76 108 141 195 243 303 362 443
#     4  12  26  46  70 104 144 191 242 298 367 433
#     4  12  27  47  70 104 151 190 238 308 362 436
#
# _framework density 22.577994
#
# number of rings (size 3 to 8) (size 9 to 14) (size 15 to 20)
#    0.000    0.533    2.667    4.800    5.600    2.133 
#    0.000    1.333    0.000    0.000    0.000    0.000 
#    0.000    0.000    0.000    0.000    0.000    0.000 
#
# Total GULP energy -83713.077899 kJ/mol
# GULP energy per Si atom -5580.871860 kJ/mol
# Density = 2.252661 g / cm^3
# Si number density = 22.577994 Si / 1000 Ang^3
#
#
#
# Elastic Constant Matrix: (Units=GPa)
#
#
# Indices 1 2 3 4 5 6 
#
# 1 136.8303 44.1648 27.1422 3.1517 -7.7851 12.3029
# 2 44.1648 100.5831 7.9056 -2.6601 -5.3525 -21.5631
# 3 27.1422 7.9056 76.1647 5.5708 0.8618 10.5805
# 4 3.1517 -2.6601 5.5708 39.8698 0.6886 -4.7594
# 5 -7.7851 -5.3525 0.8618 0.6886 27.4540 3.0268
# 6 12.3029 -21.5631 10.5805 -4.7594 3.0268 42.9643
#
#
#
# Elastic Compliance Matrix: (Units=1/GPa)
#
#
# Indices 1 2 3 4 5 6 
#
# 1 0.010135 -0.005334 -0.002228 -0.001532 0.002535 -0.005379
# 2 -0.005334 0.014452 -0.001091 0.002647 0.000245 0.009325
# 3 -0.002228 -0.001091 0.014741 -0.002389 -0.000834 -0.003746
# 4 -0.001532 0.002647 -0.002389 0.026371 -0.001095 0.005354
# 5 0.002535 0.000245 -0.000834 -0.001095 0.037594 -0.003167
# 6 -0.005379 0.009325 -0.003746 0.005354 -0.003167 0.031234
#
#
# Mechanical properties :
#
#
# Convention : Reuss Voigt Hill
#
# Bulk Modulus (GPa) = 45.40687 52.44481 48.92584
# Shear Modulus (GPa) = 31.41226 37.68198 34.54712
#
# Velocity S-wave (km/s) = 3.73403 4.08973 3.91592
# Velocity P-wave (km/s) = 6.22458 6.75129 6.49328
#
# Compressibility (1/GPa) = 0.02202310
#
# Stress axis : x y z
#
# Youngs Moduli (GPa) = 98.66862 69.19464 67.83785
#
# Poissons Ratio (x) = 0.36907 0.15111
# Poissons Ratio (y) = 0.52627 0.07402
# Poissons Ratio (z) = 0.21979 0.07550
#
# Static dielectric constant tensor:
#      x y z
#    x 1.890670 -0.000250 0.017100 
#    y -0.000250 1.834550 -0.011190 
#    z 0.017100 -0.011190 2.194310 
# 
# From -- ./inp_files/593383.got.cif
#   From: 2010.05.17/outbox.cif.g08.bks.cpg/sg2_297_cif.got.tgz:593383.got - 2010.06.03 11:33:40.
