data_PCOD9063797
_publ_section_title
;
Structure prediction by ZEFSAII (Michael W. Deem and Ramdas Pophale) SiO2 
 PCOD9063797
Probable space group: P -1
;
_chemical_formula_sum "Si O2"
_cell_formula_units_Z 16
_cell_length_a 18.582278
_cell_length_b 9.589038
_cell_length_c 11.200581
_cell_angle_alpha 101.577005
_cell_angle_beta 48.234605
_cell_angle_gamma 140.574711
_cell_volume 708.118842
_symmetry_space_group_name_H-M "P -1"
_symmetry_group_IT_number 2
_symmetry_cell_setting 'triclinic'
loop_
_space_group_symop_operation_xyz
x,y,z
-x,-y,-z
loop_
_atom_site_type_symbol
_atom_site_label
_atom_site_fract_x
_atom_site_fract_y
_atom_site_fract_z
Si Si1 0.203198 0.736849 0.673778
Si Si2 0.983880 0.235880 0.980824
Si Si3 0.849855 0.676629 0.625123
Si Si4 0.297287 0.717821 0.106854
Si Si5 0.419422 0.431871 0.713673
Si Si6 0.926045 0.311639 0.710957
Si Si7 0.519490 0.638037 0.115274
Si Si8 0.371669 0.689811 0.777209
O O1 0.137284 0.786415 0.833643
O O2 0.090082 0.613618 0.653768
O O3 0.438221 0.022407 0.461503
O O4 0.101930 0.460494 0.781352
O O5 0.160897 0.405508 0.896156
O O6 0.814907 0.905564 0.083261
O O7 0.793928 0.551415 0.798267
O O8 0.651822 0.467854 0.739337
O O9 0.955148 0.671118 0.461783
O O10 0.000000 0.000000 0.500000
O O11 0.171075 0.695780 0.268218
O O12 0.338718 0.761716 0.928818
O O13 0.500000 0.000000 0.000000
O O14 0.500000 0.500000 0.500000
O O15 0.506196 0.464424 0.741484
O O16 0.441833 0.628621 0.739440
O O17 0.733216 0.992008 0.934524
O O18 0.500000 0.500000 0.000000
#
# Coordination Sequence:
#
# PCOD9063797 Si02
#       8
#     2   2   2   2   2   2   2   2
#     4  11  24  44  74 105 140 197 251 310 381 454
#     4  11  24  48  69 104 150 192 255 312 376 457
#     4  12  27  45  75 108 145 203 251 311 387 457
#     4  12  26  47  73 110 154 195 257 319 385 454
#     4  12  27  49  76 113 155 202 256 317 385 462
#     4  12  25  47  76 108 150 198 256 317 381 462
#     4  12  26  51  76 110 155 199 256 320 380 463
#     4  12  26  45  75 106 149 203 252 319 388 455
#
# _framework density 22.595078000000001
#
# number of rings (size 3 to 8) (size 9 to 14) (size 15 to 20)
#    0.000    0.250    6.250    2.625    0.000    3.000 
#    0.000    0.000    0.000    0.000    0.000    0.000 
#    0.000    0.000    0.000    0.000    0.000    0.000 
#
# Total GULP energy -89351.260690 kJ/mol
# GULP energy per Si atom -5584.453793 kJ/mol
# Density = 2.254365 g / cm^3
# Si number density = 22.595078 Si / 1000 Ang^3
#
#
#
# Elastic Constant Matrix: (Units=GPa)
#
#
# Indices 1 2 3 4 5 6 
#
# 1 146.2179 16.2352 50.1986 8.0393 -12.5694 -5.9011
# 2 16.2352 67.7077 22.1469 -8.2877 0.9098 -9.4004
# 3 50.1986 22.1469 117.7456 0.1249 -10.2579 -12.4852
# 4 8.0393 -8.2877 0.1249 36.0576 -6.7089 3.0612
# 5 -12.5694 0.9098 -10.2579 -6.7089 36.0706 -6.4229
# 6 -5.9011 -9.4004 -12.4852 3.0612 -6.4229 29.9662
#
#
#
# Elastic Compliance Matrix: (Units=1/GPa)
#
#
# Indices 1 2 3 4 5 6 
#
# 1 0.008311 -0.001145 -0.003110 -0.001817 0.001801 0.000553
# 2 -0.001145 0.016767 -0.002291 0.003784 -0.000116 0.003668
# 3 -0.003110 -0.002291 0.010894 0.000331 0.002806 0.003776
# 4 -0.001817 0.003784 0.000331 0.029983 0.004750 -0.001078
# 5 0.001801 -0.000116 0.002806 0.004750 0.031413 0.007735
# 6 0.000553 0.003668 0.003776 -0.001078 0.007735 0.037972
#
#
# Mechanical properties :
#
#
# Convention : Reuss Voigt Hill
#
# Bulk Modulus (GPa) = 43.70639 56.53694 50.12167
# Shear Modulus (GPa) = 32.03915 36.62491 34.33203
#
# Velocity S-wave (km/s) = 3.76968 4.03044 3.90224
# Velocity P-wave (km/s) = 6.19133 6.83633 6.52181
#
# Compressibility (1/GPa) = 0.02287995
#
# Stress axis : x y z
#
# Youngs Moduli (GPa) = 120.31964 59.63974 91.79166
#
# Poissons Ratio (x) = 0.06831 0.28551
# Poissons Ratio (y) = 0.13781 0.21026
# Poissons Ratio (z) = 0.37424 0.13661
#
# Static dielectric constant tensor:
#      x y z
#    x 1.865970 0.030620 0.072130 
#    y 0.030620 1.791330 0.026920 
#    z 0.072130 0.026920 1.915010 
# 
# From -- ./inp_files/462216.got.cif
#   From: 2010.05.17/outbox.cif.g08.bks.cpg/sg2_232_cif.got.tgz:462216.got - 2010.06.03 11:33:40.
