data_PCOD9063370
_publ_section_title
;
Structure prediction by ZEFSAII (Michael W. Deem and Ramdas Pophale) SiO2 
 PCOD9063370
Probable space group: P -1
;
_chemical_formula_sum "Si O2"
_cell_formula_units_Z 16
_cell_length_a 5.228669
_cell_length_b 18.186170
_cell_length_c 20.906163
_cell_angle_alpha 22.176694
_cell_angle_beta 103.633144
_cell_angle_gamma 104.426799
_cell_volume 726.652282
_symmetry_space_group_name_H-M "P -1"
_symmetry_group_IT_number 2
_symmetry_cell_setting 'triclinic'
loop_
_space_group_symop_operation_xyz
x,y,z
-x,-y,-z
loop_
_atom_site_type_symbol
_atom_site_label
_atom_site_fract_x
_atom_site_fract_y
_atom_site_fract_z
Si Si1 0.321102 0.938120 0.360390
Si Si2 0.460138 0.462657 0.635273
Si Si3 0.789447 0.398711 0.931054
Si Si4 0.141943 0.135404 0.954016
Si Si5 0.473162 0.788614 0.282156
Si Si6 0.634753 0.624500 0.964794
Si Si7 0.190998 0.318587 0.417196
Si Si8 0.933392 0.043184 0.147364
O O1 0.594126 0.841449 0.447305
O O2 0.096750 0.787238 0.500118
O O3 0.358419 0.142922 0.235113
O O4 0.195449 0.996415 0.238140
O O5 0.253179 0.338196 0.767568
O O6 0.344565 0.638835 0.447349
O O7 0.543070 0.316869 0.702149
O O8 0.698120 0.547569 0.625177
O O9 0.798422 0.552778 0.749831
O O10 0.542760 0.413165 0.951546
O O11 0.786758 0.182525 0.073925
O O12 0.066103 0.424574 0.964794
O O13 0.981199 0.156333 0.992342
O O14 0.366097 0.998396 0.100058
O O15 0.000000 0.000000 0.000000
O O16 0.770568 0.841887 0.280602
O O17 0.500000 0.500000 0.000000
#
# Coordination Sequence:
#
# PCOD9063370 Si02
#       8
#     2   2   2   2   2   2   2   2
#     4  11  25  44  72 102 138 189 221 295 355 427
#     4  11  25  41  66  92 139 190 244 302 360 409
#     4  11  26  43  76 108 141 187 232 290 355 428
#     4  12  26  40  63  94 134 187 247 311 360 408
#     4  11  24  46  59  96 135 192 246 305 355 420
#     4  11  25  51  78 107 140 182 229 278 355 449
#     4  12  25  44  67 108 147 180 239 291 355 416
#     4  11  24  44  66  94 138 185 247 292 352 424
#
# _framework density 22.018785000000001
#
# number of rings (size 3 to 8) (size 9 to 14) (size 15 to 20)
#    0.000    0.750    2.500    4.500   10.500    0.500 
#    0.000    3.750    0.000    0.000    0.000    0.000 
#    0.000    0.000    0.000    0.000    0.000    0.000 
#
# Total GULP energy -89595.687509 kJ/mol
# GULP energy per Si atom -5599.730469 kJ/mol
# Density = 2.196867 g / cm^3
# Si number density = 22.018785 Si / 1000 Ang^3
#
#
#
# Elastic Constant Matrix: (Units=GPa)
#
#
# Indices 1 2 3 4 5 6 
#
# 1 64.9826 4.3799 25.3968 -2.0949 -15.3400 0.6463
# 2 4.3799 92.4309 22.8011 -22.7444 -14.6517 10.9761
# 3 25.3968 22.8011 92.8775 9.1537 -24.2129 -1.7596
# 4 -2.0949 -22.7444 9.1537 37.4123 -3.8869 -12.4015
# 5 -15.3400 -14.6517 -24.2129 -3.8869 50.6809 6.8822
# 6 0.6463 10.9761 -1.7596 -12.4015 6.8822 33.3901
#
#
#
# Elastic Compliance Matrix: (Units=1/GPa)
#
#
# Indices 1 2 3 4 5 6 
#
# 1 0.018216 0.001926 -0.004723 0.003520 0.004191 -0.000791
# 2 0.001926 0.015146 -0.004223 0.009985 0.004030 -0.002361
# 3 -0.004723 -0.004223 0.014754 -0.006329 0.004039 -0.000926
# 4 0.003520 0.009985 -0.006329 0.038104 0.002499 0.009953
# 5 0.004191 0.004030 0.004039 0.002499 0.025023 -0.005423
# 6 -0.000791 -0.002361 -0.000926 0.009953 -0.005423 0.035506
#
#
# Mechanical properties :
#
#
# Convention : Reuss Voigt Hill
#
# Bulk Modulus (GPa) = 29.34622 39.49406 34.42014
# Shear Modulus (GPa) = 29.04512 37.47755 33.26134
#
# Velocity S-wave (km/s) = 3.63589 4.13009 3.89085
# Velocity P-wave (km/s) = 5.56624 6.38115 5.98757
#
# Compressibility (1/GPa) = 0.03407593
#
# Stress axis : x y z
#
# Youngs Moduli (GPa) = 54.89818 66.02597 67.77711
#
# Poissons Ratio (x) = -0.12719 0.32012
# Poissons Ratio (y) = -0.10576 0.28623
# Poissons Ratio (z) = 0.25929 0.27883
#
# Static dielectric constant tensor:
#      x y z
#    x 1.810470 0.008910 0.021590 
#    y 0.008910 1.765590 0.005040 
#    z 0.021590 0.005040 1.831610 
# 
# From -- ./inp_files/584026.got.cif
#   From: 2010.05.17/outbox.cif.g08.bks.cpg/sg2_293_cif.got.tgz:584026.got - 2010.06.03 11:33:40.
