data_PCOD9063014
_publ_section_title
;
Structure prediction by ZEFSAII (Michael W. Deem and Ramdas Pophale) SiO2 
 PCOD9063014
Probable space group: P -1
;
_chemical_formula_sum "Si O2"
_cell_formula_units_Z 14
_cell_length_a 12.844206
_cell_length_b 5.181799
_cell_length_c 22.184122
_cell_angle_alpha 90.179200
_cell_angle_beta 26.139872
_cell_angle_gamma 98.556400
_cell_volume 613.739867
_symmetry_space_group_name_H-M "P -1"
_symmetry_group_IT_number 2
_symmetry_cell_setting 'triclinic'
loop_
_space_group_symop_operation_xyz
x,y,z
-x,-y,-z
loop_
_atom_site_type_symbol
_atom_site_label
_atom_site_fract_x
_atom_site_fract_y
_atom_site_fract_z
Si Si1 0.430376 0.636676 0.879271
Si Si2 0.855623 0.808702 0.756515
Si Si3 0.265435 0.323299 0.699078
Si Si4 0.983399 0.240921 0.967066
Si Si5 0.040992 0.289110 0.168568
Si Si6 0.175060 0.418294 0.563658
Si Si7 0.165310 0.312969 0.429213
O O1 0.620541 0.762038 0.834910
O O2 0.592187 0.594027 0.739411
O O3 0.276803 0.825501 0.934404
O O4 0.220053 0.375881 0.017515
O O5 0.801386 0.710195 0.853359
O O6 0.026003 0.635039 0.642509
O O7 0.008904 0.129679 0.677127
O O8 0.561220 0.458265 0.539724
O O9 0.197270 0.318347 0.805515
O O10 0.107161 0.494798 0.750779
O O11 0.160807 0.009844 0.733198
O O12 0.000000 0.500000 0.000000
O O13 0.000000 0.000000 0.000000
O O14 0.224225 0.349043 0.469186
O O15 0.000000 0.500000 0.500000
O O16 0.000000 0.000000 0.500000
#
# Coordination Sequence:
#
# PCOD9063014 Si02
#       7
#     2   2   2   2   2   2   2
#     4  11  25  47  74 103 145 179 236 294 354 418
#     4  12  26  45  71 103 143 185 239 286 354 411
#     4  11  25  45  68 102 141 185 242 284 350 411
#     4  11  24  43  69 101 137 183 230 285 347 417
#     4  11  26  46  71 102 137 193 237 292 342 411
#     4  12  25  44  70 104 142 186 231 292 349 424
#     4  12  24  44  69 103 143 179 225 285 359 425
#
# _framework density 22.810966000000001
#
# number of rings (size 3 to 8) (size 9 to 14) (size 15 to 20)
#    0.000    0.571    2.857    4.714    0.000   12.571 
#    0.000    5.000    0.000    0.000    0.000    0.000 
#    0.000    0.000    0.000    0.000    0.000    0.000 
#
# Total GULP energy -78449.564303 kJ/mol
# GULP energy per Si atom -5603.540307 kJ/mol
# Density = 2.275905 g / cm^3
# Si number density = 22.810966 Si / 1000 Ang^3
#
#
#
# Elastic Constant Matrix: (Units=GPa)
#
#
# Indices 1 2 3 4 5 6 
#
# 1 152.7693 43.4540 36.5108 -6.4287 -3.7736 -23.2235
# 2 43.4540 157.4659 34.2443 -9.6790 -19.0120 -19.4318
# 3 36.5108 34.2443 83.8686 -3.6374 -19.9844 -13.3438
# 4 -6.4287 -9.6790 -3.6374 25.8833 7.3871 2.0750
# 5 -3.7736 -19.0120 -19.9844 7.3871 42.9013 7.2697
# 6 -23.2235 -19.4318 -13.3438 2.0750 7.2697 41.1759
#
#
#
# Elastic Compliance Matrix: (Units=1/GPa)
#
#
# Indices 1 2 3 4 5 6 
#
# 1 0.008135 -0.001370 -0.002881 0.001420 -0.002037 0.003296
# 2 -0.001370 0.007658 -0.001715 0.001595 0.001882 0.001873
# 3 -0.002881 -0.001715 0.015546 -0.001051 0.006143 0.001572
# 4 0.001420 0.001595 -0.001051 0.041361 -0.006837 0.000336
# 5 -0.002037 0.001882 0.006143 -0.006837 0.028504 -0.002958
# 6 0.003296 0.001873 0.001572 0.000336 -0.002958 0.028043
#
#
# Mechanical properties :
#
#
# Convention : Reuss Voigt Hill
#
# Bulk Modulus (GPa) = 51.52854 69.16911 60.34882
# Shear Modulus (GPa) = 33.86431 40.65175 37.25803
#
# Velocity S-wave (km/s) = 3.85718 4.22609 4.04584
# Velocity P-wave (km/s) = 6.51733 7.36218 6.95260
#
# Compressibility (1/GPa) = 0.01940672
#
# Stress axis : x y z
#
# Youngs Moduli (GPa) = 122.93182 130.58216 64.32470
#
# Poissons Ratio (x) = 0.17892 0.18533
# Poissons Ratio (y) = 0.16844 0.11029
# Poissons Ratio (z) = 0.35419 0.22390
#
# Static dielectric constant tensor:
#      x y z
#    x 1.869560 0.033310 0.023870 
#    y 0.033310 1.800940 0.004100 
#    z 0.023870 0.004100 1.839840 
# 
# From -- ./inp_files/467967.got.cif
#   From: 2010.05.17/outbox.cif.g08.bks.cpg/sg2_234_cif.got.tgz:467967.got - 2010.06.03 11:33:40.
