data_PCOD9063860
_publ_section_title
;
Structure prediction by ZEFSAII (Michael W. Deem and Ramdas Pophale) SiO2 
 PCOD9063860
Probable space group: P -1
;
_chemical_formula_sum "Si O2"
_cell_formula_units_Z 12
_cell_length_a 12.206965
_cell_length_b 10.142671
_cell_length_c 5.996916
_cell_angle_alpha 86.423165
_cell_angle_beta 75.866632
_cell_angle_gamma 42.815752
_cell_volume 481.613786
_symmetry_space_group_name_H-M "P -1"
_symmetry_group_IT_number 2
_symmetry_cell_setting 'triclinic'
loop_
_space_group_symop_operation_xyz
x,y,z
-x,-y,-z
loop_
_atom_site_type_symbol
_atom_site_label
_atom_site_fract_x
_atom_site_fract_y
_atom_site_fract_z
Si Si1 0.185224 0.522897 0.779236
Si Si2 0.293602 0.896166 0.000530
Si Si3 0.686656 0.855015 0.320912
Si Si4 0.888207 0.194213 0.843199
Si Si5 0.410742 0.488839 0.360545
Si Si6 0.122993 0.163942 0.430041
O O1 0.242795 0.327258 0.841875
O O2 0.328490 0.439932 0.540842
O O3 0.171741 0.642424 0.968616
O O4 0.700702 0.979048 0.167238
O O5 0.131694 0.939026 0.040702
O O6 0.282231 0.961191 0.248478
O O7 0.988461 0.318901 0.290380
O O8 0.455273 0.674377 0.869882
O O9 0.817202 0.762622 0.468726
O O10 0.500000 0.000000 0.500000
O O11 0.743790 0.310331 0.710210
O O12 0.042001 0.122813 0.634951
O O13 0.500000 0.500000 0.500000
#
# Coordination Sequence:
#
# PCOD9063860 Si02
#       6
#     2   2   2   2   2   2
#     4  11  25  50  72 105 149 195 237 292 367 428
#     4  12  26  44  76 110 143 186 243 302 356 422
#     4  12  28  47  75 108 147 188 246 299 355 431
#     4  11  26  47  77 105 149 191 238 298 364 430
#     4  11  24  44  75 110 145 189 242 298 362 423
#     4  11  28  46  73 108 148 190 241 296 363 429
#
# _framework density 24.916232999999998
#
# number of rings (size 3 to 8) (size 9 to 14) (size 15 to 20)
#    0.000    0.667    3.333    2.500    4.667    8.667 
#    0.000    0.000    0.000    0.000    0.000    0.000 
#    0.000    0.000    0.000    0.000    0.000    0.000 
#
# Total GULP energy -67220.324383 kJ/mol
# GULP energy per Si atom -5601.693699 kJ/mol
# Density = 2.485952 g / cm^3
# Si number density = 24.916233 Si / 1000 Ang^3
#
#
#
# Elastic Constant Matrix: (Units=GPa)
#
#
# Indices 1 2 3 4 5 6 
#
# 1 115.6682 34.8296 30.9066 -1.0858 -8.4143 8.3519
# 2 34.8296 97.8704 26.3736 11.6806 -2.6021 32.5218
# 3 30.9066 26.3736 116.7686 22.3620 -17.2733 1.0298
# 4 -1.0858 11.6806 22.3620 41.8137 5.3784 1.5242
# 5 -8.4143 -2.6021 -17.2733 5.3784 46.9081 4.2028
# 6 8.3519 32.5218 1.0298 1.5242 4.2028 35.0151
#
#
#
# Elastic Compliance Matrix: (Units=1/GPa)
#
#
# Indices 1 2 3 4 5 6 
#
# 1 0.010350 -0.003590 -0.002335 0.002435 0.000449 0.000774
# 2 -0.003590 0.017644 -0.002011 -0.003561 0.001390 -0.015484
# 3 -0.002335 -0.002011 0.011438 -0.006228 0.004230 0.001852
# 4 0.002435 -0.003561 -0.006228 0.028937 -0.005580 0.002320
# 5 0.000449 0.001390 0.004230 -0.005580 0.024046 -0.004166
# 6 0.000774 -0.015484 0.001852 0.002320 -0.004166 0.043101
#
#
# Mechanical properties :
#
#
# Convention : Reuss Voigt Hill
#
# Bulk Modulus (GPa) = 42.44399 57.16965 49.80682
# Shear Modulus (GPa) = 31.39856 40.62719 36.01287
#
# Velocity S-wave (km/s) = 3.55373 4.04239 3.80591
# Velocity P-wave (km/s) = 5.82326 6.69197 6.27267
#
# Compressibility (1/GPa) = 0.02356046
#
# Stress axis : x y z
#
# Youngs Moduli (GPa) = 96.61833 56.67520 87.42613
#
# Poissons Ratio (x) = 0.20346 0.20416
# Poissons Ratio (y) = 0.34686 0.17580
# Poissons Ratio (z) = 0.22563 0.11396
#
# Static dielectric constant tensor:
#      x y z
#    x 2.013020 -0.033320 0.005290 
#    y -0.033320 2.096810 -0.095190 
#    z 0.005290 -0.095190 1.960640 
# 
# From -- ./inp_files/62651.got.cif
#   From: 2010.05.17/outbox.cif.g08.bks.cpg/sg2_32_cif.got.tgz:62651.got - 2010.06.03 11:33:40.
