data_PCOD9063181
_publ_section_title
;
Structure prediction by ZEFSAII (Michael W. Deem and Ramdas Pophale) SiO2 
 PCOD9063181
Probable space group: P -1
;
_chemical_formula_sum "Si O2"
_cell_formula_units_Z 14
_cell_length_a 5.493770
_cell_length_b 6.422884
_cell_length_c 25.001343
_cell_angle_alpha 64.503092
_cell_angle_beta 114.463216
_cell_angle_gamma 132.562875
_cell_volume 576.368827
_symmetry_space_group_name_H-M "P -1"
_symmetry_group_IT_number 2
_symmetry_cell_setting 'triclinic'
loop_
_space_group_symop_operation_xyz
x,y,z
-x,-y,-z
loop_
_atom_site_type_symbol
_atom_site_label
_atom_site_fract_x
_atom_site_fract_y
_atom_site_fract_z
Si Si1 0.629030 0.552187 0.881534
Si Si2 0.819876 0.572324 0.784467
Si Si3 0.826112 0.007655 0.036848
Si Si4 0.366268 0.736189 0.676770
Si Si5 0.870731 0.287788 0.597986
Si Si6 0.487314 0.003560 0.225695
Si Si7 0.908743 0.166611 0.509931
O O1 0.712316 0.447711 0.848136
O O2 0.299646 0.278646 0.909166
O O3 0.601060 0.793476 0.828075
O O4 0.911566 0.711971 0.934766
O O5 0.582373 0.628783 0.726901
O O6 0.802805 0.332339 0.773651
O O7 0.175848 0.886483 0.787685
O O8 0.500000 0.000000 0.000000
O O9 0.000000 0.000000 0.000000
O O10 0.045767 0.457117 0.649983
O O11 0.374792 0.896705 0.712745
O O12 0.541370 0.981339 0.620066
O O13 0.890374 0.524362 0.536384
O O14 0.043886 0.207440 0.578831
O O15 0.500000 0.000000 0.500000
O O16 0.000000 0.000000 0.500000
#
# Coordination Sequence:
#
# PCOD9063181 Si02
#       7
#     2   2   2   2   2   2   2
#     4  11  26  46  72 101 148 187 244 296 362 428
#     4  11  24  43  72 101 140 188 235 293 365 430
#     4  12  28  47  74 109 148 190 246 299 360 423
#     4  11  24  45  64 111 134 184 236 296 360 428
#     4  11  24  45  70 101 148 184 242 298 360 428
#     4  11  24  43  72 101 140 188 235 293 365 430
#     4  11  26  50  73 107 143 196 242 294 365 431
#
# _framework density 24.290002000000001
#
# number of rings (size 3 to 8) (size 9 to 14) (size 15 to 20)
#    0.000    0.857    1.429    4.286    6.000   10.286 
#    5.143    0.000    0.000    0.000    0.000    0.000 
#    0.000    0.000    0.000    0.000    0.000    0.000 
#
# Total GULP energy -78206.217650 kJ/mol
# GULP energy per Si atom -5586.158404 kJ/mol
# Density = 2.423472 g / cm^3
# Si number density = 24.290002 Si / 1000 Ang^3
#
#
#
# Elastic Constant Matrix: (Units=GPa)
#
#
# Indices 1 2 3 4 5 6 
#
# 1 72.8417 21.3142 38.5616 1.4329 -20.7173 -8.9336
# 2 21.3142 133.3254 23.8123 9.3480 -14.7000 1.0250
# 3 38.5616 23.8123 106.2744 9.8297 -29.1819 -5.7838
# 4 1.4329 9.3480 9.8297 48.1848 4.2903 -4.5736
# 5 -20.7173 -14.7000 -29.1819 4.2903 38.2931 3.8042
# 6 -8.9336 1.0250 -5.7838 -4.5736 3.8042 34.9712
#
#
#
# Elastic Compliance Matrix: (Units=1/GPa)
#
#
# Indices 1 2 3 4 5 6 
#
# 1 0.018702 -0.001602 -0.004798 0.000584 0.005432 0.003516
# 2 -0.001602 0.008229 -0.000571 -0.001741 0.002172 -0.001209
# 3 -0.004798 -0.000571 0.013792 -0.003303 0.008090 -0.000240
# 4 0.000584 -0.001741 -0.003303 0.022563 -0.005718 0.003227
# 5 0.005432 0.002172 0.008090 -0.005718 0.036901 -0.002100
# 6 0.003516 -0.001209 -0.000240 0.003227 -0.002100 0.030139
#
#
# Mechanical properties :
#
#
# Convention : Reuss Voigt Hill
#
# Bulk Modulus (GPa) = 37.33881 53.31308 45.32595
# Shear Modulus (GPa) = 32.63786 39.54003 36.08894
#
# Velocity S-wave (km/s) = 3.66959 4.03902 3.85873
# Velocity P-wave (km/s) = 5.77581 6.61421 6.20918
#
# Compressibility (1/GPa) = 0.02678178
#
# Stress axis : x y z
#
# Youngs Moduli (GPa) = 53.47046 121.51601 72.50423
#
# Poissons Ratio (x) = 0.19466 0.34788
# Poissons Ratio (y) = 0.08565 0.04139
# Poissons Ratio (z) = 0.25656 0.06938
#
# Static dielectric constant tensor:
#      x y z
#    x 2.045470 -0.040820 -0.006740 
#    y -0.040820 1.931090 0.050510 
#    z -0.006740 0.050510 1.948640 
# 
# From -- ./inp_files/13052.got.cif
#   From: 2010.05.17/outbox.cif.g08.bks.cpg/sg2_7_cif.got.tgz:13052.got - 2010.06.03 11:33:40.
