data_PCOD9063825
_publ_section_title
;
Structure prediction by ZEFSAII (Michael W. Deem and Ramdas Pophale) SiO2 
 PCOD9063825
Probable space group: P -1
;
_chemical_formula_sum "Si O2"
_cell_formula_units_Z 12
_cell_length_a 10.404618
_cell_length_b 11.228770
_cell_length_c 7.849670
_cell_angle_alpha 144.914023
_cell_angle_beta 64.019627
_cell_angle_gamma 97.169378
_cell_volume 422.656032
_symmetry_space_group_name_H-M "P -1"
_symmetry_group_IT_number 2
_symmetry_cell_setting 'triclinic'
loop_
_space_group_symop_operation_xyz
x,y,z
-x,-y,-z
loop_
_atom_site_type_symbol
_atom_site_label
_atom_site_fract_x
_atom_site_fract_y
_atom_site_fract_z
Si Si1 0.010375 0.748049 0.220699
Si Si2 0.601500 0.526904 0.626505
Si Si3 0.668058 0.513230 0.096863
Si Si4 0.156608 0.852725 0.744088
Si Si5 0.571829 0.002739 0.280868
Si Si6 0.974787 0.417643 0.612359
O O1 0.941162 0.709248 0.395325
O O2 0.201718 0.593051 0.956103
O O3 0.000000 0.000000 0.500000
O O4 0.931929 0.674465 0.026797
O O5 0.500000 0.500000 0.500000
O O6 0.471340 0.565922 0.899547
O O7 0.762479 0.295556 0.306515
O O8 0.630209 0.752576 0.868466
O O9 0.571180 0.788646 0.490239
O O10 0.783592 0.416259 0.745188
O O11 0.290342 0.921128 0.680467
O O12 0.980449 0.859843 0.808568
O O13 0.500000 0.000000 0.500000
O O14 0.000000 0.500000 0.500000
#
# Coordination Sequence:
#
# PCOD9063825 Si02
#       6
#     2   2   2   2   2   2
#     4   9  20  35  62  99 133 170 214 284 342 395
#     4  11  26  44  67 101 138 186 230 280 355 415
#     4   9  21  39  66  99 132 173 235 284 333 415
#     4  11  26  46  68 101 142 182 232 286 341 417
#     4  11  24  44  74  97 134 185 232 289 345 404
#     4   9  20  39  62 100 131 172 230 279 335 403
#
# _framework density 28.391881000000001
#
# number of rings (size 3 to 8) (size 9 to 14) (size 15 to 20)
#    1.000    1.000    0.000    2.000    2.333   11.333 
#    0.000    0.000    0.000    0.000    0.000    0.000 
#    0.000    0.000    0.000    0.000    0.000    0.000 
#
# Total GULP energy -67005.233601 kJ/mol
# GULP energy per Si atom -5583.769467 kJ/mol
# Density = 2.832726 g / cm^3
# Si number density = 28.391881 Si / 1000 Ang^3
#
#
#
# Elastic Constant Matrix: (Units=GPa)
#
#
# Indices 1 2 3 4 5 6 
#
# 1 219.1932 79.2640 103.4848 9.4088 0.9095 7.9554
# 2 79.2640 175.6944 99.8249 -4.8476 21.0365 -1.8950
# 3 103.4848 99.8249 214.8719 40.1093 19.8698 -3.0612
# 4 9.4088 -4.8476 40.1093 65.8216 2.1046 4.9773
# 5 0.9095 21.0365 19.8698 2.1046 87.8819 4.7025
# 6 7.9554 -1.8950 -3.0612 4.9773 4.7025 61.9316
#
#
#
# Elastic Compliance Matrix: (Units=1/GPa)
#
#
# Indices 1 2 3 4 5 6 
#
# 1 0.006325 -0.001505 -0.002560 0.000599 0.000918 -0.001103
# 2 -0.001505 0.008804 -0.003848 0.003242 -0.001305 0.000111
# 3 -0.002560 -0.003848 0.008774 -0.005319 -0.000970 0.001146
# 4 0.000599 0.003242 -0.005319 0.018717 0.000066 -0.001750
# 5 0.000918 -0.001305 -0.000970 0.000066 0.011959 -0.001119
# 6 -0.001103 0.000111 0.001146 -0.001750 -0.001119 0.016574
#
#
# Mechanical properties :
#
#
# Convention : Reuss Voigt Hill
#
# Bulk Modulus (GPa) = 123.80114 130.54521 127.17317
# Shear Modulus (GPa) = 55.75892 64.93941 60.34916
#
# Velocity S-wave (km/s) = 4.43640 4.78771 4.61540
# Velocity P-wave (km/s) = 8.36309 8.75457 8.56107
#
# Compressibility (1/GPa) = 0.00807747
#
# Stress axis : x y z
#
# Youngs Moduli (GPa) = 158.09618 113.58535 113.97830
#
# Poissons Ratio (x) = 0.17089 0.29176
# Poissons Ratio (y) = 0.23786 0.43863
# Poissons Ratio (z) = 0.40469 0.43712
#
# Static dielectric constant tensor:
#      x y z
#    x 2.154770 0.076820 0.065350 
#    y 0.076820 2.327970 -0.021640 
#    z 0.065350 -0.021640 2.533040 
# 
# From -- ./inp_files/261213.got.cif
#   From: 2010.05.17/outbox.cif.g08.bks.cpg/sg2_131_cif.got.tgz:261213.got - 2010.06.03 11:33:40.
