data_PCOD9063433
_publ_section_title
;
Structure prediction by ZEFSAII (Michael W. Deem and Ramdas Pophale) SiO2 
 PCOD9063433
Probable space group: P -1
;
_chemical_formula_sum "Si O2"
_cell_formula_units_Z 15
_cell_length_a 9.049595
_cell_length_b 12.423676
_cell_length_c 14.779343
_cell_angle_alpha 29.078436
_cell_angle_beta 68.008434
_cell_angle_gamma 78.135238
_cell_volume 720.996514
_symmetry_space_group_name_H-M "P -1"
_symmetry_group_IT_number 2
_symmetry_cell_setting 'triclinic'
loop_
_space_group_symop_operation_xyz
x,y,z
-x,-y,-z
loop_
_atom_site_type_symbol
_atom_site_label
_atom_site_fract_x
_atom_site_fract_y
_atom_site_fract_z
Si Si1 0.197962 0.300262 0.879858
Si Si2 0.355180 0.546195 0.060359
Si Si3 0.000000 0.000000 0.000000
Si Si4 0.483514 0.153068 0.026045
Si Si5 0.896293 0.781960 0.511057
Si Si6 0.820119 0.357212 0.713899
Si Si7 0.067307 0.684294 0.927512
Si Si8 0.772024 0.315276 0.544888
O O1 0.344751 0.256558 0.937627
O O2 0.265687 0.476955 0.653809
O O3 0.070538 0.376109 0.918225
O O4 0.092078 0.070518 0.023789
O O5 0.441532 0.712936 0.999024
O O6 0.225014 0.326823 0.298392
O O7 0.500000 0.500000 0.000000
O O8 0.240301 0.660427 0.942779
O O9 0.061455 0.757538 0.168475
O O10 0.637542 0.190326 0.896308
O O11 0.392978 0.890754 0.260224
O O12 0.824992 0.607390 0.571735
O O13 0.085473 0.765224 0.482717
O O14 0.908273 0.049026 0.299585
O O15 0.837601 0.376298 0.587642
O O16 0.000000 0.500000 0.000000
#
# Coordination Sequence:
#
# PCOD9063433 Si02
#       8
#     2   2   1   2   2   2   2   2
#     4  12  25  41  68 108 135 190 237 289 351 421
#     4  11  26  48  72 104 140 182 230 308 359 414
#     4  12  22  42  74  94 152 186 240 276 352 422
#     4  11  25  45  65 102 154 174 237 294 350 416
#     4  11  24  45  73 104 139 185 240 288 353 434
#     4  11  24  44  68 107 146 192 231 293 350 420
#     4  12  26  47  77 104 136 185 244 294 357 426
#     4  12  23  41  71 103 141 191 232 286 348 425
#
# _framework density 20.804538000000001
#
# number of rings (size 3 to 8) (size 9 to 14) (size 15 to 20)
#    0.000    0.533    5.333    2.400    1.867    4.800 
#    0.000    0.000    0.000    0.000    0.000    0.000 
#    0.000    0.000    0.000    0.000    0.000    0.000 
#
# Total GULP energy -83609.800309 kJ/mol
# GULP energy per Si atom -5573.986687 kJ/mol
# Density = 2.075719 g / cm^3
# Si number density = 20.804538 Si / 1000 Ang^3
#
#
#
# Elastic Constant Matrix: (Units=GPa)
#
#
# Indices 1 2 3 4 5 6 
#
# 1 81.4473 36.4789 -18.7417 -12.3219 0.7405 13.2051
# 2 36.4789 111.4541 36.0679 0.4580 3.2282 4.4777
# 3 -18.7417 36.0679 84.3583 -10.5945 -6.0459 2.7503
# 4 -12.3219 0.4580 -10.5945 31.0340 -8.9057 -12.1469
# 5 0.7405 3.2282 -6.0459 -8.9057 36.2320 3.2622
# 6 13.2051 4.4777 2.7503 -12.1469 3.2622 39.9788
#
#
#
# Elastic Compliance Matrix: (Units=1/GPa)
#
#
# Indices 1 2 3 4 5 6 
#
# 1 0.022958 -0.011635 0.012406 0.014028 0.006391 -0.003393
# 2 -0.011635 0.016686 -0.011435 -0.010381 -0.005715 0.000073
# 3 0.012406 -0.011435 0.021943 0.014703 0.008087 -0.000519
# 4 0.014028 -0.010381 0.014703 0.051043 0.014754 0.009822
# 5 0.006391 -0.005715 0.008087 0.014754 0.032976 -0.000235
# 6 -0.003393 0.000073 -0.000519 0.009822 -0.000235 0.029165
#
#
# Mechanical properties :
#
#
# Convention : Reuss Voigt Hill
#
# Bulk Modulus (GPa) = 24.84004 42.76332 33.80168
# Shear Modulus (GPa) = 23.86419 36.34595 30.10507
#
# Velocity S-wave (km/s) = 3.39051 4.18427 3.80813
# Velocity P-wave (km/s) = 5.22428 6.62900 5.96811
#
# Compressibility (1/GPa) = 0.04025758
#
# Stress axis : x y z
#
# Youngs Moduli (GPa) = 43.55784 59.92946 45.57365
#
# Poissons Ratio (x) = 0.69729 -0.56537
# Poissons Ratio (y) = 0.50681 0.52114
# Poissons Ratio (z) = -0.54036 0.68530
#
# Static dielectric constant tensor:
#      x y z
#    x 1.750360 -0.054220 0.045140 
#    y -0.054220 1.688450 0.014470 
#    z 0.045140 0.014470 1.860090 
# 
# From -- ./inp_files/176968.got.cif
#   From: 2010.05.17/outbox.cif.g08.bks.cpg/sg2_89_cif.got.tgz:176968.got - 2010.06.03 11:33:40.
