data_PCOD9063194
_publ_section_title
;
Structure prediction by ZEFSAII (Michael W. Deem and Ramdas Pophale) SiO2 
 PCOD9063194
Probable space group: P -1
;
_chemical_formula_sum "Si O2"
_cell_formula_units_Z 16
_cell_length_a 12.320352
_cell_length_b 5.228070
_cell_length_c 15.750621
_cell_angle_alpha 112.709646
_cell_angle_beta 134.508639
_cell_angle_gamma 82.509661
_cell_volume 652.061895
_symmetry_space_group_name_H-M "P -1"
_symmetry_group_IT_number 2
_symmetry_cell_setting 'triclinic'
loop_
_space_group_symop_operation_xyz
x,y,z
-x,-y,-z
loop_
_atom_site_type_symbol
_atom_site_label
_atom_site_fract_x
_atom_site_fract_y
_atom_site_fract_z
Si Si1 0.680356 0.654353 0.609788
Si Si2 0.498772 0.388484 0.081607
Si Si3 0.866747 0.200110 0.044987
Si Si4 0.845218 0.648269 0.870876
Si Si5 0.413956 0.766680 0.217760
Si Si6 0.705434 0.049161 0.514505
Si Si7 0.224675 0.912058 0.840319
Si Si8 0.022012 0.181120 0.450316
O O1 0.500000 0.500000 0.500000
O O2 0.759796 0.753624 0.755861
O O3 0.692525 0.910818 0.583444
O O4 0.758465 0.390960 0.589070
O O5 0.518197 0.595044 0.198078
O O6 0.638808 0.225266 0.140402
O O7 0.500000 0.500000 0.000000
O O8 0.324757 0.200294 0.971642
O O9 0.693638 0.156366 0.906479
O O10 0.902875 0.895624 0.002556
O O11 0.862851 0.257752 0.149647
O O12 0.998111 0.418588 0.093131
O O13 0.711469 0.414280 0.810251
O O14 0.538750 0.985013 0.367538
O O15 0.817780 0.874040 0.507142
O O16 0.107818 0.944785 0.706952
O O17 0.000000 0.500000 0.500000
O O18 0.000000 0.000000 0.500000
#
# Coordination Sequence:
#
# PCOD9063194 Si02
#       8
#     2   2   2   2   2   2   2   2
#     4  12  25  48  71 106 145 195 245 304 361 441
#     4  11  24  43  72 105 138 186 237 305 367 432
#     4  11  24  44  68 103 139 185 234 301 368 431
#     4  11  25  43  68 101 144 182 241 294 366 431
#     4  12  24  42  72 102 139 182 244 297 361 440
#     4  12  28  46  77 106 147 199 246 302 370 436
#     4  11  25  45  73 103 144 186 242 300 374 438
#     4  12  29  51  76 110 150 196 248 305 369 445
#
# _framework density 24.53755
#
# number of rings (size 3 to 8) (size 9 to 14) (size 15 to 20)
#    0.000    0.500    3.750    3.750    5.250    1.000 
#    0.000    0.000    0.000    0.000    0.000    0.000 
#    0.000    0.000    0.000    0.000    0.000    0.000 
#
# Total GULP energy -89536.621039 kJ/mol
# GULP energy per Si atom -5596.038815 kJ/mol
# Density = 2.448170 g / cm^3
# Si number density = 24.537550 Si / 1000 Ang^3
#
#
#
# Elastic Constant Matrix: (Units=GPa)
#
#
# Indices 1 2 3 4 5 6 
#
# 1 115.1771 17.9565 37.2779 -3.6238 -5.2731 2.5017
# 2 17.9565 84.9463 31.9819 -16.7100 -11.1630 -2.2695
# 3 37.2779 31.9819 143.4315 -26.9745 -0.6046 -2.9540
# 4 -3.6238 -16.7100 -26.9745 44.2438 -4.6580 -7.0221
# 5 -5.2731 -11.1630 -0.6046 -4.6580 44.0663 -5.6085
# 6 2.5017 -2.2695 -2.9540 -7.0221 -5.6085 36.3407
#
#
#
# Elastic Compliance Matrix: (Units=1/GPa)
#
#
# Indices 1 2 3 4 5 6 
#
# 1 0.009706 -0.001344 -0.002501 -0.001367 0.000497 -0.001143
# 2 -0.001344 0.014372 -0.001837 0.005044 0.004304 0.002480
# 3 -0.002501 -0.001837 0.008983 0.004864 0.000094 0.001742
# 4 -0.001367 0.005044 0.004864 0.029050 0.005170 0.007216
# 5 0.000497 0.004304 0.000094 0.005170 0.025040 0.005106
# 6 -0.001143 0.002480 0.001742 0.007216 0.005106 0.030075
#
#
# Mechanical properties :
#
#
# Convention : Reuss Voigt Hill
#
# Bulk Modulus (GPa) = 46.09324 57.55417 51.82371
# Shear Modulus (GPa) = 36.81233 42.01940 39.41587
#
# Velocity S-wave (km/s) = 3.87750 4.14267 4.01228
# Velocity P-wave (km/s) = 6.23476 6.81093 6.52920
#
# Compressibility (1/GPa) = 0.02169516
#
# Stress axis : x y z
#
# Youngs Moduli (GPa) = 103.02930 69.57909 111.32307
#
# Poissons Ratio (x) = 0.09352 0.27846
# Poissons Ratio (y) = 0.13848 0.20455
# Poissons Ratio (z) = 0.25772 0.12785
#
# Static dielectric constant tensor:
#      x y z
#    x 2.045440 -0.067850 -0.049440 
#    y -0.067850 2.057280 0.022990 
#    z -0.049440 0.022990 1.938330 
# 
# From -- ./inp_files/482668.got.cif
#   From: 2010.05.17/outbox.cif.g08.bks.cpg/sg2_242_cif.got.tgz:482668.got - 2010.06.03 11:33:40.
