data_PCOD9063342
_publ_section_title
;
Structure prediction by ZEFSAII (Michael W. Deem and Ramdas Pophale) SiO2 
 PCOD9063342
Probable space group: P -1
;
_chemical_formula_sum "Si O2"
_cell_formula_units_Z 14
_cell_length_a 8.798762
_cell_length_b 10.344070
_cell_length_c 9.927732
_cell_angle_alpha 113.377984
_cell_angle_beta 129.310470
_cell_angle_gamma 92.206772
_cell_volume 585.833778
_symmetry_space_group_name_H-M "P -1"
_symmetry_group_IT_number 2
_symmetry_cell_setting 'triclinic'
loop_
_space_group_symop_operation_xyz
x,y,z
-x,-y,-z
loop_
_atom_site_type_symbol
_atom_site_label
_atom_site_fract_x
_atom_site_fract_y
_atom_site_fract_z
Si Si1 0.822335 0.889413 0.458102
Si Si2 0.799185 0.122462 0.217489
Si Si3 0.587639 0.219889 0.381271
Si Si4 0.962368 0.583570 0.145037
Si Si5 0.348978 0.728000 0.052267
Si Si6 0.237554 0.949249 0.245678
Si Si7 0.779028 0.795512 0.978888
O O1 0.670473 0.132952 0.280820
O O2 0.604010 0.778584 0.218637
O O3 0.000000 0.000000 0.500000
O O4 0.946944 0.802773 0.573150
O O5 0.730137 0.200773 0.087955
O O6 0.756665 0.946360 0.087868
O O7 0.771670 0.995953 0.584407
O O8 0.447885 0.298989 0.259465
O O9 0.804720 0.330278 0.620995
O O10 0.406749 0.095017 0.321798
O O11 0.796089 0.451945 0.092025
O O12 0.853523 0.697149 0.082551
O O13 0.000000 0.500000 0.000000
O O14 0.309554 0.812029 0.198395
O O15 0.986697 0.871483 0.028997
#
# Coordination Sequence:
#
# PCOD9063342 Si02
#       7
#     2   2   2   2   2   2   2
#     4  11  27  42  78 114 147 193 258 317 374 436
#     4  11  28  45  80 114 147 197 262 317 370 443
#     4  12  27  48  81 110 154 200 257 316 376 450
#     4  12  29  49  74 112 161 200 249 313 390 455
#     4  12  26  50  73 110 158 194 252 317 375 456
#     4  11  24  43  79 112 140 199 258 310 367 447
#     4  11  26  45  78 116 148 198 258 317 375 446
#
# _framework density 23.897563000000002
#
# number of rings (size 3 to 8) (size 9 to 14) (size 15 to 20)
#    0.000    0.571    2.857    3.000   14.000    2.286 
#    0.000    1.429    0.000    0.000    0.000    0.000 
#    0.000    0.000    0.000    0.000    0.000    0.000 
#
# Total GULP energy -78362.997277 kJ/mol
# GULP energy per Si atom -5597.356948 kJ/mol
# Density = 2.384317 g / cm^3
# Si number density = 23.897563 Si / 1000 Ang^3
#
#
#
# Elastic Constant Matrix: (Units=GPa)
#
#
# Indices 1 2 3 4 5 6 
#
# 1 144.4552 47.2103 65.9744 2.4545 11.9911 12.0075
# 2 47.2103 160.6810 109.9817 -5.4325 22.4903 11.5713
# 3 65.9744 109.9817 236.7351 -17.5530 67.4307 -2.2134
# 4 2.4545 -5.4325 -17.5530 37.5929 -1.5358 8.4731
# 5 11.9911 22.4903 67.4307 -1.5358 47.9849 -5.9916
# 6 12.0075 11.5713 -2.2134 8.4731 -5.9916 31.1579
#
#
#
# Elastic Compliance Matrix: (Units=1/GPa)
#
#
# Indices 1 2 3 4 5 6 
#
# 1 0.008441 -0.000842 -0.002476 -0.001204 0.001412 -0.002517
# 2 -0.000842 0.009804 -0.004983 -0.000035 0.002213 -0.003235
# 3 -0.002476 -0.004983 0.011091 0.004092 -0.012491 0.000078
# 4 -0.001204 -0.000035 0.004092 0.030282 -0.005529 -0.008530
# 5 0.001412 0.002213 -0.012491 -0.005529 0.037636 0.006488
# 6 -0.002517 -0.003235 0.000078 -0.008530 0.006488 0.037839
#
#
# Mechanical properties :
#
#
# Convention : Reuss Voigt Hill
#
# Bulk Modulus (GPa) = 78.53507 109.80046 94.16777
# Shear Modulus (GPa) = 32.06358 44.59414 38.32886
#
# Velocity S-wave (km/s) = 3.66691 4.32447 4.00919
# Velocity P-wave (km/s) = 7.13182 8.42501 7.80524
#
# Compressibility (1/GPa) = 0.01273316
#
# Stress axis : x y z
#
# Youngs Moduli (GPa) = 118.46651 102.00109 90.16154
#
# Poissons Ratio (x) = 0.08593 0.22325
# Poissons Ratio (y) = 0.09980 0.44928
# Poissons Ratio (z) = 0.29334 0.50827
#
# Static dielectric constant tensor:
#      x y z
#    x 1.936510 0.020360 -0.000030 
#    y 0.020360 1.923390 -0.066870 
#    z -0.000030 -0.066870 2.047830 
# 
# From -- ./inp_files/423716.got.cif
#   From: 2010.05.17/outbox.cif.g08.bks.cpg/sg2_212_cif.got.tgz:423716.got - 2010.06.03 11:33:40.
