data_PCOD9063557
_publ_section_title
;
Structure prediction by ZEFSAII (Michael W. Deem and Ramdas Pophale) SiO2 
 PCOD9063557
Probable space group: P -1
;
_chemical_formula_sum "Si O2"
_cell_formula_units_Z 16
_cell_length_a 6.801485
_cell_length_b 13.838230
_cell_length_c 21.551336
_cell_angle_alpha 158.279689
_cell_angle_beta 106.614494
_cell_angle_gamma 69.035304
_cell_volume 694.613646
_symmetry_space_group_name_H-M "P -1"
_symmetry_group_IT_number 2
_symmetry_cell_setting 'triclinic'
loop_
_space_group_symop_operation_xyz
x,y,z
-x,-y,-z
loop_
_atom_site_type_symbol
_atom_site_label
_atom_site_fract_x
_atom_site_fract_y
_atom_site_fract_z
Si Si1 0.325832 0.091737 0.592640
Si Si2 0.839473 0.369017 0.871352
Si Si3 0.014849 0.377653 0.283990
Si Si4 0.316359 0.893191 0.951904
Si Si5 0.954207 0.113717 0.482990
Si Si6 0.596940 0.348162 0.046253
Si Si7 0.261715 0.504197 0.497623
Si Si8 0.850749 0.957012 0.733638
O O1 0.099196 0.174688 0.587593
O O2 0.367730 0.355631 0.783076
O O3 0.500000 0.000000 0.500000
O O4 0.283608 0.872905 0.507063
O O5 0.641927 0.606665 0.972810
O O6 0.947122 0.185458 0.713723
O O7 0.787667 0.154602 0.787341
O O8 0.000000 0.500000 0.000000
O O9 0.152180 0.364605 0.350624
O O10 0.793865 0.290545 0.211194
O O11 0.013546 0.675317 0.438934
O O12 0.145848 0.168767 0.120654
O O13 0.381943 0.735956 0.929609
O O14 0.500000 0.000000 0.000000
O O15 0.762582 0.144747 0.896505
O O16 0.500000 0.500000 0.500000
O O17 0.254390 0.297674 0.429766
O O18 0.102784 0.802957 0.668636
#
# Coordination Sequence:
#
# PCOD9063557 Si02
#       8
#     2   2   2   2   2   2   2   2
#     4  11  24  44  70 106 140 191 241 299 371 438
#     4  12  27  45  73 109 149 199 244 302 373 445
#     4  11  24  48  71 109 144 187 257 307 369 452
#     4  11  27  46  76 107 143 197 248 316 378 437
#     4  11  24  44  72 102 143 187 242 304 360 437
#     4  12  25  48  73 106 149 193 247 311 375 438
#     4  11  26  48  77 109 149 200 246 305 373 445
#     4  11  26  48  72 108 148 194 252 308 361 450
#
# _framework density 23.034389999999998
#
# number of rings (size 3 to 8) (size 9 to 14) (size 15 to 20)
#    0.000    0.750    5.000    1.125    3.500    4.000 
#    0.000    0.000    0.000    0.000    0.000    0.000 
#    0.000    0.000    0.000    0.000    0.000    0.000 
#
# Total GULP energy -89380.686059 kJ/mol
# GULP energy per Si atom -5586.292879 kJ/mol
# Density = 2.298196 g / cm^3
# Si number density = 23.034390 Si / 1000 Ang^3
#
#
#
# Elastic Constant Matrix: (Units=GPa)
#
#
# Indices 1 2 3 4 5 6 
#
# 1 165.6262 35.8442 56.2066 -2.8748 13.7738 5.0331
# 2 35.8442 77.0062 18.2937 -7.2475 12.4987 0.2140
# 3 56.2066 18.2937 116.5829 -14.9325 -5.3152 -7.0502
# 4 -2.8748 -7.2475 -14.9325 38.8348 0.8119 6.1260
# 5 13.7738 12.4987 -5.3152 0.8119 40.0450 2.9006
# 6 5.0331 0.2140 -7.0502 6.1260 2.9006 35.5462
#
#
#
# Elastic Compliance Matrix: (Units=1/GPa)
#
#
# Indices 1 2 3 4 5 6 
#
# 1 0.008128 -0.002580 -0.003851 -0.001071 -0.002369 -0.001521
# 2 -0.002580 0.015319 -0.001045 0.002352 -0.004080 -0.000007
# 3 -0.003851 -0.001045 0.011298 0.003495 0.002938 0.001950
# 4 -0.001071 0.002352 0.003495 0.028088 -0.000182 -0.003995
# 5 -0.002369 -0.004080 0.002938 -0.000182 0.027546 -0.001274
# 6 -0.001521 -0.000007 0.001950 -0.003995 -0.001274 0.029527
#
#
# Mechanical properties :
#
#
# Convention : Reuss Voigt Hill
#
# Bulk Modulus (GPa) = 50.52510 64.43382 57.47946
# Shear Modulus (GPa) = 35.34713 39.47657 37.41185
#
# Velocity S-wave (km/s) = 3.92157 4.14431 4.03448
# Velocity P-wave (km/s) = 6.51822 7.13681 6.83451
#
# Compressibility (1/GPa) = 0.01979214
#
# Stress axis : x y z
#
# Youngs Moduli (GPa) = 123.03773 65.27905 88.51443
#
# Poissons Ratio (x) = 0.16844 0.34085
# Poissons Ratio (y) = 0.31748 0.09248
# Poissons Ratio (z) = 0.47379 0.06820
#
# Static dielectric constant tensor:
#      x y z
#    x 1.927380 0.066190 0.005570 
#    y 0.066190 2.104220 0.036420 
#    z 0.005570 0.036420 1.843510 
# 
# From -- ./inp_files/604796.got.cif
#   From: 2010.05.17/outbox.cif.g08.bks.cpg/sg2_303_cif.got.tgz:604796.got - 2010.06.03 11:33:40.
