data_PCOD9063580
_publ_section_title
;
Structure prediction by ZEFSAII (Michael W. Deem and Ramdas Pophale) SiO2 
 PCOD9063580
Probable space group: P -1
;
_chemical_formula_sum "Si O2"
_cell_formula_units_Z 16
_cell_length_a 9.657285
_cell_length_b 8.989246
_cell_length_c 11.885280
_cell_angle_alpha 106.952410
_cell_angle_beta 88.800380
_cell_angle_gamma 45.369549
_cell_volume 662.606967
_symmetry_space_group_name_H-M "P -1"
_symmetry_group_IT_number 2
_symmetry_cell_setting 'triclinic'
loop_
_space_group_symop_operation_xyz
x,y,z
-x,-y,-z
loop_
_atom_site_type_symbol
_atom_site_label
_atom_site_fract_x
_atom_site_fract_y
_atom_site_fract_z
Si Si1 0.301030 0.229006 0.121555
Si Si2 0.886872 0.402780 0.119891
Si Si3 0.700085 0.116564 0.346281
Si Si4 0.710468 0.256435 0.994123
Si Si5 0.008989 0.857030 0.732435
Si Si6 0.712714 0.094265 0.606242
Si Si7 0.543969 0.915689 0.253749
Si Si8 0.573688 0.554066 0.762866
O O1 0.284851 0.429155 0.181834
O O2 0.095943 0.325553 0.095835
O O3 0.357867 0.122496 0.222392
O O4 0.500000 0.000000 0.000000
O O5 0.873418 0.256592 0.017183
O O6 0.693964 0.664207 0.140444
O O7 0.858645 0.372132 0.244844
O O8 0.721427 0.111752 0.478021
O O9 0.490432 0.354946 0.343985
O O10 0.686730 0.945242 0.281784
O O11 0.874295 0.080036 0.281388
O O12 0.631272 0.258178 0.114996
O O13 0.500000 0.500000 0.000000
O O14 0.816730 0.049975 0.862153
O O15 0.923642 0.872565 0.617476
O O16 0.552825 0.091993 0.640137
O O17 0.651754 0.312741 0.709528
#
# Coordination Sequence:
#
# PCOD9063580 Si02
#       8
#     2   2   2   2   2   2   2   2
#     4  11  27  44  67 107 148 182 229 293 349 422
#     4  12  25  44  71 102 145 185 226 284 362 417
#     4  11  26  44  69 102 138 185 233 290 348 409
#     4  12  24  43  74 103 140 182 230 289 351 423
#     4  12  24  43  69 105 136 178 240 282 350 420
#     4  12  23  47  72  97 141 185 234 290 343 417
#     4  11  25  46  69 102 139 183 237 285 352 414
#     4  11  24  44  71 101 138 183 233 282 351 419
#
# _framework density 24.147046
#
# number of rings (size 3 to 8) (size 9 to 14) (size 15 to 20)
#    0.000    0.500    5.000    2.250    7.000    0.500 
#    0.000    0.625    0.000    0.000    0.000    0.000 
#    0.000    0.000    0.000    0.000    0.000    0.000 
#
# Total GULP energy -89515.505037 kJ/mol
# GULP energy per Si atom -5594.719065 kJ/mol
# Density = 2.409209 g / cm^3
# Si number density = 24.147046 Si / 1000 Ang^3
#
#
#
# Elastic Constant Matrix: (Units=GPa)
#
#
# Indices 1 2 3 4 5 6 
#
# 1 148.1720 -1.5840 2.2624 -0.7920 6.6582 2.6706
# 2 -1.5840 55.0292 -6.2046 -13.9769 0.4413 3.2653
# 3 2.2624 -6.2046 59.8884 -29.5956 2.1206 2.0414
# 4 -0.7920 -13.9769 -29.5956 31.0401 2.6973 7.8722
# 5 6.6582 0.4413 2.1206 2.6973 36.9057 -6.4954
# 6 2.6706 3.2653 2.0414 7.8722 -6.4954 40.8748
#
#
#
# Elastic Compliance Matrix: (Units=1/GPa)
#
#
# Indices 1 2 3 4 5 6 
#
# 1 0.006847 0.000773 0.000724 0.001635 -0.001602 -0.001115
# 2 0.000773 0.032855 0.025385 0.043076 -0.007503 -0.013431
# 3 0.000724 0.025385 0.055145 0.070250 -0.012313 -0.020316
# 4 0.001635 0.043076 0.070250 0.129350 -0.020500 -0.035226
# 5 -0.001602 -0.007503 -0.012313 -0.020500 0.031488 0.010271
# 6 -0.001115 -0.013431 -0.020316 -0.035226 0.010271 0.035042
#
#
# Mechanical properties :
#
#
# Convention : Reuss Voigt Hill
#
# Bulk Modulus (GPa) = 6.72892 28.00413 17.36653
# Shear Modulus (GPa) = 17.45211 39.67184 28.56198
#
# Velocity S-wave (km/s) = 2.69130 4.05770 3.44297
# Velocity P-wave (km/s) = 3.52848 5.79446 4.79718
#
# Compressibility (1/GPa) = 0.14861219
#
# Stress axis : x y z
#
# Youngs Moduli (GPa) = 146.05075 30.43705 18.13408
#
# Poissons Ratio (x) = -0.02353 -0.01314
# Poissons Ratio (y) = -0.11292 -0.46034
# Poissons Ratio (z) = -0.10579 -0.77266
#
# Static dielectric constant tensor:
#      x y z
#    x 1.949870 0.001910 -0.017830 
#    y 0.001910 1.965640 -0.039480 
#    z -0.017830 -0.039480 1.920630 
# 
# From -- ./inp_files/187043.got.cif
#   From: 2010.05.17/outbox.cif.g08.bks.cpg/sg2_94_cif.got.tgz:187043.got - 2010.06.03 11:33:40.
