data_PCOD9063478
_publ_section_title
;
Structure prediction by ZEFSAII (Michael W. Deem and Ramdas Pophale) SiO2 
 PCOD9063478
Probable space group: P -1
;
_chemical_formula_sum "Si O2"
_cell_formula_units_Z 14
_cell_length_a 19.404424
_cell_length_b 8.309475
_cell_length_c 11.394328
_cell_angle_alpha 118.349713
_cell_angle_beta 32.284948
_cell_angle_gamma 137.616433
_cell_volume 601.692705
_symmetry_space_group_name_H-M "P -1"
_symmetry_group_IT_number 2
_symmetry_cell_setting 'triclinic'
loop_
_space_group_symop_operation_xyz
x,y,z
-x,-y,-z
loop_
_atom_site_type_symbol
_atom_site_label
_atom_site_fract_x
_atom_site_fract_y
_atom_site_fract_z
Si Si1 0.025949 0.585377 0.836215
Si Si2 0.221730 0.138655 0.813140
Si Si3 0.942817 0.674963 0.756842
Si Si4 0.381169 0.692765 0.075850
Si Si5 0.684283 0.744565 0.554101
Si Si6 0.653611 0.016522 0.239100
Si Si7 0.362343 0.654097 0.362338
O O1 0.967285 0.540775 0.769725
O O2 0.223216 0.683433 0.591335
O O3 0.857930 0.309093 0.042945
O O4 0.055863 0.823344 0.919995
O O5 0.301630 0.249417 0.605876
O O6 0.346277 0.156003 0.733862
O O7 0.156758 0.257615 0.008221
O O8 0.816271 0.491006 0.767088
O O9 0.147595 0.958837 0.537516
O O10 0.357765 0.612138 0.216697
O O11 0.497575 0.655707 0.829212
O O12 0.500000 0.000000 0.000000
O O13 0.703244 0.572894 0.535065
O O14 0.500000 0.000000 0.500000
O O15 0.574476 0.897809 0.182306
#
# Coordination Sequence:
#
# PCOD9063478 Si02
#       7
#     2   2   2   2   2   2   2
#     4  11  24  44  69 105 141 177 226 283 341 410
#     4  11  24  45  70 104 141 179 226 283 347 406
#     4  11  26  44  73 101 137 188 221 284 350 399
#     4  12  27  48  71 100 137 181 239 281 337 409
#     4  11  26  46  73 102 140 178 231 288 338 407
#     4  12  26  40  72 104 138 180 222 280 349 399
#     4  12  27  46  70 103 140 183 232 281 335 411
#
# _framework density 23.267690999999999
#
# number of rings (size 3 to 8) (size 9 to 14) (size 15 to 20)
#    0.000    0.571    1.429    6.857    6.000    5.143 
#    0.000    0.000    0.000    0.000    0.000    0.000 
#    0.000    0.000    0.000    0.000    0.000    0.000 
#
# Total GULP energy -78390.153968 kJ/mol
# GULP energy per Si atom -5599.296712 kJ/mol
# Density = 2.321473 g / cm^3
# Si number density = 23.267691 Si / 1000 Ang^3
#
#
#
# Elastic Constant Matrix: (Units=GPa)
#
#
# Indices 1 2 3 4 5 6 
#
# 1 198.2218 43.3929 37.3505 -5.3660 -3.1737 12.7359
# 2 43.3929 83.8101 24.3989 -16.9067 8.3843 4.7622
# 3 37.3505 24.3989 82.7627 -6.1140 0.1846 2.6416
# 4 -5.3660 -16.9067 -6.1140 35.6963 -1.9512 -10.3716
# 5 -3.1737 8.3843 0.1846 -1.9512 42.3225 -3.4002
# 6 12.7359 4.7622 2.6416 -10.3716 -3.4002 53.0096
#
#
#
# Elastic Compliance Matrix: (Units=1/GPa)
#
#
# Indices 1 2 3 4 5 6 
#
# 1 0.006098 -0.002818 -0.001962 -0.001075 0.000873 -0.001268
# 2 -0.002818 0.015835 -0.002921 0.006555 -0.002994 0.000491
# 3 -0.001962 -0.002921 0.013879 0.000787 0.000425 0.000223
# 4 -0.001075 0.006555 0.000787 0.032901 0.000625 0.006107
# 5 0.000873 -0.002994 0.000425 0.000625 0.024452 0.001729
# 6 -0.001268 0.000491 0.000223 0.006107 0.001729 0.020420
#
#
# Mechanical properties :
#
#
# Convention : Reuss Voigt Hill
#
# Bulk Modulus (GPa) = 48.99615 63.89770 56.44693
# Shear Modulus (GPa) = 36.82122 43.51584 40.16853
#
# Velocity S-wave (km/s) = 3.98239 4.32930 4.15946
# Velocity P-wave (km/s) = 6.49994 7.24652 6.88336
#
# Compressibility (1/GPa) = 0.02040977
#
# Stress axis : x y z
#
# Youngs Moduli (GPa) = 163.99289 63.15064 72.04897
#
# Poissons Ratio (x) = 0.17796 0.14136
# Poissons Ratio (y) = 0.46214 0.21047
# Poissons Ratio (z) = 0.32176 0.18448
#
# Static dielectric constant tensor:
#      x y z
#    x 1.937050 0.044870 -0.050770 
#    y 0.044870 1.938590 -0.009840 
#    z -0.050770 -0.009840 1.895750 
# 
# From -- ./inp_files/470083.got.cif
#   From: 2010.05.17/outbox.cif.g08.bks.cpg/sg2_236_cif.got.tgz:470083.got - 2010.06.03 11:33:40.
