data_PCOD9063517
_publ_section_title
;
Structure prediction by ZEFSAII (Michael W. Deem and Ramdas Pophale) SiO2 
 PCOD9063517
Probable space group: P -1
;
_chemical_formula_sum "Si O2"
_cell_formula_units_Z 16
_cell_length_a 9.311080
_cell_length_b 10.812147
_cell_length_c 14.220015
_cell_angle_alpha 54.240790
_cell_angle_beta 112.706662
_cell_angle_gamma 67.720394
_cell_volume 631.694391
_symmetry_space_group_name_H-M "P -1"
_symmetry_group_IT_number 2
_symmetry_cell_setting 'triclinic'
loop_
_space_group_symop_operation_xyz
x,y,z
-x,-y,-z
loop_
_atom_site_type_symbol
_atom_site_label
_atom_site_fract_x
_atom_site_fract_y
_atom_site_fract_z
Si Si1 0.517859 0.956082 0.634047
Si Si2 0.228756 0.554099 0.121602
Si Si3 0.445922 0.806257 0.331904
Si Si4 0.198791 0.688571 0.853525
Si Si5 0.771593 0.267655 0.452530
Si Si6 0.122681 0.763762 0.289004
Si Si7 0.774673 0.878450 0.023017
Si Si8 0.098025 0.560018 0.722733
O O1 0.681923 0.671928 0.807392
O O2 0.500000 0.000000 0.500000
O O3 0.642150 0.000206 0.699719
O O4 0.215627 0.186508 0.489915
O O5 0.489350 0.411571 0.302798
O O6 0.004663 0.705961 0.076075
O O7 0.157848 0.717883 0.942455
O O8 0.256301 0.811208 0.262417
O O9 0.703200 0.522617 0.564854
O O10 0.476686 0.871842 0.212719
O O11 0.145818 0.572707 0.837399
O O12 0.500000 0.500000 0.000000
O O13 0.001206 0.961451 0.630237
O O14 0.838033 0.261635 0.578478
O O15 0.780645 0.405117 0.326560
O O16 0.845222 0.944965 0.091409
O O17 0.779748 0.703923 0.140585
#
# Coordination Sequence:
#
# PCOD9063517 Si02
#       8
#     2   2   2   2   2   2   2   2
#     4  12  22  41  70 102 141 176 217 281 349 397
#     4  12  24  42  73 104 136 180 226 277 347 406
#     4  11  24  44  70 101 136 177 228 292 331 396
#     4  12  25  45  71 104 136 176 223 278 342 415
#     4  12  26  45  71  97 141 187 221 274 344 408
#     4  11  24  46  69  96 137 182 234 277 337 396
#     4  12  26  44  70 106 135 176 236 288 328 395
#     4  12  25  45  68 102 141 176 223 280 343 410
#
# _framework density 25.328703999999998
#
# number of rings (size 3 to 8) (size 9 to 14) (size 15 to 20)
#    0.000    0.250    5.000    5.250    1.750    2.500 
#    0.000    0.625    0.000    0.000    0.000    0.000 
#    0.000    0.000    0.000    0.000    0.000    0.000 
#
# Total GULP energy -89674.216846 kJ/mol
# GULP energy per Si atom -5604.638553 kJ/mol
# Density = 2.527106 g / cm^3
# Si number density = 25.328704 Si / 1000 Ang^3
#
#
#
# Elastic Constant Matrix: (Units=GPa)
#
#
# Indices 1 2 3 4 5 6 
#
# 1 78.8218 17.1615 28.2128 -2.5840 -12.4510 12.0730
# 2 17.1615 104.8960 21.4808 26.6600 -8.6471 25.4147
# 3 28.2128 21.4808 107.5324 14.0452 -16.5948 7.5929
# 4 -2.5840 26.6600 14.0452 51.2110 0.1726 2.2164
# 5 -12.4510 -8.6471 -16.5948 0.1726 54.2413 3.4808
# 6 12.0730 25.4147 7.5929 2.2164 3.4808 32.2730
#
#
#
# Elastic Compliance Matrix: (Units=1/GPa)
#
#
# Indices 1 2 3 4 5 6 
#
# 1 0.015329 -0.001146 -0.003405 0.002489 0.002574 -0.004480
# 2 -0.001146 0.014362 -0.000520 -0.006944 0.002567 -0.010559
# 3 -0.003405 -0.000520 0.011156 -0.002925 0.002624 -0.001024
# 4 0.002489 -0.006944 -0.002925 0.023912 -0.001749 0.003772
# 5 0.002574 0.002567 0.002624 -0.001749 0.020611 -0.005705
# 6 -0.004480 -0.010559 -0.001024 0.003772 -0.005705 0.041574
#
#
# Mechanical properties :
#
#
# Convention : Reuss Voigt Hill
#
# Bulk Modulus (GPa) = 32.56575 47.21782 39.89178
# Shear Modulus (GPa) = 33.93993 42.50473 38.22233
#
# Velocity S-wave (km/s) = 3.66454 4.10094 3.88887
# Velocity P-wave (km/s) = 5.54890 6.41140 5.99568
#
# Compressibility (1/GPa) = 0.03070711
#
# Stress axis : x y z
#
# Youngs Moduli (GPa) = 65.23466 69.62940 89.63903
#
# Poissons Ratio (x) = 0.07978 0.30518
# Poissons Ratio (y) = 0.07474 0.04658
# Poissons Ratio (z) = 0.22209 0.03618
#
# Static dielectric constant tensor:
#      x y z
#    x 1.979940 -0.021200 0.006160 
#    y -0.021200 2.064300 -0.101420 
#    z 0.006160 -0.101420 2.045040 
# 
# From -- ./inp_files/500061.got.cif
#   From: 2010.05.17/outbox.cif.g08.bks.cpg/sg2_251_cif.got.tgz:500061.got - 2010.06.03 11:33:40.
