data_PCOD9063248
_publ_section_title
;
Structure prediction by ZEFSAII (Michael W. Deem and Ramdas Pophale) SiO2 
 PCOD9063248
Probable space group: P -1
;
_chemical_formula_sum "Si O2"
_cell_formula_units_Z 16
_cell_length_a 11.731410
_cell_length_b 26.056047
_cell_length_c 5.272744
_cell_angle_alpha 120.512787
_cell_angle_beta 127.852285
_cell_angle_gamma 32.014129
_cell_volume 674.349454
_symmetry_space_group_name_H-M "P -1"
_symmetry_group_IT_number 2
_symmetry_cell_setting 'triclinic'
loop_
_space_group_symop_operation_xyz
x,y,z
-x,-y,-z
loop_
_atom_site_type_symbol
_atom_site_label
_atom_site_fract_x
_atom_site_fract_y
_atom_site_fract_z
Si Si1 0.346979 0.616903 0.781704
Si Si2 0.459564 0.231893 0.789121
Si Si3 0.826508 0.211065 0.264390
Si Si4 0.480917 0.099381 0.216570
Si Si5 0.151633 0.260330 0.818406
Si Si6 0.128510 0.118815 0.942047
Si Si7 0.777312 0.425493 0.075810
Si Si8 0.970225 0.548893 0.332838
O O1 0.346237 0.682049 0.819633
O O2 0.327754 0.600151 0.006952
O O3 0.083419 0.682674 0.504788
O O4 0.606561 0.504292 0.817090
O O5 0.514929 0.154742 0.508274
O O6 0.306860 0.257644 0.880186
O O7 0.282574 0.338017 0.700581
O O8 0.691747 0.192958 0.074621
O O9 0.940753 0.191927 0.642634
O O10 0.012386 0.144824 0.120884
O O11 0.718693 0.986795 0.209737
O O12 0.333174 0.151757 0.885911
O O13 0.308834 0.115563 0.196155
O O14 0.031028 0.325774 0.067867
O O15 0.833615 0.462567 0.427430
O O16 0.000000 0.500000 0.500000
O O17 0.000000 0.500000 0.000000
#
# Coordination Sequence:
#
# PCOD9063248 Si02
#       8
#     2   2   2   2   2   2   2   2
#     4  11  24  45  73 105 149 196 250 312 371 441
#     4  12  28  45  75 105 153 201 241 307 379 443
#     4  12  28  49  71 114 154 193 246 313 374 441
#     4  11  26  48  82 107 144 197 251 309 379 443
#     4  12  21  46  74 107 142 199 249 303 369 456
#     4  11  28  50  79 113 147 192 254 314 371 447
#     4  11  24  43  73 107 144 197 255 308 369 437
#     4  12  26  45  67 105 149 194 247 297 361 439
#
# _framework density 23.726571
#
# number of rings (size 3 to 8) (size 9 to 14) (size 15 to 20)
#    0.000    0.500    3.750    3.375    3.500    3.000 
#    2.250    0.000    0.000    0.000    0.000    0.000 
#    0.000    0.000    0.000    0.000    0.000    0.000 
#
# Total GULP energy -89360.991803 kJ/mol
# GULP energy per Si atom -5585.061988 kJ/mol
# Density = 2.367257 g / cm^3
# Si number density = 23.726571 Si / 1000 Ang^3
#
#
#
# Elastic Constant Matrix: (Units=GPa)
#
#
# Indices 1 2 3 4 5 6 
#
# 1 102.9327 -1.0368 13.8799 0.8212 8.9074 6.4590
# 2 -1.0368 94.7058 15.9074 -9.9307 -9.3605 33.4246
# 3 13.8799 15.9074 97.5884 16.6379 14.5433 2.8978
# 4 0.8212 -9.9307 16.6379 27.1400 -1.3526 5.2227
# 5 8.9074 -9.3605 14.5433 -1.3526 36.8943 1.2998
# 6 6.4590 33.4246 2.8978 5.2227 1.2998 24.7679
#
#
#
# Elastic Compliance Matrix: (Units=1/GPa)
#
#
# Indices 1 2 3 4 5 6 
#
# 1 0.010691 0.004529 -0.002847 0.004941 0.000210 -0.009620
# 2 0.004529 0.041740 -0.014761 0.037582 0.018972 -0.064703
# 3 -0.002847 -0.014761 0.017728 -0.021325 -0.011663 0.023698
# 4 0.004941 0.037582 -0.021325 0.077509 0.021950 -0.067007
# 5 0.000210 0.018972 -0.011663 0.021950 0.038359 -0.030936
# 6 -0.009620 -0.064703 0.023698 -0.067007 -0.030936 0.143181
#
#
# Mechanical properties :
#
#
# Convention : Reuss Voigt Hill
#
# Bulk Modulus (GPa) = 22.72695 39.19197 30.95946
# Shear Modulus (GPa) = 13.51230 35.52552 24.51891
#
# Velocity S-wave (km/s) = 2.38901 3.87368 3.21813
# Velocity P-wave (km/s) = 4.14841 6.04659 5.18510
#
# Compressibility (1/GPa) = 0.04400063
#
# Stress axis : x y z
#
# Youngs Moduli (GPa) = 93.53976 23.95807 56.40694
#
# Poissons Ratio (x) = -0.10852 0.16058
# Poissons Ratio (y) = -0.42368 0.83265
# Poissons Ratio (z) = 0.26630 0.35366
#
# Static dielectric constant tensor:
#      x y z
#    x 1.914970 0.002230 0.006830 
#    y 0.002230 1.902260 0.030520 
#    z 0.006830 0.030520 1.995440 
# 
# From -- ./inp_files/85097.got.cif
#   From: 2010.05.17/outbox.cif.g08.bks.cpg/sg2_43_cif.got.tgz:85097.got - 2010.06.03 11:33:40.
