data_PCOD9063935
_publ_section_title
;
Structure prediction by ZEFSAII (Michael W. Deem and Ramdas Pophale) SiO2 
 PCOD9063935
Probable space group: P -1
;
_chemical_formula_sum "Si O2"
_cell_formula_units_Z 14
_cell_length_a 7.036438
_cell_length_b 17.136360
_cell_length_c 15.069805
_cell_angle_alpha 163.192795
_cell_angle_beta 94.912645
_cell_angle_gamma 79.616892
_cell_volume 492.104592
_symmetry_space_group_name_H-M "P -1"
_symmetry_group_IT_number 2
_symmetry_cell_setting 'triclinic'
loop_
_space_group_symop_operation_xyz
x,y,z
-x,-y,-z
loop_
_atom_site_type_symbol
_atom_site_label
_atom_site_fract_x
_atom_site_fract_y
_atom_site_fract_z
Si Si1 0.661162 0.661527 0.173202
Si Si2 0.484036 0.999657 0.165853
Si Si3 0.978732 0.434318 0.793044
Si Si4 0.698971 0.127024 0.794681
Si Si5 0.783027 0.476953 0.498057
Si Si6 0.196449 0.550423 0.715952
Si Si7 0.145586 0.837942 0.661763
O O1 0.843583 0.490252 0.065342
O O2 0.606637 0.991129 0.564602
O O3 0.500000 0.500000 0.000000
O O4 0.775591 0.597111 0.014068
O O5 0.272235 0.204208 0.337372
O O6 0.634810 0.182674 0.387015
O O7 0.418798 0.918749 0.170977
O O8 0.629858 0.761989 0.847034
O O9 0.926446 0.404900 0.655300
O O10 0.068485 0.091922 0.444169
O O11 0.728828 0.413809 0.142459
O O12 0.693565 0.411141 0.330332
O O13 0.831960 0.241209 0.320153
O O14 0.000000 0.500000 0.500000
O O15 0.000840 0.838305 0.011130
#
# Coordination Sequence:
#
# PCOD9063935 Si02
#       7
#     2   2   2   2   2   2   2
#     4   9  16  35  70 108 138 184 236 289 361 431
#     4  12  25  42  71 100 135 197 244 288 361 426
#     4   8  19  36  65 103 145 181 228 299 349 426
#     4   9  21  39  66 101 142 180 229 298 352 420
#     4  12  27  44  68 100 141 193 245 298 358 425
#     4  11  25  44  67  99 142 185 241 298 351 420
#     4  11  24  45  67 101 147 183 238 301 358 422
#
# _framework density 28.449237
#
# number of rings (size 3 to 8) (size 9 to 14) (size 15 to 20)
#    0.857    0.857    1.429    2.571    4.000    2.286 
#    0.000    0.000    0.000   17.143    0.000    0.000 
#    0.000    0.000    0.000    0.000    0.000    0.000 
#
# Total GULP energy -78008.166159 kJ/mol
# GULP energy per Si atom -5572.011869 kJ/mol
# Density = 2.838449 g / cm^3
# Si number density = 28.449237 Si / 1000 Ang^3
#
#
#
# Elastic Constant Matrix: (Units=GPa)
#
#
# Indices 1 2 3 4 5 6 
#
# 1 123.6401 -29.5651 34.8885 -7.7564 -16.8330 -3.6070
# 2 -29.5651 78.9165 41.1987 -20.2601 -10.8030 -9.1065
# 3 34.8885 41.1987 197.7590 -23.7298 -42.0703 -25.5288
# 4 -7.7564 -20.2601 -23.7298 65.8519 -8.5302 11.9619
# 5 -16.8330 -10.8030 -42.0703 -8.5302 53.7297 -4.7107
# 6 -3.6070 -9.1065 -25.5288 11.9619 -4.7107 31.6707
#
#
#
# Elastic Compliance Matrix: (Units=1/GPa)
#
#
# Indices 1 2 3 4 5 6 
#
# 1 0.010923 0.006500 -0.002036 0.002858 0.003670 0.000938
# 2 0.006500 0.019100 -0.003223 0.005664 0.004441 0.002155
# 3 -0.002036 -0.003223 0.008282 0.001460 0.005944 0.005850
# 4 0.002858 0.005664 0.001460 0.019144 0.005935 -0.003217
# 5 0.003670 0.004441 0.005944 0.005935 0.026975 0.008257
# 6 0.000938 0.002155 0.005850 -0.003217 0.008257 0.039460
#
#
# Mechanical properties :
#
#
# Convention : Reuss Voigt Hill
#
# Bulk Modulus (GPa) = 24.51824 54.81776 39.66800
# Shear Modulus (GPa) = 37.03740 53.83670 45.43705
#
# Velocity S-wave (km/s) = 3.61207 4.35487 4.00074
# Velocity P-wave (km/s) = 5.10225 6.67809 5.94264
#
# Compressibility (1/GPa) = 0.04078597
#
# Stress axis : x y z
#
# Youngs Moduli (GPa) = 91.54896 52.35587 120.74145
#
# Poissons Ratio (x) = -0.34029 0.24586
# Poissons Ratio (y) = -0.59503 0.38915
# Poissons Ratio (z) = 0.18642 0.16874
#
# Static dielectric constant tensor:
#      x y z
#    x 2.594150 -0.188120 0.157810 
#    y -0.188120 2.346780 -0.039410 
#    z 0.157810 -0.039410 2.245460 
# 
# From -- ./inp_files/507145.got.cif
#   From: 2010.05.17/outbox.cif.g08.bks.cpg/sg2_254_cif.got.tgz:507145.got - 2010.06.03 11:33:40.
