data_PCOD9063913
_publ_section_title
;
Structure prediction by ZEFSAII (Michael W. Deem and Ramdas Pophale) SiO2 
 PCOD9063913
Probable space group: P -1
;
_chemical_formula_sum "Si O2"
_cell_formula_units_Z 16
_cell_length_a 9.318756
_cell_length_b 7.377570
_cell_length_c 19.921240
_cell_angle_alpha 55.479465
_cell_angle_beta 120.865060
_cell_angle_gamma 80.277140
_cell_volume 736.196201
_symmetry_space_group_name_H-M "P -1"
_symmetry_group_IT_number 2
_symmetry_cell_setting 'triclinic'
loop_
_space_group_symop_operation_xyz
x,y,z
-x,-y,-z
loop_
_atom_site_type_symbol
_atom_site_label
_atom_site_fract_x
_atom_site_fract_y
_atom_site_fract_z
Si Si1 0.667056 0.626729 0.974216
Si Si2 0.245831 0.025579 0.161406
Si Si3 0.445684 0.428092 0.767940
Si Si4 0.824355 0.103985 0.035381
Si Si5 0.539897 0.252107 0.516077
Si Si6 0.684965 0.854573 0.133241
Si Si7 0.103405 0.263176 0.224749
Si Si8 0.521484 0.784433 0.644225
O O1 0.844961 0.478770 0.108104
O O2 0.761665 0.725788 0.924313
O O3 0.679721 0.385019 0.990881
O O4 0.433933 0.906167 0.886191
O O5 0.207026 0.074058 0.221007
O O6 0.476563 0.736231 0.250452
O O7 0.045010 0.045542 0.084868
O O8 0.666597 0.205913 0.912651
O O9 0.405708 0.717588 0.682095
O O10 0.273245 0.420042 0.766841
O O11 0.867601 0.847143 0.143317
O O12 0.500000 0.500000 0.500000
O O13 0.476990 0.312451 0.410449
O O14 0.798946 0.967294 0.643938
O O15 0.435979 0.110694 0.549862
O O16 0.500000 0.000000 0.000000
O O17 0.226957 0.391020 0.233911
#
# Coordination Sequence:
#
# PCOD9063913 Si02
#       8
#     2   2   2   2   2   2   2   2
#     4  10  18  30  48  71 101 136 165 206 243 297
#     4  10  18  27  47  74 104 135 162 203 245 293
#     4  10  18  30  46  72 103 132 170 201 244 295
#     4  10  18  30  45  69 104 139 170 198 236 293
#     4   9  18  32  48  71 106 125 160 209 265 300
#     4   9  20  32  44  66 102 139 168 201 237 294
#     4   9  17  29  46  72 101 127 163 199 254 300
#     4   9  18  30  49  72  99 132 158 206 258 295
#
# _framework density 21.733339000000001
#
# number of rings (size 3 to 8) (size 9 to 14) (size 15 to 20)
#    0.750    1.750    0.000    4.500    0.000    2.000 
#    0.000    0.000    0.000    0.000    0.000    7.000 
#    0.000    0.000    0.000    0.000    0.000    0.000 
#
# Total GULP energy -89122.062951 kJ/mol
# GULP energy per Si atom -5570.128934 kJ/mol
# Density = 2.168387 g / cm^3
# Si number density = 21.733339 Si / 1000 Ang^3
#
#
#
# Elastic Constant Matrix: (Units=GPa)
#
#
# Indices 1 2 3 4 5 6 
#
# 1 91.3144 29.0332 13.9582 -14.6113 -37.9577 23.5616
# 2 29.0332 98.0449 6.3093 2.1633 -15.1327 11.2963
# 3 13.9582 6.3093 42.9694 2.5287 -16.3086 10.3068
# 4 -14.6113 2.1633 2.5287 29.6838 13.3467 -11.4696
# 5 -37.9577 -15.1327 -16.3086 13.3467 28.9396 -15.4367
# 6 23.5616 11.2963 10.3068 -11.4696 -15.4367 31.9386
#
#
#
# Elastic Compliance Matrix: (Units=1/GPa)
#
#
# Indices 1 2 3 4 5 6 
#
# 1 0.026833 -0.001612 0.008190 -0.007172 0.039392 -0.005404
# 2 -0.001612 0.012016 0.002334 -0.005960 0.006814 -0.002661
# 3 0.008190 0.002334 0.037698 -0.019419 0.038118 -0.007583
# 4 -0.007172 -0.005960 -0.019419 0.056491 -0.042320 0.013498
# 5 0.039392 0.006814 0.038118 -0.042320 0.133833 0.005715
# 6 -0.005404 -0.002661 -0.007583 0.013498 0.005715 0.046295
#
#
# Mechanical properties :
#
#
# Convention : Reuss Voigt Hill
#
# Bulk Modulus (GPa) = 10.59637 36.76999 23.68318
# Shear Modulus (GPa) = 15.29987 30.31427 22.80707
#
# Velocity S-wave (km/s) = 2.65614 3.73879 3.24297
# Velocity P-wave (km/s) = 3.78061 5.96603 4.99432
#
# Compressibility (1/GPa) = 0.09437194
#
# Stress axis : x y z
#
# Youngs Moduli (GPa) = 37.26703 83.22001 26.52634
#
# Poissons Ratio (x) = 0.13415 -0.21724
# Poissons Ratio (y) = 0.06008 -0.06192
# Poissons Ratio (z) = -0.30520 -0.19427
#
# Static dielectric constant tensor:
#      x y z
#    x 1.820850 0.024030 -0.009360 
#    y 0.024030 1.877070 -0.029630 
#    z -0.009360 -0.029630 1.830810 
# 
# From -- ./inp_files/573014.got.cif
#   From: 2010.05.17/outbox.cif.g08.bks.cpg/sg2_287_cif.got.tgz:573014.got - 2010.06.03 11:33:40.
