data_PCOD9063159
_publ_section_title
;
Structure prediction by ZEFSAII (Michael W. Deem and Ramdas Pophale) SiO2 
 PCOD9063159
Probable space group: P -1
;
_chemical_formula_sum "Si O2"
_cell_formula_units_Z 14
_cell_length_a 9.559206
_cell_length_b 8.939635
_cell_length_c 12.076918
_cell_angle_alpha 94.256080
_cell_angle_beta 145.522019
_cell_angle_gamma 78.857910
_cell_volume 566.450718
_symmetry_space_group_name_H-M "P -1"
_symmetry_group_IT_number 2
_symmetry_cell_setting 'triclinic'
loop_
_space_group_symop_operation_xyz
x,y,z
-x,-y,-z
loop_
_atom_site_type_symbol
_atom_site_label
_atom_site_fract_x
_atom_site_fract_y
_atom_site_fract_z
Si Si1 0.560364 0.579092 0.343440
Si Si2 0.768217 0.250173 0.451644
Si Si3 0.274002 0.510478 0.944059
Si Si4 0.333964 0.884822 0.331901
Si Si5 0.035918 0.272228 0.418189
Si Si6 0.499189 0.005417 0.246687
Si Si7 0.840740 0.831549 0.137839
O O1 0.687768 0.413833 0.466431
O O2 0.487847 0.710247 0.395220
O O3 0.779905 0.622115 0.412625
O O4 0.345247 0.562372 0.115067
O O5 0.544137 0.168241 0.322777
O O6 0.047236 0.159297 0.666532
O O7 0.800509 0.273768 0.343937
O O8 0.059749 0.649943 0.757079
O O9 0.208804 0.341833 0.907134
O O10 0.500000 0.500000 0.000000
O O11 0.083051 0.863556 0.228851
O O12 0.500000 0.000000 0.500000
O O13 0.294755 0.950640 0.184928
O O14 0.231859 0.107084 0.549755
O O15 0.394942 0.039788 0.056507
#
# Coordination Sequence:
#
# PCOD9063159 Si02
#       7
#     2   2   2   2   2   2   2
#     4  11  24  44  73 108 145 190 243 302 364 427
#     4  12  22  43  73 107 148 188 242 299 366 438
#     4  12  23  44  77 114 148 187 239 302 369 442
#     4  11  26  51  72 101 148 196 251 304 357 425
#     4  11  24  43  71 110 150 187 235 304 367 434
#     4  11  25  46  67 104 146 192 241 304 361 428
#     4  12  25  44  75 103 147 198 243 298 361 432
#
# _framework density 24.715301
#
# number of rings (size 3 to 8) (size 9 to 14) (size 15 to 20)
#    0.000    0.571    5.714    2.143    0.000    4.000 
#    5.143    0.000    0.000    0.000    0.000    0.000 
#    0.000    0.000    0.000    0.000    0.000    0.000 
#
# Total GULP energy -78032.101016 kJ/mol
# GULP energy per Si atom -5573.721501 kJ/mol
# Density = 2.465905 g / cm^3
# Si number density = 24.715301 Si / 1000 Ang^3
#
#
#
# Elastic Constant Matrix: (Units=GPa)
#
#
# Indices 1 2 3 4 5 6 
#
# 1 87.6329 50.8385 18.5882 -3.5112 8.9522 18.6694
# 2 50.8385 98.8767 25.4636 -5.8217 15.2493 30.1398
# 3 18.5882 25.4636 141.8476 -27.6585 -14.5127 5.6539
# 4 -3.5112 -5.8217 -27.6585 42.2413 10.8844 1.5256
# 5 8.9522 15.2493 -14.5127 10.8844 41.1901 -2.3896
# 6 18.6694 30.1398 5.6539 1.5256 -2.3896 37.3971
#
#
#
# Elastic Compliance Matrix: (Units=1/GPa)
#
#
# Indices 1 2 3 4 5 6 
#
# 1 0.016482 -0.007337 -0.000844 0.000239 -0.001359 -0.002284
# 2 -0.007337 0.019727 -0.002294 0.003140 -0.008074 -0.012533
# 3 -0.000844 -0.002294 0.008720 0.004525 0.002965 0.000957
# 4 0.000239 0.003140 0.004525 0.029238 -0.007637 -0.005014
# 5 -0.001359 -0.008074 0.002965 -0.007637 0.031149 0.009039
# 6 -0.002284 -0.012533 0.000957 -0.005014 0.009039 0.038619
#
#
# Mechanical properties :
#
#
# Convention : Reuss Voigt Hill
#
# Bulk Modulus (GPa) = 41.70492 57.57085 49.63788
# Shear Modulus (GPa) = 28.92220 39.73015 34.32617
#
# Velocity S-wave (km/s) = 3.42455 4.01373 3.73079
# Velocity P-wave (km/s) = 5.70504 6.69509 6.21979
#
# Compressibility (1/GPa) = 0.02397799
#
# Stress axis : x y z
#
# Youngs Moduli (GPa) = 60.67354 50.69100 114.68275
#
# Poissons Ratio (x) = 0.37193 0.09681
# Poissons Ratio (y) = 0.44517 0.26309
# Poissons Ratio (z) = 0.05122 0.11629
#
# Static dielectric constant tensor:
#      x y z
#    x 2.011470 0.009640 -0.012790 
#    y 0.009640 2.020780 -0.040670 
#    z -0.012790 -0.040670 2.063830 
# 
# From -- ./inp_files/515693.got.cif
#   From: 2010.05.17/outbox.cif.g08.bks.cpg/sg2_258_cif.got.tgz:515693.got - 2010.06.03 11:33:40.
