data_PCOD9063108
_publ_section_title
;
Structure prediction by ZEFSAII (Michael W. Deem and Ramdas Pophale) SiO2 
 PCOD9063108
Probable space group: P -1
;
_chemical_formula_sum "Si O2"
_cell_formula_units_Z 12
_cell_length_a 21.946872
_cell_length_b 4.883661
_cell_length_c 6.438147
_cell_angle_alpha 130.499634
_cell_angle_beta 73.664408
_cell_angle_gamma 114.115653
_cell_volume 478.797113
_symmetry_space_group_name_H-M "P -1"
_symmetry_group_IT_number 2
_symmetry_cell_setting 'triclinic'
loop_
_space_group_symop_operation_xyz
x,y,z
-x,-y,-z
loop_
_atom_site_type_symbol
_atom_site_label
_atom_site_fract_x
_atom_site_fract_y
_atom_site_fract_z
Si Si1 0.749440 0.092439 0.814474
Si Si2 0.129200 0.626535 0.465804
Si Si3 0.641037 0.998766 0.548849
Si Si4 0.987857 0.847789 0.687411
Si Si5 0.240356 0.071978 0.835869
Si Si6 0.451189 0.622722 0.956330
O O1 0.815988 0.167206 0.651341
O O2 0.681561 0.912591 0.664287
O O3 0.751002 0.523342 0.080233
O O4 0.753527 0.854341 0.891721
O O5 0.055038 0.677532 0.542054
O O6 0.093793 0.185327 0.252631
O O7 0.170037 0.766717 0.701788
O O8 0.699935 0.086600 0.366175
O O9 0.607379 0.299556 0.813748
O O10 0.582592 0.662915 0.336119
O O11 0.000000 0.000000 0.500000
O O12 0.000000 0.000000 0.000000
O O13 0.500000 0.500000 0.000000
O O14 0.500000 0.000000 0.000000
#
# Coordination Sequence:
#
# PCOD9063108 Si02
#       6
#     2   2   2   2   2   2
#     4  11  24  43  71 100 140 180 232 281 341 404
#     4   8  20  35  66  98 134 184 224 290 332 412
#     4  11  26  49  72 105 140 180 230 280 344 403
#     4   8  16  34  62  93 138 175 231 279 346 394
#     4  11  24  43  71 100 140 180 232 281 341 404
#     4  12  28  48  76 102 140 179 226 279 342 412
#
# _framework density 25.062805999999998
#
# number of rings (size 3 to 8) (size 9 to 14) (size 15 to 20)
#    1.000    0.667    1.667    2.000    2.333    8.000 
#    0.000    3.333    0.000   10.000    0.000    0.000 
#    0.000    0.000    0.000    0.000    0.000    0.000 
#
# Total GULP energy -66825.045193 kJ/mol
# GULP energy per Si atom -5568.753766 kJ/mol
# Density = 2.500576 g / cm^3
# Si number density = 25.062806 Si / 1000 Ang^3
#
#
#
# Elastic Constant Matrix: (Units=GPa)
#
#
# Indices 1 2 3 4 5 6 
#
# 1 165.5887 48.1046 39.6012 -2.8793 16.8029 26.3324
# 2 48.1046 81.0363 27.7238 -10.1237 22.6106 0.1129
# 3 39.6012 27.7238 134.4860 0.7116 7.9660 11.6206
# 4 -2.8793 -10.1237 0.7116 36.8370 14.0832 7.3248
# 5 16.8029 22.6106 7.9660 14.0832 71.9717 11.1819
# 6 26.3324 0.1129 11.6206 7.3248 11.1819 35.9463
#
#
#
# Elastic Compliance Matrix: (Units=1/GPa)
#
#
# Indices 1 2 3 4 5 6 
#
# 1 0.008644 -0.004860 -0.001038 0.000402 0.000512 -0.006222
# 2 -0.004860 0.018659 -0.002502 0.006263 -0.006459 0.005043
# 3 -0.001038 -0.002502 0.008398 -0.000751 0.000551 -0.001965
# 4 0.000402 0.006263 -0.000751 0.032723 -0.007707 -0.004342
# 5 0.000512 -0.006459 0.000551 -0.007707 0.017958 -0.004548
# 6 -0.006222 0.005043 -0.001965 -0.004342 -0.004548 0.035296
#
#
# Mechanical properties :
#
#
# Convention : Reuss Voigt Hill
#
# Bulk Modulus (GPa) = 52.90696 67.99671 60.45183
# Shear Modulus (GPa) = 34.53569 46.66310 40.59939
#
# Velocity S-wave (km/s) = 3.71612 4.31959 4.02917
# Velocity P-wave (km/s) = 6.29034 7.21581 6.76891
#
# Compressibility (1/GPa) = 0.01890111
#
# Stress axis : x y z
#
# Youngs Moduli (GPa) = 115.69179 53.59481 119.07217
#
# Poissons Ratio (x) = 0.26046 0.12362
# Poissons Ratio (y) = 0.56224 0.29788
# Poissons Ratio (z) = 0.12011 0.13408
#
# Static dielectric constant tensor:
#      x y z
#    x 1.814680 0.025060 -0.114160 
#    y 0.025060 1.983510 0.083030 
#    z -0.114160 0.083030 2.003430 
# 
# From -- ./inp_files/11596.got.cif
#   From: 2010.05.17/outbox.cif.g08.bks.cpg/sg2_6_cif.got.tgz:11596.got - 2010.06.03 11:33:40.
