data_PCOD9063878
_publ_section_title
;
Structure prediction by ZEFSAII (Michael W. Deem and Ramdas Pophale) SiO2 
 PCOD9063878
Probable space group: P -1
;
_chemical_formula_sum "Si O2"
_cell_formula_units_Z 14
_cell_length_a 9.086910
_cell_length_b 18.522051
_cell_length_c 18.406675
_cell_angle_alpha 164.071645
_cell_angle_beta 40.814446
_cell_angle_gamma 139.943422
_cell_volume 543.329095
_symmetry_space_group_name_H-M "P -1"
_symmetry_group_IT_number 2
_symmetry_cell_setting 'triclinic'
loop_
_space_group_symop_operation_xyz
x,y,z
-x,-y,-z
loop_
_atom_site_type_symbol
_atom_site_label
_atom_site_fract_x
_atom_site_fract_y
_atom_site_fract_z
Si Si1 0.057937 0.919467 0.513488
Si Si2 0.671044 0.959100 0.027702
Si Si3 0.303827 0.246158 0.858282
Si Si4 0.693469 0.722421 0.945749
Si Si5 0.127821 0.459029 0.537474
Si Si6 0.186939 0.585405 0.801253
Si Si7 0.791494 0.266357 0.867331
O O1 0.205882 0.913277 0.379446
O O2 0.887718 0.647848 0.338106
O O3 0.250747 0.008083 0.589016
O O4 0.877782 0.107777 0.746888
O O5 0.725923 0.913666 0.047683
O O6 0.840924 0.813698 0.776244
O O7 0.420662 0.796381 0.937152
O O8 0.712818 0.275225 0.301411
O O9 0.500000 0.500000 0.000000
O O10 0.321175 0.168318 0.860831
O O11 0.048593 0.310059 0.016484
O O12 0.873418 0.526620 0.689700
O O13 0.425500 0.598582 0.913254
O O14 0.204361 0.458610 0.592090
O O15 0.000000 0.500000 0.000000
#
# Coordination Sequence:
#
# PCOD9063878 Si02
#       7
#     2   2   2   2   2   2   2
#     4  11  24  44  76 106 146 194 242 302 366 455
#     4  12  26  51  74 110 147 194 257 309 369 443
#     4  11  25  46  69 110 151 187 244 299 376 449
#     4  11  25  45  73 103 151 192 243 304 378 433
#     4  11  28  49  75 109 150 191 252 316 372 436
#     4  11  26  44  77 106 143 196 244 308 374 442
#     4  11  24  47  72 111 146 190 244 300 371 449
#
# _framework density 25.767074000000001
#
# number of rings (size 3 to 8) (size 9 to 14) (size 15 to 20)
#    0.000    0.857    0.000    6.000    8.000    3.429 
#   10.286    0.000    0.000    0.000    0.000    0.000 
#    0.000    0.000    0.000    0.000    0.000    0.000 
#
# Total GULP energy -78292.585586 kJ/mol
# GULP energy per Si atom -5592.327542 kJ/mol
# Density = 2.570843 g / cm^3
# Si number density = 25.767074 Si / 1000 Ang^3
#
#
#
# Elastic Constant Matrix: (Units=GPa)
#
#
# Indices 1 2 3 4 5 6 
#
# 1 157.0360 47.6268 10.2418 -11.1909 10.2464 -1.1819
# 2 47.6268 90.3251 -2.8656 -13.3220 1.1971 9.1973
# 3 10.2418 -2.8656 30.6377 3.3776 2.5044 -0.4391
# 4 -11.1909 -13.3220 3.3776 36.1399 -6.1994 0.0827
# 5 10.2464 1.1971 2.5044 -6.1994 48.5954 -14.5483
# 6 -1.1819 9.1973 -0.4391 0.0827 -14.5483 71.8594
#
#
#
# Elastic Compliance Matrix: (Units=1/GPa)
#
#
# Indices 1 2 3 4 5 6 
#
# 1 0.007990 -0.004187 -0.003073 0.001016 -0.001171 0.000410
# 2 -0.004187 0.014080 0.002248 0.003750 0.000363 -0.001788
# 3 -0.003073 0.002248 0.034418 -0.003646 -0.001792 -0.000487
# 4 0.001016 0.003750 -0.003646 0.030365 0.003831 0.000255
# 5 -0.001171 0.000363 -0.001792 0.003831 0.022752 0.004525
# 6 0.000410 -0.001788 -0.000487 0.000255 0.004525 0.015065
#
#
# Mechanical properties :
#
#
# Convention : Reuss Voigt Hill
#
# Bulk Modulus (GPa) = 21.52164 43.11165 32.31664
# Shear Modulus (GPa) = 33.29278 46.18533 39.73905
#
# Velocity S-wave (km/s) = 3.59843 4.23829 3.93140
# Velocity P-wave (km/s) = 5.06315 6.38110 5.75994
#
# Compressibility (1/GPa) = 0.04646487
#
# Stress axis : x y z
#
# Youngs Moduli (GPa) = 125.15460 71.02026 29.05415
#
# Poissons Ratio (x) = 0.29736 0.08928
# Poissons Ratio (y) = 0.52401 -0.06531
# Poissons Ratio (z) = 0.38461 -0.15964
#
# Static dielectric constant tensor:
#      x y z
#    x 2.092600 -0.013380 0.049630 
#    y -0.013380 2.022590 -0.127710 
#    z 0.049630 -0.127710 2.166550 
# 
# From -- ./inp_files/409929.got.cif
#   From: 2010.05.17/outbox.cif.g08.bks.cpg/sg2_205_cif.got.tgz:409929.got - 2010.06.03 11:33:40.
