data_PCOD9063418
_publ_section_title
;
Structure prediction by ZEFSAII (Michael W. Deem and Ramdas Pophale) SiO2 
 PCOD9063418
Probable space group: P -1
;
_chemical_formula_sum "Si O2"
_cell_formula_units_Z 16
_cell_length_a 13.485660
_cell_length_b 14.903318
_cell_length_c 9.981577
_cell_angle_alpha 47.546858
_cell_angle_beta 147.827393
_cell_angle_gamma 132.016630
_cell_volume 763.229874
_symmetry_space_group_name_H-M "P -1"
_symmetry_group_IT_number 2
_symmetry_cell_setting 'triclinic'
loop_
_space_group_symop_operation_xyz
x,y,z
-x,-y,-z
loop_
_atom_site_type_symbol
_atom_site_label
_atom_site_fract_x
_atom_site_fract_y
_atom_site_fract_z
Si Si1 0.264705 0.801323 0.222090
Si Si2 0.906731 0.332281 0.592344
Si Si3 0.779329 0.421905 0.808336
Si Si4 0.730376 0.560279 0.221941
Si Si5 0.299242 0.736476 0.849040
Si Si6 0.306605 0.338858 0.633946
Si Si7 0.395512 0.022828 0.719889
Si Si8 0.086157 0.130373 0.393521
O O1 0.216363 0.779664 0.344942
O O2 0.266057 0.672774 0.273865
O O3 0.452936 0.905938 0.288152
O O4 0.081418 0.838272 0.914172
O O5 0.840512 0.449753 0.460451
O O6 0.834346 0.322065 0.367642
O O7 0.138794 0.352469 0.831415
O O8 0.662350 0.528110 0.542742
O O9 0.743194 0.335120 0.986112
O O10 0.000000 0.500000 0.000000
O O11 0.757287 0.633285 0.319090
O O12 0.500000 0.500000 0.000000
O O13 0.293250 0.881266 0.703933
O O14 0.510771 0.718252 0.080051
O O15 0.159354 0.237680 0.479009
O O16 0.256568 0.109801 0.515064
O O17 0.500000 0.000000 0.000000
O O18 0.000000 0.000000 0.500000
#
# Coordination Sequence:
#
# PCOD9063418 Si02
#       8
#     2   2   2   2   2   2   2   2
#     4  12  25  46  69 103 141 183 235 290 346 416
#     4  11  27  44  69  99 146 188 223 286 356 414
#     4  12  23  38  68 106 139 170 231 293 346 409
#     4  11  24  44  68 102 147 188 225 275 355 431
#     4  12  25  46  69 102 142 185 233 285 351 419
#     4  12  23  40  73 106 134 182 234 286 351 414
#     4  12  24  45  72 100 137 187 235 291 344 407
#     4  12  24  43  72 103 137 182 236 291 346 406
#
# _framework density 20.963542
#
# number of rings (size 3 to 8) (size 9 to 14) (size 15 to 20)
#    0.000    0.250    7.500    1.125    3.500    1.500 
#    2.250    0.625    0.000    0.000    0.000    0.000 
#    0.000    0.000    0.000    0.000    0.000    0.000 
#
# Total GULP energy -89371.022119 kJ/mol
# GULP energy per Si atom -5585.688882 kJ/mol
# Density = 2.091583 g / cm^3
# Si number density = 20.963542 Si / 1000 Ang^3
#
#
#
# Elastic Constant Matrix: (Units=GPa)
#
#
# Indices 1 2 3 4 5 6 
#
# 1 150.4715 44.6902 26.7063 0.9005 -4.9929 16.3081
# 2 44.6902 86.1250 12.1371 -17.8077 -10.3181 -2.6480
# 3 26.7063 12.1371 49.2813 -0.6561 0.7306 -1.8529
# 4 0.9005 -17.8077 -0.6561 20.7931 1.3614 3.0359
# 5 -4.9929 -10.3181 0.7306 1.3614 33.1788 -4.0782
# 6 16.3081 -2.6480 -1.8529 3.0359 -4.0782 46.8848
#
#
#
# Elastic Compliance Matrix: (Units=1/GPa)
#
#
# Indices 1 2 3 4 5 6 
#
# 1 0.009332 -0.005404 -0.003911 -0.004625 -0.000424 -0.003443
# 2 -0.005404 0.018395 -0.001381 0.015313 0.004589 0.002272
# 3 -0.003911 -0.001381 0.022842 -0.000519 -0.001240 0.002111
# 4 -0.004625 0.015313 -0.000519 0.061506 0.001380 -0.001409
# 5 -0.000424 0.004589 -0.001240 0.001380 0.031847 0.003038
# 6 -0.003443 0.002272 0.002111 -0.001409 0.003038 0.023094
#
#
# Mechanical properties :
#
#
# Convention : Reuss Voigt Hill
#
# Bulk Modulus (GPa) = 34.27243 50.32722 42.29982
# Shear Modulus (GPa) = 25.23554 33.66097 29.44825
#
# Velocity S-wave (km/s) = 3.47332 4.01145 3.75205
# Velocity P-wave (km/s) = 5.69819 6.74647 6.24436
#
# Compressibility (1/GPa) = 0.02917797
#
# Stress axis : x y z
#
# Youngs Moduli (GPa) = 107.16213 54.36114 43.77927
#
# Poissons Ratio (x) = 0.29377 0.17121
# Poissons Ratio (y) = 0.57911 0.06045
# Poissons Ratio (z) = 0.41909 0.07506
#
# Static dielectric constant tensor:
#      x y z
#    x 1.772040 0.095720 0.014450 
#    y 0.095720 1.713640 0.017380 
#    z 0.014450 0.017380 1.731680 
# 
# From -- ./inp_files/271989.got.cif
#   From: 2010.05.17/outbox.cif.g08.bks.cpg/sg2_136_cif.got.tgz:271989.got - 2010.06.03 11:33:40.
