data_PCOD9063845
_publ_section_title
;
Structure prediction by ZEFSAII (Michael W. Deem and Ramdas Pophale) SiO2 
 PCOD9063845
Probable space group: P -1
;
_chemical_formula_sum "Si O2"
_cell_formula_units_Z 12
_cell_length_a 9.401305
_cell_length_b 10.398142
_cell_length_c 9.454505
_cell_angle_alpha 53.278031
_cell_angle_beta 45.986937
_cell_angle_gamma 75.636519
_cell_volume 509.827539
_symmetry_space_group_name_H-M "P -1"
_symmetry_group_IT_number 2
_symmetry_cell_setting 'triclinic'
loop_
_space_group_symop_operation_xyz
x,y,z
-x,-y,-z
loop_
_atom_site_type_symbol
_atom_site_label
_atom_site_fract_x
_atom_site_fract_y
_atom_site_fract_z
Si Si1 0.305206 0.693382 0.182659
Si Si2 0.474467 0.838700 0.227679
Si Si3 0.494729 0.822956 0.685039
Si Si4 0.898865 0.839837 0.074781
Si Si5 0.862386 0.680217 0.486807
Si Si6 0.156770 0.686605 0.793344
O O1 0.440981 0.695656 0.224568
O O2 0.239046 0.511344 0.277624
O O3 0.095369 0.735084 0.345030
O O4 0.414722 0.816836 0.903063
O O5 0.680963 0.851171 0.162983
O O6 0.280815 0.778298 0.508800
O O7 0.500000 0.000000 0.000000
O O8 0.714823 0.789054 0.559774
O O9 0.336644 0.687681 0.783038
O O10 0.500000 0.000000 0.500000
O O11 0.876162 0.689034 0.300881
O O12 0.032272 0.802989 0.877706
O O13 0.000000 0.000000 0.000000
O O14 0.000000 0.500000 0.000000
#
# Coordination Sequence:
#
# PCOD9063845 Si02
#       6
#     2   2   2   2   2   2
#     4  11  26  45  72 112 150 194 255 319 379 456
#     4  12  28  47  75 114 156 196 264 326 383 456
#     4  12  25  46  78 108 150 210 259 306 391 472
#     4  12  26  48  79 109 154 211 255 313 395 470
#     4  11  24  44  75 105 148 201 250 308 387 459
#     4  12  28  46  78 115 153 197 263 320 385 461
#
# _framework density 23.537369999999999
#
# number of rings (size 3 to 8) (size 9 to 14) (size 15 to 20)
#    0.000    0.333    3.333    4.500    4.667    3.333 
#    0.000    0.000    0.000    0.000    0.000    0.000 
#    0.000    0.000    0.000    0.000    0.000    0.000 
#
# Total GULP energy -67155.135536 kJ/mol
# GULP energy per Si atom -5596.261295 kJ/mol
# Density = 2.348380 g / cm^3
# Si number density = 23.537370 Si / 1000 Ang^3
#
#
#
# Elastic Constant Matrix: (Units=GPa)
#
#
# Indices 1 2 3 4 5 6 
#
# 1 145.1942 45.0297 53.2903 1.0880 -6.9006 11.4666
# 2 45.0297 118.8887 71.6128 10.8366 -17.8174 -3.0927
# 3 53.2903 71.6128 163.0142 9.6121 6.4311 7.6415
# 4 1.0880 10.8366 9.6121 37.6974 3.6422 -0.0507
# 5 -6.9006 -17.8174 6.4311 3.6422 41.6532 4.9832
# 6 11.4666 -3.0927 7.6415 -0.0507 4.9832 47.2950
#
#
#
# Elastic Compliance Matrix: (Units=1/GPa)
#
#
# Indices 1 2 3 4 5 6 
#
# 1 0.008391 -0.002045 -0.001833 0.000717 0.000972 -0.001974
# 2 -0.002045 0.013838 -0.005559 -0.003129 0.006520 0.001609
# 3 -0.001833 -0.005559 0.009402 -0.000363 -0.003979 -0.001019
# 4 0.000717 -0.003129 -0.000363 0.027847 -0.003610 0.000091
# 5 0.000972 0.006520 -0.003979 -0.003610 0.028143 -0.002135
# 6 -0.001974 0.001609 -0.001019 0.000091 -0.002135 0.022117
#
#
# Mechanical properties :
#
#
# Convention : Reuss Voigt Hill
#
# Bulk Modulus (GPa) = 78.38353 85.21807 81.80080
# Shear Modulus (GPa) = 37.63212 42.47339 40.05276
#
# Velocity S-wave (km/s) = 4.00287 4.25256 4.12960
# Velocity P-wave (km/s) = 7.39851 7.77151 7.58730
#
# Compressibility (1/GPa) = 0.01275778
#
# Stress axis : x y z
#
# Youngs Moduli (GPa) = 119.17628 72.26232 106.36349
#
# Poissons Ratio (x) = 0.14779 0.19492
# Poissons Ratio (y) = 0.24375 0.59125
# Poissons Ratio (z) = 0.21841 0.40169
#
# Static dielectric constant tensor:
#      x y z
#    x 1.862800 0.045740 -0.042540 
#    y 0.045740 1.934730 -0.051290 
#    z -0.042540 -0.051290 1.965340 
# 
# From -- ./inp_files/166997.got.cif
#   From: 2010.05.17/outbox.cif.g08.bks.cpg/sg2_84_cif.got.tgz:166997.got - 2010.06.03 11:33:40.
