data_PCOD9063750
_publ_section_title
;
Structure prediction by ZEFSAII (Michael W. Deem and Ramdas Pophale) SiO2 
 PCOD9063750
Probable space group: P -1
;
_chemical_formula_sum "Si O2"
_cell_formula_units_Z 14
_cell_length_a 16.389040
_cell_length_b 9.570513
_cell_length_c 19.647699
_cell_angle_alpha 146.692595
_cell_angle_beta 22.777307
_cell_angle_gamma 145.486865
_cell_volume 634.141567
_symmetry_space_group_name_H-M "P -1"
_symmetry_group_IT_number 2
_symmetry_cell_setting 'triclinic'
loop_
_space_group_symop_operation_xyz
x,y,z
-x,-y,-z
loop_
_atom_site_type_symbol
_atom_site_label
_atom_site_fract_x
_atom_site_fract_y
_atom_site_fract_z
Si Si1 0.332131 0.194153 0.849367
Si Si2 0.078060 0.111452 0.756221
Si Si3 0.034128 0.271009 0.541716
Si Si4 0.304962 0.922719 0.382817
Si Si5 0.487980 0.283669 0.148892
Si Si6 0.343207 0.699179 0.821697
Si Si7 0.877847 0.156579 0.248751
O O1 0.363151 0.486589 0.916308
O O2 0.694997 0.000014 0.273882
O O3 0.534974 0.191880 0.739932
O O4 0.106579 0.105134 0.027250
O O5 0.130888 0.000612 0.598428
O O6 0.215043 0.413661 0.778369
O O7 0.152987 0.950299 0.694280
O O8 0.828952 0.121892 0.963979
O O9 0.239052 0.296802 0.345034
O O10 0.092298 0.531726 0.648625
O O11 0.000000 0.000000 0.500000
O O12 0.822459 0.258396 0.653253
O O13 0.463251 0.171034 0.325016
O O14 0.562735 0.326429 0.186704
O O15 0.500000 0.000000 0.000000
#
# Coordination Sequence:
#
# PCOD9063750 Si02
#       7
#     2   2   2   2   2   2   2
#     4  11  26  46  75 105 138 195 238 291 364 415
#     4  11  24  44  73 107 142 184 242 295 348 433
#     4  12  27  45  69 105 143 186 239 293 358 425
#     4  12  26  45  73 106 140 191 235 295 357 424
#     4  12  25  45  72 102 144 188 237 296 359 421
#     4  11  24  45  71 107 144 186 236 294 359 414
#     4  11  25  47  72 105 147 182 244 296 349 437
#
# _framework density 22.077088
#
# number of rings (size 3 to 8) (size 9 to 14) (size 15 to 20)
#    0.000    0.571    4.286    3.000    2.000    6.286 
#    0.000    0.000    0.000    0.000    0.000    0.000 
#    0.000    0.000    0.000    0.000    0.000    0.000 
#
# Total GULP energy -78377.231152 kJ/mol
# GULP energy per Si atom -5598.373654 kJ/mol
# Density = 2.202684 g / cm^3
# Si number density = 22.077088 Si / 1000 Ang^3
#
#
#
# Elastic Constant Matrix: (Units=GPa)
#
#
# Indices 1 2 3 4 5 6 
#
# 1 101.4340 18.0440 7.9684 3.0806 -20.7983 -0.2083
# 2 18.0440 56.5488 -10.1607 1.2504 -10.5875 3.5039
# 3 7.9684 -10.1607 50.8824 -8.2252 -10.4455 5.2955
# 4 3.0806 1.2504 -8.2252 37.0320 -6.0035 9.5981
# 5 -20.7983 -10.5875 -10.4455 -6.0035 25.6670 -1.9171
# 6 -0.2083 3.5039 5.2955 9.5981 -1.9171 39.6496
#
#
#
# Elastic Compliance Matrix: (Units=1/GPa)
#
#
# Indices 1 2 3 4 5 6 
#
# 1 0.012108 -0.002416 -0.000664 0.000131 0.008631 0.000751
# 2 -0.002416 0.022114 0.008075 0.003947 0.011115 -0.003463
# 3 -0.000664 0.008075 0.026750 0.009771 0.015524 -0.005904
# 4 0.000131 0.003947 0.009771 0.033483 0.012860 -0.009137
# 5 0.008631 0.011115 0.015524 0.012860 0.059623 -0.003240
# 6 0.000751 -0.003463 -0.005904 -0.009137 -0.003240 0.028375
#
#
# Mechanical properties :
#
#
# Convention : Reuss Voigt Hill
#
# Bulk Modulus (GPa) = 14.09214 26.72986 20.41100
# Shear Modulus (GPa) = 25.49502 33.33729 29.41615
#
# Velocity S-wave (km/s) = 3.40195 3.89014 3.65421
# Velocity P-wave (km/s) = 4.67205 5.68431 5.20285
#
# Compressibility (1/GPa) = 0.07096155
#
# Stress axis : x y z
#
# Youngs Moduli (GPa) = 82.59070 45.22039 37.38270
#
# Poissons Ratio (x) = 0.10926 0.02481
# Poissons Ratio (y) = 0.19955 -0.30185
# Poissons Ratio (z) = 0.05481 -0.36513
#
# Static dielectric constant tensor:
#      x y z
#    x 1.807340 0.008910 -0.021470 
#    y 0.008910 1.786970 -0.001480 
#    z -0.021470 -0.001480 1.822030 
# 
# From -- ./inp_files/599614.got.cif
#   From: 2010.05.17/outbox.cif.g08.bks.cpg/sg2_300_cif.got.tgz:599614.got - 2010.06.03 11:33:40.
