data_PCOD9063653
_publ_section_title
;
Structure prediction by ZEFSAII (Michael W. Deem and Ramdas Pophale) SiO2 
 PCOD9063653
Probable space group: P -1
;
_chemical_formula_sum "Si O2"
_cell_formula_units_Z 16
_cell_length_a 10.145007
_cell_length_b 17.321120
_cell_length_c 8.924711
_cell_angle_alpha 148.867026
_cell_angle_beta 59.865868
_cell_angle_gamma 127.251679
_cell_volume 644.920954
_symmetry_space_group_name_H-M "P -1"
_symmetry_group_IT_number 2
_symmetry_cell_setting 'triclinic'
loop_
_space_group_symop_operation_xyz
x,y,z
-x,-y,-z
loop_
_atom_site_type_symbol
_atom_site_label
_atom_site_fract_x
_atom_site_fract_y
_atom_site_fract_z
Si Si1 0.045975 0.225826 0.486227
Si Si2 0.463087 0.149705 0.827014
Si Si3 0.240864 0.803604 0.922823
Si Si4 0.375943 0.500102 0.700797
Si Si5 0.573104 0.384097 0.632512
Si Si6 0.099773 0.322347 0.949829
Si Si7 0.784609 0.021007 0.069883
Si Si8 0.308925 0.131603 0.584675
O O1 0.194593 0.368464 0.556105
O O2 0.039688 0.300851 0.776314
O O3 0.884046 0.154455 0.358707
O O4 0.106724 0.076374 0.213408
O O5 0.336839 0.166103 0.801856
O O6 0.500000 0.000000 0.500000
O O7 0.372014 0.106118 0.964670
O O8 0.617887 0.318918 0.003637
O O9 0.352709 0.701631 0.673481
O O10 0.258277 0.893441 0.902966
O O11 0.051419 0.691149 0.880320
O O12 0.289506 0.949810 0.257057
O O13 0.500000 0.500000 0.500000
O O14 0.452684 0.453736 0.730168
O O15 0.461378 0.253115 0.599819
O O16 0.733875 0.521521 0.845827
O O17 0.152592 0.171029 0.695433
#
# Coordination Sequence:
#
# PCOD9063653 Si02
#       8
#     2   2   2   2   2   2   2   2
#     4  11  24  44  72 101 143 188 237 286 352 427
#     4  12  27  46  72 108 144 183 235 296 356 421
#     4  12  27  44  74 105 145 183 238 293 350 416
#     4  12  25  45  73 102 138 188 236 286 357 420
#     4  12  26  47  73 106 140 185 238 295 350 419
#     4  12  24  46  70 107 137 187 239 288 352 414
#     4  11  25  45  67 108 145 185 233 289 357 417
#     4  12  24  45  75 101 144 187 239 287 345 423
#
# _framework density 24.809242000000001
#
# number of rings (size 3 to 8) (size 9 to 14) (size 15 to 20)
#    0.000    0.250    5.000    3.750    7.000    0.000 
#    0.000    1.250    0.000    0.000    0.000    0.000 
#    0.000    0.000    0.000    0.000    0.000    0.000 
#
# Total GULP energy -89722.641434 kJ/mol
# GULP energy per Si atom -5607.665090 kJ/mol
# Density = 2.475277 g / cm^3
# Si number density = 24.809242 Si / 1000 Ang^3
#
#
#
# Elastic Constant Matrix: (Units=GPa)
#
#
# Indices 1 2 3 4 5 6 
#
# 1 59.5402 29.7797 27.5631 2.2158 22.4290 11.1303
# 2 29.7797 117.0980 16.3654 1.7049 9.3842 18.8062
# 3 27.5631 16.3654 112.2341 17.6087 10.5737 15.0964
# 4 2.2158 1.7049 17.6087 49.4076 7.4068 7.6136
# 5 22.4290 9.3842 10.5737 7.4068 50.0130 -5.6498
# 6 11.1303 18.8062 15.0964 7.6136 -5.6498 30.3053
#
#
#
# Elastic Compliance Matrix: (Units=1/GPa)
#
#
# Indices 1 2 3 4 5 6 
#
# 1 0.026582 -0.003949 -0.004289 0.003500 -0.011723 -0.008241
# 2 -0.003949 0.010470 0.000154 0.000751 -0.000958 -0.005491
# 3 -0.004289 0.000154 0.010897 -0.003156 -0.000305 -0.003213
# 4 0.003500 0.000751 -0.003156 0.023037 -0.005239 -0.006944
# 5 -0.011723 -0.000958 -0.000305 -0.005239 0.027572 0.011508
# 6 -0.008241 -0.005491 -0.003213 -0.006944 0.011508 0.044922
#
#
# Mechanical properties :
#
#
# Convention : Reuss Voigt Hill
#
# Bulk Modulus (GPa) = 31.46410 48.47653 39.97031
# Shear Modulus (GPa) = 29.37015 40.28945 34.82980
#
# Velocity S-wave (km/s) = 3.44443 4.03422 3.75094
# Velocity P-wave (km/s) = 5.34123 6.42511 5.90808
#
# Compressibility (1/GPa) = 0.03178226
#
# Stress axis : x y z
#
# Youngs Moduli (GPa) = 37.61943 95.50869 91.77118
#
# Poissons Ratio (x) = 0.37715 0.39357
# Poissons Ratio (y) = 0.14855 -0.01414
# Poissons Ratio (z) = 0.16133 -0.01472
#
# Static dielectric constant tensor:
#      x y z
#    x 1.951450 -0.009500 0.019970 
#    y -0.009500 1.930230 0.007410 
#    z 0.019970 0.007410 1.990880 
# 
# From -- ./inp_files/280247.got.cif
#   From: 2010.05.17/outbox.cif.g08.bks.cpg/sg2_141_cif.got.tgz:280247.got - 2010.06.03 11:33:40.
