data_PCOD9063079
_publ_section_title
;
Structure prediction by ZEFSAII (Michael W. Deem and Ramdas Pophale) SiO2 
 PCOD9063079
Probable space group: P -1
;
_chemical_formula_sum "Si O2"
_cell_formula_units_Z 16
_cell_length_a 11.774158
_cell_length_b 13.396556
_cell_length_c 5.467636
_cell_angle_alpha 70.656236
_cell_angle_beta 110.673911
_cell_angle_gamma 122.457263
_cell_volume 669.781182
_symmetry_space_group_name_H-M "P -1"
_symmetry_group_IT_number 2
_symmetry_cell_setting 'triclinic'
loop_
_space_group_symop_operation_xyz
x,y,z
-x,-y,-z
loop_
_atom_site_type_symbol
_atom_site_label
_atom_site_fract_x
_atom_site_fract_y
_atom_site_fract_z
Si Si1 0.866426 0.683322 0.013752
Si Si2 0.412205 0.553559 0.018391
Si Si3 0.362648 0.684262 0.248821
Si Si4 0.558642 0.818889 0.686855
Si Si5 0.941018 0.424253 0.761975
Si Si6 0.877636 0.822515 0.401704
Si Si7 0.605376 0.099007 0.184055
Si Si8 0.196296 0.014653 0.504580
O O1 0.746121 0.545367 0.061033
O O2 0.848794 0.747632 0.190724
O O3 0.009985 0.677735 0.121920
O O4 0.856009 0.742213 0.698721
O O5 0.488799 0.690015 0.866619
O O6 0.500000 0.500000 0.000000
O O7 0.403004 0.583934 0.270631
O O8 0.498559 0.783609 0.398836
O O9 0.222553 0.623383 0.342537
O O10 0.325970 0.762820 0.967960
O O11 0.490932 0.895204 0.681218
O O12 0.721852 0.894835 0.728145
O O13 0.000000 0.500000 0.500000
O O14 0.000000 0.500000 0.000000
O O15 0.797335 0.898432 0.338525
O O16 0.037386 0.923015 0.419286
O O17 0.723033 0.061775 0.345766
O O18 0.500000 0.000000 0.000000
#
# Coordination Sequence:
#
# PCOD9063079 Si02
#       8
#     2   2   2   2   2   2   2   2
#     4  12  26  50  73 108 150 192 251 295 374 436
#     4  11  26  44  72 103 147 191 240 302 366 449
#     4  11  25  43  68 105 137 186 238 294 380 429
#     4  11  25  43  69 106 138 186 237 303 370 434
#     4  12  25  44  71 102 144 191 237 299 353 434
#     4  11  29  47  76 107 143 206 240 306 363 448
#     4  11  24  43  70 104 138 184 240 308 369 425
#     4  11  25  49  71 104 145 186 254 301 369 439
#
# _framework density 23.888397999999999
#
# number of rings (size 3 to 8) (size 9 to 14) (size 15 to 20)
#    0.000    0.750    2.500    3.375    7.000    4.500 
#    0.000    0.000    0.000    0.000    0.000    0.000 
#    0.000    0.000    0.000    0.000    0.000    0.000 
#
# Total GULP energy -89306.970729 kJ/mol
# GULP energy per Si atom -5581.685671 kJ/mol
# Density = 2.383403 g / cm^3
# Si number density = 23.888398 Si / 1000 Ang^3
#
#
#
# Elastic Constant Matrix: (Units=GPa)
#
#
# Indices 1 2 3 4 5 6 
#
# 1 157.9962 34.0845 25.7668 -10.3648 -29.3592 -17.3341
# 2 34.0845 97.3119 34.5278 -1.6448 -29.1147 -17.2423
# 3 25.7668 34.5278 82.1764 0.6974 -23.9604 -9.2287
# 4 -10.3648 -1.6448 0.6974 41.1234 -3.1650 -18.2967
# 5 -29.3592 -29.1147 -23.9604 -3.1650 27.2405 -4.0325
# 6 -17.3341 -17.2423 -9.2287 -18.2967 -4.0325 70.2119
#
#
#
# Elastic Compliance Matrix: (Units=1/GPa)
#
#
# Indices 1 2 3 4 5 6 
#
# 1 0.009405 0.001605 0.001058 0.005820 0.014227 0.005189
# 2 0.001605 0.018116 -0.000832 0.006253 0.022219 0.007641
# 3 0.001058 -0.000832 0.017448 0.003032 0.016556 0.004091
# 4 0.005820 0.006253 0.003032 0.033580 0.021502 0.013357
# 5 0.014227 0.022219 0.016556 0.021502 0.096149 0.022270
# 6 0.005189 0.007641 0.004091 0.013357 0.022270 0.022698
#
#
# Mechanical properties :
#
#
# Convention : Reuss Voigt Hill
#
# Bulk Modulus (GPa) = 20.56258 58.47141 39.51699
# Shear Modulus (GPa) = 23.81580 43.92220 33.86900
#
# Velocity S-wave (km/s) = 3.16089 4.29259 3.76945
# Velocity P-wave (km/s) = 4.68488 7.00703 5.96014
#
# Compressibility (1/GPa) = 0.04863203
#
# Stress axis : x y z
#
# Youngs Moduli (GPa) = 106.32214 55.19832 57.31416
#
# Poissons Ratio (x) = -0.08857 -0.06066
# Poissons Ratio (y) = -0.17061 0.04767
# Poissons Ratio (z) = -0.11252 0.04591
#
# Static dielectric constant tensor:
#      x y z
#    x 1.936350 -0.008110 -0.034370 
#    y -0.008110 1.918960 -0.049920 
#    z -0.034370 -0.049920 2.089620 
# 
# From -- ./inp_files/69991.got.cif
#   From: 2010.05.17/outbox.cif.g08.bks.cpg/sg2_35_cif.got.tgz:69991.got - 2010.06.03 11:33:40.
