data_PCOD9063362
_publ_section_title
;
Structure prediction by ZEFSAII (Michael W. Deem and Ramdas Pophale) SiO2 
 PCOD9063362
Probable space group: P -1
;
_chemical_formula_sum "Si O2"
_cell_formula_units_Z 14
_cell_length_a 8.197003
_cell_length_b 14.162181
_cell_length_c 22.448837
_cell_angle_alpha 21.524712
_cell_angle_beta 40.253317
_cell_angle_gamma 43.851108
_cell_volume 617.152455
_symmetry_space_group_name_H-M "P -1"
_symmetry_group_IT_number 2
_symmetry_cell_setting 'triclinic'
loop_
_space_group_symop_operation_xyz
x,y,z
-x,-y,-z
loop_
_atom_site_type_symbol
_atom_site_label
_atom_site_fract_x
_atom_site_fract_y
_atom_site_fract_z
Si Si1 0.668748 0.831661 0.504515
Si Si2 0.871116 0.257376 0.646909
Si Si3 0.462993 0.063246 0.301132
Si Si4 0.793263 0.404779 0.919884
Si Si5 0.372753 0.526723 0.583513
Si Si6 0.210226 0.069304 0.029566
Si Si7 0.819082 0.342048 0.819220
O O1 0.660135 0.543729 0.703185
O O2 0.973282 0.826806 0.406661
O O3 0.500000 0.000000 0.500000
O O4 0.564368 0.929069 0.412553
O O5 0.576440 0.346067 0.669837
O O6 0.000000 0.500000 0.500000
O O7 0.903432 0.032993 0.817533
O O8 0.259931 0.290471 0.241111
O O9 0.373800 0.821039 0.431432
O O10 0.649362 0.231321 0.109802
O O11 0.699381 0.312692 0.934964
O O12 0.088921 0.348411 0.885749
O O13 0.500000 0.500000 0.500000
O O14 0.090072 0.442133 0.703587
O O15 0.133099 0.905990 0.089314
O O16 0.500000 0.000000 0.000000
#
# Coordination Sequence:
#
# PCOD9063362 Si02
#       7
#     2   2   2   2   2   2   2
#     4  12  23  45  72 101 140 184 240 288 348 411
#     4  12  21  43  73  99 134 187 237 289 339 410
#     4  11  24  44  71  99 143 188 225 291 360 420
#     4  11  24  44  66 102 147 181 223 292 362 418
#     4  12  23  41  72 106 133 181 246 292 340 410
#     4  12  25  45  70 102 142 187 236 291 359 423
#     4  12  25  44  70 103 137 182 242 298 338 421
#
# _framework density 22.684833000000001
#
# number of rings (size 3 to 8) (size 9 to 14) (size 15 to 20)
#    0.000    0.286    7.143    2.143    0.000    1.714 
#    2.571    0.000    0.000    5.143    0.000    0.000 
#    0.000    0.000    0.000    0.000    0.000    0.000 
#
# Total GULP energy -78102.040084 kJ/mol
# GULP energy per Si atom -5578.717149 kJ/mol
# Density = 2.263320 g / cm^3
# Si number density = 22.684833 Si / 1000 Ang^3
#
#
#
# Elastic Constant Matrix: (Units=GPa)
#
#
# Indices 1 2 3 4 5 6 
#
# 1 120.0147 34.9703 52.5079 -11.4065 24.3229 -7.5918
# 2 34.9703 108.0141 29.7518 -1.3735 13.9842 -1.5611
# 3 52.5079 29.7518 71.7064 -12.8319 33.6835 -6.9658
# 4 -11.4065 -1.3735 -12.8319 38.3555 -2.1950 18.8354
# 5 24.3229 13.9842 33.6835 -2.1950 51.7887 -0.5106
# 6 -7.5918 -1.5611 -6.9658 18.8354 -0.5106 45.1929
#
#
#
# Elastic Compliance Matrix: (Units=1/GPa)
#
#
# Indices 1 2 3 4 5 6 
#
# 1 0.012577 -0.001767 -0.008318 0.000650 0.000013 0.000499
# 2 -0.001767 0.010750 -0.003450 -0.001338 0.000115 0.000102
# 3 -0.008318 -0.003450 0.029098 0.006243 -0.013820 0.000210
# 4 0.000650 -0.001338 0.006243 0.034784 -0.002664 -0.013502
# 5 0.000013 0.000115 -0.013820 -0.002664 0.028141 -0.000696
# 6 0.000499 0.000102 0.000210 -0.013502 -0.000696 0.027867
#
#
# Mechanical properties :
#
#
# Convention : Reuss Voigt Hill
#
# Bulk Modulus (GPa) = 39.43979 59.35501 49.39740
# Shear Modulus (GPa) = 27.97390 39.23443 33.60417
#
# Velocity S-wave (km/s) = 3.51544 4.16329 3.85301
# Velocity P-wave (km/s) = 5.82250 7.02371 6.45112
#
# Compressibility (1/GPa) = 0.02535510
#
# Stress axis : x y z
#
# Youngs Moduli (GPa) = 79.50988 93.02356 34.36700
#
# Poissons Ratio (x) = 0.16437 0.28585
# Poissons Ratio (y) = 0.14049 0.11857
# Poissons Ratio (z) = 0.66133 0.32095
#
# Static dielectric constant tensor:
#      x y z
#    x 1.859710 -0.045340 0.033690 
#    y -0.045340 1.782570 0.012340 
#    z 0.033690 0.012340 1.863830 
# 
# From -- ./inp_files/608013.got.cif
#   From: 2010.05.17/outbox.cif.g08.bks.cpg/sg2_305_cif.got.tgz:608013.got - 2010.06.03 11:33:40.
