data_PCOD9063331
_publ_section_title
;
Structure prediction by ZEFSAII (Michael W. Deem and Ramdas Pophale) SiO2 
 PCOD9063331
Probable space group: P -1
;
_chemical_formula_sum "Si O2"
_cell_formula_units_Z 10
_cell_length_a 10.921410
_cell_length_b 10.399026
_cell_length_c 7.358789
_cell_angle_alpha 111.186852
_cell_angle_beta 39.970232
_cell_angle_gamma 128.154480
_cell_volume 411.657079
_symmetry_space_group_name_H-M "P -1"
_symmetry_group_IT_number 2
_symmetry_cell_setting 'triclinic'
loop_
_space_group_symop_operation_xyz
x,y,z
-x,-y,-z
loop_
_atom_site_type_symbol
_atom_site_label
_atom_site_fract_x
_atom_site_fract_y
_atom_site_fract_z
Si Si1 0.610466 0.920681 0.447665
Si Si2 0.323320 0.803411 0.061459
Si Si3 0.905475 0.790744 0.980827
Si Si4 0.579546 0.432195 0.035676
Si Si5 0.069420 0.173218 0.605623
O O1 0.500000 0.000000 0.500000
O O2 0.426380 0.797012 0.745156
O O3 0.707070 0.824415 0.185910
O O4 0.854467 0.081954 0.331925
O O5 0.336684 0.691217 0.141375
O O6 0.072285 0.762726 0.294170
O O7 0.500000 0.000000 0.000000
O O8 0.786600 0.596845 0.984229
O O9 0.979877 0.840823 0.131330
O O10 0.340514 0.312333 0.353121
O O11 0.500000 0.500000 0.000000
O O12 0.000000 0.000000 0.500000
#
# Coordination Sequence:
#
# PCOD9063331 Si02
#       5
#     2   2   2   2   2
#     4  11  24  43  77 106 140 189 240 289 368 428
#     4  12  26  46  76 105 142 191 245 290 363 435
#     4  11  26  47  72 108 149 183 240 303 358 425
#     4  12  30  46  70 108 151 189 241 303 356 420
#     4  12  25  49  76 103 144 193 241 300 360 428
#
# _framework density 24.292064
#
# number of rings (size 3 to 8) (size 9 to 14) (size 15 to 20)
#    0.000    0.400    6.000    0.600   11.200    3.200 
#    0.000    0.000    0.000    0.000    0.000    0.000 
#    0.000    0.000    0.000    0.000    0.000    0.000 
#
# Total GULP energy -55916.093746 kJ/mol
# GULP energy per Si atom -5591.609375 kJ/mol
# Density = 2.423677 g / cm^3
# Si number density = 24.292064 Si / 1000 Ang^3
#
#
#
# Elastic Constant Matrix: (Units=GPa)
#
#
# Indices 1 2 3 4 5 6 
#
# 1 138.5641 35.4655 2.8956 23.8979 -11.4639 -42.9557
# 2 35.4655 142.8734 -0.7579 -2.7449 -11.5982 -10.3409
# 3 2.8956 -0.7579 59.5602 2.1407 -21.1870 1.1702
# 4 23.8979 -2.7449 2.1407 28.6737 -7.3710 -15.9650
# 5 -11.4639 -11.5982 -21.1870 -7.3710 52.0198 7.9420
# 6 -42.9557 -10.3409 1.1702 -15.9650 7.9420 59.9625
#
#
#
# Elastic Compliance Matrix: (Units=1/GPa)
#
#
# Indices 1 2 3 4 5 6 
#
# 1 0.010580 -0.002341 -0.000470 -0.005894 -0.000076 0.005625
# 2 -0.002341 0.007828 0.000793 0.003303 0.001979 0.000275
# 3 -0.000470 0.000793 0.019849 0.000242 0.008443 -0.001641
# 4 -0.005894 0.003303 0.000242 0.045707 0.004810 0.007875
# 5 -0.000076 0.001979 0.008443 0.004810 0.024040 -0.001781
# 6 0.005625 0.000275 -0.001641 0.007875 -0.001781 0.023119
#
#
# Mechanical properties :
#
#
# Convention : Reuss Voigt Hill
#
# Bulk Modulus (GPa) = 29.22032 46.24489 37.73260
# Shear Modulus (GPa) = 34.11413 48.35750 41.23581
#
# Velocity S-wave (km/s) = 3.75151 4.46653 4.12454
# Velocity P-wave (km/s) = 5.55157 6.75857 6.18459
#
# Compressibility (1/GPa) = 0.03422275
#
# Stress axis : x y z
#
# Youngs Moduli (GPa) = 94.51689 127.73840 50.37927
#
# Poissons Ratio (x) = 0.29904 0.02367
# Poissons Ratio (y) = 0.22127 -0.03996
# Poissons Ratio (z) = 0.04440 -0.10132
#
# Static dielectric constant tensor:
#      x y z
#    x 2.003470 -0.027260 0.070060 
#    y -0.027260 1.956710 0.030090 
#    z 0.070060 0.030090 2.073250 
# 
# From -- ./inp_files/135969.got.cif
#   From: 2010.05.17/outbox.cif.g08.bks.cpg/sg2_68_cif.got.tgz:135969.got - 2010.06.03 11:33:40.
