data_PCOD9063826
_publ_section_title
;
Structure prediction by ZEFSAII (Michael W. Deem and Ramdas Pophale) SiO2 
 PCOD9063826
Probable space group: P -1
;
_chemical_formula_sum "Si O2"
_cell_formula_units_Z 16
_cell_length_a 15.985950
_cell_length_b 18.888127
_cell_length_c 11.826403
_cell_angle_alpha 134.341767
_cell_angle_beta 145.634948
_cell_angle_gamma 22.315265
_cell_volume 729.642496
_symmetry_space_group_name_H-M "P -1"
_symmetry_group_IT_number 2
_symmetry_cell_setting 'triclinic'
loop_
_space_group_symop_operation_xyz
x,y,z
-x,-y,-z
loop_
_atom_site_type_symbol
_atom_site_label
_atom_site_fract_x
_atom_site_fract_y
_atom_site_fract_z
Si Si1 0.283383 0.571500 0.999958
Si Si2 0.769849 0.377380 0.741691
Si Si3 0.504016 0.190112 0.423523
Si Si4 0.661129 0.825628 0.561241
Si Si5 0.366909 0.969079 0.841071
Si Si6 0.494587 0.245026 0.867516
Si Si7 0.120502 0.867417 0.092016
Si Si8 0.168367 0.424727 0.939786
O O1 0.303198 0.598268 0.180869
O O2 0.264058 0.678394 0.019422
O O3 0.516478 0.350732 0.993131
O O4 0.983665 0.681850 0.777007
O O5 0.500000 0.500000 0.500000
O O6 0.815458 0.469756 0.887641
O O7 0.068481 0.152677 0.783691
O O8 0.473925 0.120389 0.406353
O O9 0.683015 0.052457 0.360428
O O10 0.659796 0.191402 0.658988
O O11 0.173061 0.406561 0.257375
O O12 0.641140 0.734976 0.367625
O O13 0.500000 0.000000 0.500000
O O14 0.618823 0.762342 0.954509
O O15 0.500000 0.000000 0.000000
O O16 0.299345 0.339598 0.864992
O O17 0.822158 0.016361 0.994221
O O18 0.000000 0.000000 0.000000
#
# Coordination Sequence:
#
# PCOD9063826 Si02
#       8
#     2   2   2   2   2   2   2   2
#     4  11  24  45  72 100 137 184 237 283 340 430
#     4  11  26  46  72 104 137 181 240 286 346 421
#     4  12  26  46  70 107 145 183 232 295 356 413
#     4  12  22  45  75 102 138 189 238 284 340 432
#     4  12  26  45  73 102 140 184 232 291 361 404
#     4  11  24  44  74  98 137 185 239 275 355 412
#     4  12  26  46  65 106 148 176 229 300 353 405
#     4  11  26  48  71 103 138 187 242 282 341 441
#
# _framework density 21.928549
#
# number of rings (size 3 to 8) (size 9 to 14) (size 15 to 20)
#    0.000    0.500    6.250    1.500    7.000    1.000 
#    0.000    0.000    0.000    0.000    0.000    0.000 
#    0.000    0.000    0.000    0.000    0.000    0.000 
#
# Total GULP energy -89525.490387 kJ/mol
# GULP energy per Si atom -5595.343149 kJ/mol
# Density = 2.187864 g / cm^3
# Si number density = 21.928549 Si / 1000 Ang^3
#
#
#
# Elastic Constant Matrix: (Units=GPa)
#
#
# Indices 1 2 3 4 5 6 
#
# 1 81.1684 40.0166 19.8882 12.3398 -27.1757 10.5046
# 2 40.0166 119.8907 28.8022 5.1180 -21.1928 4.6904
# 3 19.8882 28.8022 144.3767 -0.4634 -7.1370 -3.7438
# 4 12.3398 5.1180 -0.4634 36.5608 -0.8352 0.5606
# 5 -27.1757 -21.1928 -7.1370 -0.8352 32.5684 -3.1833
# 6 10.5046 4.6904 -3.7438 0.5606 -3.1833 45.1158
#
#
#
# Elastic Compliance Matrix: (Units=1/GPa)
#
#
# Indices 1 2 3 4 5 6 
#
# 1 0.020516 -0.003624 -0.001524 -0.006065 0.013932 -0.003468
# 2 -0.003624 0.010525 -0.001431 -0.000187 0.003494 -0.000120
# 3 -0.001524 -0.001431 0.007430 0.000782 -0.000449 0.001079
# 4 -0.006065 -0.000187 0.000782 0.029326 -0.004177 0.000837
# 5 0.013932 0.003494 -0.000449 -0.004177 0.044353 -0.000463
# 6 -0.003468 -0.000120 0.001079 0.000837 -0.000463 0.023032
#
#
# Mechanical properties :
#
#
# Convention : Reuss Voigt Hill
#
# Bulk Modulus (GPa) = 39.50747 58.09441 48.80094
# Shear Modulus (GPa) = 31.89241 39.96425 35.92833
#
# Velocity S-wave (km/s) = 3.81777 4.27368 4.05214
# Velocity P-wave (km/s) = 6.12286 7.13460 6.64800
#
# Compressibility (1/GPa) = 0.02531167
#
# Stress axis : x y z
#
# Youngs Moduli (GPa) = 48.74359 95.01334 134.58857
#
# Poissons Ratio (x) = 0.34435 0.20508
# Poissons Ratio (y) = 0.17666 0.19265
# Poissons Ratio (z) = 0.07427 0.13600
#
# Static dielectric constant tensor:
#      x y z
#    x 1.872240 0.022720 -0.042940 
#    y 0.022720 1.818870 -0.011200 
#    z -0.042940 -0.011200 1.772800 
# 
# From -- ./inp_files/467145.got.cif
#   From: 2010.05.17/outbox.cif.g08.bks.cpg/sg2_234_cif.got.tgz:467145.got - 2010.06.03 11:33:40.
