data_PCOD9063606
_publ_section_title
;
Structure prediction by ZEFSAII (Michael W. Deem and Ramdas Pophale) SiO2 
 PCOD9063606
Probable space group: P -1
;
_chemical_formula_sum "Si O2"
_cell_formula_units_Z 14
_cell_length_a 11.397149
_cell_length_b 15.273320
_cell_length_c 9.151506
_cell_angle_alpha 73.001771
_cell_angle_beta 91.968843
_cell_angle_gamma 28.683173
_cell_volume 565.692854
_symmetry_space_group_name_H-M "P -1"
_symmetry_group_IT_number 2
_symmetry_cell_setting 'triclinic'
loop_
_space_group_symop_operation_xyz
x,y,z
-x,-y,-z
loop_
_atom_site_type_symbol
_atom_site_label
_atom_site_fract_x
_atom_site_fract_y
_atom_site_fract_z
Si Si1 0.224665 0.986453 0.358693
Si Si2 0.339612 0.423036 0.177576
Si Si3 0.676819 0.805624 0.989376
Si Si4 0.771395 0.402584 0.367583
Si Si5 0.789254 0.997391 0.202484
Si Si6 0.146669 0.771845 0.036316
Si Si7 0.259661 0.365946 0.665896
O O1 0.020184 0.202424 0.344670
O O2 0.468956 0.754611 0.585693
O O3 0.429336 0.886090 0.290085
O O4 0.992212 0.096107 0.190605
O O5 0.282987 0.571170 0.117035
O O6 0.001380 0.617495 0.047185
O O7 0.562471 0.236378 0.144464
O O8 0.767361 0.651711 0.163777
O O9 0.500000 0.000000 0.000000
O O10 0.405948 0.957297 0.802833
O O11 0.426469 0.629353 0.182717
O O12 0.774251 0.500898 0.389802
O O13 0.889863 0.246617 0.573326
O O14 0.883284 0.950580 0.063994
O O15 0.000000 0.500000 0.500000
#
# Coordination Sequence:
#
# PCOD9063606 Si02
#       7
#     2   2   2   2   2   2   2
#     4  11  25  46  71 107 139 187 234 286 347 417
#     4  11  25  45  72 104 142 182 234 290 351 412
#     4  12  22  45  71 101 138 183 230 286 353 413
#     4  11  28  46  69 106 141 183 240 286 346 417
#     4  11  24  44  71 105 136 191 233 287 351 415
#     4  12  25  48  71 102 146 187 233 290 343 418
#     4  12  24  45  73  98 140 181 229 296 349 409
#
# _framework density 24.748411999999998
#
# number of rings (size 3 to 8) (size 9 to 14) (size 15 to 20)
#    0.000    0.571    4.286    3.000    2.000    4.571 
#    5.143    0.000    0.000    0.000    0.000    0.000 
#    0.000    0.000    0.000    0.000    0.000    0.000 
#
# Total GULP energy -78411.769910 kJ/mol
# GULP energy per Si atom -5600.840708 kJ/mol
# Density = 2.469208 g / cm^3
# Si number density = 24.748412 Si / 1000 Ang^3
#
#
#
# Elastic Constant Matrix: (Units=GPa)
#
#
# Indices 1 2 3 4 5 6 
#
# 1 102.1313 57.5098 28.6246 -9.6737 26.7931 4.3202
# 2 57.5098 152.8276 38.3144 13.1554 11.2041 15.6907
# 3 28.6246 38.3144 137.9969 -0.7929 25.2145 -7.1554
# 4 -9.6737 13.1554 -0.7929 39.4832 -4.9841 0.4373
# 5 26.7931 11.2041 25.2145 -4.9841 44.9479 -5.5238
# 6 4.3202 15.6907 -7.1554 0.4373 -5.5238 25.2379
#
#
#
# Elastic Compliance Matrix: (Units=1/GPa)
#
#
# Indices 1 2 3 4 5 6 
#
# 1 0.015332 -0.005447 -0.000382 0.004670 -0.007171 -0.000997
# 2 -0.005447 0.010046 -0.002112 -0.004570 0.000724 -0.005674
# 3 -0.000382 -0.002112 0.008757 0.000278 -0.003754 0.003035
# 4 0.004670 -0.004570 0.000278 0.028175 0.001567 0.001975
# 5 -0.007171 0.000724 -0.003754 0.001567 0.029374 0.006115
# 6 -0.000997 -0.005674 0.003035 0.001975 0.006115 0.045486
#
#
# Mechanical properties :
#
#
# Convention : Reuss Voigt Hill
#
# Bulk Modulus (GPa) = 54.79083 71.31704 63.05394
# Shear Modulus (GPa) = 31.41963 39.83427 35.62695
#
# Velocity S-wave (km/s) = 3.56696 4.01630 3.79828
# Velocity P-wave (km/s) = 6.25711 7.09837 6.69098
#
# Compressibility (1/GPa) = 0.01825123
#
# Stress axis : x y z
#
# Youngs Moduli (GPa) = 65.22441 99.54659 114.19247
#
# Poissons Ratio (x) = 0.54227 0.04365
# Poissons Ratio (y) = 0.35531 0.24116
# Poissons Ratio (z) = 0.02493 0.21023
#
# Static dielectric constant tensor:
#      x y z
#    x 2.075100 -0.026340 0.137890 
#    y -0.026340 1.908970 -0.022300 
#    z 0.137890 -0.022300 2.144190 
# 
# From -- ./inp_files/270342.got.cif
#   From: 2010.05.17/outbox.cif.g08.bks.cpg/sg2_136_cif.got.tgz:270342.got - 2010.06.03 11:33:40.
