data_PCOD9064661
_publ_section_title
;
Structure prediction by ZEFSAII (Michael W. Deem and Ramdas Pophale) SiO2 
 PCOD9064661
Probable space group: P -1
;
_chemical_formula_sum "Si O2"
_cell_formula_units_Z 13
_cell_length_a 11.672499
_cell_length_b 13.880603
_cell_length_c 13.795677
_cell_angle_alpha 32.779470
_cell_angle_beta 136.259383
_cell_angle_gamma 150.346851
_cell_volume 598.440486
_symmetry_space_group_name_H-M "P -1"
_symmetry_group_IT_number 2
_symmetry_cell_setting 'triclinic'
loop_
_space_group_symop_operation_xyz
x,y,z
-x,-y,-z
loop_
_atom_site_type_symbol
_atom_site_label
_atom_site_fract_x
_atom_site_fract_y
_atom_site_fract_z
Si Si1 0.455923 0.201014 0.994195
Si Si2 0.027867 0.351669 0.574267
Si Si3 0.923804 0.197637 0.441239
Si Si4 0.290184 0.156076 0.724542
Si Si5 0.000000 0.000000 0.000000
Si Si6 0.495216 0.808744 0.368045
Si Si7 0.024454 0.429262 0.969316
O O1 0.709384 0.433336 0.995833
O O2 0.450496 0.982013 0.167818
O O3 0.433227 0.270685 0.814743
O O4 0.245155 0.102237 0.016168
O O5 0.277306 0.564212 0.496695
O O6 0.000000 0.500000 0.500000
O O7 0.853996 0.203329 0.502388
O O8 0.007045 0.162832 0.785853
O O9 0.023698 0.450147 0.238194
O O10 0.106683 0.176001 0.581505
O O11 0.714010 0.976589 0.432483
O O12 0.440149 0.247691 0.641949
O O13 0.143805 0.863221 0.893042
O O14 0.000000 0.500000 0.000000
#
# Coordination Sequence:
#
# PCOD9064661 Si02
#       7
#     2   2   2   2   1   2   2
#     4  11  24  46  71 105 144 189 236 289 349 420
#     4  12  27  48  71  95 140 187 239 291 347 411
#     4  11  26  44  69 108 136 183 236 284 349 431
#     4  12  24  44  73 108 145 181 233 288 362 424
#     4  12  26  50  68 102 136 192 248 282 342 430
#     4  11  25  44  73 104 143 180 230 296 358 414
#     4  11  25  43  71 107 148 181 227 292 356 416
#
# _framework density 21.723129
#
# number of rings (size 3 to 8) (size 9 to 14) (size 15 to 20)
#    0.000    0.615    6.154    1.846    4.308    1.231 
#    0.000    1.538    0.000    0.000    0.000    0.000 
#    0.000    0.000    0.000    0.000    0.000    0.000 
#
# Total GULP energy -72539.770269 kJ/mol
# GULP energy per Si atom -5579.982328 kJ/mol
# Density = 2.167369 g / cm^3
# Si number density = 21.723129 Si / 1000 Ang^3
#
#
#
# Elastic Constant Matrix: (Units=GPa)
#
#
# Indices 1 2 3 4 5 6 
#
# 1 122.2506 16.0745 32.9980 12.2774 -22.2926 16.7326
# 2 16.0745 64.0239 27.5127 7.0049 -12.6697 4.0874
# 3 32.9980 27.5127 159.1789 26.9315 -31.4352 -5.3105
# 4 12.2774 7.0049 26.9315 35.9236 8.1522 -0.5287
# 5 -22.2926 -12.6697 -31.4352 8.1522 39.1396 -2.5643
# 6 16.7326 4.0874 -5.3105 -0.5287 -2.5643 23.0999
#
#
#
# Elastic Compliance Matrix: (Units=1/GPa)
#
#
# Indices 1 2 3 4 5 6 
#
# 1 0.011007 -0.000317 -0.000356 -0.005003 0.006438 -0.007398
# 2 -0.000317 0.017888 -0.001609 -0.003309 0.004820 -0.002846
# 3 -0.000356 -0.001609 0.010279 -0.009426 0.009742 0.003771
# 4 -0.005003 -0.003309 -0.009426 0.041843 -0.020156 0.000763
# 5 0.006438 0.004820 0.009742 -0.020156 0.042866 0.001021
# 6 -0.007398 -0.002846 0.003771 0.000763 0.001021 0.050151
#
#
# Mechanical properties :
#
#
# Convention : Reuss Voigt Hill
#
# Bulk Modulus (GPa) = 28.89412 55.40264 42.14838
# Shear Modulus (GPa) = 26.29729 37.55717 31.92723
#
# Velocity S-wave (km/s) = 3.48309 4.16252 3.83787
# Velocity P-wave (km/s) = 5.43193 6.97577 6.25169
#
# Compressibility (1/GPa) = 0.03460912
#
# Stress axis : x y z
#
# Youngs Moduli (GPa) = 90.85400 55.90371 97.28991
#
# Poissons Ratio (x) = 0.01771 0.03463
# Poissons Ratio (y) = 0.02878 0.15657
# Poissons Ratio (z) = 0.03234 0.08996
#
# Static dielectric constant tensor:
#      x y z
#    x 1.801730 -0.031470 0.007590 
#    y -0.031470 1.845500 0.003410 
#    z 0.007590 0.003410 1.767570 
# 
# From -- ./inp_files/520671.got.cif
#   From: 2010.05.17/outbox.cif.g08.bks.cpg/sg2_261_cif.got.tgz:520671.got - 2010.06.03 11:33:40.
