data_PCOD9064296
_publ_section_title
;
Structure prediction by ZEFSAII (Michael W. Deem and Ramdas Pophale) SiO2 
 PCOD9064296
Probable space group: P -1
;
_chemical_formula_sum "Si O2"
_cell_formula_units_Z 16
_cell_length_a 9.503783
_cell_length_b 12.039689
_cell_length_c 17.573454
_cell_angle_alpha 26.470413
_cell_angle_beta 91.745855
_cell_angle_gamma 110.341218
_cell_volume 622.632157
_symmetry_space_group_name_H-M "P -1"
_symmetry_group_IT_number 2
_symmetry_cell_setting 'triclinic'
loop_
_space_group_symop_operation_xyz
x,y,z
-x,-y,-z
loop_
_atom_site_type_symbol
_atom_site_label
_atom_site_fract_x
_atom_site_fract_y
_atom_site_fract_z
Si Si1 0.805793 0.871350 0.282903
Si Si2 0.651069 0.455636 0.798985
Si Si3 0.499030 0.726552 0.704861
Si Si4 0.010191 0.679497 0.580103
Si Si5 0.466285 0.459091 0.649121
Si Si6 0.196847 0.399068 0.784229
Si Si7 0.734210 0.209706 0.717755
Si Si8 0.215636 0.210357 0.127599
O O1 0.660393 0.769460 0.411340
O O2 0.715367 0.870016 0.205555
O O3 0.763902 0.520348 0.491992
O O4 0.040767 0.181810 0.114850
O O5 0.659324 0.739179 0.664486
O O6 0.862576 0.607169 0.685214
O O7 0.535453 0.355607 0.778134
O O8 0.498563 0.117097 0.059510
O O9 0.284994 0.375183 0.874531
O O10 0.500000 0.000000 0.500000
O O11 0.431991 0.603422 0.866482
O O12 0.868103 0.386991 0.688725
O O13 0.143016 0.620277 0.649775
O O14 0.146177 0.056206 0.306629
O O15 0.373248 0.577355 0.616945
O O16 0.000000 0.000000 0.000000
O O17 0.788986 0.064782 0.747206
#
# Coordination Sequence:
#
# PCOD9064296 Si02
#       8
#     2   2   2   2   2   2   2   2
#     4  10  18  27  49  78 121 146 182 227 284 333
#     4  10  20  34  54  79 110 152 194 230 280 338
#     4  10  23  43  61  80 114 154 192 236 292 345
#     4  11  19  33  54  83 115 146 193 236 281 333
#     4  10  18  30  45  79 116 149 179 224 277 330
#     4  11  22  35  60  88 119 147 191 233 285 334
#     4  10  18  28  50  80 118 151 181 225 287 339
#     4  10  19  34  54  80 110 154 193 231 283 342
#
# _framework density 25.697355999999999
#
# number of rings (size 3 to 8) (size 9 to 14) (size 15 to 20)
#    0.000    1.750    2.500    6.375    1.750    0.000 
#    0.000    1.875    0.000    0.000    0.000    0.000 
#    0.000    0.000    0.000    0.000    0.000    0.000 
#
# Total GULP energy -89498.447556 kJ/mol
# GULP energy per Si atom -5593.652972 kJ/mol
# Density = 2.563887 g / cm^3
# Si number density = 25.697356 Si / 1000 Ang^3
#
#
#
# Elastic Constant Matrix: (Units=GPa)
#
#
# Indices 1 2 3 4 5 6 
#
# 1 194.1153 26.4902 27.2801 27.3673 -19.0550 -34.9369
# 2 26.4902 42.5918 10.1796 16.7009 -2.5863 -10.3932
# 3 27.2801 10.1796 88.5839 15.2900 -13.9504 -36.5585
# 4 27.3673 16.7009 15.2900 37.9458 -13.8060 -4.0642
# 5 -19.0550 -2.5863 -13.9504 -13.8060 42.9514 10.9623
# 6 -34.9369 -10.3932 -36.5585 -4.0642 10.9623 45.1623
#
#
#
# Elastic Compliance Matrix: (Units=1/GPa)
#
#
# Indices 1 2 3 4 5 6 
#
# 1 0.006762 -0.001685 0.000984 -0.003723 0.000711 0.005131
# 2 -0.001685 0.031074 0.001491 -0.014017 -0.004665 0.006925
# 3 0.000984 0.001491 0.018380 -0.007011 0.000346 0.015268
# 4 -0.003723 -0.014017 -0.007011 0.040929 0.011140 -0.010802
# 5 0.000711 -0.004665 0.000346 0.011140 0.028587 -0.006180
# 6 0.005131 0.006925 0.015268 -0.010802 -0.006180 0.040593
#
#
# Mechanical properties :
#
#
# Convention : Reuss Voigt Hill
#
# Bulk Modulus (GPa) = 17.30301 50.35455 33.82878
# Shear Modulus (GPa) = 27.17249 42.63465 34.90357
#
# Velocity S-wave (km/s) = 3.25530 4.07763 3.68945
# Velocity P-wave (km/s) = 4.56917 6.46585 5.59842
#
# Compressibility (1/GPa) = 0.05779340
#
# Stress axis : x y z
#
# Youngs Moduli (GPa) = 147.89478 32.18170 54.40722
#
# Poissons Ratio (x) = 0.05424 -0.05352
# Poissons Ratio (y) = 0.24926 -0.08111
# Poissons Ratio (z) = -0.14549 -0.04798
#
# Static dielectric constant tensor:
#      x y z
#    x 2.040040 0.083730 -0.081950 
#    y 0.083730 2.219670 -0.141350 
#    z -0.081950 -0.141350 2.230560 
# 
# From -- ./inp_files/259122.got.cif
#   From: 2010.05.17/outbox.cif.g08.bks.cpg/sg2_130_cif.got.tgz:259122.got - 2010.06.03 11:33:40.
