data_PCOD9064022
_publ_section_title
;
Structure prediction by ZEFSAII (Michael W. Deem and Ramdas Pophale) SiO2 
 PCOD9064022
Probable space group: P -1
;
_chemical_formula_sum "Si O2"
_cell_formula_units_Z 16
_cell_length_a 8.137683
_cell_length_b 19.371007
_cell_length_c 9.481111
_cell_angle_alpha 114.455444
_cell_angle_beta 116.653986
_cell_angle_gamma 33.349816
_cell_volume 731.970498
_symmetry_space_group_name_H-M "P -1"
_symmetry_group_IT_number 2
_symmetry_cell_setting 'triclinic'
loop_
_space_group_symop_operation_xyz
x,y,z
-x,-y,-z
loop_
_atom_site_type_symbol
_atom_site_label
_atom_site_fract_x
_atom_site_fract_y
_atom_site_fract_z
Si Si1 0.269582 0.118576 0.118307
Si Si2 0.686494 0.585817 0.373905
Si Si3 0.682869 0.271602 0.382426
Si Si4 0.340397 0.123485 0.464959
Si Si5 0.178255 0.865155 0.933911
Si Si6 0.722360 0.404758 0.130295
Si Si7 0.341819 0.275963 0.755392
Si Si8 0.224101 0.479357 0.161865
O O1 0.416362 0.097609 0.305436
O O2 0.052934 0.259306 0.099124
O O3 0.035229 0.131005 0.087522
O O4 0.500000 0.000000 0.000000
O O5 0.403105 0.700025 0.463443
O O6 0.726129 0.482846 0.279344
O O7 0.650867 0.650249 0.275592
O O8 0.000000 0.500000 0.500000
O O9 0.368400 0.397506 0.288938
O O10 0.973668 0.230450 0.431206
O O11 0.761863 0.169959 0.238052
O O12 0.433408 0.171844 0.614144
O O13 0.500000 0.000000 0.500000
O O14 0.467047 0.775418 0.072229
O O15 0.000000 0.000000 0.000000
O O16 0.524309 0.407499 0.137417
O O17 0.500000 0.500000 0.000000
O O18 0.991816 0.380784 0.757664
O O19 0.000000 0.500000 0.000000
#
# Coordination Sequence:
#
# PCOD9064022 Si02
#       8
#     2   2   2   2   2   2   2   2
#     4  11  25  47  68  94 139 185 231 283 348 413
#     4  12  26  40  67 108 144 175 224 293 358 409
#     4  11  24  45  69  99 141 177 234 281 351 412
#     4  11  25  47  70  98 136 189 235 280 345 420
#     4  11  24  45  69  95 133 186 234 277 338 421
#     4  12  26  44  70 106 144 181 235 294 352 422
#     4  12  24  43  71 104 140 177 231 289 353 414
#     4  12  22  43  73 102 136 183 226 291 353 415
#
# _framework density 21.858805
#
# number of rings (size 3 to 8) (size 9 to 14) (size 15 to 20)
#    0.000    0.500    5.000    4.500    0.000    7.000 
#    0.000    1.875    0.000    0.000    0.000    0.000 
#    0.000    0.000    0.000    0.000    0.000    0.000 
#
# Total GULP energy -89306.675205 kJ/mol
# GULP energy per Si atom -5581.667200 kJ/mol
# Density = 2.180905 g / cm^3
# Si number density = 21.858805 Si / 1000 Ang^3
#
#
#
# Elastic Constant Matrix: (Units=GPa)
#
#
# Indices 1 2 3 4 5 6 
#
# 1 50.9985 28.1087 28.1102 13.9441 5.3063 -2.6442
# 2 28.1087 131.1850 42.9899 24.7673 -5.1034 8.1352
# 3 28.1102 42.9899 112.1387 28.4066 11.7822 -3.2921
# 4 13.9441 24.7673 28.4066 48.2471 0.0340 -1.9233
# 5 5.3063 -5.1034 11.7822 0.0340 43.6519 6.7462
# 6 -2.6442 8.1352 -3.2921 -1.9233 6.7462 34.4079
#
#
#
# Elastic Compliance Matrix: (Units=1/GPa)
#
#
# Indices 1 2 3 4 5 6 
#
# 1 0.025036 -0.003911 -0.003625 -0.002975 -0.002971 0.002918
# 2 -0.003911 0.010184 -0.002664 -0.002678 0.002958 -0.003693
# 3 -0.003625 -0.002664 0.012512 -0.004870 -0.003549 0.001972
# 4 -0.002975 -0.002678 -0.004870 0.025874 0.001164 0.001157
# 5 -0.002971 0.002958 -0.003549 0.001164 0.025532 -0.006208
# 6 0.002918 -0.003693 0.001972 0.001157 -0.006208 0.031631
#
#
# Mechanical properties :
#
#
# Convention : Reuss Voigt Hill
#
# Bulk Modulus (GPa) = 36.58906 54.74886 45.66896
# Shear Modulus (GPa) = 31.19526 38.26894 34.73210
#
# Velocity S-wave (km/s) = 3.78183 4.18872 3.99046
# Velocity P-wave (km/s) = 5.98705 6.96382 6.49383
#
# Compressibility (1/GPa) = 0.02733057
#
# Stress axis : x y z
#
# Youngs Moduli (GPa) = 39.94212 98.19604 79.92214
#
# Poissons Ratio (x) = 0.38408 0.28971
# Poissons Ratio (y) = 0.15623 0.21295
# Poissons Ratio (z) = 0.14479 0.26164
#
# Static dielectric constant tensor:
#      x y z
#    x 1.859800 -0.073680 -0.068330 
#    y -0.073680 1.809660 0.100260 
#    z -0.068330 0.100260 1.746290 
# 
# From -- ./inp_files/223882.got.cif
#   From: 2010.05.17/outbox.cif.g08.bks.cpg/sg2_112_cif.got.tgz:223882.got - 2010.06.03 11:33:40.
