data_PCOD9064231
_publ_section_title
;
Structure prediction by ZEFSAII (Michael W. Deem and Ramdas Pophale) SiO2 
 PCOD9064231
Probable space group: P -1
;
_chemical_formula_sum "Si O2"
_cell_formula_units_Z 15
_cell_length_a 16.627647
_cell_length_b 8.569258
_cell_length_c 11.453943
_cell_angle_alpha 86.358999
_cell_angle_beta 148.379673
_cell_angle_gamma 72.947655
_cell_volume 638.658606
_symmetry_space_group_name_H-M "P -1"
_symmetry_group_IT_number 2
_symmetry_cell_setting 'triclinic'
loop_
_space_group_symop_operation_xyz
x,y,z
-x,-y,-z
loop_
_atom_site_type_symbol
_atom_site_label
_atom_site_fract_x
_atom_site_fract_y
_atom_site_fract_z
Si Si1 0.287407 0.886889 0.807220
Si Si2 0.602396 0.817087 0.353553
Si Si3 0.500389 0.241597 0.169502
Si Si4 0.824727 0.227856 0.716610
Si Si5 0.086578 0.685382 0.600333
Si Si6 0.365285 0.245325 0.341523
Si Si7 0.967367 0.414565 0.714852
Si Si8 0.500000 0.500000 0.500000
O O1 0.439788 0.790726 0.891632
O O2 0.184552 0.787470 0.685627
O O3 0.414752 0.829973 0.086133
O O4 0.109427 0.138312 0.571999
O O5 0.692806 0.724671 0.595997
O O6 0.778823 0.660163 0.487039
O O7 0.522069 0.047059 0.239168
O O8 0.668334 0.232279 0.444024
O O9 0.272821 0.462336 0.895842
O O10 0.919422 0.297239 0.745178
O O11 0.693563 0.388850 0.652631
O O12 0.000000 0.000000 0.000000
O O13 0.018796 0.650808 0.398006
O O14 0.491486 0.316632 0.470394
O O15 0.500000 0.000000 0.500000
O O16 0.169144 0.361849 0.012445
#
# Coordination Sequence:
#
# PCOD9064231 Si02
#       8
#     2   2   2   2   2   2   2   1
#     4  11  24  45  72 107 146 194 249 303 367 451
#     4  12  25  45  73 104 149 196 246 306 378 443
#     4  12  25  46  70 109 150 193 247 308 368 451
#     4  12  27  47  76 109 147 197 251 310 375 450
#     4  11  25  45  75 108 144 199 246 302 374 443
#     4  12  27  50  74 113 150 197 257 316 375 453
#     4  12  24  49  75 104 154 197 241 312 379 442
#     4  12  28  48  78 110 146 198 250 310 374 446
#
# _framework density 23.486725
#
# number of rings (size 3 to 8) (size 9 to 14) (size 15 to 20)
#    0.000    0.267    4.000    5.200    1.867    1.600 
#    2.400    0.000    0.000    0.000    0.000    0.000 
#    0.000    0.000    0.000    0.000    0.000    0.000 
#
# Total GULP energy -83833.469857 kJ/mol
# GULP energy per Si atom -5588.897990 kJ/mol
# Density = 2.343327 g / cm^3
# Si number density = 23.486725 Si / 1000 Ang^3
#
#
#
# Elastic Constant Matrix: (Units=GPa)
#
#
# Indices 1 2 3 4 5 6 
#
# 1 66.8817 26.7748 12.9403 5.3005 -5.6365 0.2495
# 2 26.7748 144.2716 50.1471 -15.9164 0.3693 5.0543
# 3 12.9403 50.1471 130.5002 -9.6132 -10.5792 -6.3989
# 4 5.3005 -15.9164 -9.6132 41.5258 -7.3926 6.9041
# 5 -5.6365 0.3693 -10.5792 -7.3926 24.8172 -2.2285
# 6 0.2495 5.0543 -6.3989 6.9041 -2.2285 39.8241
#
#
#
# Elastic Compliance Matrix: (Units=1/GPa)
#
#
# Indices 1 2 3 4 5 6 
#
# 1 0.016872 -0.003416 -0.000312 -0.003186 0.002890 0.000992
# 2 -0.003416 0.009111 -0.003150 0.003319 -0.001472 -0.002299
# 3 -0.000312 -0.003150 0.009489 0.001538 0.004651 0.001920
# 4 -0.003186 0.003319 0.001538 0.028289 0.007895 -0.004617
# 5 0.002890 -0.001472 0.004651 0.007895 0.045495 0.002093
# 6 0.000992 -0.002299 0.001920 -0.004617 0.002093 0.026622
#
#
# Mechanical properties :
#
#
# Convention : Reuss Voigt Hill
#
# Bulk Modulus (GPa) = 46.05058 57.93087 51.99073
# Shear Modulus (GPa) = 31.87296 38.01951 34.94624
#
# Velocity S-wave (km/s) = 3.68783 4.02775 3.86153
# Velocity P-wave (km/s) = 6.14679 6.80803 6.48585
#
# Compressibility (1/GPa) = 0.02171525
#
# Stress axis : x y z
#
# Youngs Moduli (GPa) = 59.26926 109.76127 105.38955
#
# Poissons Ratio (x) = 0.37499 0.03288
# Poissons Ratio (y) = 0.20249 0.33195
# Poissons Ratio (z) = 0.01849 0.34572
#
# Static dielectric constant tensor:
#      x y z
#    x 1.921890 0.015030 0.028980 
#    y 0.015030 1.876860 0.076090 
#    z 0.028980 0.076090 2.077780 
# 
# From -- ./inp_files/200420.got.cif
#   From: 2010.05.17/outbox.cif.g08.bks.cpg/sg2_101_cif.got.tgz:200420.got - 2010.06.03 11:33:40.
