data_PCOD9064969
_publ_section_title
;
Structure prediction by ZEFSAII (Michael W. Deem and Ramdas Pophale) SiO2 
 PCOD9064969
Probable space group: P -1
;
_chemical_formula_sum "Si O2"
_cell_formula_units_Z 14
_cell_length_a 8.890297
_cell_length_b 17.948025
_cell_length_c 11.949838
_cell_angle_alpha 149.796914
_cell_angle_beta 39.310736
_cell_angle_gamma 136.291249
_cell_volume 598.849869
_symmetry_space_group_name_H-M "P -1"
_symmetry_group_IT_number 2
_symmetry_cell_setting 'triclinic'
loop_
_space_group_symop_operation_xyz
x,y,z
-x,-y,-z
loop_
_atom_site_type_symbol
_atom_site_label
_atom_site_fract_x
_atom_site_fract_y
_atom_site_fract_z
Si Si1 0.762290 0.007159 0.915780
Si Si2 0.532042 0.811089 0.994339
Si Si3 0.655153 0.653407 0.159432
Si Si4 0.902352 0.459981 0.131357
Si Si5 0.700289 0.971639 0.439346
Si Si6 0.717273 0.326842 0.428902
Si Si7 0.148113 0.397689 0.435412
O O1 0.691687 0.896957 0.916474
O O2 0.013890 0.974833 0.677583
O O3 0.500000 0.000000 0.000000
O O4 0.814386 0.182182 0.144075
O O5 0.341054 0.660858 0.886099
O O6 0.730026 0.739765 0.857795
O O7 0.381402 0.930677 0.285884
O O8 0.538440 0.707095 0.409226
O O9 0.666029 0.794071 0.253665
O O10 0.500000 0.500000 0.000000
O O11 0.907518 0.616406 0.006617
O O12 0.868030 0.595573 0.411805
O O13 0.000000 0.500000 0.000000
O O14 0.500000 0.000000 0.500000
O O15 0.706679 0.446404 0.492981
O O16 0.893761 0.390908 0.511967
#
# Coordination Sequence:
#
# PCOD9064969 Si02
#       7
#     2   2   2   2   2   2   2
#     4  12  28  49  77 109 160 206 253 324 399 468
#     4  12  28  47  75 111 156 198 258 316 396 465
#     4  12  26  48  78 111 153 204 267 321 387 470
#     4  12  28  47  79 115 156 204 266 329 393 467
#     4  12  30  49  78 117 160 204 262 327 399 470
#     4  11  24  46  78 106 153 201 262 319 383 463
#     4  11  25  47  73 110 151 205 259 316 386 468
#
# _framework density 23.378146000000001
#
# number of rings (size 3 to 8) (size 9 to 14) (size 15 to 20)
#    0.000    0.286    2.857    4.714   12.000    2.286 
#    0.000    0.000    0.000    0.000    0.000    0.000 
#    0.000    0.000    0.000    0.000    0.000    0.000 
#
# Total GULP energy -78182.394806 kJ/mol
# GULP energy per Si atom -5584.456772 kJ/mol
# Density = 2.332494 g / cm^3
# Si number density = 23.378146 Si / 1000 Ang^3
#
#
#
# Elastic Constant Matrix: (Units=GPa)
#
#
# Indices 1 2 3 4 5 6 
#
# 1 96.3792 38.7651 34.6437 3.2016 -21.6128 -6.7627
# 2 38.7651 138.2545 67.3864 -2.8931 -16.6270 -20.9247
# 3 34.6437 67.3864 154.4518 -12.0206 -26.9441 -13.7669
# 4 3.2016 -2.8931 -12.0206 44.2478 1.8465 -10.5972
# 5 -21.6128 -16.6270 -26.9441 1.8465 44.0086 -4.9303
# 6 -6.7627 -20.9247 -13.7669 -10.5972 -4.9303 26.2465
#
#
#
# Elastic Compliance Matrix: (Units=1/GPa)
#
#
# Indices 1 2 3 4 5 6 
#
# 1 0.012952 -0.002366 -0.000954 -0.001225 0.005092 0.001412
# 2 -0.002366 0.010758 -0.003055 0.001743 0.001788 0.007404
# 3 -0.000954 -0.003055 0.009472 0.003326 0.004539 0.004482
# 4 -0.001225 0.001743 0.003326 0.027001 0.002551 0.014200
# 5 0.005092 0.001788 0.004539 0.002551 0.029889 0.011763
# 6 0.001412 0.007404 0.004482 0.014200 0.011763 0.054661
#
#
# Mechanical properties :
#
#
# Convention : Reuss Voigt Hill
#
# Bulk Modulus (GPa) = 48.94551 74.51955 61.73253
# Shear Modulus (GPa) = 30.43349 39.45326 34.94338
#
# Velocity S-wave (km/s) = 3.61195 4.11251 3.87033
# Velocity P-wave (km/s) = 6.19490 7.38209 6.81440
#
# Compressibility (1/GPa) = 0.02043088
#
# Stress axis : x y z
#
# Youngs Moduli (GPa) = 77.20797 92.95635 105.57805
#
# Poissons Ratio (x) = 0.21994 0.10071
# Poissons Ratio (y) = 0.18268 0.32257
# Poissons Ratio (z) = 0.07365 0.28401
#
# Static dielectric constant tensor:
#      x y z
#    x 1.974540 0.046960 0.040180 
#    y 0.046960 1.878160 -0.074830 
#    z 0.040180 -0.074830 1.894160 
# 
# From -- ./inp_files/403462.got.cif
#   From: 2010.05.17/outbox.cif.g08.bks.cpg/sg2_202_cif.got.tgz:403462.got - 2010.06.03 11:33:40.
