data_PCOD9064786
_publ_section_title
;
Structure prediction by ZEFSAII (Michael W. Deem and Ramdas Pophale) SiO2 
 PCOD9064786
Probable space group: P -1
;
_chemical_formula_sum "Si O2"
_cell_formula_units_Z 10
_cell_length_a 21.175160
_cell_length_b 5.138980
_cell_length_c 9.868778
_cell_angle_alpha 118.791915
_cell_angle_beta 29.397403
_cell_angle_gamma 120.010908
_cell_volume 453.803459
_symmetry_space_group_name_H-M "P -1"
_symmetry_group_IT_number 2
_symmetry_cell_setting 'triclinic'
loop_
_space_group_symop_operation_xyz
x,y,z
-x,-y,-z
loop_
_atom_site_type_symbol
_atom_site_label
_atom_site_fract_x
_atom_site_fract_y
_atom_site_fract_z
Si Si1 0.391758 0.108588 0.816969
Si Si2 0.565849 0.344891 0.960273
Si Si3 0.017108 0.153414 0.860854
Si Si4 0.884556 0.828868 0.769335
Si Si5 0.770889 0.192213 0.710058
O O1 0.500000 0.000000 0.500000
O O2 0.455826 0.449544 0.821360
O O3 0.255706 0.095821 0.990199
O O4 0.345913 0.933255 0.998508
O O5 0.717880 0.320409 0.702417
O O6 0.500000 0.500000 0.000000
O O7 0.500000 0.000000 0.000000
O O8 0.155696 0.082107 0.529743
O O9 0.917910 0.959738 0.889716
O O10 0.000000 0.500000 0.000000
O O11 0.000000 0.000000 0.000000
O O12 0.863683 0.470419 0.683161
O O13 0.000000 0.000000 0.500000
#
# Coordination Sequence:
#
# PCOD9064786 Si02
#       5
#     2   2   2   2   2
#     4  11  26  46  76 111 147 203 262 304 374 463
#     4  11  24  46  73 104 152 197 245 310 387 438
#     4  12  28  45  74 114 147 192 255 316 379 444
#     4  11  24  47  78 106 153 206 252 309 384 457
#     4  11  25  48  77 106 157 199 256 312 380 455
#
# _framework density 22.035972999999998
#
# number of rings (size 3 to 8) (size 9 to 14) (size 15 to 20)
#    0.000    0.800    4.000    1.800    5.600    6.400 
#    0.000    0.000    0.000    0.000    0.000    0.000 
#    0.000    0.000    0.000    0.000    0.000    0.000 
#
# Total GULP energy -55787.804942 kJ/mol
# GULP energy per Si atom -5578.780494 kJ/mol
# Density = 2.198582 g / cm^3
# Si number density = 22.035973 Si / 1000 Ang^3
#
#
#
# Elastic Constant Matrix: (Units=GPa)
#
#
# Indices 1 2 3 4 5 6 
#
# 1 212.1791 79.8770 61.0889 19.5370 -1.0687 8.8580
# 2 79.8770 211.8151 83.7613 30.8949 10.3138 -2.7794
# 3 61.0889 83.7613 171.5275 17.5553 -8.6464 -6.7428
# 4 19.5370 30.8949 17.5553 36.9754 -11.3182 -1.1727
# 5 -1.0687 10.3138 -8.6464 -11.3182 33.7940 4.1686
# 6 8.8580 -2.7794 -6.7428 -1.1727 4.1686 51.6230
#
#
#
# Elastic Compliance Matrix: (Units=1/GPa)
#
#
# Indices 1 2 3 4 5 6 
#
# 1 0.005817 -0.001551 -0.001237 -0.001202 0.000096 -0.001278
# 2 -0.001551 0.007461 -0.002744 -0.005618 -0.004982 0.000584
# 3 -0.001237 -0.002744 0.007770 0.000117 0.002719 0.000862
# 4 -0.001202 -0.005618 0.000117 0.036595 0.014010 -0.000381
# 5 0.000096 -0.004982 0.002719 0.014010 0.036821 -0.002585
# 6 -0.001278 0.000584 0.000862 -0.000381 -0.002585 0.019935
#
#
# Mechanical properties :
#
#
# Convention : Reuss Voigt Hill
#
# Bulk Modulus (GPa) = 100.16134 116.10846 108.13490
# Shear Modulus (GPa) = 38.82287 49.19811 44.01049
#
# Velocity S-wave (km/s) = 4.20193 4.73019 4.47387
# Velocity P-wave (km/s) = 8.31227 9.09053 8.71010
#
# Compressibility (1/GPa) = 0.00998389
#
# Stress axis : x y z
#
# Youngs Moduli (GPa) = 171.89592 134.03533 128.70811
#
# Poissons Ratio (x) = 0.20786 0.15921
# Poissons Ratio (y) = 0.26657 0.35319
# Poissons Ratio (z) = 0.21263 0.36781
#
# Static dielectric constant tensor:
#      x y z
#    x 1.980440 -0.032680 -0.045470 
#    y -0.032680 1.825010 -0.006640 
#    z -0.045470 -0.006640 1.828630 
# 
# From -- ./inp_files/123950.got.cif
#   From: 2010.05.17/outbox.cif.g08.bks.cpg/sg2_62_cif.got.tgz:123950.got - 2010.06.03 11:33:40.
