data_PCOD9064513
_publ_section_title
;
Structure prediction by ZEFSAII (Michael W. Deem and Ramdas Pophale) SiO2 
 PCOD9064513
Probable space group: P -1
;
_chemical_formula_sum "Si O2"
_cell_formula_units_Z 15
_cell_length_a 14.920001
_cell_length_b 15.801756
_cell_length_c 5.065888
_cell_angle_alpha 84.430417
_cell_angle_beta 79.529364
_cell_angle_gamma 27.748323
_cell_volume 541.482205
_symmetry_space_group_name_H-M "P -1"
_symmetry_group_IT_number 2
_symmetry_cell_setting 'triclinic'
loop_
_space_group_symop_operation_xyz
x,y,z
-x,-y,-z
loop_
_atom_site_type_symbol
_atom_site_label
_atom_site_fract_x
_atom_site_fract_y
_atom_site_fract_z
Si Si1 0.466354 0.352967 0.905566
Si Si2 0.330678 0.186195 0.367969
Si Si3 0.707641 0.670524 0.153469
Si Si4 0.500000 0.500000 0.500000
Si Si5 0.940646 0.713384 0.835192
Si Si6 0.814904 0.982263 0.105124
Si Si7 0.139658 0.676072 0.372721
Si Si8 0.869801 0.168660 0.340496
O O1 0.433584 0.294520 0.766898
O O2 0.529733 0.382630 0.700574
O O3 0.612519 0.194719 0.096682
O O4 0.261141 0.544999 0.101082
O O5 0.260432 0.311819 0.586571
O O6 0.186511 0.232693 0.323010
O O7 0.500000 0.000000 0.500000
O O8 0.376739 0.198093 0.067923
O O9 0.927157 0.459623 0.010718
O O10 0.672380 0.314985 0.244876
O O11 0.823186 0.879560 0.018486
O O12 0.101157 0.634407 0.610314
O O13 0.976657 0.906299 0.890207
O O14 0.918548 0.890867 0.360810
O O15 0.251205 0.663557 0.452349
O O16 0.000000 0.000000 0.500000
#
# Coordination Sequence:
#
# PCOD9064513 Si02
#       8
#     2   2   2   1   2   2   2   2
#     4  12  25  47  75 109 150 202 259 323 398 459
#     4  12  28  47  78 121 158 207 268 326 397 481
#     4  12  26  48  77 113 161 209 263 328 400 468
#     4  12  24  46  74 102 154 186 262 316 388 470
#     4  11  25  48  76 109 156 205 260 317 396 475
#     4  11  24  46  73 107 149 198 252 323 385 471
#     4  11  25  46  73 106 151 195 256 320 391 467
#     4  11  24  46  67 103 143 193 248 319 387 464
#
# _framework density 27.701743
#
# number of rings (size 3 to 8) (size 9 to 14) (size 15 to 20)
#    0.000    0.533    4.000    3.600    3.733    2.133 
#    4.800    0.000    0.000    0.000    0.000    0.000 
#    0.000    0.000    0.000    0.000    0.000    0.000 
#
# Total GULP energy -83881.052351 kJ/mol
# GULP energy per Si atom -5592.070157 kJ/mol
# Density = 2.763869 g / cm^3
# Si number density = 27.701743 Si / 1000 Ang^3
#
#
#
# Elastic Constant Matrix: (Units=GPa)
#
#
# Indices 1 2 3 4 5 6 
#
# 1 184.4221 24.1986 38.0356 -2.9690 9.2664 15.3432
# 2 24.1986 151.5829 7.0150 -58.5759 5.8522 -17.4945
# 3 38.0356 7.0150 100.8047 -26.7139 -1.3148 0.5376
# 4 -2.9690 -58.5759 -26.7139 51.9895 0.1243 9.7617
# 5 9.2664 5.8522 -1.3148 0.1243 49.1863 -0.7438
# 6 15.3432 -17.4945 0.5376 9.7617 -0.7438 42.1044
#
#
#
# Elastic Compliance Matrix: (Units=1/GPa)
#
#
# Indices 1 2 3 4 5 6 
#
# 1 0.006671 -0.002653 -0.003348 -0.003834 -0.001060 -0.002620
# 2 -0.002653 0.013842 0.004599 0.017317 -0.001028 0.002627
# 3 -0.003348 0.004599 0.014105 0.012214 0.000432 0.000127
# 4 -0.003834 0.017317 0.012214 0.045192 -0.001157 -0.002061
# 5 -0.001060 -0.001028 0.000432 -0.001157 0.020676 0.000587
# 6 -0.002620 0.002627 0.000127 -0.002061 0.000587 0.026283
#
#
# Mechanical properties :
#
#
# Convention : Reuss Voigt Hill
#
# Bulk Modulus (GPa) = 31.43210 63.92312 47.67761
# Shear Modulus (GPa) = 35.66885 53.16008 44.41446
#
# Velocity S-wave (km/s) = 3.59221 4.38541 4.00848
# Velocity P-wave (km/s) = 5.34570 6.98341 6.21870
#
# Compressibility (1/GPa) = 0.03181461
#
# Stress axis : x y z
#
# Youngs Moduli (GPa) = 149.91289 72.24183 70.89634
#
# Poissons Ratio (x) = 0.19166 0.23738
# Poissons Ratio (y) = 0.39771 -0.32609
# Poissons Ratio (z) = 0.50194 -0.33227
#
# Static dielectric constant tensor:
#      x y z
#    x 2.327320 -0.042420 0.016190 
#    y -0.042420 2.273120 0.025880 
#    z 0.016190 0.025880 2.074520 
# 
# From -- ./inp_files/97680.got.cif
#   From: 2010.05.17/outbox.cif.g08.bks.cpg/sg2_49_cif.got.tgz:97680.got - 2010.06.03 11:33:40.
