data_PCOD9064902
_publ_section_title
;
Structure prediction by ZEFSAII (Michael W. Deem and Ramdas Pophale) SiO2 
 PCOD9064902
Probable space group: P -1
;
_chemical_formula_sum "Si O2"
_cell_formula_units_Z 16
_cell_length_a 10.675328
_cell_length_b 8.648182
_cell_length_c 9.545679
_cell_angle_alpha 95.102730
_cell_angle_beta 83.182799
_cell_angle_gamma 53.298183
_cell_volume 687.280088
_symmetry_space_group_name_H-M "P -1"
_symmetry_group_IT_number 2
_symmetry_cell_setting 'triclinic'
loop_
_space_group_symop_operation_xyz
x,y,z
-x,-y,-z
loop_
_atom_site_type_symbol
_atom_site_label
_atom_site_fract_x
_atom_site_fract_y
_atom_site_fract_z
Si Si1 0.448730 0.296701 0.301488
Si Si2 0.096185 0.067641 0.423228
Si Si3 0.133011 0.270952 0.947041
Si Si4 0.195801 0.515503 0.591252
Si Si5 0.213031 0.954160 0.096302
Si Si6 0.268782 0.106404 0.641169
Si Si7 0.414483 0.272455 0.991060
Si Si8 0.304595 0.637680 0.845733
O O1 0.319161 0.450178 0.442508
O O2 0.565049 0.347960 0.241804
O O3 0.558120 0.078511 0.338837
O O4 0.373102 0.301574 0.163961
O O5 0.229670 0.027428 0.508742
O O6 0.979058 0.302777 0.425975
O O7 0.168971 0.951297 0.259409
O O8 0.000000 0.000000 0.500000
O O9 0.143327 0.173924 0.790679
O O10 0.304746 0.226402 0.930684
O O11 0.000000 0.500000 0.000000
O O12 0.108686 0.172313 0.068243
O O13 0.234354 0.310374 0.618408
O O14 0.227662 0.603055 0.725810
O O15 0.394888 0.882158 0.060202
O O16 0.200923 0.826051 0.975301
O O17 0.376371 0.460565 0.931414
#
# Coordination Sequence:
#
# PCOD9064902 Si02
#       8
#     2   2   2   2   2   2   2   2
#     4  11  25  45  75 108 148 194 245 304 358 442
#     4  12  31  48  73 107 152 196 241 308 375 434
#     4  12  26  46  76 109 148 191 241 308 364 437
#     4  12  27  46  74 107 149 194 246 304 369 432
#     4  11  26  48  75 103 149 191 253 297 360 447
#     4  12  26  50  68 110 144 195 248 296 374 436
#     4  11  25  45  76 109 143 193 247 296 366 430
#     4  11  24  46  75 109 145 192 250 300 366 432
#
# _framework density 23.280175
#
# number of rings (size 3 to 8) (size 9 to 14) (size 15 to 20)
#    0.000    0.500    3.750    4.500    8.750    0.500 
#    0.000    0.000    0.000    0.000    0.000    0.000 
#    0.000    0.000    0.000    0.000    0.000    0.000 
#
# Total GULP energy -89580.531684 kJ/mol
# GULP energy per Si atom -5598.783230 kJ/mol
# Density = 2.322719 g / cm^3
# Si number density = 23.280175 Si / 1000 Ang^3
#
#
#
# Elastic Constant Matrix: (Units=GPa)
#
#
# Indices 1 2 3 4 5 6 
#
# 1 51.3235 5.4436 41.7889 2.8467 1.2620 10.7060
# 2 5.4436 96.3027 21.7093 -12.7997 0.1954 -2.5111
# 3 41.7889 21.7093 195.3289 8.3078 -6.4624 -7.2540
# 4 2.8467 -12.7997 8.3078 41.6470 -3.1442 -6.9966
# 5 1.2620 0.1954 -6.4624 -3.1442 33.5553 0.5573
# 6 10.7060 -2.5111 -7.2540 -6.9966 0.5573 36.1134
#
#
#
# Elastic Compliance Matrix: (Units=1/GPa)
#
#
# Indices 1 2 3 4 5 6 
#
# 1 0.026593 -0.000767 -0.005922 -0.002654 -0.002225 -0.009606
# 2 -0.000767 0.011273 -0.001200 0.004023 0.000083 0.001548
# 3 -0.005922 -0.001200 0.006703 -0.000715 0.001406 0.002858
# 4 -0.002654 0.004023 -0.000715 0.026769 0.002346 0.006073
# 5 -0.002225 0.000083 0.001406 0.002346 0.030360 0.000934
# 6 -0.009606 0.001548 0.002858 0.006073 0.000934 0.032382
#
#
# Mechanical properties :
#
#
# Convention : Reuss Voigt Hill
#
# Bulk Modulus (GPa) = 34.73204 53.42653 44.07929
# Shear Modulus (GPa) = 31.35722 40.53070 35.94396
#
# Velocity S-wave (km/s) = 3.67406 4.17705 3.93361
# Velocity P-wave (km/s) = 5.74020 6.80168 6.29336
#
# Compressibility (1/GPa) = 0.02879186
#
# Stress axis : x y z
#
# Youngs Moduli (GPa) = 37.60418 88.71108 149.19092
#
# Poissons Ratio (x) = 0.06804 0.88344
# Poissons Ratio (y) = 0.02884 0.17897
# Poissons Ratio (z) = 0.22267 0.10642
#
# Static dielectric constant tensor:
#      x y z
#    x 1.891470 0.042040 0.023640 
#    y 0.042040 1.991080 0.018740 
#    z 0.023640 0.018740 1.858950 
# 
# From -- ./inp_files/244565.got.cif
#   From: 2010.05.17/outbox.cif.g08.bks.cpg/sg2_123_cif.got.tgz:244565.got - 2010.06.03 11:33:40.
