data_PCOD9064514
_publ_section_title
;
Structure prediction by ZEFSAII (Michael W. Deem and Ramdas Pophale) SiO2 
 PCOD9064514
Probable space group: P -1
;
_chemical_formula_sum "Si O2"
_cell_formula_units_Z 16
_cell_length_a 18.815650
_cell_length_b 8.324518
_cell_length_c 16.677446
_cell_angle_alpha 138.625523
_cell_angle_beta 22.596450
_cell_angle_gamma 140.187942
_cell_volume 633.560200
_symmetry_space_group_name_H-M "P -1"
_symmetry_group_IT_number 2
_symmetry_cell_setting 'triclinic'
loop_
_space_group_symop_operation_xyz
x,y,z
-x,-y,-z
loop_
_atom_site_type_symbol
_atom_site_label
_atom_site_fract_x
_atom_site_fract_y
_atom_site_fract_z
Si Si1 0.329312 0.721499 0.245587
Si Si2 0.095762 0.103860 0.612357
Si Si3 0.696862 0.014985 0.060750
Si Si4 0.555499 0.964392 0.519317
Si Si5 0.921579 0.413358 0.273915
Si Si6 0.683825 0.517804 0.168430
Si Si7 0.476153 0.701154 0.918618
Si Si8 0.883998 0.680463 0.555640
O O1 0.179768 0.523320 0.383055
O O2 0.546429 0.795528 0.083261
O O3 0.336581 0.618306 0.109874
O O4 0.265815 0.981986 0.409617
O O5 0.146195 0.402306 0.649410
O O6 0.995229 0.944896 0.579314
O O7 0.921145 0.027784 0.830022
O O8 0.601723 0.004740 0.242631
O O9 0.692165 0.270202 0.114980
O O10 0.586893 0.689082 0.385901
O O11 0.500000 0.000000 0.500000
O O12 0.755500 0.188132 0.402379
O O13 0.008979 0.594888 0.326145
O O14 0.092144 0.328598 0.024449
O O15 0.586380 0.438210 0.152891
O O16 0.685300 0.680408 0.719007
O O17 0.500000 0.000000 0.000000
#
# Coordination Sequence:
#
# PCOD9064514 Si02
#       8
#     2   2   2   2   2   2   2   2
#     4  12  24  42  72 106 145 186 232 290 358 416
#     4  11  25  44  72 103 145 186 233 289 358 417
#     4  11  25  50  70 105 140 187 237 290 350 423
#     4  12  27  47  73  99 139 188 237 294 354 413
#     4  11  24  46  67 104 138 183 239 293 346 424
#     4  11  25  46  73 101 142 189 236 289 351 415
#     4  12  22  41  73 107 143 188 229 283 359 420
#     4  12  23  41  67 107 148 183 234 291 345 426
#
# _framework density 25.254111999999999
#
# number of rings (size 3 to 8) (size 9 to 14) (size 15 to 20)
#    0.000    0.500    3.750    4.875    1.750    1.000 
#    2.250    1.250    0.000    0.000    0.000    0.000 
#    0.000    0.000    0.000    0.000    0.000    0.000 
#
# Total GULP energy -89716.883020 kJ/mol
# GULP energy per Si atom -5607.305189 kJ/mol
# Density = 2.519663 g / cm^3
# Si number density = 25.254112 Si / 1000 Ang^3
#
#
#
# Elastic Constant Matrix: (Units=GPa)
#
#
# Indices 1 2 3 4 5 6 
#
# 1 73.7545 7.5739 30.4917 -3.8221 8.4673 -13.8225
# 2 7.5739 79.6869 3.3385 -0.7030 3.6119 -5.1066
# 3 30.4917 3.3385 127.8608 -16.1150 11.2301 2.6777
# 4 -3.8221 -0.7030 -16.1150 37.7137 -11.0213 8.8620
# 5 8.4673 3.6119 11.2301 -11.0213 48.7841 4.1719
# 6 -13.8225 -5.1066 2.6777 8.8620 4.1719 26.4577
#
#
#
# Elastic Compliance Matrix: (Units=1/GPa)
#
#
# Indices 1 2 3 4 5 6 
#
# 1 0.018006 -0.000619 -0.004696 -0.004105 -0.003931 0.011757
# 2 -0.000619 0.012838 -0.000252 -0.000918 -0.001221 0.002680
# 3 -0.004696 -0.000252 0.009659 0.004902 0.000158 -0.005146
# 4 -0.004105 -0.000918 0.004902 0.034441 0.008779 -0.015738
# 5 -0.003931 -0.001221 0.000158 0.008779 0.023990 -0.009029
# 6 0.011757 0.002680 -0.005146 -0.015738 -0.009029 0.051672
#
#
# Mechanical properties :
#
#
# Convention : Reuss Voigt Hill
#
# Bulk Modulus (GPa) = 34.05095 40.45672 37.25383
# Shear Modulus (GPa) = 29.14961 38.58431 33.86696
#
# Velocity S-wave (km/s) = 3.40111 3.91300 3.66600
# Velocity P-wave (km/s) = 5.37922 6.03905 5.71866
#
# Compressibility (1/GPa) = 0.02936776
#
# Stress axis : x y z
#
# Youngs Moduli (GPa) = 55.53833 77.89662 103.52771
#
# Poissons Ratio (x) = 0.04823 0.48617
# Poissons Ratio (y) = 0.03439 0.02609
# Poissons Ratio (z) = 0.26081 0.01963
#
# Static dielectric constant tensor:
#      x y z
#    x 2.011660 0.022660 -0.037250 
#    y 0.022660 2.063250 -0.010190 
#    z -0.037250 -0.010190 2.021000 
# 
# From -- ./inp_files/346255.got.cif
#   From: 2010.05.17/outbox.cif.g08.bks.cpg/sg2_174_cif.got.tgz:346255.got - 2010.06.03 11:33:40.
