data_PCOD9064727
_publ_section_title
;
Structure prediction by ZEFSAII (Michael W. Deem and Ramdas Pophale) SiO2 
 PCOD9064727
Probable space group: P -1
;
_chemical_formula_sum "Si O2"
_cell_formula_units_Z 14
_cell_length_a 13.926522
_cell_length_b 9.219683
_cell_length_c 4.907278
_cell_angle_alpha 109.174021
_cell_angle_beta 109.038333
_cell_angle_gamma 93.572436
_cell_volume 552.354200
_symmetry_space_group_name_H-M "P -1"
_symmetry_group_IT_number 2
_symmetry_cell_setting 'triclinic'
loop_
_space_group_symop_operation_xyz
x,y,z
-x,-y,-z
loop_
_atom_site_type_symbol
_atom_site_label
_atom_site_fract_x
_atom_site_fract_y
_atom_site_fract_z
Si Si1 0.939998 0.053476 0.727378
Si Si2 0.568066 0.885281 0.856990
Si Si3 0.827451 0.288369 0.580028
Si Si4 0.700956 0.174962 0.900670
Si Si5 0.257444 0.202101 0.661621
Si Si6 0.254005 0.409282 0.258777
Si Si7 0.558918 0.395377 0.794939
O O1 0.924555 0.230367 0.767105
O O2 0.823849 0.953181 0.576216
O O3 0.000000 0.000000 0.500000
O O4 0.000000 0.000000 0.000000
O O5 0.642388 0.000963 0.793001
O O6 0.794189 0.712592 0.091964
O O7 0.508386 0.739293 0.538602
O O8 0.500000 0.000000 0.000000
O O9 0.732088 0.216448 0.646557
O O10 0.820539 0.469164 0.673649
O O11 0.800154 0.213202 0.212594
O O12 0.627093 0.298377 0.984229
O O13 0.274288 0.316694 0.490196
O O14 0.361357 0.168667 0.876526
O O15 0.360329 0.497093 0.267017
O O16 0.500000 0.500000 0.000000
#
# Coordination Sequence:
#
# PCOD9064727 Si02
#       7
#     2   2   2   2   2   2   2
#     4  12  27  52  85 118 143 190 260 329 405 476
#     4  12  28  48  76 113 162 214 280 317 383 456
#     4  11  24  50  77 108 151 198 251 318 397 465
#     4  11  24  46  72 105 152 210 261 312 383 445
#     4  12  29  50  80 111 158 205 262 330 390 473
#     4  11  27  49  74 111 160 213 253 315 407 459
#     4  11  28  47  72 114 164 217 274 323 373 466
#
# _framework density 25.346057999999999
#
# number of rings (size 3 to 8) (size 9 to 14) (size 15 to 20)
#    0.000    0.571    1.429    5.571    8.000    1.143 
#    2.571    4.286    0.000    0.000    0.000    0.000 
#    0.000    0.000    0.000    0.000    0.000    0.000 
#
# Total GULP energy -78543.268756 kJ/mol
# GULP energy per Si atom -5610.233483 kJ/mol
# Density = 2.528837 g / cm^3
# Si number density = 25.346058 Si / 1000 Ang^3
#
#
#
# Elastic Constant Matrix: (Units=GPa)
#
#
# Indices 1 2 3 4 5 6 
#
# 1 62.3491 41.4490 16.4197 -6.1500 -13.8659 -13.0692
# 2 41.4490 206.4865 46.7264 -15.4052 -6.7688 -18.8183
# 3 16.4197 46.7264 127.2178 -13.9608 -4.7605 -3.7190
# 4 -6.1500 -15.4052 -13.9608 54.3207 6.7759 -9.9515
# 5 -13.8659 -6.7688 -4.7605 6.7759 39.7051 -4.4450
# 6 -13.0692 -18.8183 -3.7190 -9.9515 -4.4450 45.5017
#
#
#
# Elastic Compliance Matrix: (Units=1/GPa)
#
#
# Indices 1 2 3 4 5 6 
#
# 1 0.021373 -0.003201 -0.000990 0.001412 0.007202 0.005746
# 2 -0.003201 0.006102 -0.001647 0.001299 -0.000304 0.001724
# 3 -0.000990 -0.001647 0.008788 0.001685 0.000155 0.000136
# 4 0.001412 0.001299 0.001685 0.020607 -0.001997 0.005392
# 5 0.007202 -0.000304 0.000155 -0.001997 0.028490 0.004302
# 6 0.005746 0.001724 0.000136 0.005392 0.004302 0.025951
#
#
# Mechanical properties :
#
#
# Convention : Reuss Voigt Hill
#
# Bulk Modulus (GPa) = 40.67213 67.24930 53.96071
# Shear Modulus (GPa) = 38.11456 47.33605 42.72531
#
# Velocity S-wave (km/s) = 3.88205 4.32625 4.11016
# Velocity P-wave (km/s) = 6.01459 7.17951 6.62271
#
# Compressibility (1/GPa) = 0.02458686
#
# Stress axis : x y z
#
# Youngs Moduli (GPa) = 46.78800 163.87615 113.79341
#
# Poissons Ratio (x) = 0.52458 0.11270
# Poissons Ratio (y) = 0.14977 0.18737
# Poissons Ratio (z) = 0.04634 0.26984
#
# Static dielectric constant tensor:
#      x y z
#    x 2.028090 -0.056130 -0.006150 
#    y -0.056130 2.056620 0.047840 
#    z -0.006150 0.047840 1.997010 
# 
# From -- ./inp_files/109436.got.cif
#   From: 2010.05.17/outbox.cif.g08.bks.cpg/sg2_55_cif.got.tgz:109436.got - 2010.06.03 11:33:40.
