data_PCOD9064721
_publ_section_title
;
Structure prediction by ZEFSAII (Michael W. Deem and Ramdas Pophale) SiO2 
 PCOD9064721
Probable space group: P -1
;
_chemical_formula_sum "Si O2"
_cell_formula_units_Z 16
_cell_length_a 12.333931
_cell_length_b 12.133105
_cell_length_c 11.400208
_cell_angle_alpha 101.511508
_cell_angle_beta 60.695447
_cell_angle_gamma 49.924841
_cell_volume 724.560321
_symmetry_space_group_name_H-M "P -1"
_symmetry_group_IT_number 2
_symmetry_cell_setting 'triclinic'
loop_
_space_group_symop_operation_xyz
x,y,z
-x,-y,-z
loop_
_atom_site_type_symbol
_atom_site_label
_atom_site_fract_x
_atom_site_fract_y
_atom_site_fract_z
Si Si1 0.501708 0.377993 0.129043
Si Si2 0.221804 0.524345 0.650155
Si Si3 0.261239 0.005351 0.671220
Si Si4 0.179427 0.277757 0.928500
Si Si5 0.343308 0.955790 0.339350
Si Si6 0.257990 0.791162 0.253617
Si Si7 0.079371 0.569663 0.472165
Si Si8 0.169937 0.765062 0.899648
O O1 0.345415 0.595758 0.189310
O O2 0.342048 0.390927 0.229438
O O3 0.584241 0.373438 0.203281
O O4 0.743825 0.176136 0.875425
O O5 0.495902 0.257069 0.474008
O O6 0.140731 0.568451 0.568896
O O7 0.225057 0.644032 0.733507
O O8 0.999171 0.638723 0.864361
O O9 0.290710 0.100967 0.740777
O O10 0.264966 0.012828 0.530246
O O11 0.997956 0.166874 0.898121
O O12 0.408689 0.166342 0.834986
O O13 0.000000 0.500000 0.000000
O O14 0.127594 0.188077 0.428487
O O15 0.407571 0.777432 0.229201
O O16 0.000000 0.000000 0.500000
O O17 0.000000 0.500000 0.500000
O O18 0.000000 0.000000 0.000000
#
# Coordination Sequence:
#
# PCOD9064721 Si02
#       8
#     2   2   2   2   2   2   2   2
#     4  11  26  46  72 106 147 187 247 299 365 436
#     4  11  26  49  72 105 148 191 248 298 370 438
#     4  11  24  46  72 105 140 186 252 302 361 432
#     4  11  25  43  73 105 138 189 246 306 357 429
#     4  12  25  43  75 104 145 191 244 304 365 438
#     4  11  24  46  72 107 139 187 242 304 368 428
#     4  12  29  47  71 108 155 200 237 301 375 443
#     4  11  26  44  76 105 142 191 243 305 366 437
#
# _framework density 22.082356999999998
#
# number of rings (size 3 to 8) (size 9 to 14) (size 15 to 20)
#    0.000    0.750    2.500    3.375    8.750    4.500 
#    0.000    0.000    0.000    0.000    0.000    0.000 
#    0.000    0.000    0.000    0.000    0.000    0.000 
#
# Total GULP energy -89414.872092 kJ/mol
# GULP energy per Si atom -5588.429506 kJ/mol
# Density = 2.203210 g / cm^3
# Si number density = 22.082357 Si / 1000 Ang^3
#
#
#
# Elastic Constant Matrix: (Units=GPa)
#
#
# Indices 1 2 3 4 5 6 
#
# 1 140.9428 31.5783 42.9914 -10.6199 -12.7858 10.5587
# 2 31.5783 97.6911 30.9329 -0.9810 1.3747 -11.3877
# 3 42.9914 30.9329 75.3766 -6.1675 8.9455 0.0823
# 4 -10.6199 -0.9810 -6.1675 32.2660 3.9755 0.8823
# 5 -12.7858 1.3747 8.9455 3.9755 37.2977 -0.9503
# 6 10.5587 -11.3877 0.0823 0.8823 -0.9503 43.1391
#
#
#
# Elastic Compliance Matrix: (Units=1/GPa)
#
#
# Indices 1 2 3 4 5 6 
#
# 1 0.009864 -0.001911 -0.005226 0.001719 0.004449 -0.002846
# 2 -0.001911 0.012618 -0.004201 -0.001167 0.000109 0.003833
# 3 -0.005226 -0.004201 0.018948 0.002571 -0.006457 -0.000061
# 4 0.001719 -0.001167 0.002571 0.032484 -0.003484 -0.001475
# 5 0.004449 0.000109 -0.006457 -0.003484 0.030245 -0.000310
# 6 -0.002846 0.003833 -0.000061 -0.001475 -0.000310 0.024913
#
#
# Mechanical properties :
#
#
# Convention : Reuss Voigt Hill
#
# Bulk Modulus (GPa) = 53.32108 58.33508 55.82808
# Shear Modulus (GPa) = 31.64630 36.44111 34.04370
#
# Velocity S-wave (km/s) = 3.78974 4.06672 3.93067
# Velocity P-wave (km/s) = 6.58395 6.96601 6.77767
#
# Compressibility (1/GPa) = 0.01875431
#
# Stress axis : x y z
#
# Youngs Moduli (GPa) = 101.38337 79.25414 52.77607
#
# Poissons Ratio (x) = 0.15143 0.27580
# Poissons Ratio (y) = 0.19371 0.22170
# Poissons Ratio (z) = 0.52982 0.33293
#
# Static dielectric constant tensor:
#      x y z
#    x 1.845210 0.115510 -0.364030 
#    y 0.115510 1.785790 0.114210 
#    z -0.364030 0.114210 0.910810 
# 
# From -- ./inp_files/364033.got.cif
#   From: 2010.05.17/outbox.cif.g08.bks.cpg/sg2_183_cif.got.tgz:364033.got - 2010.06.03 11:33:40.
