data_PCOD9064295
_publ_section_title
;
Structure prediction by ZEFSAII (Michael W. Deem and Ramdas Pophale) SiO2 
 PCOD9064295
Probable space group: P -1
;
_chemical_formula_sum "Si O2"
_cell_formula_units_Z 12
_cell_length_a 7.738477
_cell_length_b 13.175437
_cell_length_c 8.803113
_cell_angle_alpha 99.255443
_cell_angle_beta 128.987202
_cell_angle_gamma 49.442808
_cell_volume 480.942038
_symmetry_space_group_name_H-M "P -1"
_symmetry_group_IT_number 2
_symmetry_cell_setting 'triclinic'
loop_
_space_group_symop_operation_xyz
x,y,z
-x,-y,-z
loop_
_atom_site_type_symbol
_atom_site_label
_atom_site_fract_x
_atom_site_fract_y
_atom_site_fract_z
Si Si1 0.727634 0.543153 0.253644
Si Si2 0.156956 0.361957 0.948379
Si Si3 0.755705 0.987224 0.839766
Si Si4 0.155716 0.739605 0.217995
Si Si5 0.066335 0.222840 0.388630
Si Si6 0.738287 0.173690 0.412102
O O1 0.406462 0.642936 0.197340
O O2 0.000000 0.500000 0.500000
O O3 0.702306 0.626657 0.116364
O O4 0.871231 0.383879 0.255322
O O5 0.923060 0.345805 0.776343
O O6 0.429571 0.229954 0.177279
O O7 0.000000 0.500000 0.000000
O O8 0.848714 0.884529 0.724121
O O9 0.395558 0.140661 0.640007
O O10 0.830690 0.896685 0.010193
O O11 0.000000 0.000000 0.000000
O O12 0.301018 0.771236 0.426912
O O13 0.848421 0.235086 0.390563
O O14 0.000000 0.000000 0.500000
#
# Coordination Sequence:
#
# PCOD9064295 Si02
#       6
#     2   2   2   2   2   2
#     4  12  26  47  75 107 146 191 238 294 359 425
#     4  12  27  48  75 108 146 189 237 293 357 425
#     4  11  24  45  73 106 144 187 238 296 357 423
#     4  12  27  48  74 106 144 188 240 296 357 426
#     4  11  25  45  71 105 145 188 237 295 358 424
#     4  12  27  47  72 105 143 187 242 298 356 426
#
# _framework density 24.951032000000001
#
# number of rings (size 3 to 8) (size 9 to 14) (size 15 to 20)
#    0.000    0.333    0.000    8.000    0.000   13.333 
#    0.000    5.000    0.000    0.000    0.000    0.000 
#    0.000    0.000    0.000    0.000    0.000    0.000 
#
# Total GULP energy -67327.921255 kJ/mol
# GULP energy per Si atom -5610.660105 kJ/mol
# Density = 2.489424 g / cm^3
# Si number density = 24.951032 Si / 1000 Ang^3
#
#
#
# Elastic Constant Matrix: (Units=GPa)
#
#
# Indices 1 2 3 4 5 6 
#
# 1 116.6684 34.1678 24.8598 13.4306 0.5389 12.7559
# 2 34.1678 125.6339 36.7253 6.1479 2.5081 7.4879
# 3 24.8598 36.7253 136.8151 0.4786 5.8160 2.9843
# 4 13.4306 6.1479 0.4786 45.5471 -0.4477 3.0114
# 5 0.5389 2.5081 5.8160 -0.4477 40.5504 6.9804
# 6 12.7559 7.4879 2.9843 3.0114 6.9804 39.5991
#
#
#
# Elastic Compliance Matrix: (Units=1/GPa)
#
#
# Indices 1 2 3 4 5 6 
#
# 1 0.010018 -0.002102 -0.001215 -0.002476 0.000601 -0.002656
# 2 -0.002102 0.009215 -0.002067 -0.000547 -0.000105 -0.000849
# 3 -0.001215 -0.002067 0.008121 0.000520 -0.001070 0.000319
# 4 -0.002476 -0.000547 0.000520 0.022820 0.000407 -0.000945
# 5 0.000601 -0.000105 -0.001070 0.000407 0.025616 -0.004639
# 6 -0.002656 -0.000849 0.000319 -0.000945 -0.004639 0.027135
#
#
# Mechanical properties :
#
#
# Convention : Reuss Voigt Hill
#
# Bulk Modulus (GPa) = 60.28747 63.40256 61.84501
# Shear Modulus (GPa) = 41.93841 44.03030 42.98436
#
# Velocity S-wave (km/s) = 4.10424 4.20535 4.15510
# Velocity P-wave (km/s) = 6.83187 7.00328 6.91811
#
# Compressibility (1/GPa) = 0.01658720
#
# Stress axis : x y z
#
# Youngs Moduli (GPa) = 99.81580 108.51943 123.13152
#
# Poissons Ratio (x) = 0.22811 0.14962
# Poissons Ratio (y) = 0.20981 0.25448
# Poissons Ratio (z) = 0.12129 0.22428
#
# Static dielectric constant tensor:
#      x y z
#    x 1.908320 -0.011980 0.014910 
#    y -0.011980 1.900600 0.015310 
#    z 0.014910 0.015310 1.952850 
# 
# From -- ./inp_files/203437.got.cif
#   From: 2010.05.17/outbox.cif.g08.bks.cpg/sg2_102_cif.got.tgz:203437.got - 2010.06.03 11:33:40.
