data_PCOD9064156
_publ_section_title
;
Structure prediction by ZEFSAII (Michael W. Deem and Ramdas Pophale) SiO2 
 PCOD9064156
Probable space group: P -1
;
_chemical_formula_sum "Si O2"
_cell_formula_units_Z 12
_cell_length_a 8.911829
_cell_length_b 5.621217
_cell_length_c 14.719664
_cell_angle_alpha 45.904995
_cell_angle_beta 98.276359
_cell_angle_gamma 88.458791
_cell_volume 515.622381
_symmetry_space_group_name_H-M "P -1"
_symmetry_group_IT_number 2
_symmetry_cell_setting 'triclinic'
loop_
_space_group_symop_operation_xyz
x,y,z
-x,-y,-z
loop_
_atom_site_type_symbol
_atom_site_label
_atom_site_fract_x
_atom_site_fract_y
_atom_site_fract_z
Si Si1 0.114510 0.342645 0.632914
Si Si2 0.929101 0.411413 0.114448
Si Si3 0.351970 0.751123 0.502261
Si Si4 0.099799 0.396848 0.311594
Si Si5 0.581334 0.789843 0.976249
Si Si6 0.625648 0.299169 0.691117
O O1 0.279428 0.408625 0.597725
O O2 0.000000 0.500000 0.500000
O O3 0.057794 0.563779 0.657719
O O4 0.101119 0.966362 0.762925
O O5 0.056176 0.464353 0.185910
O O6 0.760704 0.639213 0.052643
O O7 0.000000 0.500000 0.000000
O O8 0.509861 0.655721 0.596673
O O9 0.387973 0.807027 0.385509
O O10 0.210931 0.045507 0.434067
O O11 0.199220 0.662341 0.287216
O O12 0.581123 0.052485 0.825874
O O13 0.500000 0.500000 0.000000
O O14 0.500000 0.000000 0.000000
#
# Coordination Sequence:
#
# PCOD9064156 Si02
#       6
#     2   2   2   2   2   2
#     4  12  24  44  71 110 146 190 255 319 382 458
#     4  12  29  49  79 108 156 204 263 324 388 468
#     4  11  24  45  71 108 148 191 252 320 389 463
#     4  12  24  44  76 108 147 196 254 315 395 454
#     4  12  31  54  78 113 158 211 264 320 393 474
#     4  11  26  46  73 105 153 197 252 317 390 464
#
# _framework density 23.272849000000001
#
# number of rings (size 3 to 8) (size 9 to 14) (size 15 to 20)
#    0.000    0.333    3.333    4.000    9.333    1.333 
#    0.000    0.000    0.000    0.000    0.000    0.000 
#    0.000    0.000    0.000    0.000    0.000    0.000 
#
# Total GULP energy -67075.520097 kJ/mol
# GULP energy per Si atom -5589.626675 kJ/mol
# Density = 2.321988 g / cm^3
# Si number density = 23.272849 Si / 1000 Ang^3
#
#
#
# Elastic Constant Matrix: (Units=GPa)
#
#
# Indices 1 2 3 4 5 6 
#
# 1 116.5593 30.9064 53.2051 5.3507 4.3782 -20.8839
# 2 30.9064 73.9265 49.1433 1.0135 -7.0508 -20.4825
# 3 53.2051 49.1433 182.6107 3.2829 -12.7645 -22.3561
# 4 5.3507 1.0135 3.2829 34.4422 -7.9472 9.5855
# 5 4.3782 -7.0508 -12.7645 -7.9472 55.4574 7.0451
# 6 -20.8839 -20.4825 -22.3561 9.5855 7.0451 36.0216
#
#
#
# Elastic Compliance Matrix: (Units=1/GPa)
#
#
# Indices 1 2 3 4 5 6 
#
# 1 0.011422 -0.001928 -0.002247 -0.003767 -0.002929 0.005706
# 2 -0.001928 0.018921 -0.003492 -0.002024 0.000458 0.007923
# 3 -0.002247 -0.003492 0.007292 -0.000252 0.001241 0.001062
# 4 -0.003767 -0.002024 -0.000252 0.035233 0.006836 -0.014204
# 5 -0.002929 0.000458 0.001241 0.006836 0.020409 -0.006478
# 6 0.005706 0.007923 0.001062 -0.014204 -0.006478 0.041280
#
#
# Mechanical properties :
#
#
# Convention : Reuss Voigt Hill
#
# Bulk Modulus (GPa) = 44.84276 71.06737 57.95506
# Shear Modulus (GPa) = 31.78144 41.17368 36.47756
#
# Velocity S-wave (km/s) = 3.69941 4.21072 3.96332
# Velocity P-wave (km/s) = 6.12843 7.36499 6.77498
#
# Compressibility (1/GPa) = 0.02230014
#
# Stress axis : x y z
#
# Youngs Moduli (GPa) = 87.55281 52.85224 137.13906
#
# Poissons Ratio (x) = 0.10189 0.30821
# Poissons Ratio (y) = 0.16878 0.47887
# Poissons Ratio (z) = 0.19677 0.18455
#
# Static dielectric constant tensor:
#      x y z
#    x 1.991160 0.052220 -0.001380 
#    y 0.052220 2.059470 -0.105050 
#    z -0.001380 -0.105050 1.862630 
# 
# From -- ./inp_files/26498.got.cif
#   From: 2010.05.17/outbox.cif.g08.bks.cpg/sg2_14_cif.got.tgz:26498.got - 2010.06.03 11:33:40.
