data_PCOD9064561
_publ_section_title
;
Structure prediction by ZEFSAII (Michael W. Deem and Ramdas Pophale) SiO2 
 PCOD9064561
Probable space group: P -1
;
_chemical_formula_sum "Si O2"
_cell_formula_units_Z 16
_cell_length_a 13.744006
_cell_length_b 16.735977
_cell_length_c 10.886480
_cell_angle_alpha 145.720985
_cell_angle_beta 55.763523
_cell_angle_gamma 147.848473
_cell_volume 667.580294
_symmetry_space_group_name_H-M "P -1"
_symmetry_group_IT_number 2
_symmetry_cell_setting 'triclinic'
loop_
_space_group_symop_operation_xyz
x,y,z
-x,-y,-z
loop_
_atom_site_type_symbol
_atom_site_label
_atom_site_fract_x
_atom_site_fract_y
_atom_site_fract_z
Si Si1 0.029302 0.783086 0.020656
Si Si2 0.416797 0.335647 0.468895
Si Si3 0.443459 0.608392 0.177864
Si Si4 0.429752 0.763887 0.626985
Si Si5 0.420177 0.240475 0.987295
Si Si6 0.674194 0.259252 0.977316
Si Si7 0.925861 0.415531 0.767171
Si Si8 0.059475 0.730846 0.666225
O O1 0.099254 0.763486 0.824997
O O2 0.800419 0.611127 0.941271
O O3 0.021007 0.666141 0.991509
O O4 0.176909 0.063014 0.288287
O O5 0.500000 0.500000 0.500000
O O6 0.507474 0.268965 0.343208
O O7 0.488090 0.512677 0.749229
O O8 0.504739 0.748652 0.435935
O O9 0.544463 0.773332 0.193942
O O10 0.500000 0.500000 0.000000
O O11 0.183866 0.520973 0.492347
O O12 0.533531 0.017803 0.853728
O O13 0.544580 0.262520 0.020866
O O14 0.179413 0.992836 0.876394
O O15 0.757027 0.263703 0.799668
O O16 0.886473 0.494903 0.200903
O O17 0.852555 0.291241 0.526380
#
# Coordination Sequence:
#
# PCOD9064561 Si02
#       8
#     2   2   2   2   2   2   2   2
#     4  11  24  47  71 103 140 185 239 285 347 423
#     4  12  26  47  71 103 145 185 233 292 350 418
#     4  11  24  46  69 104 138 184 235 287 348 412
#     4  11  26  46  72 101 143 189 233 294 345 419
#     4  12  26  46  71 103 142 190 232 290 354 411
#     4  11  26  46  72 105 143 179 239 292 348 417
#     4  11  24  46  71 106 139 182 233 294 355 410
#     4  11  27  41  71 102 141 183 235 285 353 413
#
# _framework density 23.967151999999999
#
# number of rings (size 3 to 8) (size 9 to 14) (size 15 to 20)
#    0.000    0.750    5.000    1.125    7.000    3.500 
#    4.500    0.000    0.000    0.000    0.000    0.000 
#    0.000    0.000    0.000    0.000    0.000    0.000 
#
# Total GULP energy -89490.555168 kJ/mol
# GULP energy per Si atom -5593.159698 kJ/mol
# Density = 2.391260 g / cm^3
# Si number density = 23.967152 Si / 1000 Ang^3
#
#
#
# Elastic Constant Matrix: (Units=GPa)
#
#
# Indices 1 2 3 4 5 6 
#
# 1 91.2950 36.5986 16.7646 11.9130 -24.4332 -14.8885
# 2 36.5986 131.3995 36.7545 9.3822 -3.2885 -24.1851
# 3 16.7646 36.7545 76.2313 0.5301 -11.5875 -15.2485
# 4 11.9130 9.3822 0.5301 46.5392 -5.7394 -0.3625
# 5 -24.4332 -3.2885 -11.5875 -5.7394 27.8207 1.1405
# 6 -14.8885 -24.1851 -15.2485 -0.3625 1.1405 43.8624
#
#
#
# Elastic Compliance Matrix: (Units=1/GPa)
#
#
# Indices 1 2 3 4 5 6 
#
# 1 0.016982 -0.003874 0.001053 -0.001776 0.014380 0.003605
# 2 -0.003874 0.010439 -0.004221 -0.001581 -0.004378 0.003075
# 3 0.001053 -0.004221 0.016797 0.001350 0.007549 0.003684
# 4 -0.001776 -0.001581 0.001350 0.022674 0.003530 -0.000910
# 5 0.014380 -0.004378 0.007549 0.003530 0.051774 0.003774
# 6 0.003605 0.003075 0.003684 -0.000910 0.003774 0.026893
#
#
# Mechanical properties :
#
#
# Convention : Reuss Voigt Hill
#
# Bulk Modulus (GPa) = 33.18619 53.24014 43.21317
# Shear Modulus (GPa) = 29.46622 37.56499 33.51560
#
# Velocity S-wave (km/s) = 3.51014 3.96328 3.74357
# Velocity P-wave (km/s) = 5.50497 6.57308 6.06260
#
# Compressibility (1/GPa) = 0.03013301
#
# Stress axis : x y z
#
# Youngs Moduli (GPa) = 58.88753 95.79274 59.53616
#
# Poissons Ratio (x) = 0.37110 -0.06267
# Poissons Ratio (y) = 0.22813 0.25129
# Poissons Ratio (z) = -0.06199 0.40432
#
# Static dielectric constant tensor:
#      x y z
#    x 1.914760 -0.009140 0.028280 
#    y -0.009140 1.923820 -0.025350 
#    z 0.028280 -0.025350 1.943750 
# 
# From -- ./inp_files/209483.got.cif
#   From: 2010.05.17/outbox.cif.g08.bks.cpg/sg2_105_cif.got.tgz:209483.got - 2010.06.03 11:33:40.
