data_PCOD9064886
_publ_section_title
;
Structure prediction by ZEFSAII (Michael W. Deem and Ramdas Pophale) SiO2 
 PCOD9064886
Probable space group: P -1
;
_chemical_formula_sum "Si O2"
_cell_formula_units_Z 16
_cell_length_a 10.923532
_cell_length_b 8.974807
_cell_length_c 11.131722
_cell_angle_alpha 130.330115
_cell_angle_beta 66.678365
_cell_angle_gamma 87.490142
_cell_volume 690.257041
_symmetry_space_group_name_H-M "P -1"
_symmetry_group_IT_number 2
_symmetry_cell_setting 'triclinic'
loop_
_space_group_symop_operation_xyz
x,y,z
-x,-y,-z
loop_
_atom_site_type_symbol
_atom_site_label
_atom_site_fract_x
_atom_site_fract_y
_atom_site_fract_z
Si Si1 0.395719 0.878942 0.977984
Si Si2 0.987062 0.316032 0.115395
Si Si3 0.732190 0.777958 0.425239
Si Si4 0.135915 0.879573 0.474219
Si Si5 0.700662 0.831891 0.198985
Si Si6 0.073136 0.042942 0.178825
Si Si7 0.461403 0.749774 0.627246
Si Si8 0.602898 0.568979 0.916852
O O1 0.370340 0.852145 0.835097
O O2 0.504098 0.658268 0.883380
O O3 0.500000 0.000000 0.000000
O O4 0.230609 0.995366 0.154795
O O5 0.033344 0.221924 0.182601
O O6 0.879705 0.567044 0.287184
O O7 0.128813 0.273597 0.957421
O O8 0.912470 0.175902 0.007083
O O9 0.678857 0.755845 0.299290
O O10 0.611250 0.779582 0.567426
O O11 0.766050 0.985915 0.509395
O O12 0.240590 0.630769 0.272956
O O13 0.057281 0.895169 0.641346
O O14 0.000000 0.000000 0.500000
O O15 0.639663 0.092635 0.354839
O O16 0.625169 0.752032 0.081541
O O17 0.500000 0.500000 0.500000
O O18 0.500000 0.500000 0.000000
#
# Coordination Sequence:
#
# PCOD9064886 Si02
#       8
#     2   2   2   2   2   2   2   2
#     4  12  26  49  73 105 150 196 240 302 371 444
#     4  11  24  46  75 106 144 194 247 305 369 432
#     4  12  28  45  76 109 149 191 250 306 362 445
#     4  12  28  47  75 113 151 192 246 308 373 438
#     4  12  25  52  71 110 146 195 248 297 378 442
#     4  11  25  47  76 106 147 192 250 305 368 441
#     4  12  28  46  74 109 147 190 250 301 364 436
#     4  12  28  47  76 105 152 197 240 302 376 440
#
# _framework density 23.179770000000001
#
# number of rings (size 3 to 8) (size 9 to 14) (size 15 to 20)
#    0.000    0.250    3.750    3.750   12.250    0.000 
#    0.000    1.875    0.000    0.000    0.000    0.000 
#    0.000    0.000    0.000    0.000    0.000    0.000 
#
# Total GULP energy -89495.727828 kJ/mol
# GULP energy per Si atom -5593.482989 kJ/mol
# Density = 2.312701 g / cm^3
# Si number density = 23.179770 Si / 1000 Ang^3
#
#
#
# Elastic Constant Matrix: (Units=GPa)
#
#
# Indices 1 2 3 4 5 6 
#
# 1 93.7201 23.5750 25.5258 -0.1875 -20.9855 6.5894
# 2 23.5750 118.1497 46.2282 6.6757 -11.1370 -4.7604
# 3 25.5258 46.2282 87.2703 6.5181 -25.7069 9.9044
# 4 -0.1875 6.6757 6.5181 45.4281 -0.0326 -11.7745
# 5 -20.9855 -11.1370 -25.7069 -0.0326 38.1142 -3.1286
# 6 6.5894 -4.7604 9.9044 -11.7745 -3.1286 45.3369
#
#
#
# Elastic Compliance Matrix: (Units=1/GPa)
#
#
# Indices 1 2 3 4 5 6 
#
# 1 0.012746 -0.001672 -0.001000 0.000085 0.005741 -0.001391
# 2 -0.001672 0.011184 -0.006207 -0.000076 -0.001622 0.002642
# 3 -0.001000 -0.006207 0.018698 -0.002982 0.009860 -0.004685
# 4 0.000085 -0.000076 -0.002982 0.024220 -0.001406 0.006824
# 5 0.005741 -0.001622 0.009860 -0.001406 0.035485 -0.001075
# 6 -0.001391 0.002642 -0.004685 0.006824 -0.001075 0.025258
#
#
# Mechanical properties :
#
#
# Convention : Reuss Voigt Hill
#
# Bulk Modulus (GPa) = 40.20864 54.42201 47.31533
# Shear Modulus (GPa) = 32.54366 39.36324 35.95345
#
# Velocity S-wave (km/s) = 3.75102 4.12536 3.94264
# Velocity P-wave (km/s) = 6.01201 6.79858 6.41736
#
# Compressibility (1/GPa) = 0.02487027
#
# Stress axis : x y z
#
# Youngs Moduli (GPa) = 78.45299 89.41386 53.48147
#
# Poissons Ratio (x) = 0.14948 0.05348
# Poissons Ratio (y) = 0.13116 0.33198
# Poissons Ratio (z) = 0.07845 0.55502
#
# Static dielectric constant tensor:
#      x y z
#    x 1.655800 -0.098570 -0.096300 
#    y -0.098570 1.607090 -0.085020 
#    z -0.096300 -0.085020 1.774030 
# 
# From -- ./inp_files/190685.got.cif
#   From: 2010.05.17/outbox.cif.g08.bks.cpg/sg2_96_cif.got.tgz:190685.got - 2010.06.03 11:33:40.
