data_PCOD9064680
_publ_section_title
;
Structure prediction by ZEFSAII (Michael W. Deem and Ramdas Pophale) SiO2 
 PCOD9064680
Probable space group: P -1
;
_chemical_formula_sum "Si O2"
_cell_formula_units_Z 16
_cell_length_a 10.785553
_cell_length_b 24.723128
_cell_length_c 5.459647
_cell_angle_alpha 55.849663
_cell_angle_beta 112.214857
_cell_angle_gamma 145.868991
_cell_volume 664.136925
_symmetry_space_group_name_H-M "P -1"
_symmetry_group_IT_number 2
_symmetry_cell_setting 'triclinic'
loop_
_space_group_symop_operation_xyz
x,y,z
-x,-y,-z
loop_
_atom_site_type_symbol
_atom_site_label
_atom_site_fract_x
_atom_site_fract_y
_atom_site_fract_z
Si Si1 0.704462 0.660717 0.924993
Si Si2 0.319423 0.770107 0.857449
Si Si3 0.239459 0.125795 0.924521
Si Si4 0.413873 0.642054 0.595868
Si Si5 0.119564 0.611588 0.725854
Si Si6 0.152444 0.424396 0.702498
Si Si7 0.110212 0.208191 0.784566
Si Si8 0.370283 0.934811 0.317401
O O1 0.477508 0.613291 0.921605
O O2 0.766302 0.705995 0.573152
O O3 0.696536 0.579929 0.142676
O O4 0.864561 0.745820 0.052251
O O5 0.299890 0.703131 0.823575
O O6 0.322906 0.839329 0.539655
O O7 0.566487 0.852989 0.947179
O O8 0.079643 0.678170 0.055882
O O9 0.360602 0.224556 0.580504
O O10 0.188123 0.163160 0.991841
O O11 0.000000 0.000000 0.000000
O O12 0.238415 0.631649 0.521861
O O13 0.289766 0.544284 0.562218
O O14 0.951502 0.604493 0.569126
O O15 0.000000 0.500000 0.000000
O O16 0.855179 0.111479 0.750518
O O17 0.500000 0.000000 0.500000
O O18 0.500000 0.000000 0.000000
#
# Coordination Sequence:
#
# PCOD9064680 Si02
#       8
#     2   2   2   2   2   2   2   2
#     4  11  25  45  74 107 150 190 241 303 375 449
#     4  12  25  45  75 108 140 195 249 304 375 443
#     4  11  25  47  73 105 150 198 247 304 370 447
#     4  11  24  46  71 109 149 191 245 307 375 441
#     4  12  24  42  74 110 148 187 244 312 377 445
#     4  12  24  45  74 109 146 189 245 310 372 447
#     4  11  24  48  71 105 149 194 244 304 370 440
#     4  12  27  46  74 107 146 192 253 311 366 434
#
# _framework density 24.091415000000001
#
# number of rings (size 3 to 8) (size 9 to 14) (size 15 to 20)
#    0.000    0.500    3.750    4.500    1.750    3.000 
#    0.000    7.500    0.000    0.000    0.000    0.000 
#    0.000    0.000    0.000    0.000    0.000    0.000 
#
# Total GULP energy -89089.738178 kJ/mol
# GULP energy per Si atom -5568.108636 kJ/mol
# Density = 2.403658 g / cm^3
# Si number density = 24.091415 Si / 1000 Ang^3
#
#
#
# Elastic Constant Matrix: (Units=GPa)
#
#
# Indices 1 2 3 4 5 6 
#
# 1 67.9502 13.6931 29.4286 -10.1518 19.6614 9.5839
# 2 13.6931 133.0903 40.2786 -2.8800 -12.2753 1.9236
# 3 29.4286 40.2786 103.8186 -14.5167 4.4393 9.6627
# 4 -10.1518 -2.8800 -14.5167 41.9321 2.3216 13.4282
# 5 19.6614 -12.2753 4.4393 2.3216 40.0492 5.4649
# 6 9.5839 1.9236 9.6627 13.4282 5.4649 40.2589
#
#
#
# Elastic Compliance Matrix: (Units=1/GPa)
#
#
# Indices 1 2 3 4 5 6 
#
# 1 0.021124 -0.001837 -0.003598 0.005788 -0.010240 -0.004618
# 2 -0.001837 0.009078 -0.003456 -0.001492 0.004047 0.000781
# 3 -0.003598 -0.003456 0.012980 0.004548 -0.000512 -0.003541
# 4 0.005788 -0.001492 0.004548 0.030829 -0.003933 -0.012147
# 5 -0.010240 0.004047 -0.000512 -0.003933 0.031605 -0.000611
# 6 -0.004618 0.000781 -0.003541 -0.012147 -0.000611 0.030886
#
#
# Mechanical properties :
#
#
# Convention : Reuss Voigt Hill
#
# Bulk Modulus (GPa) = 39.36861 52.40663 45.88762
# Shear Modulus (GPa) = 30.72173 39.21198 34.96685
#
# Velocity S-wave (km/s) = 3.57489 4.03877 3.81389
# Velocity P-wave (km/s) = 5.78071 6.59919 6.20346
#
# Compressibility (1/GPa) = 0.02540095
#
# Stress axis : x y z
#
# Youngs Moduli (GPa) = 47.33895 110.15329 77.04033
#
# Poissons Ratio (x) = 0.20234 0.27721
# Poissons Ratio (y) = 0.08696 0.26623
# Poissons Ratio (z) = 0.17034 0.38066
#
# Static dielectric constant tensor:
#      x y z
#    x 2.109580 0.149530 -0.147730 
#    y 0.149530 2.049040 -0.091380 
#    z -0.147730 -0.091380 2.048360 
# 
# From -- ./inp_files/84985.got.cif
#   From: 2010.05.17/outbox.cif.g08.bks.cpg/sg2_43_cif.got.tgz:84985.got - 2010.06.03 11:33:40.
