data_PCOD9064576
_publ_section_title
;
Structure prediction by ZEFSAII (Michael W. Deem and Ramdas Pophale) SiO2 
 PCOD9064576
Probable space group: P -1
;
_chemical_formula_sum "Si O2"
_cell_formula_units_Z 15
_cell_length_a 17.464044
_cell_length_b 7.663863
_cell_length_c 13.370780
_cell_angle_alpha 53.216541
_cell_angle_beta 148.710750
_cell_angle_gamma 142.143678
_cell_volume 553.956228
_symmetry_space_group_name_H-M "P -1"
_symmetry_group_IT_number 2
_symmetry_cell_setting 'triclinic'
loop_
_space_group_symop_operation_xyz
x,y,z
-x,-y,-z
loop_
_atom_site_type_symbol
_atom_site_label
_atom_site_fract_x
_atom_site_fract_y
_atom_site_fract_z
Si Si1 0.563200 0.214998 0.585872
Si Si2 0.566421 0.060082 0.247615
Si Si3 0.500000 0.500000 0.000000
Si Si4 0.863667 0.491958 0.124232
Si Si5 0.271455 0.275095 0.973873
Si Si6 0.026226 0.870201 0.664862
Si Si7 0.950270 0.760196 0.915983
Si Si8 0.272583 0.217588 0.483441
O O1 0.798716 0.441362 0.801632
O O2 0.535923 0.440810 0.440595
O O3 0.500000 0.000000 0.500000
O O4 0.456441 0.032975 0.629673
O O5 0.983129 0.385474 0.294202
O O6 0.600928 0.346035 0.172096
O O7 0.357658 0.798476 0.053209
O O8 0.501000 0.521716 0.124040
O O9 0.828554 0.599303 0.147332
O O10 0.938362 0.697894 0.039686
O O11 0.234376 0.135061 0.866261
O O12 0.166493 0.003432 0.025018
O O13 0.290416 0.988823 0.615664
O O14 0.000000 0.000000 0.500000
O O15 0.867930 0.783630 0.600184
O O16 0.833694 0.863389 0.715263
#
# Coordination Sequence:
#
# PCOD9064576 Si02
#       8
#     2   2   1   2   2   2   2   2
#     4   9  20  41  73 109 143 189 240 306 371 429
#     4  11  24  46  69 108 150 190 246 306 363 440
#     4  12  28  46  72 104 152 198 260 284 372 450
#     4  11  24  46  81 102 146 192 244 317 368 441
#     4  11  25  48  71 108 140 201 241 305 368 436
#     4  11  26  48  66 103 144 190 245 293 363 442
#     4   8  21  46  72 109 146 179 251 306 373 426
#     4   9  22  45  72 104 148 188 236 311 366 428
#
# _framework density 27.077952
#
# number of rings (size 3 to 8) (size 9 to 14) (size 15 to 20)
#    0.800    1.067    1.333    0.800    1.867    7.467 
#    7.200    0.000    0.000    0.000    0.000    0.000 
#    0.000    0.000    0.000    0.000    0.000    0.000 
#
# Total GULP energy -83642.080953 kJ/mol
# GULP energy per Si atom -5576.138730 kJ/mol
# Density = 2.701632 g / cm^3
# Si number density = 27.077952 Si / 1000 Ang^3
#
#
#
# Elastic Constant Matrix: (Units=GPa)
#
#
# Indices 1 2 3 4 5 6 
#
# 1 211.3081 81.4431 42.3180 -21.7110 1.1666 -11.8834
# 2 81.4431 119.3537 20.4260 -18.1819 13.4682 -12.1503
# 3 42.3180 20.4260 72.5648 -0.6278 0.3061 -10.6244
# 4 -21.7110 -18.1819 -0.6278 50.5874 -19.1881 4.9527
# 5 1.1666 13.4682 0.3061 -19.1881 42.6254 -11.6005
# 6 -11.8834 -12.1503 -10.6244 4.9527 -11.6005 60.1915
#
#
#
# Elastic Compliance Matrix: (Units=1/GPa)
#
#
# Indices 1 2 3 4 5 6 
#
# 1 0.007228 -0.004298 -0.002952 0.002376 0.002330 0.000292
# 2 -0.004298 0.012043 -0.000744 0.001305 -0.002880 0.000789
# 3 -0.002952 -0.000744 0.016027 -0.001504 0.000135 0.002246
# 4 0.002376 0.001305 -0.001504 0.025401 0.011109 0.000518
# 5 0.002330 -0.002880 0.000135 0.011109 0.030638 0.004893
# 6 0.000292 0.000789 0.002246 0.000518 0.004893 0.018127
#
#
# Mechanical properties :
#
#
# Convention : Reuss Voigt Hill
#
# Bulk Modulus (GPa) = 51.78954 76.84455 64.31704
# Shear Modulus (GPa) = 37.91082 47.95016 42.93049
#
# Velocity S-wave (km/s) = 3.74580 4.21268 3.98608
# Velocity P-wave (km/s) = 6.15432 7.21823 6.70740
#
# Compressibility (1/GPa) = 0.01930892
#
# Stress axis : x y z
#
# Youngs Moduli (GPa) = 138.35338 83.03672 62.39502
#
# Poissons Ratio (x) = 0.35691 0.18417
# Poissons Ratio (y) = 0.59467 0.04645
# Poissons Ratio (z) = 0.40838 0.06181
#
# Static dielectric constant tensor:
#      x y z
#    x 2.249590 0.132120 0.052350 
#    y 0.132120 2.502820 0.165430 
#    z 0.052350 0.165430 2.293290 
# 
# From -- ./inp_files/442929.got.cif
#   From: 2010.05.17/outbox.cif.g08.bks.cpg/sg2_222_cif.got.tgz:442929.got - 2010.06.03 11:33:40.
