data_PCOD9064338
_publ_section_title
;
Structure prediction by ZEFSAII (Michael W. Deem and Ramdas Pophale) SiO2 
 PCOD9064338
Probable space group: P -1
;
_chemical_formula_sum "Si O2"
_cell_formula_units_Z 14
_cell_length_a 9.666740
_cell_length_b 19.835993
_cell_length_c 10.057755
_cell_angle_alpha 156.866663
_cell_angle_beta 124.602277
_cell_angle_gamma 54.578953
_cell_volume 613.766434
_symmetry_space_group_name_H-M "P -1"
_symmetry_group_IT_number 2
_symmetry_cell_setting 'triclinic'
loop_
_space_group_symop_operation_xyz
x,y,z
-x,-y,-z
loop_
_atom_site_type_symbol
_atom_site_label
_atom_site_fract_x
_atom_site_fract_y
_atom_site_fract_z
Si Si1 0.879093 0.853732 0.655479
Si Si2 0.475822 0.674022 0.662301
Si Si3 0.713575 0.830617 0.245238
Si Si4 0.192639 0.908965 0.449544
Si Si5 0.672501 0.029597 0.082810
Si Si6 0.855073 0.449009 0.658118
Si Si7 0.174685 0.564797 0.670912
O O1 0.757671 0.886229 0.518524
O O2 0.000393 0.664128 0.378528
O O3 0.767261 0.869928 0.757749
O O4 0.000000 0.000000 0.000000
O O5 0.375635 0.816705 0.769025
O O6 0.334979 0.555223 0.399038
O O7 0.652845 0.578890 0.518030
O O8 0.536727 0.766332 0.994607
O O9 0.719876 0.975581 0.398182
O O10 0.855766 0.650450 0.985662
O O11 0.228296 0.922334 0.648683
O O12 0.217730 0.710418 0.057237
O O13 0.000000 0.000000 0.500000
O O14 0.500000 0.000000 0.000000
O O15 0.864114 0.351444 0.344273
O O16 0.000000 0.500000 0.500000
#
# Coordination Sequence:
#
# PCOD9064338 Si02
#       7
#     2   2   2   2   2   2   2
#     4  12  25  45  72 104 140 188 235 292 357 419
#     4  11  25  48  71 104 146 180 239 298 351 417
#     4  11  24  45  74 102 138 189 237 290 352 426
#     4  12  25  45  73 105 143 187 237 287 360 422
#     4  12  27  46  69 107 149 183 234 301 349 418
#     4  11  24  46  73 105 143 179 241 297 349 419
#     4  11  25  45  75 104 142 188 234 289 360 424
#
# _framework density 22.809979999999999
#
# number of rings (size 3 to 8) (size 9 to 14) (size 15 to 20)
#    0.000    0.571    2.857    6.429    2.000    3.429 
#    2.571    0.000    0.000    0.000    0.000    0.000 
#    0.000    0.000    0.000    0.000    0.000    0.000 
#
# Total GULP energy -78184.340476 kJ/mol
# GULP energy per Si atom -5584.595748 kJ/mol
# Density = 2.275806 g / cm^3
# Si number density = 22.809980 Si / 1000 Ang^3
#
#
#
# Elastic Constant Matrix: (Units=GPa)
#
#
# Indices 1 2 3 4 5 6 
#
# 1 114.0770 16.6006 26.6738 7.3107 -8.9265 -11.3206
# 2 16.6006 165.5114 53.0200 -23.8567 -3.7452 -6.8128
# 3 26.6738 53.0200 108.3693 -12.4392 -17.9475 -1.7479
# 4 7.3107 -23.8567 -12.4392 46.6253 15.7169 -4.9914
# 5 -8.9265 -3.7452 -17.9475 15.7169 22.5068 5.5785
# 6 -11.3206 -6.8128 -1.7479 -4.9914 5.5785 35.4364
#
#
#
# Elastic Compliance Matrix: (Units=1/GPa)
#
#
# Indices 1 2 3 4 5 6 
#
# 1 0.010079 -0.000860 -0.001682 -0.003924 0.004843 0.001656
# 2 -0.000860 0.008370 -0.004370 0.006113 -0.007484 0.003158
# 3 -0.001682 -0.004370 0.013395 -0.002744 0.011942 -0.002983
# 4 -0.003924 0.006113 -0.002744 0.035560 -0.029915 0.009504
# 5 0.004843 -0.007484 0.011942 -0.029915 0.079493 -0.016030
# 6 0.001656 0.003158 -0.002983 0.009504 -0.016030 0.033071
#
#
# Mechanical properties :
#
#
# Convention : Reuss Voigt Hill
#
# Bulk Modulus (GPa) = 55.49534 64.50517 60.00026
# Shear Modulus (GPa) = 25.02524 40.35793 32.69158
#
# Velocity S-wave (km/s) = 3.31587 4.21088 3.78989
# Velocity P-wave (km/s) = 6.24838 7.20991 6.74630
#
# Compressibility (1/GPa) = 0.01801953
#
# Stress axis : x y z
#
# Youngs Moduli (GPa) = 99.21361 119.47735 74.65735
#
# Poissons Ratio (x) = 0.10276 0.12555
# Poissons Ratio (y) = 0.08534 0.32627
# Poissons Ratio (z) = 0.16685 0.52214
#
# Static dielectric constant tensor:
#      x y z
#    x 1.759120 -0.113760 -0.092760 
#    y -0.113760 1.596660 -0.169860 
#    z -0.092760 -0.169860 1.711540 
# 
# From -- ./inp_files/219069.got.cif
#   From: 2010.05.17/outbox.cif.g08.bks.cpg/sg2_110_cif.got.tgz:219069.got - 2010.06.03 11:33:40.
