data_PCOD9064153
_publ_section_title
;
Structure prediction by ZEFSAII (Michael W. Deem and Ramdas Pophale) SiO2 
 PCOD9064153
Probable space group: P -1
;
_chemical_formula_sum "Si O2"
_cell_formula_units_Z 14
_cell_length_a 11.893294
_cell_length_b 7.902297
_cell_length_c 19.086717
_cell_angle_alpha 132.262204
_cell_angle_beta 30.285553
_cell_angle_gamma 144.256286
_cell_volume 526.013791
_symmetry_space_group_name_H-M "P -1"
_symmetry_group_IT_number 2
_symmetry_cell_setting 'triclinic'
loop_
_space_group_symop_operation_xyz
x,y,z
-x,-y,-z
loop_
_atom_site_type_symbol
_atom_site_label
_atom_site_fract_x
_atom_site_fract_y
_atom_site_fract_z
Si Si1 0.889673 0.713916 0.933871
Si Si2 0.932171 0.609985 0.170007
Si Si3 0.544357 0.082970 0.126715
Si Si4 0.584990 0.791527 0.473731
Si Si5 0.693525 0.507945 0.832933
Si Si6 0.174601 0.585260 0.517717
Si Si7 0.000562 0.005285 0.417689
O O1 0.041581 0.578994 0.840031
O O2 0.890423 0.727430 0.851903
O O3 0.549115 0.483681 0.065169
O O4 0.000000 0.000000 0.000000
O O5 0.705497 0.370079 0.168625
O O6 0.815609 0.780822 0.305376
O O7 0.238191 0.819316 0.026212
O O8 0.227547 0.976216 0.254547
O O9 0.486710 0.815505 0.126377
O O10 0.300179 0.584637 0.525359
O O11 0.629572 0.093243 0.528621
O O12 0.680388 0.792481 0.501415
O O13 0.882208 0.517962 0.675513
O O14 0.125417 0.336147 0.427449
O O15 0.000000 0.000000 0.500000
#
# Coordination Sequence:
#
# PCOD9064153 Si02
#       7
#     2   2   2   2   2   2   2
#     4  11  25  44  68 105 142 183 229 289 353 412
#     4  11  25  45  74 102 143 184 231 297 355 414
#     4  11  24  45  71 108 140 180 238 290 352 423
#     4  11  27  47  72 101 144 190 235 291 359 413
#     4  11  25  43  70 103 140 181 237 283 348 424
#     4  11  26  48  69 105 141 188 238 289 350 429
#     4  12  25  46  72 103 143 185 240 292 348 426
#
# _framework density 26.615272999999998
#
# number of rings (size 3 to 8) (size 9 to 14) (size 15 to 20)
#    0.000    0.857    4.286    1.286    6.000    4.000 
#    0.000    0.000    0.000    0.000    0.000    0.000 
#    0.000    0.000    0.000    0.000    0.000    0.000 
#
# Total GULP energy -78376.123435 kJ/mol
# GULP energy per Si atom -5598.294531 kJ/mol
# Density = 2.655470 g / cm^3
# Si number density = 26.615273 Si / 1000 Ang^3
#
#
#
# Elastic Constant Matrix: (Units=GPa)
#
#
# Indices 1 2 3 4 5 6 
#
# 1 131.6026 27.2370 12.6139 -4.7213 -9.1393 23.3388
# 2 27.2370 137.3801 -3.5308 19.5407 -1.9805 22.0073
# 3 12.6139 -3.5308 106.3724 4.5300 -17.0910 2.3238
# 4 -4.7213 19.5407 4.5300 42.6305 0.1814 -6.3898
# 5 -9.1393 -1.9805 -17.0910 0.1814 40.7966 -6.7822
# 6 23.3388 22.0073 2.3238 -6.3898 -6.7822 32.3661
#
#
#
# Elastic Compliance Matrix: (Units=1/GPa)
#
#
# Indices 1 2 3 4 5 6 
#
# 1 0.008926 -0.001026 -0.000898 0.000744 0.000675 -0.005386
# 2 -0.001026 0.009385 0.000724 -0.005526 -0.000595 -0.006909
# 3 -0.000898 0.000724 0.010262 -0.001542 0.004137 -0.000019
# 4 0.000744 -0.005526 -0.001542 0.027568 0.000610 0.008902
# 5 0.000675 -0.000595 0.004137 0.000610 0.027271 0.005456
# 6 -0.005386 -0.006909 -0.000019 0.008902 0.005456 0.042380
#
#
# Mechanical properties :
#
#
# Convention : Reuss Voigt Hill
#
# Bulk Modulus (GPa) = 38.20786 49.77724 43.99255
# Shear Modulus (GPa) = 36.51827 45.76097 41.13962
#
# Velocity S-wave (km/s) = 3.70818 4.15100 3.93582
# Velocity P-wave (km/s) = 5.72022 6.45891 6.10076
#
# Compressibility (1/GPa) = 0.02617263
#
# Stress axis : x y z
#
# Youngs Moduli (GPa) = 112.03524 106.54988 97.44475
#
# Poissons Ratio (x) = 0.10933 0.08752
# Poissons Ratio (y) = 0.11495 -0.07053
# Poissons Ratio (z) = 0.10062 -0.07713
#
# Static dielectric constant tensor:
#      x y z
#    x 2.154970 -0.011140 0.009320 
#    y -0.011140 2.121910 0.010440 
#    z 0.009320 0.010440 2.004920 
# 
# From -- ./inp_files/567062.got.cif
#   From: 2010.05.17/outbox.cif.g08.bks.cpg/sg2_284_cif.got.tgz:567062.got - 2010.06.03 11:33:40.
