data_PCOD9064534
_publ_section_title
;
Structure prediction by ZEFSAII (Michael W. Deem and Ramdas Pophale) SiO2 
 PCOD9064534
Probable space group: P -1
;
_chemical_formula_sum "Si O2"
_cell_formula_units_Z 14
_cell_length_a 7.701464
_cell_length_b 17.178537
_cell_length_c 5.135442
_cell_angle_alpha 107.766035
_cell_angle_beta 122.437510
_cell_angle_gamma 59.680053
_cell_volume 494.431343
_symmetry_space_group_name_H-M "P -1"
_symmetry_group_IT_number 2
_symmetry_cell_setting 'triclinic'
loop_
_space_group_symop_operation_xyz
x,y,z
-x,-y,-z
loop_
_atom_site_type_symbol
_atom_site_label
_atom_site_fract_x
_atom_site_fract_y
_atom_site_fract_z
Si Si1 0.686377 0.749430 0.335572
Si Si2 0.069052 0.700752 0.152904
Si Si3 0.701762 0.206114 0.294024
Si Si4 0.328860 0.493130 0.135384
Si Si5 0.769433 0.578020 0.509797
Si Si6 0.859138 0.869971 0.758875
Si Si7 0.734494 0.022485 0.192083
O O1 0.747493 0.678377 0.545289
O O2 0.894749 0.713461 0.262852
O O3 0.651235 0.851742 0.466197
O O4 0.460273 0.752974 0.035095
O O5 0.287886 0.715298 0.446616
O O6 0.165814 0.597027 0.045626
O O7 0.962737 0.787101 0.963286
O O8 0.957034 0.152847 0.341799
O O9 0.630083 0.129794 0.262289
O O10 0.500000 0.500000 0.500000
O O11 0.232717 0.440959 0.205328
O O12 0.394089 0.439162 0.858435
O O13 0.000000 0.500000 0.500000
O O14 0.813972 0.965697 0.933063
O O15 0.000000 0.000000 0.500000
O O16 0.500000 0.000000 0.000000
#
# Coordination Sequence:
#
# PCOD9064534 Si02
#       7
#     2   2   2   2   2   2   2
#     4  11  26  43  72 105 146 197 256 320 394 475
#     4  11  24  46  68 104 147 193 251 319 391 474
#     4  11  26  46  74 108 145 195 257 316 395 476
#     4  12  27  44  73 104 152 199 264 327 401 477
#     4  12  25  47  71 108 149 206 261 329 402 478
#     4  11  26  45  75 105 148 194 253 319 394 474
#     4  12  27  51  81 114 158 204 257 319 405 482
#
# _framework density 28.315353999999999
#
# number of rings (size 3 to 8) (size 9 to 14) (size 15 to 20)
#    0.000    0.571    2.857    3.857   10.000    1.714 
#    0.000    0.000    0.000    0.000    0.000    0.000 
#    0.000    0.000    0.000    0.000    0.000    0.000 
#
# Total GULP energy -78072.787897 kJ/mol
# GULP energy per Si atom -5576.627707 kJ/mol
# Density = 2.825091 g / cm^3
# Si number density = 28.315354 Si / 1000 Ang^3
#
#
#
# Elastic Constant Matrix: (Units=GPa)
#
#
# Indices 1 2 3 4 5 6 
#
# 1 128.1691 19.2245 18.9811 17.4474 -6.6067 19.5980
# 2 19.2245 135.8414 33.5657 23.1318 1.4852 29.2115
# 3 18.9811 33.5657 141.7373 27.1675 19.5319 8.5456
# 4 17.4474 23.1318 27.1675 73.5099 5.2033 -6.6067
# 5 -6.6067 1.4852 19.5319 5.2033 54.5004 5.2599
# 6 19.5980 29.2115 8.5456 -6.6067 5.2599 35.3345
#
#
#
# Elastic Compliance Matrix: (Units=1/GPa)
#
#
# Indices 1 2 3 4 5 6 
#
# 1 0.009309 0.000735 -0.000793 -0.002891 0.002292 -0.006461
# 2 0.000735 0.010305 -0.001448 -0.003854 0.001616 -0.009538
# 3 -0.000793 -0.001448 0.008350 -0.002280 -0.002794 -0.000393
# 4 -0.002891 -0.003854 -0.002280 0.017278 -0.001933 0.008859
# 5 0.002292 0.001616 -0.002794 -0.001933 0.020281 -0.005312
# 6 -0.006461 -0.009538 -0.000393 0.008859 -0.005312 0.042311
#
#
# Mechanical properties :
#
#
# Convention : Reuss Voigt Hill
#
# Bulk Modulus (GPa) = 40.07654 61.03226 50.55440
# Shear Modulus (GPa) = 41.95959 54.93408 48.44683
#
# Velocity S-wave (km/s) = 3.85368 4.40941 4.14088
# Velocity P-wave (km/s) = 5.82971 6.89385 6.38399
#
# Compressibility (1/GPa) = 0.02495225
#
# Stress axis : x y z
#
# Youngs Moduli (GPa) = 107.42415 97.04252 119.76077
#
# Poissons Ratio (x) = -0.07133 0.09497
# Poissons Ratio (y) = -0.07896 0.17338
# Poissons Ratio (z) = 0.08518 0.14049
#
# Static dielectric constant tensor:
#      x y z
#    x 2.445890 0.043660 0.224860 
#    y 0.043660 2.211090 -0.060310 
#    z 0.224860 -0.060310 2.465030 
# 
# From -- ./inp_files/49200.got.cif
#   From: 2010.05.17/outbox.cif.g08.bks.cpg/sg2_25_cif.got.tgz:49200.got - 2010.06.03 11:33:40.
