data_PCOD9064599
_publ_section_title
;
Structure prediction by ZEFSAII (Michael W. Deem and Ramdas Pophale) SiO2 
 PCOD9064599
Probable space group: P -1
;
_chemical_formula_sum "Si O2"
_cell_formula_units_Z 14
_cell_length_a 14.717503
_cell_length_b 8.341761
_cell_length_c 12.062364
_cell_angle_alpha 32.803020
_cell_angle_beta 51.263818
_cell_angle_gamma 62.576742
_cell_volume 618.267322
_symmetry_space_group_name_H-M "P -1"
_symmetry_group_IT_number 2
_symmetry_cell_setting 'triclinic'
loop_
_space_group_symop_operation_xyz
x,y,z
-x,-y,-z
loop_
_atom_site_type_symbol
_atom_site_label
_atom_site_fract_x
_atom_site_fract_y
_atom_site_fract_z
Si Si1 0.663635 0.966132 0.404987
Si Si2 0.941473 0.849691 0.521484
Si Si3 0.465352 0.558711 0.868602
Si Si4 0.259398 0.744318 0.598902
Si Si5 0.368969 0.972364 0.165983
Si Si6 0.119790 0.862663 0.999262
Si Si7 0.173029 0.051081 0.092975
O O1 0.597597 0.151622 0.261425
O O2 0.660593 0.128502 0.432104
O O3 0.588685 0.639056 0.661796
O O4 0.795963 0.996793 0.245489
O O5 0.903485 0.497481 0.776505
O O6 0.833668 0.024986 0.475644
O O7 0.000000 0.000000 0.500000
O O8 0.043237 0.911212 0.315613
O O9 0.500000 0.500000 0.000000
O O10 0.377608 0.290433 0.038227
O O11 0.330511 0.742258 0.429902
O O12 0.193683 0.412763 0.869094
O O13 0.270187 0.949214 0.160053
O O14 0.500000 0.000000 0.000000
O O15 0.181582 0.953880 0.016255
O O16 0.000000 0.000000 0.000000
#
# Coordination Sequence:
#
# PCOD9064599 Si02
#       7
#     2   2   2   2   2   2   2
#     4  11  25  44  75 101 139 186 246 291 351 426
#     4  12  24  47  79 101 141 190 241 291 359 434
#     4  11  24  46  70 103 137 191 246 293 344 423
#     4  12  24  48  74 105 142 191 243 295 354 436
#     4  12  28  43  71 105 147 190 238 293 368 416
#     4  12  28  47  73 112 146 187 235 302 371 426
#     4  12  27  47  71 108 152 182 239 300 364 426
#
# _framework density 22.643927000000001
#
# number of rings (size 3 to 8) (size 9 to 14) (size 15 to 20)
#    0.000    0.286    4.286    4.286    4.000    0.571 
#    0.000    0.000    0.000    0.000    0.000    0.000 
#    0.000    0.000    0.000    0.000    0.000    0.000 
#
# Total GULP energy -78388.492533 kJ/mol
# GULP energy per Si atom -5599.178038 kJ/mol
# Density = 2.259239 g / cm^3
# Si number density = 22.643927 Si / 1000 Ang^3
#
#
#
# Elastic Constant Matrix: (Units=GPa)
#
#
# Indices 1 2 3 4 5 6 
#
# 1 135.4410 30.6189 18.0640 6.6069 15.1532 6.2547
# 2 30.6189 55.5151 11.0209 12.7524 1.6283 -6.4427
# 3 18.0640 11.0209 93.7444 18.4983 -11.3322 -15.8877
# 4 6.6069 12.7524 18.4983 51.4443 3.3342 -10.9372
# 5 15.1532 1.6283 -11.3322 3.3342 43.9469 3.9275
# 6 6.2547 -6.4427 -15.8877 -10.9372 3.9275 51.2953
#
#
#
# Elastic Compliance Matrix: (Units=1/GPa)
#
#
# Indices 1 2 3 4 5 6 
#
# 1 0.009218 -0.004941 -0.002058 0.000575 -0.003391 -0.002000
# 2 -0.004941 0.022020 -0.000288 -0.004294 0.000934 0.002292
# 3 -0.002058 -0.000288 0.012879 -0.003908 0.004064 0.003059
# 4 0.000575 -0.004294 -0.003908 0.022726 -0.003063 0.003260
# 5 -0.003391 0.000934 0.004064 -0.003063 0.025241 -0.000796
# 6 -0.002000 0.002292 0.003059 0.003260 -0.000796 0.021730
#
#
# Mechanical properties :
#
#
# Convention : Reuss Voigt Hill
#
# Bulk Modulus (GPa) = 33.84770 44.90089 39.37430
# Shear Modulus (GPa) = 36.17023 44.33707 40.25365
#
# Velocity S-wave (km/s) = 4.00102 4.42974 4.22083
# Velocity P-wave (km/s) = 6.02698 6.78496 6.41717
#
# Compressibility (1/GPa) = 0.02954410
#
# Stress axis : x y z
#
# Youngs Moduli (GPa) = 108.47963 45.41301 77.64771
#
# Poissons Ratio (x) = 0.22437 0.15979
# Poissons Ratio (y) = 0.53595 0.02237
# Poissons Ratio (z) = 0.22324 0.01308
#
# Static dielectric constant tensor:
#      x y z
#    x 1.891760 -0.054130 -0.060500 
#    y -0.054130 1.906710 0.071460 
#    z -0.060500 0.071460 1.912720 
# 
# From -- ./inp_files/48315.got.cif
#   From: 2010.05.17/outbox.cif.g08.bks.cpg/sg2_25_cif.got.tgz:48315.got - 2010.06.03 11:33:40.
