data_PCOD9064628
_publ_section_title
;
Structure prediction by ZEFSAII (Michael W. Deem and Ramdas Pophale) SiO2 
 PCOD9064628
Probable space group: P -1
;
_chemical_formula_sum "Si O2"
_cell_formula_units_Z 14
_cell_length_a 9.407394
_cell_length_b 5.213549
_cell_length_c 22.914138
_cell_angle_alpha 86.968057
_cell_angle_beta 32.593455
_cell_angle_gamma 74.302693
_cell_volume 548.599635
_symmetry_space_group_name_H-M "P -1"
_symmetry_group_IT_number 2
_symmetry_cell_setting 'triclinic'
loop_
_space_group_symop_operation_xyz
x,y,z
-x,-y,-z
loop_
_atom_site_type_symbol
_atom_site_label
_atom_site_fract_x
_atom_site_fract_y
_atom_site_fract_z
Si Si1 0.746476 0.957284 0.784265
Si Si2 0.611612 0.270214 0.159347
Si Si3 0.201194 0.306425 0.848778
Si Si4 0.994821 0.277908 0.619606
Si Si5 0.405333 0.300582 0.997177
Si Si6 0.682057 0.048945 0.587073
Si Si7 0.707427 0.552545 0.382219
O O1 0.876769 0.040029 0.680045
O O2 0.516385 0.825347 0.851811
O O3 0.581901 0.230861 0.876437
O O4 0.020732 0.732763 0.726334
O O5 0.737305 0.502436 0.125339
O O6 0.292514 0.440487 0.298762
O O7 0.836278 0.964662 0.109349
O O8 0.470905 0.139775 0.714291
O O9 0.931432 0.525927 0.903583
O O10 0.143998 0.294177 0.629194
O O11 0.220252 0.214257 0.489375
O O12 0.500000 0.500000 0.000000
O O13 0.500000 0.000000 0.000000
O O14 0.490873 0.291111 0.604716
O O15 0.000000 0.000000 0.500000
O O16 0.500000 0.500000 0.500000
#
# Coordination Sequence:
#
# PCOD9064628 Si02
#       7
#     2   2   2   2   2   2   2
#     4  11  25  48  77 102 151 193 256 312 372 462
#     4  11  24  48  72 109 149 192 253 300 385 448
#     4  12  27  47  73 112 151 197 247 315 380 446
#     4  11  24  46  70 111 148 201 250 306 382 455
#     4  12  30  51  76 108 147 198 255 313 382 452
#     4  12  24  44  71 109 155 193 249 314 376 442
#     4  11  25  42  74 107 148 203 253 308 378 459
#
# _framework density 25.519518000000001
#
# number of rings (size 3 to 8) (size 9 to 14) (size 15 to 20)
#    0.000    0.571    4.286    2.143    8.000    2.857 
#    0.000    0.000    0.000    0.000    0.000    0.000 
#    0.000    0.000    0.000    0.000    0.000    0.000 
#
# Total GULP energy -78207.356707 kJ/mol
# GULP energy per Si atom -5586.239765 kJ/mol
# Density = 2.546143 g / cm^3
# Si number density = 25.519518 Si / 1000 Ang^3
#
#
#
# Elastic Constant Matrix: (Units=GPa)
#
#
# Indices 1 2 3 4 5 6 
#
# 1 135.6779 58.3526 50.1310 8.1538 -22.7291 -7.5955
# 2 58.3526 139.6538 34.5891 18.7293 -11.9853 10.5261
# 3 50.1310 34.5891 141.1457 18.6141 -10.9740 10.8277
# 4 8.1538 18.7293 18.6141 44.7711 -7.0929 -6.6874
# 5 -22.7291 -11.9853 -10.9740 -7.0929 54.1846 21.0248
# 6 -7.5955 10.5261 10.8277 -6.6874 21.0248 43.8200
#
#
#
# Elastic Compliance Matrix: (Units=1/GPa)
#
#
# Indices 1 2 3 4 5 6 
#
# 1 0.010605 -0.003933 -0.003086 0.001748 0.002093 0.002808
# 2 -0.003933 0.009800 -0.000034 -0.003756 0.001740 -0.004436
# 3 -0.003086 -0.000034 0.009105 -0.003560 0.001677 -0.004124
# 4 0.001748 -0.003756 -0.003560 0.025998 0.000290 0.005913
# 5 0.002093 0.001740 0.001677 0.000290 0.024896 -0.012370
# 6 0.002808 -0.004436 -0.004124 0.005913 -0.012370 0.032230
#
#
# Mechanical properties :
#
#
# Convention : Reuss Voigt Hill
#
# Bulk Modulus (GPa) = 64.91627 78.06919 71.49273
# Shear Modulus (GPa) = 37.91489 46.78214 42.34851
#
# Velocity S-wave (km/s) = 3.85869 4.28622 4.07806
# Velocity P-wave (km/s) = 6.73392 7.42657 7.08871
#
# Compressibility (1/GPa) = 0.01540446
#
# Stress axis : x y z
#
# Youngs Moduli (GPa) = 94.29513 102.04263 109.82497
#
# Poissons Ratio (x) = 0.40137 0.33891
# Poissons Ratio (y) = 0.37090 0.00369
# Poissons Ratio (z) = 0.29099 0.00343
#
# Static dielectric constant tensor:
#      x y z
#    x 1.751830 0.010700 0.072530 
#    y 0.010700 2.089720 -0.035220 
#    z 0.072530 -0.035220 2.063220 
# 
# From -- ./inp_files/605667.got.cif
#   From: 2010.05.17/outbox.cif.g08.bks.cpg/sg2_303_cif.got.tgz:605667.got - 2010.06.03 11:33:40.
