data_PCOD9064280
_publ_section_title
;
Structure prediction by ZEFSAII (Michael W. Deem and Ramdas Pophale) SiO2 
 PCOD9064280
Probable space group: P -1
;
_chemical_formula_sum "Si O2"
_cell_formula_units_Z 16
_cell_length_a 16.084530
_cell_length_b 8.915537
_cell_length_c 10.151511
_cell_angle_alpha 109.325990
_cell_angle_beta 109.291046
_cell_angle_gamma 33.639707
_cell_volume 756.797488
_symmetry_space_group_name_H-M "P -1"
_symmetry_group_IT_number 2
_symmetry_cell_setting 'triclinic'
loop_
_space_group_symop_operation_xyz
x,y,z
-x,-y,-z
loop_
_atom_site_type_symbol
_atom_site_label
_atom_site_fract_x
_atom_site_fract_y
_atom_site_fract_z
Si Si1 0.064195 0.345505 0.127504
Si Si2 0.630322 0.883970 0.441356
Si Si3 0.090961 0.742629 0.883794
Si Si4 0.107064 0.928685 0.370036
Si Si5 0.568810 0.824538 0.117404
Si Si6 0.909280 0.375803 0.602470
Si Si7 0.410837 0.749380 0.119675
Si Si8 0.610233 0.278887 0.606443
O O1 0.074506 0.483655 0.269055
O O2 0.956701 0.366908 0.135910
O O3 0.228761 0.023205 0.101894
O O4 0.000000 0.500000 0.000000
O O5 0.597748 0.902744 0.276208
O O6 0.783738 0.581240 0.484761
O O7 0.500000 0.000000 0.500000
O O8 0.650961 0.039301 0.523210
O O9 0.269955 0.492572 0.920917
O O10 0.032956 0.862881 0.742014
O O11 0.000000 0.000000 0.000000
O O12 0.059579 0.091989 0.525615
O O13 0.142745 0.693771 0.352818
O O14 0.245556 0.817745 0.345164
O O15 0.460126 0.852376 0.131423
O O16 0.500000 0.000000 0.000000
O O17 0.458469 0.632977 0.258573
O O18 0.500000 0.500000 0.000000
O O19 0.500000 0.500000 0.500000
#
# Coordination Sequence:
#
# PCOD9064280 Si02
#       8
#     2   2   2   2   2   2   2   2
#     4  12  25  47  73 103 141 193 240 297 364 439
#     4  12  23  46  72 101 141 184 240 298 361 435
#     4  12  25  44  72 104 142 187 237 300 360 433
#     4  11  25  44  72 107 139 184 244 305 366 434
#     4  12  28  46  72 107 143 192 240 297 364 434
#     4  11  24  45  73 104 140 185 242 302 367 434
#     4  12  27  49  68 105 151 188 242 301 362 436
#     4  12  27  44  75 106 141 193 241 302 366 435
#
# _framework density 21.141718000000001
#
# number of rings (size 3 to 8) (size 9 to 14) (size 15 to 20)
#    0.000    0.250    5.000    3.000    3.500    3.000 
#    0.000    0.000    0.000    0.000    0.000    0.000 
#    0.000    0.000    0.000    0.000    0.000    0.000 
#
# Total GULP energy -89529.126161 kJ/mol
# GULP energy per Si atom -5595.570385 kJ/mol
# Density = 2.109360 g / cm^3
# Si number density = 21.141718 Si / 1000 Ang^3
#
#
#
# Elastic Constant Matrix: (Units=GPa)
#
#
# Indices 1 2 3 4 5 6 
#
# 1 98.2738 7.2353 15.3679 -8.5488 -13.5670 20.1952
# 2 7.2353 82.2553 34.2818 -20.3658 -12.1584 11.5703
# 3 15.3679 34.2818 147.9259 -9.0996 -15.2343 20.1257
# 4 -8.5488 -20.3658 -9.0996 50.7718 8.8221 -2.0901
# 5 -13.5670 -12.1584 -15.2343 8.8221 29.8499 -2.0394
# 6 20.1952 11.5703 20.1257 -2.0901 -2.0394 40.4209
#
#
#
# Elastic Compliance Matrix: (Units=1/GPa)
#
#
# Indices 1 2 3 4 5 6 
#
# 1 0.012157 0.000850 -0.000048 0.001253 0.005069 -0.005973
# 2 0.000850 0.015379 -0.002541 0.005097 0.003635 -0.003115
# 3 -0.000048 -0.002541 0.008066 -0.000216 0.002910 -0.003129
# 4 0.001253 0.005097 -0.000216 0.022603 -0.004215 -0.001021
# 5 0.005069 0.003635 0.002910 -0.004215 0.039795 -0.003232
# 6 -0.005973 -0.003115 -0.003129 -0.001021 -0.003232 0.029957
#
#
# Mechanical properties :
#
#
# Convention : Reuss Voigt Hill
#
# Bulk Modulus (GPa) = 31.12941 49.13611 40.13276
# Shear Modulus (GPa) = 35.17600 42.31320 38.74460
#
# Velocity S-wave (km/s) = 4.08342 4.47856 4.28555
# Velocity P-wave (km/s) = 6.08182 7.07355 6.59635
#
# Compressibility (1/GPa) = 0.03212396
#
# Stress axis : x y z
#
# Youngs Moduli (GPa) = 82.25934 65.02492 123.97604
#
# Poissons Ratio (x) = -0.05529 0.00600
# Poissons Ratio (y) = -0.06995 0.31499
# Poissons Ratio (z) = 0.00398 0.16521
#
# Static dielectric constant tensor:
#      x y z
#    x 1.728010 -0.034730 -0.001410 
#    y -0.034730 1.739370 0.001440 
#    z -0.001410 0.001440 1.775480 
# 
# From -- ./inp_files/299301.got.cif
#   From: 2010.05.17/outbox.cif.g08.bks.cpg/sg2_150_cif.got.tgz:299301.got - 2010.06.03 11:33:40.
