data_PCOD9064163
_publ_section_title
;
Structure prediction by ZEFSAII (Michael W. Deem and Ramdas Pophale) SiO2 
 PCOD9064163
Probable space group: P -1
;
_chemical_formula_sum "Si O2"
_cell_formula_units_Z 16
_cell_length_a 12.333513
_cell_length_b 21.570964
_cell_length_c 13.901487
_cell_angle_alpha 154.529276
_cell_angle_beta 34.748735
_cell_angle_gamma 155.304549
_cell_volume 664.486182
_symmetry_space_group_name_H-M "P -1"
_symmetry_group_IT_number 2
_symmetry_cell_setting 'triclinic'
loop_
_space_group_symop_operation_xyz
x,y,z
-x,-y,-z
loop_
_atom_site_type_symbol
_atom_site_label
_atom_site_fract_x
_atom_site_fract_y
_atom_site_fract_z
Si Si1 0.190781 0.288325 0.581764
Si Si2 0.432687 0.037369 0.701216
Si Si3 0.060009 0.134237 0.264583
Si Si4 0.252584 0.538596 0.600395
Si Si5 0.372402 0.676952 0.904626
Si Si6 0.955463 0.612559 0.798474
Si Si7 0.353723 0.796856 0.605616
Si Si8 0.083656 0.876082 0.256798
O O1 0.010789 0.123592 0.400378
O O2 0.450850 0.328382 0.462376
O O3 0.296435 0.481075 0.719428
O O4 0.064021 0.264525 0.740154
O O5 0.364804 0.887225 0.622911
O O6 0.207615 0.035672 0.832008
O O7 0.500000 0.000000 0.500000
O O8 0.675459 0.243635 0.860795
O O9 0.139898 0.327348 0.423937
O O10 0.315226 0.166829 0.120141
O O11 0.250998 0.638071 0.835671
O O12 0.097901 0.544447 0.642415
O O13 0.686532 0.395788 0.658074
O O14 0.116236 0.733000 0.754503
O O15 0.991375 0.752324 0.051049
O O16 0.610585 0.964047 0.715314
O O17 0.000000 0.000000 0.500000
#
# Coordination Sequence:
#
# PCOD9064163 Si02
#       8
#     2   2   2   2   2   2   2   2
#     4   9  20  38  63  94 125 162 209 260 315 376
#     4  12  23  36  58  94 132 158 206 263 314 370
#     4   9  18  36  58  89 125 163 204 250 305 376
#     4   9  17  39  66  88 118 168 213 247 309 377
#     4   9  20  35  62  90 124 168 208 248 310 383
#     4  11  24  45  71  90 131 171 216 265 316 384
#     4  11  26  45  65  98 125 173 222 257 316 390
#     4  12  26  44  67  95 128 165 215 272 330 376
#
# _framework density 24.078755999999998
#
# number of rings (size 3 to 8) (size 9 to 14) (size 15 to 20)
#    0.000    1.750    1.250    4.500    1.750    2.500 
#    0.000    4.375    0.000    0.000    0.000    0.000 
#    0.000    0.000    0.000    0.000    0.000    0.000 
#
# Total GULP energy -89322.283962 kJ/mol
# GULP energy per Si atom -5582.642748 kJ/mol
# Density = 2.402395 g / cm^3
# Si number density = 24.078756 Si / 1000 Ang^3
#
#
#
# Elastic Constant Matrix: (Units=GPa)
#
#
# Indices 1 2 3 4 5 6 
#
# 1 54.5446 3.9916 15.3696 -6.1564 16.4402 -10.4583
# 2 3.9916 35.9610 12.8766 -2.5932 9.7277 -4.1367
# 3 15.3696 12.8766 121.3758 -2.0531 42.0717 -3.6512
# 4 -6.1564 -2.5932 -2.0531 33.4339 -1.8601 9.6669
# 5 16.4402 9.7277 42.0717 -1.8601 48.8759 -4.8916
# 6 -10.4583 -4.1367 -3.6512 9.6669 -4.8916 31.1396
#
#
#
# Elastic Compliance Matrix: (Units=1/GPa)
#
#
# Indices 1 2 3 4 5 6 
#
# 1 0.021646 0.000243 -0.000349 0.001998 -0.006389 0.005638
# 2 0.000243 0.029938 -0.001599 0.001214 -0.004336 0.002813
# 3 -0.000349 -0.001599 0.011836 0.000146 -0.009800 -0.000526
# 4 0.001998 0.001214 0.000146 0.033099 -0.000734 -0.009541
# 5 -0.006389 -0.004336 -0.009800 -0.000734 0.032019 0.001387
# 6 0.005638 0.002813 -0.000526 -0.009541 0.001387 0.037499
#
#
# Mechanical properties :
#
#
# Convention : Reuss Voigt Hill
#
# Bulk Modulus (GPa) = 16.66360 30.70635 23.68498
# Shear Modulus (GPa) = 26.39244 34.66613 30.52928
#
# Velocity S-wave (km/s) = 3.31431 3.79845 3.56461
# Velocity P-wave (km/s) = 4.64561 5.65843 5.17685
#
# Compressibility (1/GPa) = 0.06001105
#
# Stress axis : x y z
#
# Youngs Moduli (GPa) = 46.19750 33.40290 84.48657
#
# Poissons Ratio (x) = -0.00812 0.02948
# Poissons Ratio (y) = -0.01123 0.13506
# Poissons Ratio (z) = 0.01612 0.05340
#
# Static dielectric constant tensor:
#      x y z
#    x 1.921440 0.030040 -0.024030 
#    y 0.030040 1.979580 0.013320 
#    z -0.024030 0.013320 2.047510 
# 
# From -- ./inp_files/425945.got.cif
#   From: 2010.05.17/outbox.cif.g08.bks.cpg/sg2_213_cif.got.tgz:425945.got - 2010.06.03 11:33:40.
