data_PCOD9064188
_publ_section_title
;
Structure prediction by ZEFSAII (Michael W. Deem and Ramdas Pophale) SiO2 
 PCOD9064188
Probable space group: P -1
;
_chemical_formula_sum "Si O2"
_cell_formula_units_Z 16
_cell_length_a 13.897052
_cell_length_b 8.855572
_cell_length_c 9.257017
_cell_angle_alpha 109.088243
_cell_angle_beta 106.197402
_cell_angle_gamma 44.124522
_cell_volume 747.848878
_symmetry_space_group_name_H-M "P -1"
_symmetry_group_IT_number 2
_symmetry_cell_setting 'triclinic'
loop_
_space_group_symop_operation_xyz
x,y,z
-x,-y,-z
loop_
_atom_site_type_symbol
_atom_site_label
_atom_site_fract_x
_atom_site_fract_y
_atom_site_fract_z
Si Si1 0.437933 0.017965 0.323613
Si Si2 0.634670 0.399399 0.436928
Si Si3 0.582099 0.545681 0.139145
Si Si4 0.909919 0.934293 0.438631
Si Si5 0.038829 0.509856 0.177929
Si Si6 0.157880 0.133925 0.300043
Si Si7 0.705518 0.566442 0.752589
Si Si8 0.165012 0.797597 0.047807
O O1 0.293620 0.095574 0.345257
O O2 0.433860 0.179765 0.266553
O O3 0.500000 0.000000 0.500000
O O4 0.516456 0.794788 0.193030
O O5 0.500000 0.500000 0.500000
O O6 0.580425 0.504490 0.292407
O O7 0.712646 0.450672 0.576383
O O8 0.752339 0.138687 0.390714
O O9 0.500000 0.500000 0.000000
O O10 0.741770 0.360523 0.096586
O O11 0.897982 0.870714 0.573042
O O12 0.968515 0.742227 0.289918
O O13 0.000000 0.000000 0.500000
O O14 0.036385 0.366408 0.243040
O O15 0.195334 0.392471 0.188758
O O16 0.000000 0.500000 0.000000
O O17 0.199888 0.936485 0.159311
O O18 0.767844 0.388723 0.853519
O O19 0.000000 0.000000 0.000000
#
# Coordination Sequence:
#
# PCOD9064188 Si02
#       8
#     2   2   2   2   2   2   2   2
#     4  11  24  47  75 105 148 198 250 306 367 443
#     4  12  25  44  76 106 144 192 252 306 363 443
#     4  12  26  46  74 108 145 197 247 306 380 434
#     4  12  25  45  76 105 140 198 254 296 369 453
#     4  11  25  45  68 107 150 187 239 312 372 431
#     4  11  24  45  72 101 154 190 244 310 363 443
#     4  11  24  46  72 103 151 193 247 305 362 445
#     4  12  26  45  73 111 152 193 245 313 375 438
#
# _framework density 21.394697000000001
#
# number of rings (size 3 to 8) (size 9 to 14) (size 15 to 20)
#    0.000    0.500    5.000    2.625    5.250    0.500 
#    4.500    0.000    0.000    0.000    0.000    0.000 
#    0.000    0.000    0.000    0.000    0.000    0.000 
#
# Total GULP energy -89095.409198 kJ/mol
# GULP energy per Si atom -5568.463075 kJ/mol
# Density = 2.134600 g / cm^3
# Si number density = 21.394697 Si / 1000 Ang^3
#
#
#
# Elastic Constant Matrix: (Units=GPa)
#
#
# Indices 1 2 3 4 5 6 
#
# 1 75.8839 30.6384 37.9307 -10.8769 6.6682 2.9053
# 2 30.6384 146.4105 39.2115 1.6006 -4.5593 18.5432
# 3 37.9307 39.2115 99.9378 7.3735 9.2287 6.7190
# 4 -10.8769 1.6006 7.3735 39.3068 -2.3417 -3.4264
# 5 6.6682 -4.5593 9.2287 -2.3417 28.0307 1.7183
# 6 2.9053 18.5432 6.7190 -3.4264 1.7183 37.2161
#
#
#
# Elastic Compliance Matrix: (Units=1/GPa)
#
#
# Indices 1 2 3 4 5 6 
#
# 1 0.018435 -0.002495 -0.006394 0.006412 -0.002252 0.001653
# 2 -0.002495 0.008576 -0.002375 -0.000755 0.002944 -0.003855
# 3 -0.006394 -0.002375 0.014138 -0.004651 -0.003840 -0.001121
# 4 0.006412 -0.000755 -0.004651 0.028525 0.002067 0.003246
# 5 -0.002252 0.002944 -0.003840 0.002067 0.038260 -0.002174
# 6 0.001653 -0.003855 -0.001121 0.003246 -0.002174 0.029264
#
#
# Mechanical properties :
#
#
# Convention : Reuss Voigt Hill
#
# Bulk Modulus (GPa) = 53.70214 59.75483 56.72848
# Shear Modulus (GPa) = 30.13250 35.20749 32.66999
#
# Velocity S-wave (km/s) = 3.75695 4.06102 3.91194
# Velocity P-wave (km/s) = 6.63134 7.06962 6.85399
#
# Compressibility (1/GPa) = 0.01862123
#
# Stress axis : x y z
#
# Youngs Moduli (GPa) = 54.24376 116.59797 70.73037
#
# Poissons Ratio (x) = 0.29089 0.45228
# Poissons Ratio (y) = 0.13533 0.16799
# Poissons Ratio (z) = 0.34686 0.27693
#
# Static dielectric constant tensor:
#      x y z
#    x 1.801630 0.009040 -0.017600 
#    y 0.009040 1.907070 -0.032070 
#    z -0.017600 -0.032070 1.718180 
# 
# From -- ./inp_files/299295.got.cif
#   From: 2010.05.17/outbox.cif.g08.bks.cpg/sg2_150_cif.got.tgz:299295.got - 2010.06.03 11:33:40.
