data_PCOD9064413
_publ_section_title
;
Structure prediction by ZEFSAII (Michael W. Deem and Ramdas Pophale) SiO2 
 PCOD9064413
Probable space group: P -1
;
_chemical_formula_sum "Si O2"
_cell_formula_units_Z 14
_cell_length_a 9.260286
_cell_length_b 14.164606
_cell_length_c 15.254746
_cell_angle_alpha 149.264662
_cell_angle_beta 140.005494
_cell_angle_gamma 43.431509
_cell_volume 643.145043
_symmetry_space_group_name_H-M "P -1"
_symmetry_group_IT_number 2
_symmetry_cell_setting 'triclinic'
loop_
_space_group_symop_operation_xyz
x,y,z
-x,-y,-z
loop_
_atom_site_type_symbol
_atom_site_label
_atom_site_fract_x
_atom_site_fract_y
_atom_site_fract_z
Si Si1 0.485414 0.237674 0.056052
Si Si2 0.429912 0.069760 0.425252
Si Si3 0.504448 0.549663 0.178865
Si Si4 0.737200 0.016186 0.364599
Si Si5 0.885672 0.443094 0.127094
Si Si6 0.965885 0.974640 0.068107
Si Si7 0.662602 0.439726 0.610138
O O1 0.546394 0.355376 0.095186
O O2 0.396669 0.394473 0.212801
O O3 0.717365 0.092343 0.074022
O O4 0.301892 0.119797 0.841697
O O5 0.459565 0.284410 0.608843
O O6 0.594714 0.966703 0.342986
O O7 0.500000 0.000000 0.500000
O O8 0.173009 0.048581 0.269673
O O9 0.688804 0.539371 0.179244
O O10 0.251374 0.588654 0.050030
O O11 0.639102 0.233148 0.465465
O O12 0.000000 0.000000 0.500000
O O13 0.073252 0.566921 0.297333
O O14 0.006397 0.242989 0.065171
O O15 0.000000 0.000000 0.000000
O O16 0.500000 0.500000 0.500000
#
# Coordination Sequence:
#
# PCOD9064413 Si02
#       7
#     2   2   2   2   2   2   2
#     4  12  27  49  74 104 146 195 240 304 365 424
#     4  12  26  45  75 112 143 187 252 300 357 433
#     4  11  24  45  75 103 140 186 245 304 355 423
#     4  12  28  48  75 107 149 191 242 298 367 439
#     4  11  25  45  71 105 141 188 243 297 362 430
#     4  12  24  45  74 103 142 186 243 301 356 420
#     4  12  30  48  69 107 150 191 242 294 370 442
#
# _framework density 21.768027
#
# number of rings (size 3 to 8) (size 9 to 14) (size 15 to 20)
#    0.000    0.286    5.714    1.714    8.000    4.000 
#    0.000    0.000    0.000    0.000    0.000    0.000 
#    0.000    0.000    0.000    0.000    0.000    0.000 
#
# Total GULP energy -78398.560663 kJ/mol
# GULP energy per Si atom -5599.897190 kJ/mol
# Density = 2.171848 g / cm^3
# Si number density = 21.768027 Si / 1000 Ang^3
#
#
#
# Elastic Constant Matrix: (Units=GPa)
#
#
# Indices 1 2 3 4 5 6 
#
# 1 66.5394 14.0451 27.2762 -13.1555 0.1759 1.5996
# 2 14.0451 91.3647 22.4944 -8.7334 -5.6125 7.0969
# 3 27.2762 22.4944 148.4502 -11.9653 -9.6057 0.0251
# 4 -13.1555 -8.7334 -11.9653 43.6007 -5.0923 7.8055
# 5 0.1759 -5.6125 -9.6057 -5.0923 31.7445 -0.9874
# 6 1.5996 7.0969 0.0251 7.8055 -0.9874 33.8003
#
#
#
# Elastic Compliance Matrix: (Units=1/GPa)
#
#
# Indices 1 2 3 4 5 6 
#
# 1 0.017339 -0.001505 -0.002633 0.004425 -0.000497 -0.001539
# 2 -0.001505 0.012063 -0.001224 0.002396 0.002063 -0.002954
# 3 -0.002633 -0.001224 0.007662 0.001310 0.002331 0.000142
# 4 0.004425 0.002396 0.001310 0.026896 0.004899 -0.006782
# 5 -0.000497 0.002063 0.002331 0.004899 0.033343 -0.000569
# 6 -0.001539 -0.002954 0.000142 -0.006782 -0.000569 0.031828
#
#
# Mechanical properties :
#
#
# Convention : Reuss Voigt Hill
#
# Bulk Modulus (GPa) = 37.96623 48.22062 43.09342
# Shear Modulus (GPa) = 33.63937 37.99833 35.81885
#
# Velocity S-wave (km/s) = 3.93537 4.18257 4.06085
# Velocity P-wave (km/s) = 6.17484 6.74725 6.46738
#
# Compressibility (1/GPa) = 0.02633920
#
# Stress axis : x y z
#
# Youngs Moduli (GPa) = 57.67367 82.89714 130.51500
#
# Poissons Ratio (x) = 0.12478 0.34365
# Poissons Ratio (y) = 0.08681 0.15978
# Poissons Ratio (z) = 0.15186 0.10148
#
# Static dielectric constant tensor:
#      x y z
#    x 1.817620 -0.016000 -0.013540 
#    y -0.016000 1.844770 0.011820 
#    z -0.013540 0.011820 1.776050 
# 
# From -- ./inp_files/157244.got.cif
#   From: 2010.05.17/outbox.cif.g08.bks.cpg/sg2_79_cif.got.tgz:157244.got - 2010.06.03 11:33:40.
