data_PCOD9064013
_publ_section_title
;
Structure prediction by ZEFSAII (Michael W. Deem and Ramdas Pophale) SiO2 
 PCOD9064013
Probable space group: P -1
;
_chemical_formula_sum "Si O2"
_cell_formula_units_Z 14
_cell_length_a 5.356930
_cell_length_b 11.098759
_cell_length_c 11.300305
_cell_angle_alpha 118.789602
_cell_angle_beta 71.606089
_cell_angle_gamma 102.161434
_cell_volume 557.339992
_symmetry_space_group_name_H-M "P -1"
_symmetry_group_IT_number 2
_symmetry_cell_setting 'triclinic'
loop_
_space_group_symop_operation_xyz
x,y,z
-x,-y,-z
loop_
_atom_site_type_symbol
_atom_site_label
_atom_site_fract_x
_atom_site_fract_y
_atom_site_fract_z
Si Si1 0.293542 0.469559 0.909110
Si Si2 0.911870 0.520492 0.296905
Si Si3 0.617664 0.263829 0.667826
Si Si4 0.533011 0.700510 0.555048
Si Si5 0.942547 0.232959 0.178596
Si Si6 0.781836 0.032105 0.906350
Si Si7 0.762935 0.004840 0.627686
O O1 0.290397 0.528140 0.802071
O O2 0.362285 0.317159 0.793323
O O3 0.500000 0.500000 0.000000
O O4 0.000000 0.500000 0.000000
O O5 0.736280 0.579884 0.457513
O O6 0.080409 0.387545 0.230837
O O7 0.115286 0.648788 0.287982
O O8 0.622891 0.302230 0.547155
O O9 0.588487 0.104626 0.627542
O O10 0.331593 0.726496 0.702383
O O11 0.692735 0.846693 0.590063
O O12 0.066371 0.109159 0.172741
O O13 0.915179 0.160453 0.020792
O O14 0.774820 0.069763 0.787918
O O15 0.500000 0.000000 0.000000
O O16 0.000000 0.000000 0.500000
#
# Coordination Sequence:
#
# PCOD9064013 Si02
#       7
#     2   2   2   2   2   2   2
#     4  11  24  45  69 105 156 201 250 311 389 465
#     4  11  25  45  74 112 150 196 254 320 396 462
#     4  11  25  43  72 112 148 203 253 322 395 458
#     4  11  24  47  71 111 146 198 260 316 394 462
#     4  11  26  47  75 107 149 198 257 315 389 474
#     4  11  26  48  73 107 149 204 254 316 387 461
#     4  12  24  47  78 107 154 198 263 322 387 468
#
# _framework density 25.119318
#
# number of rings (size 3 to 8) (size 9 to 14) (size 15 to 20)
#    0.000    0.857    4.286    1.714    2.000    4.000 
#    0.000    0.000    0.000    0.000    0.000    0.000 
#    0.000    0.000    0.000    0.000    0.000    0.000 
#
# Total GULP energy -78044.916840 kJ/mol
# GULP energy per Si atom -5574.636917 kJ/mol
# Density = 2.506215 g / cm^3
# Si number density = 25.119318 Si / 1000 Ang^3
#
#
#
# Elastic Constant Matrix: (Units=GPa)
#
#
# Indices 1 2 3 4 5 6 
#
# 1 93.6388 13.4468 73.7801 5.9900 -2.4946 -6.1899
# 2 13.4468 79.8578 76.1716 28.0341 -1.6316 -15.6503
# 3 73.7801 76.1716 140.5825 6.9142 -32.6850 -9.5353
# 4 5.9900 28.0341 6.9142 48.4624 -9.9396 -21.1227
# 5 -2.4946 -1.6316 -32.6850 -9.9396 47.4211 11.2918
# 6 -6.1899 -15.6503 -9.5353 -21.1227 11.2918 31.8181
#
#
#
# Elastic Compliance Matrix: (Units=1/GPa)
#
#
# Indices 1 2 3 4 5 6 
#
# 1 -0.027277 -0.064617 0.057531 0.036922 0.046558 -0.011860
# 2 -0.064617 -0.087279 0.094615 0.051905 0.074221 -0.019028
# 3 0.057531 0.094615 -0.086467 -0.055088 -0.069613 0.019952
# 4 0.036922 0.051905 -0.055088 -0.001597 -0.041706 0.029945
# 5 0.046558 0.074221 -0.069613 -0.041706 -0.032683 0.008615
# 6 -0.011860 -0.019028 0.019952 0.029945 0.008615 0.042563
#
#
# Mechanical properties :
#
#
# Convention : Reuss Voigt Hill
#
# Bulk Modulus (GPa) = -38.51375 71.20846 16.34735
# Shear Modulus (GPa) = -13.28190 35.58569 11.15189
#
# Velocity S-wave (km/s) = -2.30196 3.76795 2.10931
# Velocity P-wave (km/s) = 4.73613 6.88037 3.52906
#
# Compressibility (1/GPa) = -0.02596475
#
# Stress axis : x y z
#
# Youngs Moduli (GPa) = -36.66128 -11.45755 -11.56512
#
# Poissons Ratio (x) = -0.74035 0.66535
# Poissons Ratio (y) = -2.36892 1.09423
# Poissons Ratio (z) = 2.10914 1.08405
#
# Static dielectric constant tensor:
#      x y z
#    x 2.091470 0.060490 0.070840 
#    y 0.060490 1.894280 0.116190 
#    z 0.070840 0.116190 1.875520 
# 
# From -- ./inp_files/93483.got.cif
#   From: 2010.05.17/outbox.cif.g08.bks.cpg/sg2_47_cif.got.tgz:93483.got - 2010.06.03 11:33:40.
