data_PCOD9064617
_publ_section_title
;
Structure prediction by ZEFSAII (Michael W. Deem and Ramdas Pophale) SiO2 
 PCOD9064617
Probable space group: P -1
;
_chemical_formula_sum "Si O2"
_cell_formula_units_Z 16
_cell_length_a 6.570262
_cell_length_b 5.641528
_cell_length_c 20.236502
_cell_angle_alpha 86.377308
_cell_angle_beta 65.776461
_cell_angle_gamma 72.335803
_cell_volume 650.171562
_symmetry_space_group_name_H-M "P -1"
_symmetry_group_IT_number 2
_symmetry_cell_setting 'triclinic'
loop_
_space_group_symop_operation_xyz
x,y,z
-x,-y,-z
loop_
_atom_site_type_symbol
_atom_site_label
_atom_site_fract_x
_atom_site_fract_y
_atom_site_fract_z
Si Si1 0.663412 0.662304 0.454933
Si Si2 0.101500 0.811261 0.235666
Si Si3 0.061525 0.428822 0.856329
Si Si4 0.414851 0.271061 0.041405
Si Si5 0.751014 0.977901 0.560593
Si Si6 0.814836 0.600423 0.659510
Si Si7 0.537053 0.016473 0.163183
Si Si8 0.682735 0.260601 0.269117
O O1 0.500000 0.500000 0.500000
O O2 0.698091 0.798607 0.514914
O O3 0.929113 0.532667 0.401378
O O4 0.501505 0.814663 0.414833
O O5 0.162532 0.554547 0.272943
O O6 0.308387 0.932977 0.206001
O O7 0.062357 0.736044 0.167445
O O8 0.870887 0.034340 0.285332
O O9 0.256464 0.234618 0.876620
O O10 0.187229 0.558180 0.783811
O O11 0.867437 0.630876 0.919352
O O12 0.499844 0.214108 0.106598
O O13 0.500000 0.500000 0.000000
O O14 0.500000 0.000000 0.000000
O O15 0.790181 0.880838 0.632341
O O16 0.000000 0.000000 0.500000
O O17 0.561271 0.591158 0.666288
O O18 0.596838 0.129896 0.220877
#
# Coordination Sequence:
#
# PCOD9064617 Si02
#       8
#     2   2   2   2   2   2   2   2
#     4  11  25  47  67  95 139 184 224 294 355 418
#     4  11  24  46  70 105 140 186 232 299 360 425
#     4  11  25  48  74 102 149 187 235 297 367 417
#     4  12  28  47  76 112 147 197 250 296 357 446
#     4  11  25  47  67  96 136 184 231 290 357 422
#     4  12  24  43  72 101 135 181 240 285 358 438
#     4  11  25  48  75 100 152 187 230 301 366 415
#     4  11  25  44  72 105 135 186 232 294 360 424
#
# _framework density 24.608891
#
# number of rings (size 3 to 8) (size 9 to 14) (size 15 to 20)
#    0.000    0.750    3.750    2.625    3.500    3.000 
#    0.000    0.000    0.000    0.000    0.000    0.000 
#    0.000    0.000    0.000    0.000    0.000    0.000 
#
# Total GULP energy -89337.763590 kJ/mol
# GULP energy per Si atom -5583.610224 kJ/mol
# Density = 2.455288 g / cm^3
# Si number density = 24.608891 Si / 1000 Ang^3
#
#
#
# Elastic Constant Matrix: (Units=GPa)
#
#
# Indices 1 2 3 4 5 6 
#
# 1 145.5966 71.0547 52.7669 5.9982 -21.6122 -14.3771
# 2 71.0547 105.6980 50.8495 -7.8953 -14.3247 -30.0738
# 3 52.7669 50.8495 91.6470 -27.5258 -8.5485 -25.3904
# 4 5.9982 -7.8953 -27.5258 44.6206 -8.4132 -6.6867
# 5 -21.6122 -14.3247 -8.5485 -8.4132 35.0344 7.6869
# 6 -14.3771 -30.0738 -25.3904 -6.6867 7.6869 77.5277
#
#
#
# Elastic Compliance Matrix: (Units=1/GPa)
#
#
# Indices 1 2 3 4 5 6 
#
# 1 0.012715 -0.006520 -0.006326 -0.006719 0.002699 -0.003090
# 2 -0.006520 0.017291 -0.003659 0.002678 0.001844 0.004348
# 3 -0.006326 -0.003659 0.023390 0.016088 0.002817 0.006176
# 4 -0.006719 0.002678 0.016088 0.036326 0.007974 0.007404
# 5 0.002699 0.001844 0.002817 0.007974 0.033677 -0.000513
# 6 -0.003090 0.004348 0.006176 0.007404 -0.000513 0.016724
#
#
# Mechanical properties :
#
#
# Convention : Reuss Voigt Hill
#
# Bulk Modulus (GPa) = 49.05171 76.92041 62.98606
# Shear Modulus (GPa) = 27.78883 42.65456 35.22170
#
# Velocity S-wave (km/s) = 3.36403 4.16781 3.78730
# Velocity P-wave (km/s) = 5.92155 7.38145 6.69143
#
# Compressibility (1/GPa) = 0.02038665
#
# Stress axis : x y z
#
# Youngs Moduli (GPa) = 78.64761 57.83306 42.75376
#
# Poissons Ratio (x) = 0.37705 0.27046
# Poissons Ratio (y) = 0.51275 0.15644
# Poissons Ratio (z) = 0.49752 0.21162
#
# Static dielectric constant tensor:
#      x y z
#    x 1.891190 0.004450 0.000940 
#    y 0.004450 1.999480 0.070450 
#    z 0.000940 0.070450 1.977380 
# 
# From -- ./inp_files/603196.got.cif
#   From: 2010.05.17/outbox.cif.g08.bks.cpg/sg2_302_cif.got.tgz:603196.got - 2010.06.03 11:33:40.
