data_PCOD9064616
_publ_section_title
;
Structure prediction by ZEFSAII (Michael W. Deem and Ramdas Pophale) SiO2 
 PCOD9064616
Probable space group: P -1
;
_chemical_formula_sum "Si O2"
_cell_formula_units_Z 14
_cell_length_a 5.326005
_cell_length_b 18.265185
_cell_length_c 7.793039
_cell_angle_alpha 67.766650
_cell_angle_beta 120.802144
_cell_angle_gamma 126.738025
_cell_volume 518.966599
_symmetry_space_group_name_H-M "P -1"
_symmetry_group_IT_number 2
_symmetry_cell_setting 'triclinic'
loop_
_space_group_symop_operation_xyz
x,y,z
-x,-y,-z
loop_
_atom_site_type_symbol
_atom_site_label
_atom_site_fract_x
_atom_site_fract_y
_atom_site_fract_z
Si Si1 0.384148 0.164289 0.979048
Si Si2 0.841757 0.727423 0.954537
Si Si3 0.670465 0.865820 0.382871
Si Si4 0.629056 0.331045 0.479386
Si Si5 0.340840 0.527115 0.076759
Si Si6 0.393945 0.971528 0.683738
Si Si7 0.254397 0.517640 0.388044
O O1 0.226240 0.199100 0.036512
O O2 0.420304 0.079776 0.134728
O O3 0.769631 0.237689 0.987077
O O4 0.193741 0.139528 0.752506
O O5 0.669787 0.698170 0.733501
O O6 0.614450 0.636943 0.069249
O O7 0.372089 0.763374 0.417193
O O8 0.985094 0.902481 0.591292
O O9 0.552294 0.939984 0.272872
O O10 0.597038 0.376286 0.601558
O O11 0.946192 0.421173 0.433031
O O12 0.472399 0.494079 0.341090
O O13 0.500000 0.500000 0.000000
O O14 0.953304 0.481018 0.870193
O O15 0.500000 0.000000 0.500000
#
# Coordination Sequence:
#
# PCOD9064616 Si02
#       7
#     2   2   2   2   2   2   2
#     4  12  28  48  77 111 152 196 249 308 380 455
#     4  12  26  47  73 108 149 202 250 307 380 446
#     4  11  26  48  75 111 147 196 252 307 381 455
#     4  11  24  46  70 104 150 194 252 311 372 446
#     4  12  25  45  69 102 147 195 251 310 366 436
#     4  11  26  48  78 108 147 196 245 317 379 447
#     4  11  26  41  70 104 144 201 248 307 372 440
#
# _framework density 26.976690000000001
#
# number of rings (size 3 to 8) (size 9 to 14) (size 15 to 20)
#    0.000    0.571    2.857    3.857   10.000    1.714 
#    0.000    0.000    0.000    0.000    0.000    0.000 
#    0.000    0.000    0.000    0.000    0.000    0.000 
#
# Total GULP energy -78232.308981 kJ/mol
# GULP energy per Si atom -5588.022070 kJ/mol
# Density = 2.691529 g / cm^3
# Si number density = 26.976690 Si / 1000 Ang^3
#
#
#
# Elastic Constant Matrix: (Units=GPa)
#
#
# Indices 1 2 3 4 5 6 
#
# 1 147.4274 53.0713 39.2377 20.0777 -5.4136 -4.0459
# 2 53.0713 203.6354 51.3229 -1.4657 -1.8707 -23.8585
# 3 39.2377 51.3229 124.4395 20.7511 -16.0694 -16.3108
# 4 20.0777 -1.4657 20.7511 55.3952 5.0693 -4.6227
# 5 -5.4136 -1.8707 -16.0694 5.0693 51.9162 9.8653
# 6 -4.0459 -23.8585 -16.3108 -4.6227 9.8653 53.1944
#
#
#
# Elastic Compliance Matrix: (Units=1/GPa)
#
#
# Indices 1 2 3 4 5 6 
#
# 1 0.008209 -0.001926 -0.001380 -0.002672 0.000819 -0.001047
# 2 -0.001926 0.006238 -0.002149 0.001987 -0.001292 0.002405
# 3 -0.001380 -0.002149 0.010546 -0.003692 0.003165 0.001257
# 4 -0.002672 0.001987 -0.003692 0.020977 -0.003794 0.002082
# 5 0.000819 -0.001292 0.003165 -0.003794 0.021381 -0.003842
# 6 -0.001047 0.002405 0.001257 0.002082 -0.003842 0.021077
#
#
# Mechanical properties :
#
#
# Convention : Reuss Voigt Hill
#
# Bulk Modulus (GPa) = 70.99892 84.75178 77.87535
# Shear Modulus (GPa) = 48.06207 54.22586 51.14397
#
# Velocity S-wave (km/s) = 4.22550 4.48828 4.35887
# Velocity P-wave (km/s) = 7.08394 7.63835 7.36636
#
# Compressibility (1/GPa) = 0.01408472
#
# Stress axis : x y z
#
# Youngs Moduli (GPa) = 121.82122 160.29762 94.81847
#
# Poissons Ratio (x) = 0.30872 0.13084
# Poissons Ratio (y) = 0.23462 0.20373
# Poissons Ratio (z) = 0.16811 0.34442
#
# Static dielectric constant tensor:
#      x y z
#    x 2.192160 -0.054260 0.069340 
#    y -0.054260 2.127330 -0.022010 
#    z 0.069340 -0.022010 2.512720 
# 
# From -- ./inp_files/137543.got.cif
#   From: 2010.05.17/outbox.cif.g08.bks.cpg/sg2_69_cif.got.tgz:137543.got - 2010.06.03 11:33:40.
