data_PCOD9064779
_publ_section_title
;
Structure prediction by ZEFSAII (Michael W. Deem and Ramdas Pophale) SiO2 
 PCOD9064779
Probable space group: P -1
;
_chemical_formula_sum "Si O2"
_cell_formula_units_Z 14
_cell_length_a 21.271423
_cell_length_b 14.124148
_cell_length_c 7.622210
_cell_angle_alpha 44.615597
_cell_angle_beta 136.895282
_cell_angle_gamma 159.844440
_cell_volume 535.790218
_symmetry_space_group_name_H-M "P -1"
_symmetry_group_IT_number 2
_symmetry_cell_setting 'triclinic'
loop_
_space_group_symop_operation_xyz
x,y,z
-x,-y,-z
loop_
_atom_site_type_symbol
_atom_site_label
_atom_site_fract_x
_atom_site_fract_y
_atom_site_fract_z
Si Si1 0.458938 0.396595 0.251632
Si Si2 0.886507 0.719846 0.436297
Si Si3 0.819635 0.679981 0.744093
Si Si4 0.393417 0.823170 0.838431
Si Si5 0.122490 0.772249 0.807193
Si Si6 0.498495 0.265332 0.070649
Si Si7 0.200378 0.826191 0.502651
O O1 0.630815 0.525585 0.510040
O O2 0.272494 0.067123 0.290469
O O3 0.500000 0.500000 0.000000
O O4 0.432081 0.499192 0.173876
O O5 0.897766 0.719359 0.669544
O O6 0.666325 0.454695 0.298817
O O7 0.980932 0.711737 0.552262
O O8 0.016050 0.011743 0.261621
O O9 0.764127 0.487231 0.012609
O O10 0.501282 0.876699 0.843472
O O11 0.324734 0.882391 0.564909
O O12 0.500000 0.000000 0.000000
O O13 0.221720 0.854178 0.720898
O O14 0.000000 0.500000 0.000000
O O15 0.276035 0.012647 0.948278
O O16 0.000000 0.500000 0.500000
#
# Coordination Sequence:
#
# PCOD9064779 Si02
#       7
#     2   2   2   2   2   2   2
#     4  12  26  49  79 109 150 202 253 314 375 453
#     4  11  26  44  72 110 140 200 245 310 367 464
#     4  11  24  46  73 103 152 186 254 304 385 437
#     4  12  25  48  72 104 147 195 242 318 376 442
#     4  12  27  47  74 108 153 195 253 311 377 445
#     4  12  27  47  75 108 148 196 256 304 380 449
#     4  12  29  48  76 111 153 196 253 314 381 447
#
# _framework density 26.129628
#
# number of rings (size 3 to 8) (size 9 to 14) (size 15 to 20)
#    0.000    0.286    5.714    1.714    6.000    2.286 
#    0.000    0.000    0.000    0.000    0.000    0.000 
#    0.000    0.000    0.000    0.000    0.000    0.000 
#
# Total GULP energy -78242.229344 kJ/mol
# GULP energy per Si atom -5588.730667 kJ/mol
# Density = 2.607016 g / cm^3
# Si number density = 26.129628 Si / 1000 Ang^3
#
#
#
# Elastic Constant Matrix: (Units=GPa)
#
#
# Indices 1 2 3 4 5 6 
#
# 1 91.9318 -6.5193 23.5405 5.7867 26.4544 -12.2047
# 2 -6.5193 179.2945 55.1063 -3.8994 -2.1351 -8.1842
# 3 23.5405 55.1063 84.6985 -11.8770 8.9856 -5.2635
# 4 5.7867 -3.8994 -11.8770 43.4444 0.0970 -0.6201
# 5 26.4544 -2.1351 8.9856 0.0970 50.8246 -6.8426
# 6 -12.2047 -8.1842 -5.2635 -0.6201 -6.8426 36.9345
#
#
#
# Elastic Compliance Matrix: (Units=1/GPa)
#
#
# Indices 1 2 3 4 5 6 
#
# 1 0.014755 0.002095 -0.005023 -0.003088 -0.006238 0.003417
# 2 0.002095 0.007396 -0.005491 -0.001094 0.000409 0.001606
# 3 -0.005023 -0.005491 0.017527 0.004963 -0.000784 -0.000441
# 4 -0.003088 -0.001094 0.004963 0.024686 0.000633 -0.000024
# 5 -0.006238 0.000409 -0.000784 0.000633 0.023381 0.002260
# 6 0.003417 0.001606 -0.000441 -0.000024 0.002260 0.028915
#
#
# Mechanical properties :
#
#
# Convention : Reuss Voigt Hill
#
# Bulk Modulus (GPa) = 43.78301 55.57553 49.67927
# Shear Modulus (GPa) = 35.43282 45.16052 40.29667
#
# Velocity S-wave (km/s) = 3.68644 4.16182 3.93132
# Velocity P-wave (km/s) = 5.90866 6.66406 6.29770
#
# Compressibility (1/GPa) = 0.02283991
#
# Stress axis : x y z
#
# Youngs Moduli (GPa) = 67.77164 135.21489 57.05524
#
# Poissons Ratio (x) = -0.28325 0.28658
# Poissons Ratio (y) = -0.14197 0.31329
# Poissons Ratio (z) = 0.34040 0.74247
#
# Static dielectric constant tensor:
#      x y z
#    x 2.150060 0.018120 -0.004700 
#    y 0.018120 1.951260 0.016110 
#    z -0.004700 0.016110 2.066510 
# 
# From -- ./inp_files/354284.got.cif
#   From: 2010.05.17/outbox.cif.g08.bks.cpg/sg2_178_cif.got.tgz:354284.got - 2010.06.03 11:33:40.
