data_PCOD9064093
_publ_section_title
;
Structure prediction by ZEFSAII (Michael W. Deem and Ramdas Pophale) SiO2 
 PCOD9064093
Probable space group: P -1
;
_chemical_formula_sum "Si O2"
_cell_formula_units_Z 16
_cell_length_a 19.071313
_cell_length_b 6.550759
_cell_length_c 7.722088
_cell_angle_alpha 63.036281
_cell_angle_beta 97.329164
_cell_angle_gamma 124.982759
_cell_volume 692.829936
_symmetry_space_group_name_H-M "P -1"
_symmetry_group_IT_number 2
_symmetry_cell_setting 'triclinic'
loop_
_space_group_symop_operation_xyz
x,y,z
-x,-y,-z
loop_
_atom_site_type_symbol
_atom_site_label
_atom_site_fract_x
_atom_site_fract_y
_atom_site_fract_z
Si Si1 0.818092 0.308268 0.822193
Si Si2 0.118578 0.285037 0.795857
Si Si3 0.855680 0.878895 0.499241
Si Si4 0.419398 0.177147 0.580445
Si Si5 0.941345 0.185552 0.757479
Si Si6 0.634998 0.804899 0.821826
Si Si7 0.760362 0.137950 0.251384
Si Si8 0.479457 0.836227 0.877750
O O1 0.814403 0.568415 0.678800
O O2 0.902092 0.352226 0.742644
O O3 0.732512 0.026192 0.828624
O O4 0.814726 0.266154 0.042512
O O5 0.107171 0.124287 0.675576
O O6 0.209182 0.591918 0.723074
O O7 0.042843 0.332447 0.763733
O O8 0.106291 0.089352 0.027012
O O9 0.919556 0.089081 0.588648
O O10 0.787083 0.949319 0.416288
O O11 0.500000 0.500000 0.500000
O O12 0.371962 0.166367 0.395724
O O13 0.342454 0.050257 0.746399
O O14 0.453617 0.982857 0.676442
O O15 0.565507 0.858078 0.849395
O O16 0.598100 0.490026 0.990163
O O17 0.500000 0.000000 0.000000
#
# Coordination Sequence:
#
# PCOD9064093 Si02
#       8
#     2   2   2   2   2   2   2   2
#     4  12  27  46  74 106 149 190 242 298 360 432
#     4  11  25  48  74 110 147 191 247 296 361 431
#     4  12  25  47  76 106 146 198 239 296 363 425
#     4  12  26  45  72 103 140 185 237 296 360 429
#     4  11  25  46  76 110 147 192 242 301 359 430
#     4  11  26  44  69 104 136 187 235 292 362 423
#     4  12  28  47  72 107 146 192 244 299 361 436
#     4  11  24  45  70  98 137 181 233 295 357 429
#
# _framework density 23.093689999999999
#
# number of rings (size 3 to 8) (size 9 to 14) (size 15 to 20)
#    0.000    0.500    3.750    3.750    5.250    6.500 
#    0.000    0.000    0.000    0.000    0.000    0.000 
#    0.000    0.000    0.000    0.000    0.000    0.000 
#
# Total GULP energy -89627.591633 kJ/mol
# GULP energy per Si atom -5601.724477 kJ/mol
# Density = 2.304113 g / cm^3
# Si number density = 23.093690 Si / 1000 Ang^3
#
#
#
# Elastic Constant Matrix: (Units=GPa)
#
#
# Indices 1 2 3 4 5 6 
#
# 1 68.0754 22.8759 44.0348 -12.3766 4.8618 0.1284
# 2 22.8759 59.1451 43.5235 0.0530 3.5359 -5.8754
# 3 44.0348 43.5235 120.7706 -9.0857 17.5673 -13.4387
# 4 -12.3766 0.0530 -9.0857 48.2295 -7.2801 -0.1462
# 5 4.8618 3.5359 17.5673 -7.2801 40.3047 -0.1376
# 6 0.1284 -5.8754 -13.4387 -0.1462 -0.1376 30.1741
#
#
#
# Elastic Compliance Matrix: (Units=1/GPa)
#
#
# Indices 1 2 3 4 5 6 
#
# 1 0.020876 -0.003692 -0.006578 0.004329 0.001442 -0.003710
# 2 -0.003692 0.023882 -0.007451 -0.002191 0.001207 0.001342
# 3 -0.006578 -0.007451 0.014665 0.000364 -0.004861 0.005088
# 4 0.004329 -0.002191 0.000364 0.022454 0.003567 -0.000158
# 5 0.001442 0.001207 -0.004861 0.003567 0.027288 -0.001795
# 6 -0.003710 0.001342 0.005088 -0.000158 -0.001795 0.035675
#
#
# Mechanical properties :
#
#
# Convention : Reuss Voigt Hill
#
# Bulk Modulus (GPa) = 41.70253 52.09549 46.89901
# Shear Modulus (GPa) = 26.55651 32.91212 29.73431
#
# Velocity S-wave (km/s) = 3.39477 3.77922 3.59214
# Velocity P-wave (km/s) = 5.78473 6.45373 6.12837
#
# Compressibility (1/GPa) = 0.02397936
#
# Stress axis : x y z
#
# Youngs Moduli (GPa) = 47.90091 41.87219 68.19087
#
# Poissons Ratio (x) = 0.15461 0.44857
# Poissons Ratio (y) = 0.17687 0.50812
# Poissons Ratio (z) = 0.31510 0.31201
#
# Static dielectric constant tensor:
#      x y z
#    x 1.885890 -0.020560 -0.051950 
#    y -0.020560 1.832250 0.014310 
#    z -0.051950 0.014310 1.891800 
# 
# From -- ./inp_files/323332.got.cif
#   From: 2010.05.17/outbox.cif.g08.bks.cpg/sg2_162_cif.got.tgz:323332.got - 2010.06.03 11:33:40.
