data_PCOD9064920
_publ_section_title
;
Structure prediction by ZEFSAII (Michael W. Deem and Ramdas Pophale) SiO2 
 PCOD9064920
Probable space group: P -1
;
_chemical_formula_sum "Si O2"
_cell_formula_units_Z 14
_cell_length_a 14.187791
_cell_length_b 9.592864
_cell_length_c 11.877940
_cell_angle_alpha 116.820503
_cell_angle_beta 40.777869
_cell_angle_gamma 86.469211
_cell_volume 680.362425
_symmetry_space_group_name_H-M "P -1"
_symmetry_group_IT_number 2
_symmetry_cell_setting 'triclinic'
loop_
_space_group_symop_operation_xyz
x,y,z
-x,-y,-z
loop_
_atom_site_type_symbol
_atom_site_label
_atom_site_fract_x
_atom_site_fract_y
_atom_site_fract_z
Si Si1 0.821686 0.670157 0.064766
Si Si2 0.122557 0.693889 0.843405
Si Si3 0.292642 0.779985 0.906727
Si Si4 0.157159 0.690239 0.184092
Si Si5 0.870810 0.140616 0.501370
Si Si6 0.525086 0.138480 0.404943
Si Si7 0.277463 0.799979 0.569994
O O1 0.691247 0.765064 0.332643
O O2 0.690698 0.878885 0.175933
O O3 0.034231 0.589307 0.869894
O O4 0.841889 0.485127 0.925201
O O5 0.231736 0.671016 0.624670
O O6 0.254714 0.659607 0.814610
O O7 0.921122 0.946352 0.136599
O O8 0.318069 0.680674 0.969257
O O9 0.438511 0.790823 0.716117
O O10 0.076601 0.028275 0.207032
O O11 0.179967 0.696667 0.298386
O O12 0.947449 0.928369 0.421078
O O13 0.705650 0.229259 0.589260
O O14 0.566845 0.223467 0.503565
#
# Coordination Sequence:
#
# PCOD9064920 Si02
#       7
#     2   2   2   2   2   2   2
#     4  10  18  28  42  73  95 111 138 187 225 260
#     4   8  14  25  46  67  88 109 146 182 225 249
#     4   8  15  31  48  64  87 120 145 178 215 269
#     4   9  18  28  45  67  91 115 150 179 218 253
#     4   8  15  30  46  64  87 116 154 181 206 259
#     4   9  18  30  46  66  95 114 142 178 229 260
#     4   8  13  28  48  63  82 122 146 177 212 265
#
# _framework density 20.577269000000001
#
# number of rings (size 3 to 8) (size 9 to 14) (size 15 to 20)
#    0.857    2.571    0.000    2.571    0.000    1.143 
#    0.000    3.571    0.000    0.000    0.000   27.000 
#    0.000    0.000    0.000    0.000    0.000    0.000 
#
# Total GULP energy -77952.717959 kJ/mol
# GULP energy per Si atom -5568.051283 kJ/mol
# Density = 2.053043 g / cm^3
# Si number density = 20.577269 Si / 1000 Ang^3
#
#
#
# Elastic Constant Matrix: (Units=GPa)
#
#
# Indices 1 2 3 4 5 6 
#
# 1 57.8936 34.4269 17.6515 -6.9796 19.4149 -8.6147
# 2 34.4269 99.5081 31.7465 -4.8735 8.8257 11.6860
# 3 17.6515 31.7465 55.7278 -4.1491 13.0660 7.5912
# 4 -6.9796 -4.8735 -4.1491 25.2804 -3.8779 -5.7824
# 5 19.4149 8.8257 13.0660 -3.8779 31.0792 -3.1151
# 6 -8.6147 11.6860 7.5912 -5.7824 -3.1151 27.2743
#
#
#
# Elastic Compliance Matrix: (Units=1/GPa)
#
#
# Indices 1 2 3 4 5 6 
#
# 1 0.032066 -0.010526 -0.002530 0.007887 -0.013443 0.015479
# 2 -0.010526 0.016104 -0.005554 -0.002236 0.003177 -0.008790
# 3 -0.002530 -0.005554 0.024570 -0.000365 -0.007842 -0.006231
# 4 0.007887 -0.002236 -0.000365 0.044723 0.002780 0.013350
# 5 -0.013443 0.003177 -0.007842 0.002780 0.043529 0.002136
# 6 0.015479 -0.008790 -0.006231 0.013350 0.002136 0.050128
#
#
# Mechanical properties :
#
#
# Convention : Reuss Voigt Hill
#
# Bulk Modulus (GPa) = 28.15300 42.30880 35.23090
# Shear Modulus (GPa) = 19.21747 25.34710 22.28229
#
# Velocity S-wave (km/s) = 3.05932 3.51351 3.29425
# Velocity P-wave (km/s) = 5.11767 6.08812 5.62387
#
# Compressibility (1/GPa) = 0.03552020
#
# Stress axis : x y z
#
# Youngs Moduli (GPa) = 31.18550 62.09644 40.70034
#
# Poissons Ratio (x) = 0.65363 0.10297
# Poissons Ratio (y) = 0.32826 0.22605
# Poissons Ratio (z) = 0.07890 0.34488
#
# Static dielectric constant tensor:
#      x y z
#    x 1.791520 -0.063960 -0.087070 
#    y -0.063960 1.800490 0.019130 
#    z -0.087070 0.019130 1.817690 
# 
# From -- ./inp_files/305705.got.cif
#   From: 2010.05.17/outbox.cif.g08.bks.cpg/sg2_153_cif.got.tgz:305705.got - 2010.06.03 11:33:40.
