data_PCOD9064775
_publ_section_title
;
Structure prediction by ZEFSAII (Michael W. Deem and Ramdas Pophale) SiO2 
 PCOD9064775
Probable space group: P -1
;
_chemical_formula_sum "Si O2"
_cell_formula_units_Z 12
_cell_length_a 9.582576
_cell_length_b 9.102895
_cell_length_c 10.116928
_cell_angle_alpha 56.446247
_cell_angle_beta 80.595133
_cell_angle_gamma 45.239768
_cell_volume 482.698794
_symmetry_space_group_name_H-M "P -1"
_symmetry_group_IT_number 2
_symmetry_cell_setting 'triclinic'
loop_
_space_group_symop_operation_xyz
x,y,z
-x,-y,-z
loop_
_atom_site_type_symbol
_atom_site_label
_atom_site_fract_x
_atom_site_fract_y
_atom_site_fract_z
Si Si1 0.108494 0.723147 0.172429
Si Si2 0.200441 0.859343 0.339258
Si Si3 0.475182 0.218407 0.838156
Si Si4 0.268396 0.718340 0.703113
Si Si5 0.172947 0.318100 0.680541
Si Si6 0.511894 0.142681 0.317399
O O1 0.297345 0.454939 0.196239
O O2 0.926890 0.745637 0.189678
O O3 0.195919 0.699504 0.315814
O O4 0.000000 0.000000 0.000000
O O5 0.955893 0.131934 0.275862
O O6 0.339737 0.882602 0.236921
O O7 0.287267 0.735283 0.533384
O O8 0.442525 0.404930 0.857789
O O9 0.239452 0.423439 0.703492
O O10 0.500000 0.000000 0.000000
O O11 0.313079 0.869691 0.678310
O O12 0.000000 0.500000 0.500000
O O13 0.399622 0.046175 0.724969
O O14 0.500000 0.000000 0.500000
#
# Coordination Sequence:
#
# PCOD9064775 Si02
#       6
#     2   2   2   2   2   2
#     4  12  26  45  72 106 148 188 239 307 369 429
#     4  11  24  46  73 103 142 191 246 298 360 441
#     4  12  27  46  72 107 150 192 239 304 376 438
#     4  11  25  44  77 102 140 191 247 297 364 436
#     4  12  26  45  72 108 145 187 251 298 357 445
#     4  12  25  44  76 107 139 192 245 298 367 431
#
# _framework density 24.860226000000001
#
# number of rings (size 3 to 8) (size 9 to 14) (size 15 to 20)
#    0.000    0.333    5.000    3.500    2.333    4.000 
#    0.000    0.000    0.000    0.000    0.000    0.000 
#    0.000    0.000    0.000    0.000    0.000    0.000 
#
# Total GULP energy -67102.604079 kJ/mol
# GULP energy per Si atom -5591.883673 kJ/mol
# Density = 2.480364 g / cm^3
# Si number density = 24.860226 Si / 1000 Ang^3
#
#
#
# Elastic Constant Matrix: (Units=GPa)
#
#
# Indices 1 2 3 4 5 6 
#
# 1 160.1693 27.0645 28.4539 9.1747 -40.6644 -25.0891
# 2 27.0645 128.7562 20.5651 -14.2737 -9.4856 -27.2497
# 3 28.4539 20.5651 84.3185 -20.0813 -21.5801 -14.8206
# 4 9.1747 -14.2737 -20.0813 37.1651 7.2895 1.4120
# 5 -40.6644 -9.4856 -21.5801 7.2895 45.4324 6.7922
# 6 -25.0891 -27.2497 -14.8206 1.4120 6.7922 54.6597
#
#
#
# Elastic Compliance Matrix: (Units=1/GPa)
#
#
# Indices 1 2 3 4 5 6 
#
# 1 0.009441 -0.001211 -0.001727 -0.005366 0.007876 0.002422
# 2 -0.001211 0.009281 -0.000447 0.003574 -0.000518 0.003922
# 3 -0.001727 -0.000447 0.016001 0.007960 0.004298 0.002583
# 4 -0.005366 0.003574 0.007960 0.035051 -0.006098 0.001330
# 5 0.007876 -0.000518 0.004298 -0.006098 0.031864 0.000720
# 6 0.002422 0.003922 0.002583 0.001330 0.000720 0.021938
#
#
# Mechanical properties :
#
#
# Convention : Reuss Voigt Hill
#
# Bulk Modulus (GPa) = 35.77400 58.37897 47.07649
# Shear Modulus (GPa) = 35.80032 47.26215 41.53123
#
# Velocity S-wave (km/s) = 3.79893 4.36491 4.09172
# Velocity P-wave (km/s) = 5.80205 6.99550 6.42654
#
# Compressibility (1/GPa) = 0.02795326
#
# Stress axis : x y z
#
# Youngs Moduli (GPa) = 105.92055 107.75198 62.49456
#
# Poissons Ratio (x) = 0.13046 0.10794
# Poissons Ratio (y) = 0.12824 0.02793
# Poissons Ratio (z) = 0.18294 0.04816
#
# Static dielectric constant tensor:
#      x y z
#    x 1.960150 0.009830 0.068610 
#    y 0.009830 1.911120 0.110230 
#    z 0.068610 0.110230 1.941910 
# 
# From -- ./inp_files/181992.got.cif
#   From: 2010.05.17/outbox.cif.g08.bks.cpg/sg2_91_cif.got.tgz:181992.got - 2010.06.03 11:33:40.
