data_PCOD9064309
_publ_section_title
;
Structure prediction by ZEFSAII (Michael W. Deem and Ramdas Pophale) SiO2 
 PCOD9064309
Probable space group: P -1
;
_chemical_formula_sum "Si O2"
_cell_formula_units_Z 16
_cell_length_a 5.376986
_cell_length_b 12.398914
_cell_length_c 12.302523
_cell_angle_alpha 59.068566
_cell_angle_beta 81.946110
_cell_angle_gamma 94.056727
_cell_volume 686.698293
_symmetry_space_group_name_H-M "P -1"
_symmetry_group_IT_number 2
_symmetry_cell_setting 'triclinic'
loop_
_space_group_symop_operation_xyz
x,y,z
-x,-y,-z
loop_
_atom_site_type_symbol
_atom_site_label
_atom_site_fract_x
_atom_site_fract_y
_atom_site_fract_z
Si Si1 0.452113 0.827788 0.040022
Si Si2 0.332517 0.566746 0.058454
Si Si3 0.778597 0.584311 0.467120
Si Si4 0.160294 0.037610 0.208654
Si Si5 0.142653 0.321494 0.341326
Si Si6 0.098260 0.174432 0.818923
Si Si7 0.386343 0.082621 0.376399
Si Si8 0.133609 0.744088 0.818646
O O1 0.452386 0.691631 0.053092
O O2 0.161912 0.833564 0.089580
O O3 0.653953 0.836166 0.120932
O O4 0.587666 0.936635 0.894024
O O5 0.256811 0.456244 0.208367
O O6 0.500000 0.500000 0.000000
O O7 0.138541 0.626337 0.959798
O O8 0.500000 0.500000 0.500000
O O9 0.816310 0.652025 0.547678
O O10 0.000000 0.500000 0.500000
O O11 0.846301 0.691353 0.315674
O O12 0.205174 0.992020 0.351533
O O13 0.069367 0.172643 0.167854
O O14 0.959859 0.938262 0.207130
O O15 0.261736 0.194850 0.377577
O O16 0.898702 0.291606 0.289106
O O17 0.602796 0.159662 0.246431
O O18 0.500000 0.000000 0.500000
#
# Coordination Sequence:
#
# PCOD9064309 Si02
#       8
#     2   2   2   2   2   2   2   2
#     4  12  26  48  73 112 147 196 252 314 371 444
#     4  12  22  45  73 106 143 187 248 305 376 432
#     4  12  29  51  73 108 148 199 259 307 372 448
#     4  11  26  46  72 111 147 197 249 305 381 450
#     4  11  26  44  72 106 143 199 244 306 379 439
#     4  12  28  47  78 105 149 202 247 312 375 446
#     4  11  26  44  73 108 152 189 248 309 374 452
#     4  11  24  45  73 109 146 189 248 313 375 446
#
# _framework density 23.299899
#
# number of rings (size 3 to 8) (size 9 to 14) (size 15 to 20)
#    0.000    0.500    2.500    4.875    7.000    3.000 
#    0.000    0.000    0.000    0.000    0.000    0.000 
#    0.000    0.000    0.000    0.000    0.000    0.000 
#
# Total GULP energy -89396.904082 kJ/mol
# GULP energy per Si atom -5587.306505 kJ/mol
# Density = 2.324687 g / cm^3
# Si number density = 23.299899 Si / 1000 Ang^3
#
#
#
# Elastic Constant Matrix: (Units=GPa)
#
#
# Indices 1 2 3 4 5 6 
#
# 1 98.9180 44.0343 34.1580 12.8415 15.7589 5.3818
# 2 44.0343 135.7335 34.2383 14.2234 22.4183 18.0315
# 3 34.1580 34.2383 107.6295 0.2944 29.7715 -0.8029
# 4 12.8415 14.2234 0.2944 41.0004 8.7899 3.5619
# 5 15.7589 22.4183 29.7715 8.7899 47.5447 2.7883
# 6 5.3818 18.0315 -0.8029 3.5619 2.7883 40.6670
#
#
#
# Elastic Compliance Matrix: (Units=1/GPa)
#
#
# Indices 1 2 3 4 5 6 
#
# 1 0.012959 -0.003053 -0.003017 -0.002874 -0.000427 -0.000140
# 2 -0.003053 0.009761 -0.001584 -0.001655 -0.002078 -0.003668
# 3 -0.003017 -0.001584 0.012625 0.002715 -0.006753 0.001576
# 4 -0.002874 -0.001655 0.002715 0.026970 -0.004903 -0.000858
# 5 -0.000427 -0.002078 -0.006753 -0.004903 0.027324 -0.000600
# 6 -0.000140 -0.003668 0.001576 -0.000858 -0.000600 0.026382
#
#
# Mechanical properties :
#
#
# Convention : Reuss Voigt Hill
#
# Bulk Modulus (GPa) = 49.90727 63.01578 56.46153
# Shear Modulus (GPa) = 36.22971 41.16578 38.69775
#
# Velocity S-wave (km/s) = 3.94754 4.20787 4.07978
# Velocity P-wave (km/s) = 6.49949 7.12127 6.81747
#
# Compressibility (1/GPa) = 0.02003716
#
# Stress axis : x y z
#
# Youngs Moduli (GPa) = 77.16725 102.44596 79.20970
#
# Poissons Ratio (x) = 0.31275 0.23894
# Poissons Ratio (y) = 0.23558 0.12551
# Poissons Ratio (z) = 0.23278 0.16232
#
# Static dielectric constant tensor:
#      x y z
#    x 1.934120 0.030040 0.004600 
#    y 0.030040 1.906510 0.038220 
#    z 0.004600 0.038220 1.854240 
# 
# From -- ./inp_files/71297.got.cif
#   From: 2010.05.17/outbox.cif.g08.bks.cpg/sg2_36_cif.got.tgz:71297.got - 2010.06.03 11:33:40.
