data_PCOD9064763
_publ_section_title
;
Structure prediction by ZEFSAII (Michael W. Deem and Ramdas Pophale) SiO2 
 PCOD9064763
Probable space group: P -1
;
_chemical_formula_sum "Si O2"
_cell_formula_units_Z 15
_cell_length_a 9.415490
_cell_length_b 8.017661
_cell_length_c 16.506002
_cell_angle_alpha 118.525419
_cell_angle_beta 140.495575
_cell_angle_gamma 49.476668
_cell_volume 601.799692
_symmetry_space_group_name_H-M "P -1"
_symmetry_group_IT_number 2
_symmetry_cell_setting 'triclinic'
loop_
_space_group_symop_operation_xyz
x,y,z
-x,-y,-z
loop_
_atom_site_type_symbol
_atom_site_label
_atom_site_fract_x
_atom_site_fract_y
_atom_site_fract_z
Si Si1 0.005695 0.601261 0.439775
Si Si2 0.605908 0.831785 0.117957
Si Si3 0.717661 0.666233 0.951301
Si Si4 0.538656 0.068537 0.364008
Si Si5 0.970705 0.779639 0.739389
Si Si6 0.473380 0.421291 0.301221
Si Si7 0.107616 0.861897 0.335857
Si Si8 0.500000 0.500000 0.000000
O O1 0.055236 0.421406 0.353362
O O2 0.246753 0.638284 0.560101
O O3 0.000000 0.500000 0.500000
O O4 0.748872 0.831419 0.371715
O O5 0.520593 0.698003 0.105763
O O6 0.861335 0.844576 0.252152
O O7 0.384631 0.076764 0.052880
O O8 0.678863 0.665504 0.031179
O O9 0.542261 0.599168 0.806361
O O10 0.000000 0.500000 0.000000
O O11 0.305458 0.064444 0.304979
O O12 0.421249 0.242686 0.280061
O O13 0.695950 0.140229 0.511397
O O14 0.997793 0.916547 0.710234
O O15 0.211640 0.686121 0.882505
O O16 0.267615 0.657838 0.299050
#
# Coordination Sequence:
#
# PCOD9064763 Si02
#       8
#     2   2   2   2   2   2   2   1
#     4  12  26  46  72 107 145 191 244 295 364 434
#     4  11  26  49  73 102 144 192 240 301 358 428
#     4  11  24  46  73 101 141 193 244 283 359 437
#     4  12  26  48  75 113 148 187 241 309 360 426
#     4  12  27  49  72 108 148 194 241 298 366 428
#     4  12  26  43  76 111 144 193 240 301 363 432
#     4  12  23  49  78 103 148 194 238 296 370 427
#     4  12  30  48  74 106 146 192 240 304 360 424
#
# _framework density 24.925236999999999
#
# number of rings (size 3 to 8) (size 9 to 14) (size 15 to 20)
#    0.000    0.267    4.000    5.200    5.600    0.000 
#    0.000    1.333    0.000    0.000    0.000    0.000 
#    0.000    0.000    0.000    0.000    0.000    0.000 
#
# Total GULP energy -83878.830721 kJ/mol
# GULP energy per Si atom -5591.922048 kJ/mol
# Density = 2.486851 g / cm^3
# Si number density = 24.925237 Si / 1000 Ang^3
#
#
#
# Elastic Constant Matrix: (Units=GPa)
#
#
# Indices 1 2 3 4 5 6 
#
# 1 67.1197 19.0427 35.9700 -0.9011 4.1409 -15.1007
# 2 19.0427 120.7777 17.7896 -7.9481 0.1965 -24.0234
# 3 35.9700 17.7896 154.2288 -3.3014 6.6328 -13.1290
# 4 -0.9011 -7.9481 -3.3014 37.4399 -5.4335 6.0182
# 5 4.1409 0.1965 6.6328 -5.4335 47.0559 -2.5394
# 6 -15.1007 -24.0234 -13.1290 6.0182 -2.5394 49.9792
#
#
#
# Elastic Compliance Matrix: (Units=1/GPa)
#
#
# Indices 1 2 3 4 5 6 
#
# 1 0.018267 -0.001634 -0.003725 -0.000993 -0.000984 0.003825
# 2 -0.001634 0.009440 -0.000377 0.001396 0.000524 0.003803
# 3 -0.003725 -0.000377 0.007481 0.000300 -0.000659 0.000589
# 4 -0.000993 0.001396 0.000300 0.027903 0.003113 -0.002752
# 5 -0.000984 0.000524 -0.000659 0.003113 0.021816 0.000515
# 6 0.003825 0.003803 0.000589 -0.002752 0.000515 0.023504
#
#
# Mechanical properties :
#
#
# Convention : Reuss Voigt Hill
#
# Bulk Modulus (GPa) = 42.16600 54.19231 48.17915
# Shear Modulus (GPa) = 39.12728 44.84991 41.98860
#
# Velocity S-wave (km/s) = 3.96635 4.24651 4.10882
# Velocity P-wave (km/s) = 6.15870 6.77000 6.47157
#
# Compressibility (1/GPa) = 0.02371579
#
# Stress axis : x y z
#
# Youngs Moduli (GPa) = 54.74476 105.92773 133.67214
#
# Poissons Ratio (x) = 0.17313 0.49794
# Poissons Ratio (y) = 0.08948 0.05034
# Poissons Ratio (z) = 0.20393 0.03989
#
# Static dielectric constant tensor:
#      x y z
#    x 1.765160 -0.163150 -0.099810 
#    y -0.163150 1.668430 -0.030850 
#    z -0.099810 -0.030850 1.966090 
# 
# From -- ./inp_files/333880.got.cif
#   From: 2010.05.17/outbox.cif.g08.bks.cpg/sg2_167_cif.got.tgz:333880.got - 2010.06.03 11:33:40.
