data_PCOD9064734
_publ_section_title
;
Structure prediction by ZEFSAII (Michael W. Deem and Ramdas Pophale) SiO2 
 PCOD9064734
Probable space group: P -1
;
_chemical_formula_sum "Si O2"
_cell_formula_units_Z 10
_cell_length_a 10.214589
_cell_length_b 9.278886
_cell_length_c 8.038980
_cell_angle_alpha 80.660785
_cell_angle_beta 128.639039
_cell_angle_gamma 134.098026
_cell_volume 373.691734
_symmetry_space_group_name_H-M "P -1"
_symmetry_group_IT_number 2
_symmetry_cell_setting 'triclinic'
loop_
_space_group_symop_operation_xyz
x,y,z
-x,-y,-z
loop_
_atom_site_type_symbol
_atom_site_label
_atom_site_fract_x
_atom_site_fract_y
_atom_site_fract_z
Si Si1 0.232702 0.035336 0.118584
Si Si2 0.927756 0.601634 0.753351
Si Si3 0.488314 0.503866 0.789754
Si Si4 0.452982 0.169192 0.633024
Si Si5 0.267916 0.755059 0.724092
O O1 0.250515 0.222363 0.085422
O O2 0.287290 0.045289 0.353067
O O3 0.486793 0.161267 0.178842
O O4 0.015784 0.788401 0.910109
O O5 0.747507 0.563061 0.476908
O O6 0.743139 0.359288 0.741758
O O7 0.192825 0.710011 0.866905
O O8 0.462853 0.328966 0.712518
O O9 0.500000 0.500000 0.000000
O O10 0.311370 0.950949 0.669502
O O11 0.000000 0.500000 0.500000
#
# Coordination Sequence:
#
# PCOD9064734 Si02
#       5
#     2   2   2   2   2
#     4  11  24  46  72 107 143 183 233 288 353 417
#     4  11  25  46  74 104 146 180 233 295 345 417
#     4  11  25  46  72 106 139 186 239 284 352 421
#     4  11  26  45  72 106 140 186 239 280 356 415
#     4  12  24  47  73 102 145 187 234 287 347 421
#
# _framework density 26.760024000000001
#
# number of rings (size 3 to 8) (size 9 to 14) (size 15 to 20)
#    0.000    0.800    4.000    4.800    0.000    8.800 
#    3.600    0.000    0.000    0.000    0.000    0.000 
#    0.000    0.000    0.000    0.000    0.000    0.000 
#
# Total GULP energy -55887.893296 kJ/mol
# GULP energy per Si atom -5588.789330 kJ/mol
# Density = 2.669912 g / cm^3
# Si number density = 26.760024 Si / 1000 Ang^3
#
#
#
# Elastic Constant Matrix: (Units=GPa)
#
#
# Indices 1 2 3 4 5 6 
#
# 1 129.8881 13.4832 14.5415 1.7429 -26.7908 -12.1297
# 2 13.4832 189.1298 51.7105 28.0882 -11.6535 6.6287
# 3 14.5415 51.7105 158.3532 43.6077 -33.4807 9.5201
# 4 1.7429 28.0882 43.6077 56.5614 -3.8315 -21.5539
# 5 -26.7908 -11.6535 -33.4807 -3.8315 53.6229 9.6111
# 6 -12.1297 6.6287 9.5201 -21.5539 9.6111 55.9957
#
#
#
# Elastic Compliance Matrix: (Units=1/GPa)
#
#
# Indices 1 2 3 4 5 6 
#
# 1 0.008727 -0.000550 -0.000208 0.001093 0.003876 0.001746
# 2 -0.000550 0.006128 -0.000830 -0.003109 0.000678 -0.002016
# 3 -0.000208 -0.000830 0.011631 -0.010857 0.007528 -0.007396
# 4 0.001093 -0.003109 -0.010857 0.033372 -0.007496 0.016583
# 5 0.003876 0.000678 0.007528 -0.007496 0.026317 -0.007923
# 6 0.001746 -0.002016 -0.007396 0.016583 -0.007923 0.027476
#
#
# Mechanical properties :
#
#
# Convention : Reuss Voigt Hill
#
# Bulk Modulus (GPa) = 42.90038 70.76018 56.83028
# Shear Modulus (GPa) = 40.12945 59.74507 49.93726
#
# Velocity S-wave (km/s) = 3.87667 4.73019 4.32454
# Velocity P-wave (km/s) = 6.00870 7.50552 6.79843
#
# Compressibility (1/GPa) = 0.02330982
#
# Stress axis : x y z
#
# Youngs Moduli (GPa) = 114.58460 163.19626 85.97611
#
# Poissons Ratio (x) = 0.08974 0.01791
# Poissons Ratio (y) = 0.06301 0.07134
# Poissons Ratio (z) = 0.02387 0.13542
#
# Static dielectric constant tensor:
#      x y z
#    x 2.326830 0.031540 0.062880 
#    y 0.031540 2.030300 -0.042830 
#    z 0.062880 -0.042830 2.232620 
# 
# From -- ./inp_files/234486.got.cif
#   From: 2010.05.17/outbox.cif.g08.bks.cpg/sg2_118_cif.got.tgz:234486.got - 2010.06.03 11:33:40.
