data_PCOD9064385
_publ_section_title
;
Structure prediction by ZEFSAII (Michael W. Deem and Ramdas Pophale) SiO2 
 PCOD9064385
Probable space group: P -1
;
_chemical_formula_sum "Si O2"
_cell_formula_units_Z 14
_cell_length_a 11.605321
_cell_length_b 18.091479
_cell_length_c 8.493667
_cell_angle_alpha 72.465370
_cell_angle_beta 54.468000
_cell_angle_gamma 29.139877
_cell_volume 603.333028
_symmetry_space_group_name_H-M "P -1"
_symmetry_group_IT_number 2
_symmetry_cell_setting 'triclinic'
loop_
_space_group_symop_operation_xyz
x,y,z
-x,-y,-z
loop_
_atom_site_type_symbol
_atom_site_label
_atom_site_fract_x
_atom_site_fract_y
_atom_site_fract_z
Si Si1 0.797372 0.002086 0.011619
Si Si2 0.355312 0.953143 0.236300
Si Si3 0.281529 0.372777 0.728344
Si Si4 0.395967 0.631788 0.418436
Si Si5 0.625879 0.520181 0.950082
Si Si6 0.280256 0.127629 0.743786
Si Si7 0.475012 0.739863 0.707902
O O1 0.883708 0.873208 0.081239
O O2 0.597416 0.147544 0.207451
O O3 0.131029 0.886262 0.800924
O O4 0.583491 0.093914 0.966342
O O5 0.447266 0.826242 0.323980
O O6 0.544538 0.924196 0.207073
O O7 0.983463 0.163082 0.398009
O O8 0.406772 0.397448 0.637327
O O9 0.239914 0.388925 0.562808
O O10 0.000000 0.500000 0.000000
O O11 0.500000 0.500000 0.500000
O O12 0.484015 0.595016 0.189394
O O13 0.535389 0.638248 0.841439
O O14 0.011336 0.321773 0.784764
O O15 0.500000 0.500000 0.000000
O O16 0.500000 0.000000 0.500000
#
# Coordination Sequence:
#
# PCOD9064385 Si02
#       7
#     2   2   2   2   2   2   2
#     4  11  24  45  74 109 148 196 255 315 379 458
#     4  12  26  47  75 107 154 200 255 313 388 455
#     4  12  27  49  75 113 152 199 258 320 384 455
#     4  12  26  47  76 111 152 202 257 315 385 459
#     4  12  24  45  74 107 150 198 256 315 378 456
#     4  12  26  46  71 111 153 200 252 318 385 455
#     4  11  25  46  77 110 147 198 260 312 387 452
#
# _framework density 23.204431
#
# number of rings (size 3 to 8) (size 9 to 14) (size 15 to 20)
#    0.000    0.286    2.857    6.000    4.000    2.286 
#    0.000    4.286    0.000    0.000    0.000    0.000 
#    0.000    0.000    0.000    0.000    0.000    0.000 
#
# Total GULP energy -78357.422701 kJ/mol
# GULP energy per Si atom -5596.958764 kJ/mol
# Density = 2.315162 g / cm^3
# Si number density = 23.204431 Si / 1000 Ang^3
#
#
#
# Elastic Constant Matrix: (Units=GPa)
#
#
# Indices 1 2 3 4 5 6 
#
# 1 173.0464 42.7082 58.6791 1.7318 18.0902 13.2334
# 2 42.7082 139.6961 38.2361 -18.4969 -6.5812 21.7995
# 3 58.6791 38.2361 125.4420 -1.5397 26.0578 5.7635
# 4 1.7318 -18.4969 -1.5397 38.4535 -4.5102 -4.1869
# 5 18.0902 -6.5812 26.0578 -4.5102 47.1984 -6.2822
# 6 13.2334 21.7995 5.7635 -4.1869 -6.2822 42.2466
#
#
#
# Elastic Compliance Matrix: (Units=1/GPa)
#
#
# Indices 1 2 3 4 5 6 
#
# 1 0.007375 -0.001645 -0.002467 -0.001638 -0.002063 -0.001594
# 2 -0.001645 0.009676 -0.002707 0.004691 0.003507 -0.003122
# 3 -0.002467 -0.002707 0.011149 -0.001461 -0.005774 -0.000355
# 4 -0.001638 0.004691 -0.001461 0.029089 0.005126 0.001937
# 5 -0.002063 0.003507 -0.005774 0.005126 0.026690 0.004101
# 6 -0.001594 -0.003122 -0.000355 0.001937 0.004101 0.026631
#
#
# Mechanical properties :
#
#
# Convention : Reuss Voigt Hill
#
# Bulk Modulus (GPa) = 68.67436 79.71461 74.19448
# Shear Modulus (GPa) = 38.72894 45.48377 42.10636
#
# Velocity S-wave (km/s) = 4.08981 4.43214 4.26441
# Velocity P-wave (km/s) = 7.20845 7.78586 7.50271
#
# Compressibility (1/GPa) = 0.01456148
#
# Stress axis : x y z
#
# Youngs Moduli (GPa) = 135.58950 103.35021 89.69564
#
# Poissons Ratio (x) = 0.16999 0.22128
# Poissons Ratio (y) = 0.22302 0.24284
# Poissons Ratio (z) = 0.33450 0.27981
#
# Static dielectric constant tensor:
#      x y z
#    x 2.055270 -0.077260 0.205480 
#    y -0.077260 1.843710 0.006790 
#    z 0.205480 0.006790 2.114730 
# 
# From -- ./inp_files/160215.got.cif
#   From: 2010.05.17/outbox.cif.g08.bks.cpg/sg2_81_cif.got.tgz:160215.got - 2010.06.03 11:33:40.
