data_PCOD9064844
_publ_section_title
;
Structure prediction by ZEFSAII (Michael W. Deem and Ramdas Pophale) SiO2 
 PCOD9064844
Probable space group: P -1
;
_chemical_formula_sum "Si O2"
_cell_formula_units_Z 16
_cell_length_a 5.749055
_cell_length_b 16.693706
_cell_length_c 11.784778
_cell_angle_alpha 127.690634
_cell_angle_beta 105.951029
_cell_angle_gamma 50.523857
_cell_volume 678.729649
_symmetry_space_group_name_H-M "P -1"
_symmetry_group_IT_number 2
_symmetry_cell_setting 'triclinic'
loop_
_space_group_symop_operation_xyz
x,y,z
-x,-y,-z
loop_
_atom_site_type_symbol
_atom_site_label
_atom_site_fract_x
_atom_site_fract_y
_atom_site_fract_z
Si Si1 0.899699 0.997870 0.111435
Si Si2 0.546046 0.351590 0.848546
Si Si3 0.113846 0.196744 0.945482
Si Si4 0.705792 0.743038 0.770739
Si Si5 0.621919 0.381272 0.332721
Si Si6 0.317767 0.509350 0.163067
Si Si7 0.679800 0.791526 0.369900
Si Si8 0.358545 0.006590 0.315450
O O1 0.536917 0.106591 0.157059
O O2 0.048986 0.032046 0.255813
O O3 0.017167 0.855779 0.033944
O O4 0.000000 0.000000 0.000000
O O5 0.476775 0.457384 0.842205
O O6 0.543024 0.247599 0.690660
O O7 0.879731 0.278466 0.884993
O O8 0.329752 0.418773 0.989186
O O9 0.411478 0.068067 0.821972
O O10 0.196822 0.270488 0.096267
O O11 0.508464 0.690092 0.692790
O O12 0.014348 0.687942 0.694018
O O13 0.500000 0.500000 0.500000
O O14 0.466224 0.434126 0.233813
O O15 0.001725 0.650892 0.268235
O O16 0.693216 0.865446 0.540270
O O17 0.532012 0.898221 0.343178
#
# Coordination Sequence:
#
# PCOD9064844 Si02
#       8
#     2   2   2   2   2   2   2   2
#     4  12  26  45  74 107 150 200 256 313 384 460
#     4  11  24  46  74 107 146 198 259 321 384 457
#     4  12  24  45  74 107 148 194 255 315 385 458
#     4  12  28  49  79 110 156 203 264 317 383 455
#     4  12  30  53  76 113 156 207 260 326 382 459
#     4  11  26  44  76 105 143 200 261 309 388 453
#     4  11  25  45  71 106 152 190 249 316 393 457
#     4  11  26  44  70 111 150 197 244 321 383 471
#
# _framework density 23.573450000000001
#
# number of rings (size 3 to 8) (size 9 to 14) (size 15 to 20)
#    0.000    0.500    5.000    1.875    7.000    1.500 
#    0.000    0.000    0.000    0.000    0.000    0.000 
#    0.000    0.000    0.000    0.000    0.000    0.000 
#
# Total GULP energy -89416.150732 kJ/mol
# GULP energy per Si atom -5588.509421 kJ/mol
# Density = 2.351980 g / cm^3
# Si number density = 23.573450 Si / 1000 Ang^3
#
#
#
# Elastic Constant Matrix: (Units=GPa)
#
#
# Indices 1 2 3 4 5 6 
#
# 1 91.7409 30.5362 38.4762 13.2963 3.0004 -12.1882
# 2 30.5362 85.0157 3.2965 13.5405 1.4777 -15.6529
# 3 38.4762 3.2965 106.5779 22.7794 11.7085 -15.0120
# 4 13.2963 13.5405 22.7794 31.2554 5.1105 -4.6699
# 5 3.0004 1.4777 11.7085 5.1105 30.3495 10.7245
# 6 -12.1882 -15.6529 -15.0120 -4.6699 10.7245 53.0723
#
#
#
# Elastic Compliance Matrix: (Units=1/GPa)
#
#
# Indices 1 2 3 4 5 6 
#
# 1 0.014798 -0.005002 -0.005129 -0.000469 0.000739 0.000282
# 2 -0.005002 0.015187 0.003431 -0.005993 -0.002038 0.004185
# 3 -0.005129 0.003431 0.013996 -0.008044 -0.005164 0.004129
# 4 -0.000469 -0.005993 -0.008044 0.041268 -0.003580 0.000204
# 5 0.000739 -0.002038 -0.005164 -0.003580 0.039146 -0.010118
# 6 0.000282 0.004185 0.004129 0.000204 -0.010118 0.023372
#
#
# Mechanical properties :
#
#
# Convention : Reuss Voigt Hill
#
# Bulk Modulus (GPa) = 32.70182 47.55026 40.12604
# Shear Modulus (GPa) = 29.17814 37.00380 33.09097
#
# Velocity S-wave (km/s) = 3.52199 3.96627 3.75072
# Velocity P-wave (km/s) = 5.51739 6.41794 5.98463
#
# Compressibility (1/GPa) = 0.03057934
#
# Stress axis : x y z
#
# Youngs Moduli (GPa) = 67.57886 65.84667 71.44707
#
# Poissons Ratio (x) = 0.32940 0.36643
# Poissons Ratio (y) = 0.33806 -0.24510
# Poissons Ratio (z) = 0.34659 -0.22589
#
# Static dielectric constant tensor:
#      x y z
#    x 2.041860 -0.003430 -0.031040 
#    y -0.003430 1.852660 -0.004140 
#    z -0.031040 -0.004140 1.913140 
# 
# From -- ./inp_files/369516.got.cif
#   From: 2010.05.17/outbox.cif.g08.bks.cpg/sg2_185_cif.got.tgz:369516.got - 2010.06.03 11:33:40.
