data_PCOD9064679
_publ_section_title
;
Structure prediction by ZEFSAII (Michael W. Deem and Ramdas Pophale) SiO2 
 PCOD9064679
Probable space group: P -1
;
_chemical_formula_sum "Si O2"
_cell_formula_units_Z 12
_cell_length_a 5.016551
_cell_length_b 9.573207
_cell_length_c 13.786204
_cell_angle_alpha 128.259200
_cell_angle_beta 98.059464
_cell_angle_gamma 105.769136
_cell_volume 456.721442
_symmetry_space_group_name_H-M "P -1"
_symmetry_group_IT_number 2
_symmetry_cell_setting 'triclinic'
loop_
_space_group_symop_operation_xyz
x,y,z
-x,-y,-z
loop_
_atom_site_type_symbol
_atom_site_label
_atom_site_fract_x
_atom_site_fract_y
_atom_site_fract_z
Si Si1 0.495450 0.298080 0.617362
Si Si2 0.390444 0.152003 0.993575
Si Si3 0.451510 0.022652 0.656287
Si Si4 0.192927 0.274093 0.217785
Si Si5 0.907430 0.677207 0.558256
Si Si6 0.940072 0.280532 0.933340
O O1 0.390602 0.187524 0.666882
O O2 0.249531 0.330269 0.555709
O O3 0.781415 0.516590 0.730759
O O4 0.561456 0.144921 0.490794
O O5 0.696239 0.198622 0.973335
O O6 0.236662 0.266556 0.975131
O O7 0.131357 0.921116 0.885767
O O8 0.411285 0.230489 0.138804
O O9 0.774728 0.136179 0.772457
O O10 0.201896 0.893156 0.665591
O O11 0.280168 0.316620 0.354130
O O12 0.000000 0.500000 0.500000
O O13 0.000000 0.500000 0.000000
#
# Coordination Sequence:
#
# PCOD9064679 Si02
#       6
#     2   2   2   2   2   2
#     4  11  25  45  69 107 147 191 247 306 378 440
#     4  11  27  46  74 110 146 197 248 309 367 444
#     4  11  25  46  71 104 148 194 246 310 372 443
#     4  11  24  46  71 109 148 194 246 307 371 446
#     4  12  24  43  75 107 145 196 245 310 373 444
#     4  12  26  50  76 107 148 197 250 306 373 445
#
# _framework density 26.274218999999999
#
# number of rings (size 3 to 8) (size 9 to 14) (size 15 to 20)
#    0.000    0.667    3.333    3.500    2.333    4.000 
#    6.000    0.000    0.000    0.000    0.000    0.000 
#    0.000    0.000    0.000    0.000    0.000    0.000 
#
# Total GULP energy -67297.244189 kJ/mol
# GULP energy per Si atom -5608.103682 kJ/mol
# Density = 2.621442 g / cm^3
# Si number density = 26.274219 Si / 1000 Ang^3
#
#
#
# Elastic Constant Matrix: (Units=GPa)
#
#
# Indices 1 2 3 4 5 6 
#
# 1 75.4988 29.6142 -0.4282 -8.3419 3.7030 -35.7783
# 2 29.6142 161.3070 32.1472 12.8111 -13.7849 -36.8099
# 3 -0.4282 32.1472 119.1855 5.1307 -13.4070 -8.4035
# 4 -8.3419 12.8111 5.1307 56.3025 -4.6985 -6.6525
# 5 3.7030 -13.7849 -13.4070 -4.6985 26.9730 -4.6132
# 6 -35.7783 -36.8099 -8.4035 -6.6525 -4.6132 53.0001
#
#
#
# Elastic Compliance Matrix: (Units=1/GPa)
#
#
# Indices 1 2 3 4 5 6 
#
# 1 0.020977 -0.001227 0.001235 0.004981 0.000398 0.014164
# 2 -0.001227 0.008283 -0.001350 -0.000988 0.004409 0.004970
# 3 0.001235 -0.001350 0.009338 0.000191 0.004116 0.001759
# 4 0.004981 -0.000988 0.000191 0.019623 0.003257 0.005453
# 5 0.000398 0.004409 0.004116 0.003257 0.043281 0.008159
# 6 0.014164 0.004970 0.001759 0.005453 0.008159 0.033555
#
#
# Mechanical properties :
#
#
# Convention : Reuss Voigt Hill
#
# Bulk Modulus (GPa) = 27.84342 53.18419 40.51381
# Shear Modulus (GPa) = 33.39784 46.89898 40.14841
#
# Velocity S-wave (km/s) = 3.56915 4.22949 3.91327
# Velocity P-wave (km/s) = 5.25408 6.64359 5.98927
#
# Compressibility (1/GPa) = 0.03591513
#
# Stress axis : x y z
#
# Youngs Moduli (GPa) = 47.67208 120.72925 107.09402
#
# Poissons Ratio (x) = 0.14809 -0.13228
# Poissons Ratio (y) = 0.05848 0.14454
# Poissons Ratio (z) = -0.05888 0.16294
#
# Static dielectric constant tensor:
#      x y z
#    x 2.045040 0.000090 0.032940 
#    y 0.000090 2.077280 -0.018840 
#    z 0.032940 -0.018840 2.107510 
# 
# From -- ./inp_files/482345.got.cif
#   From: 2010.05.17/outbox.cif.g08.bks.cpg/sg2_242_cif.got.tgz:482345.got - 2010.06.03 11:33:40.
