data_PCOD9064251
_publ_section_title
;
Structure prediction by ZEFSAII (Michael W. Deem and Ramdas Pophale) SiO2 
 PCOD9064251
Probable space group: P -1
;
_chemical_formula_sum "Si O2"
_cell_formula_units_Z 14
_cell_length_a 17.458315
_cell_length_b 11.355751
_cell_length_c 9.148649
_cell_angle_alpha 70.737391
_cell_angle_beta 38.140731
_cell_angle_gamma 42.746509
_cell_volume 613.415091
_symmetry_space_group_name_H-M "P -1"
_symmetry_group_IT_number 2
_symmetry_cell_setting 'triclinic'
loop_
_space_group_symop_operation_xyz
x,y,z
-x,-y,-z
loop_
_atom_site_type_symbol
_atom_site_label
_atom_site_fract_x
_atom_site_fract_y
_atom_site_fract_z
Si Si1 0.201450 0.318520 0.372471
Si Si2 0.137671 0.054564 0.198237
Si Si3 0.513523 0.371046 0.645471
Si Si4 0.338220 0.941963 0.256140
Si Si5 0.580712 0.102561 0.416719
Si Si6 0.706740 0.352709 0.852656
Si Si7 0.773077 0.679371 0.345355
O O1 0.171251 0.400452 0.542204
O O2 0.000000 0.500000 0.500000
O O3 0.217485 0.155187 0.424616
O O4 0.416538 0.209727 0.038015
O O5 0.890287 0.272059 0.519954
O O6 0.270301 0.992578 0.167101
O O7 0.196114 0.861813 0.173133
O O8 0.212306 0.047931 0.934975
O O9 0.500000 0.500000 0.500000
O O10 0.694471 0.165625 0.572535
O O11 0.524550 0.244753 0.570311
O O12 0.342469 0.543582 0.959229
O O13 0.382429 0.279430 0.531255
O O14 0.625050 0.926248 0.477949
O O15 0.500000 0.500000 0.000000
O O16 0.000000 0.500000 0.000000
#
# Coordination Sequence:
#
# PCOD9064251 Si02
#       7
#     2   2   2   2   2   2   2
#     4  11  26  43  70 107 141 187 242 297 362 425
#     4  11  24  45  72  98 139 195 240 295 356 434
#     4  12  25  47  73 104 149 191 234 306 370 430
#     4  11  25  45  70 102 142 187 245 295 352 444
#     4  11  25  48  70 105 151 187 243 301 367 435
#     4  11  25  45  69 104 137 186 245 293 354 435
#     4  11  26  43  72 107 143 189 241 306 368 425
#
# _framework density 22.823043999999999
#
# number of rings (size 3 to 8) (size 9 to 14) (size 15 to 20)
#    0.000    0.857    5.714    0.000    6.000    1.143 
#    0.000    1.429    0.000    0.000    0.000    0.000 
#    0.000    0.000    0.000    0.000    0.000    0.000 
#
# Total GULP energy -78040.896573 kJ/mol
# GULP energy per Si atom -5574.349755 kJ/mol
# Density = 2.277110 g / cm^3
# Si number density = 22.823044 Si / 1000 Ang^3
#
#
#
# Elastic Constant Matrix: (Units=GPa)
#
#
# Indices 1 2 3 4 5 6 
#
# 1 135.4655 19.5009 57.6548 16.0043 30.6606 -11.1672
# 2 19.5009 94.6497 11.1654 4.3161 4.5074 6.0314
# 3 57.6548 11.1654 120.4433 14.3329 14.4575 -16.9020
# 4 16.0043 4.3161 14.3329 29.5514 -5.0270 1.7234
# 5 30.6606 4.5074 14.4575 -5.0270 44.3730 8.5947
# 6 -11.1672 6.0314 -16.9020 1.7234 8.5947 44.6683
#
#
#
# Elastic Compliance Matrix: (Units=1/GPa)
#
#
# Indices 1 2 3 4 5 6 
#
# 1 0.012015 -0.001640 -0.003274 -0.006358 -0.008539 0.003875
# 2 -0.001640 0.011098 -0.000610 -0.000201 0.000617 -0.002250
# 3 -0.003274 -0.000610 0.011365 -0.004357 -0.002696 0.004251
# 4 -0.006358 -0.000201 -0.004357 0.041875 0.011958 -0.007127
# 5 -0.008539 0.000617 -0.002696 0.011958 0.032536 -0.009960
# 6 0.003875 -0.002250 0.004251 -0.007127 -0.009960 0.027460
#
#
# Mechanical properties :
#
#
# Convention : Reuss Voigt Hill
#
# Bulk Modulus (GPa) = 42.67849 58.57786 50.62818
# Shear Modulus (GPa) = 32.21529 41.20104 36.70817
#
# Velocity S-wave (km/s) = 3.76110 4.25342 4.01481
# Velocity P-wave (km/s) = 6.13201 7.06002 6.61232
#
# Compressibility (1/GPa) = 0.02343101
#
# Stress axis : x y z
#
# Youngs Moduli (GPa) = 83.23127 90.10488 87.98974
#
# Poissons Ratio (x) = 0.14773 0.28807
# Poissons Ratio (y) = 0.13646 0.05367
# Poissons Ratio (z) = 0.27249 0.05496
#
# Static dielectric constant tensor:
#      x y z
#    x 1.824760 0.008520 0.026450 
#    y 0.008520 1.990160 -0.008190 
#    z 0.026450 -0.008190 1.926370 
# 
# From -- ./inp_files/333083.got.cif
#   From: 2010.05.17/outbox.cif.g08.bks.cpg/sg2_167_cif.got.tgz:333083.got - 2010.06.03 11:33:40.
