data_PCOD9064883
_publ_section_title
;
Structure prediction by ZEFSAII (Michael W. Deem and Ramdas Pophale) SiO2 
 PCOD9064883
Probable space group: P -1
;
_chemical_formula_sum "Si O2"
_cell_formula_units_Z 12
_cell_length_a 17.012091
_cell_length_b 5.811588
_cell_length_c 5.205497
_cell_angle_alpha 99.098396
_cell_angle_beta 100.056004
_cell_angle_gamma 97.219161
_cell_volume 494.113925
_symmetry_space_group_name_H-M "P -1"
_symmetry_group_IT_number 2
_symmetry_cell_setting 'triclinic'
loop_
_space_group_symop_operation_xyz
x,y,z
-x,-y,-z
loop_
_atom_site_type_symbol
_atom_site_label
_atom_site_fract_x
_atom_site_fract_y
_atom_site_fract_z
Si Si1 0.545259 0.323642 0.639963
Si Si2 0.675326 0.641937 0.056847
Si Si3 0.217919 0.357959 0.378166
Si Si4 0.091183 0.528546 0.663621
Si Si5 0.909207 0.945865 0.045575
Si Si6 0.581391 0.015011 0.211626
O O1 0.500000 0.500000 0.500000
O O2 0.461588 0.156859 0.626866
O O3 0.605078 0.237782 0.446762
O O4 0.596986 0.440084 0.931521
O O5 0.720975 0.653445 0.354253
O O6 0.645307 0.896896 0.068082
O O7 0.733452 0.595641 0.850458
O O8 0.156525 0.524678 0.474095
O O9 0.154880 0.124634 0.231242
O O10 0.096190 0.292590 0.810368
O O11 0.000000 0.500000 0.500000
O O12 0.107608 0.798551 0.822056
O O13 0.000000 0.000000 0.000000
O O14 0.500000 0.000000 0.000000
#
# Coordination Sequence:
#
# PCOD9064883 Si02
#       6
#     2   2   2   2   2   2
#     4  11  24  46  75 105 150 200 263 314 387 472
#     4  12  27  49  73 116 160 198 261 332 404 460
#     4  12  29  49  75 121 158 209 259 339 409 471
#     4  12  27  51  86 119 160 214 274 329 398 488
#     4  12  27  51  86 119 162 214 275 331 396 488
#     4  11  25  44  77 110 142 208 263 315 386 482
#
# _framework density 24.285899000000001
#
# number of rings (size 3 to 8) (size 9 to 14) (size 15 to 20)
#    0.000    0.333    5.000    2.500    4.667    2.667 
#    0.000    0.000    0.000    0.000    0.000    0.000 
#    0.000    0.000    0.000    0.000    0.000    0.000 
#
# Total GULP energy -66837.351483 kJ/mol
# GULP energy per Si atom -5569.779290 kJ/mol
# Density = 2.423062 g / cm^3
# Si number density = 24.285899 Si / 1000 Ang^3
#
#
#
# Elastic Constant Matrix: (Units=GPa)
#
#
# Indices 1 2 3 4 5 6 
#
# 1 125.8247 38.7908 42.0844 17.0905 -6.1230 -6.8101
# 2 38.7908 121.3288 62.0634 24.1069 -14.3570 -17.4374
# 3 42.0844 62.0634 169.1440 30.8519 20.5818 -1.2993
# 4 17.0905 24.1069 30.8519 59.2005 1.8400 -9.1814
# 5 -6.1230 -14.3570 20.5818 1.8400 61.6536 9.5555
# 6 -6.8101 -17.4374 -1.2993 -9.1814 9.5555 29.5125
#
#
#
# Elastic Compliance Matrix: (Units=1/GPa)
#
#
# Indices 1 2 3 4 5 6 
#
# 1 0.009234 -0.001759 -0.001570 -0.001108 0.001010 0.000350
# 2 -0.001759 0.012412 -0.004181 -0.001676 0.003366 0.005132
# 3 -0.001570 -0.004181 0.008741 -0.002608 -0.003647 -0.002078
# 4 -0.001108 -0.001676 -0.002608 0.020097 -0.001040 0.005228
# 5 0.001010 0.003366 -0.003647 -0.001040 0.019039 -0.004426
# 6 0.000350 0.005132 -0.002078 0.005228 -0.004426 0.039965
#
#
# Mechanical properties :
#
#
# Convention : Reuss Voigt Hill
#
# Bulk Modulus (GPa) = 65.07848 78.01940 71.54894
# Shear Modulus (GPa) = 38.57157 48.29725 43.43441
#
# Velocity S-wave (km/s) = 3.98958 4.46432 4.23361
# Velocity P-wave (km/s) = 6.93378 7.66607 7.30910
#
# Compressibility (1/GPa) = 0.01536606
#
# Stress axis : x y z
#
# Youngs Moduli (GPa) = 108.29981 80.56591 114.40904
#
# Poissons Ratio (x) = 0.14170 0.17964
# Poissons Ratio (y) = 0.19048 0.47836
# Poissons Ratio (z) = 0.17005 0.33686
#
# Static dielectric constant tensor:
#      x y z
#    x 1.930060 -0.057440 -0.094820 
#    y -0.057440 1.847140 -0.003910 
#    z -0.094820 -0.003910 2.068760 
# 
# From -- ./inp_files/102039.got.cif
#   From: 2010.05.17/outbox.cif.g08.bks.cpg/sg2_52_cif.got.tgz:102039.got - 2010.06.03 11:33:40.
