data_PCOD9064637
_publ_section_title
;
Structure prediction by ZEFSAII (Michael W. Deem and Ramdas Pophale) SiO2 
 PCOD9064637
Probable space group: P -1
;
_chemical_formula_sum "Si O2"
_cell_formula_units_Z 16
_cell_length_a 8.835527
_cell_length_b 18.224687
_cell_length_c 6.783941
_cell_angle_alpha 102.301433
_cell_angle_beta 128.808875
_cell_angle_gamma 63.749415
_cell_volume 760.217744
_symmetry_space_group_name_H-M "P -1"
_symmetry_group_IT_number 2
_symmetry_cell_setting 'triclinic'
loop_
_space_group_symop_operation_xyz
x,y,z
-x,-y,-z
loop_
_atom_site_type_symbol
_atom_site_label
_atom_site_fract_x
_atom_site_fract_y
_atom_site_fract_z
Si Si1 0.398119 0.814523 0.598356
Si Si2 0.326938 0.090900 0.955760
Si Si3 0.188111 0.511345 0.272486
Si Si4 0.963718 0.185930 0.403961
Si Si5 0.974791 0.647085 0.498235
Si Si6 0.583771 0.656023 0.395604
Si Si7 0.964549 0.090357 0.953009
Si Si8 0.325910 0.566957 0.033997
O O1 0.548239 0.853767 0.841800
O O2 0.534654 0.729693 0.549859
O O3 0.241688 0.801193 0.623028
O O4 0.239968 0.873422 0.336802
O O5 0.173853 0.127543 0.663503
O O6 0.167406 0.088106 0.994863
O O7 0.500000 0.000000 0.000000
O O8 0.084162 0.590798 0.370108
O O9 0.304047 0.431008 0.452072
O O10 0.325390 0.527352 0.221387
O O11 0.000000 0.500000 0.000000
O O12 0.992304 0.269755 0.442276
O O13 0.940395 0.145744 0.157275
O O14 0.731618 0.662464 0.344045
O O15 0.099849 0.595670 0.760816
O O16 0.374821 0.647742 0.139091
O O17 0.000000 0.000000 0.000000
O O18 0.500000 0.500000 0.000000
#
# Coordination Sequence:
#
# PCOD9064637 Si02
#       8
#     2   2   2   2   2   2   2   2
#     4  11  26  44  67 102 136 175 222 274 332 395
#     4  11  25  45  71 102 134 174 220 268 335 402
#     4  12  25  44  67  93 133 176 221 279 329 384
#     4  11  26  44  68 100 138 175 218 278 330 391
#     4  12  26  45  65  97 134 173 224 276 328 391
#     4  12  25  44  67  96 133 175 224 273 330 392
#     4  11  24  46  71 100 137 172 219 273 330 403
#     4  12  25  43  66  93 127 173 227 270 329 391
#
# _framework density 21.046602
#
# number of rings (size 3 to 8) (size 9 to 14) (size 15 to 20)
#    0.000    0.500    2.500    5.250    3.500   10.000 
#    0.000    0.000    0.000    0.000    0.000    0.000 
#    0.000    0.000    0.000    0.000    0.000    0.000 
#
# Total GULP energy -89572.095171 kJ/mol
# GULP energy per Si atom -5598.255948 kJ/mol
# Density = 2.099870 g / cm^3
# Si number density = 21.046602 Si / 1000 Ang^3
#
#
#
# Elastic Constant Matrix: (Units=GPa)
#
#
# Indices 1 2 3 4 5 6 
#
# 1 118.8111 24.1702 25.0049 2.0239 -7.8925 9.5055
# 2 24.1702 84.3532 -3.7716 18.9783 -13.9522 3.3196
# 3 25.0049 -3.7716 72.0823 10.4940 -4.8277 3.9847
# 4 2.0239 18.9783 10.4940 39.5782 1.9602 -2.4132
# 5 -7.8925 -13.9522 -4.8277 1.9602 43.3575 6.4919
# 6 9.5055 3.3196 3.9847 -2.4132 6.4919 37.4890
#
#
#
# Elastic Compliance Matrix: (Units=1/GPa)
#
#
# Indices 1 2 3 4 5 6 
#
# 1 0.010042 -0.003332 -0.003808 0.001958 0.000514 -0.001809
# 2 -0.003332 0.016060 0.003834 -0.008990 0.005779 -0.002564
# 3 -0.003808 0.003834 0.016630 -0.006327 0.002988 -0.002066
# 4 0.001958 -0.008990 -0.006327 0.031654 -0.005259 0.003920
# 5 0.000514 0.005779 0.002988 -0.005259 0.026468 -0.005882
# 6 -0.001809 -0.002564 -0.002066 0.003920 -0.005882 0.028851
#
#
# Mechanical properties :
#
#
# Convention : Reuss Voigt Hill
#
# Bulk Modulus (GPa) = 27.68626 40.67263 34.17944
# Shear Modulus (GPa) = 33.70228 39.40780 36.55504
#
# Velocity S-wave (km/s) = 4.00599 4.33183 4.17209
# Velocity P-wave (km/s) = 5.88052 6.66233 6.28360
#
# Compressibility (1/GPa) = 0.03611900
#
# Stress axis : x y z
#
# Youngs Moduli (GPa) = 99.58592 62.26514 60.13189
#
# Poissons Ratio (x) = 0.20746 0.22900
# Poissons Ratio (y) = 0.33181 -0.23053
# Poissons Ratio (z) = 0.37926 -0.23871
#
# Static dielectric constant tensor:
#      x y z
#    x 1.704320 0.000090 0.015690 
#    y 0.000090 1.717430 -0.023500 
#    z 0.015690 -0.023500 1.771030 
# 
# From -- ./inp_files/48743.got.cif
#   From: 2010.05.17/outbox.cif.g08.bks.cpg/sg2_25_cif.got.tgz:48743.got - 2010.06.03 11:33:40.
