data_PCOD9064033
_publ_section_title
;
Structure prediction by ZEFSAII (Michael W. Deem and Ramdas Pophale) SiO2 
 PCOD9064033
Probable space group: P -1
;
_chemical_formula_sum "Si O2"
_cell_formula_units_Z 16
_cell_length_a 6.143445
_cell_length_b 27.198597
_cell_length_c 12.810061
_cell_angle_alpha 27.282453
_cell_angle_beta 45.563550
_cell_angle_gamma 55.357263
_cell_volume 691.042460
_symmetry_space_group_name_H-M "P -1"
_symmetry_group_IT_number 2
_symmetry_cell_setting 'triclinic'
loop_
_space_group_symop_operation_xyz
x,y,z
-x,-y,-z
loop_
_atom_site_type_symbol
_atom_site_label
_atom_site_fract_x
_atom_site_fract_y
_atom_site_fract_z
Si Si1 0.239573 0.663152 0.397923
Si Si2 0.610686 0.555196 0.750847
Si Si3 0.630594 0.875471 0.789154
Si Si4 0.366079 0.511246 0.353315
Si Si5 0.319693 0.258709 0.174304
Si Si6 0.648748 0.016609 0.038573
Si Si7 0.215591 0.733234 0.496390
Si Si8 0.699150 0.098342 0.435360
O O1 0.523501 0.597704 0.437513
O O2 0.095712 0.674679 0.539482
O O3 0.977432 0.589932 0.559138
O O4 0.350154 0.783051 0.090615
O O5 0.520135 0.481066 0.820315
O O6 0.470272 0.665332 0.578968
O O7 0.500000 0.500000 0.000000
O O8 0.743306 0.828784 0.731709
O O9 0.935944 0.879709 0.749500
O O10 0.559786 0.997001 0.598121
O O11 0.000000 0.500000 0.500000
O O12 0.539875 0.621489 0.138926
O O13 0.573814 0.209251 0.248660
O O14 0.030566 0.263101 0.337003
O O15 0.652550 0.144202 0.810871
O O16 0.500000 0.000000 0.000000
O O17 0.412283 0.944757 0.331545
O O18 0.000000 0.000000 0.000000
#
# Coordination Sequence:
#
# PCOD9064033 Si02
#       8
#     2   2   2   2   2   2   2   2
#     4  11  24  45  69  99 143 186 238 299 378 443
#     4  11  25  44  70 102 137 186 239 308 374 446
#     4  11  25  44  67 100 137 193 237 298 368 446
#     4  11  25  43  66 103 137 179 237 298 369 447
#     4  12  24  43  70  99 140 183 240 302 368 441
#     4  12  26  46  75 112 150 196 257 311 373 447
#     4  11  25  43  68 103 139 186 243 304 374 437
#     4  11  25  45  68 101 145 187 246 299 367 446
#
# _framework density 23.153424999999999
#
# number of rings (size 3 to 8) (size 9 to 14) (size 15 to 20)
#    0.000    0.750    2.500    4.125    1.750   10.000 
#    0.000    0.000    0.000    0.000    0.000    0.000 
#    0.000    0.000    0.000    0.000    0.000    0.000 
#
# Total GULP energy -89347.605808 kJ/mol
# GULP energy per Si atom -5584.225363 kJ/mol
# Density = 2.310073 g / cm^3
# Si number density = 23.153425 Si / 1000 Ang^3
#
#
#
# Elastic Constant Matrix: (Units=GPa)
#
#
# Indices 1 2 3 4 5 6 
#
# 1 64.7095 23.1073 0.6709 0.6223 3.4341 9.0823
# 2 23.1073 106.2576 0.8847 -0.5217 10.2817 4.2606
# 3 0.6709 0.8847 51.7069 -2.4102 -6.9802 5.4455
# 4 0.6223 -0.5217 -2.4102 47.0692 -0.4019 0.7557
# 5 3.4341 10.2817 -6.9802 -0.4019 31.1486 2.1039
# 6 9.0823 4.2606 5.4455 0.7557 2.1039 41.7025
#
#
#
# Elastic Compliance Matrix: (Units=1/GPa)
#
#
# Indices 1 2 3 4 5 6 
#
# 1 0.017227 -0.003568 0.000120 -0.000211 -0.000470 -0.003376
# 2 -0.003568 0.010503 -0.000552 0.000109 -0.003192 -0.000065
# 3 0.000120 -0.000552 0.020373 0.001124 0.004945 -0.002900
# 4 -0.000211 0.000109 0.001124 0.021320 0.000550 -0.000526
# 5 -0.000470 -0.003192 0.004945 0.000550 0.034457 -0.001966
# 6 -0.003376 -0.000065 -0.002900 -0.000526 -0.001966 0.025209
#
#
# Mechanical properties :
#
#
# Convention : Reuss Voigt Hill
#
# Bulk Modulus (GPa) = 24.93552 30.22217 27.57885
# Shear Modulus (GPa) = 33.23194 37.18480 35.20837
#
# Velocity S-wave (km/s) = 3.79264 4.01186 3.90379
# Velocity P-wave (km/s) = 5.47466 5.87719 5.67949
#
# Compressibility (1/GPa) = 0.04010343
#
# Stress axis : x y z
#
# Youngs Moduli (GPa) = 58.04802 95.20652 49.08449
#
# Poissons Ratio (x) = 0.33965 -0.00588
# Poissons Ratio (y) = 0.20709 0.02711
# Poissons Ratio (z) = -0.00695 0.05259
#
# Static dielectric constant tensor:
#      x y z
#    x 1.911160 0.046990 0.008570 
#    y 0.046990 1.885530 0.039160 
#    z 0.008570 0.039160 1.811710 
# 
# From -- ./inp_files/371395.got.cif
#   From: 2010.05.17/outbox.cif.g08.bks.cpg/sg2_186_cif.got.tgz:371395.got - 2010.06.03 11:33:40.
