data_PCOD9064973
_publ_section_title
;
Structure prediction by ZEFSAII (Michael W. Deem and Ramdas Pophale) SiO2 
 PCOD9064973
Probable space group: P -1
;
_chemical_formula_sum "Si O2"
_cell_formula_units_Z 16
_cell_length_a 16.075468
_cell_length_b 12.747672
_cell_length_c 7.688179
_cell_angle_alpha 39.829214
_cell_angle_beta 136.060472
_cell_angle_gamma 135.880153
_cell_volume 650.239218
_symmetry_space_group_name_H-M "P -1"
_symmetry_group_IT_number 2
_symmetry_cell_setting 'triclinic'
loop_
_space_group_symop_operation_xyz
x,y,z
-x,-y,-z
loop_
_atom_site_type_symbol
_atom_site_label
_atom_site_fract_x
_atom_site_fract_y
_atom_site_fract_z
Si Si1 0.534144 0.276717 0.707062
Si Si2 0.552193 0.019201 0.753779
Si Si3 0.817365 0.436345 0.894536
Si Si4 0.887014 0.104376 0.488999
Si Si5 0.280514 0.282608 0.193098
Si Si6 0.031483 0.355060 0.845890
Si Si7 0.835500 0.018212 0.135499
Si Si8 0.174056 0.306338 0.677006
O O1 0.537576 0.170467 0.666631
O O2 0.675291 0.424073 0.748699
O O3 0.412430 0.333765 0.428752
O O4 0.511631 0.152691 0.000750
O O5 0.500000 0.000000 0.500000
O O6 0.701925 0.046213 0.926480
O O7 0.831095 0.510601 0.627272
O O8 0.824983 0.250580 0.187542
O O9 0.936064 0.574874 0.998564
O O10 0.902088 0.046473 0.388590
O O11 0.028859 0.192635 0.673462
O O12 0.786408 0.930838 0.645019
O O13 0.167269 0.343495 0.010845
O O14 0.293061 0.345081 0.934952
O O15 0.000000 0.500000 0.500000
O O16 0.919698 0.163194 0.938281
O O17 0.808617 0.820996 0.283060
#
# Coordination Sequence:
#
# PCOD9064973 Si02
#       8
#     2   2   2   2   2   2   2   2
#     4  11  25  48  71 109 150 197 249 302 369 442
#     4  11  24  46  78 108 148 200 250 300 364 447
#     4  12  27  45  71 106 151 191 242 309 369 430
#     4  12  22  44  72 100 144 185 238 304 360 436
#     4  12  26  48  73 103 149 191 245 304 367 447
#     4  12  29  46  72 112 146 189 245 309 377 436
#     4  12  24  46  74 101 143 189 250 295 370 441
#     4  12  26  43  72 108 141 193 242 304 376 435
#
# _framework density 24.606331000000001
#
# number of rings (size 3 to 8) (size 9 to 14) (size 15 to 20)
#    0.000    0.250    5.000    4.125    5.250    1.000 
#    0.000    0.000    0.000    0.000    0.000    0.000 
#    0.000    0.000    0.000    0.000    0.000    0.000 
#
# Total GULP energy -89542.063065 kJ/mol
# GULP energy per Si atom -5596.378942 kJ/mol
# Density = 2.455033 g / cm^3
# Si number density = 24.606331 Si / 1000 Ang^3
#
#
#
# Elastic Constant Matrix: (Units=GPa)
#
#
# Indices 1 2 3 4 5 6 
#
# 1 94.7641 21.4032 30.6567 12.1321 15.7170 9.6981
# 2 21.4032 66.0011 38.1074 13.9778 0.7815 15.6324
# 3 30.6567 38.1074 141.2459 7.0635 0.9898 -1.4892
# 4 12.1321 13.9778 7.0635 34.8016 -5.1415 -0.6169
# 5 15.7170 0.7815 0.9898 -5.1415 48.6471 9.0039
# 6 9.6981 15.6324 -1.4892 -0.6169 9.0039 41.2591
#
#
#
# Elastic Compliance Matrix: (Units=1/GPa)
#
#
# Indices 1 2 3 4 5 6 
#
# 1 0.013028 -0.001674 -0.002159 -0.004091 -0.004268 -0.001636
# 2 -0.001674 0.022400 -0.005414 -0.007302 0.001119 -0.008642
# 3 -0.002159 -0.005414 0.008979 0.001185 0.000198 0.002857
# 4 -0.004091 -0.007302 0.001185 0.033554 0.004346 0.003324
# 5 -0.004268 0.001119 0.000198 0.004346 0.023188 -0.004409
# 6 -0.001636 -0.008642 0.002857 0.003324 -0.004409 0.029011
#
#
# Mechanical properties :
#
#
# Convention : Reuss Voigt Hill
#
# Bulk Modulus (GPa) = 38.59047 53.59398 46.09223
# Shear Modulus (GPa) = 31.78826 39.06450 35.42638
#
# Velocity S-wave (km/s) = 3.59816 3.98877 3.79849
# Velocity P-wave (km/s) = 5.74278 6.56060 6.16527
#
# Compressibility (1/GPa) = 0.02591313
#
# Stress axis : x y z
#
# Youngs Moduli (GPa) = 76.75817 44.64262 111.37681
#
# Poissons Ratio (x) = 0.07474 0.24044
# Poissons Ratio (y) = 0.12850 0.60298
# Poissons Ratio (z) = 0.16570 0.24169
#
# Static dielectric constant tensor:
#      x y z
#    x 2.054360 -0.077790 -0.025340 
#    y -0.077790 1.944500 -0.000490 
#    z -0.025340 -0.000490 1.969150 
# 
# From -- ./inp_files/335588.got.cif
#   From: 2010.05.17/outbox.cif.g08.bks.cpg/sg2_168_cif.got.tgz:335588.got - 2010.06.03 11:33:40.
