data_PCOD9064550
_publ_section_title
;
Structure prediction by ZEFSAII (Michael W. Deem and Ramdas Pophale) SiO2 
 PCOD9064550
Probable space group: P -1
;
_chemical_formula_sum "Si O2"
_cell_formula_units_Z 12
_cell_length_a 13.812823
_cell_length_b 8.295516
_cell_length_c 7.299584
_cell_angle_alpha 55.787256
_cell_angle_beta 48.955185
_cell_angle_gamma 58.995975
_cell_volume 507.191780
_symmetry_space_group_name_H-M "P -1"
_symmetry_group_IT_number 2
_symmetry_cell_setting 'triclinic'
loop_
_space_group_symop_operation_xyz
x,y,z
-x,-y,-z
loop_
_atom_site_type_symbol
_atom_site_label
_atom_site_fract_x
_atom_site_fract_y
_atom_site_fract_z
Si Si1 0.303266 0.413216 0.377470
Si Si2 0.176053 0.809058 0.766982
Si Si3 0.108610 0.167315 0.909615
Si Si4 0.512658 0.929934 0.821738
Si Si5 0.770544 0.148460 0.757244
Si Si6 0.544827 0.350905 0.372163
O O1 0.213180 0.303960 0.683165
O O2 0.364540 0.258470 0.240234
O O3 0.218752 0.637194 0.314845
O O4 0.437573 0.434212 0.298587
O O5 0.217741 0.843922 0.483117
O O6 0.298975 0.671941 0.808626
O O7 0.139837 0.016342 0.793363
O O8 0.045121 0.724102 0.979574
O O9 0.128279 0.031948 0.154570
O O10 0.531332 0.122646 0.563715
O O11 0.373222 0.879255 0.984355
O O12 0.500000 0.000000 0.000000
O O13 0.500000 0.500000 0.500000
#
# Coordination Sequence:
#
# PCOD9064550 Si02
#       6
#     2   2   2   2   2   2
#     4  12  24  44  70 102 137 180 234 279 345 409
#     4  11  24  46  68  99 142 182 229 282 346 403
#     4  11  25  46  71  95 144 186 221 290 338 409
#     4  12  22  40  67  99 139 174 227 292 337 399
#     4  12  24  43  70 103 134 182 234 278 342 411
#     4  12  22  42  68  99 134 174 226 286 335 397
#
# _framework density 23.659689
#
# number of rings (size 3 to 8) (size 9 to 14) (size 15 to 20)
#    0.000    0.333    6.667    2.500    0.000    2.000 
#    0.000    3.333    0.000    0.000    0.000    0.000 
#    0.000    0.000    0.000    0.000    0.000    0.000 
#
# Total GULP energy -67144.744302 kJ/mol
# GULP energy per Si atom -5595.395358 kJ/mol
# Density = 2.360584 g / cm^3
# Si number density = 23.659689 Si / 1000 Ang^3
#
#
#
# Elastic Constant Matrix: (Units=GPa)
#
#
# Indices 1 2 3 4 5 6 
#
# 1 76.7540 13.2978 42.5015 4.8596 -11.2109 -4.3233
# 2 13.2978 67.0558 24.9951 -9.5242 -14.4691 4.5530
# 3 42.5015 24.9951 93.3059 8.9520 -3.2622 -7.9291
# 4 4.8596 -9.5242 8.9520 35.5391 -5.3386 -1.8946
# 5 -11.2109 -14.4691 -3.2622 -5.3386 44.5341 22.0672
# 6 -4.3233 4.5530 -7.9291 -1.8946 22.0672 36.5441
#
#
#
# Elastic Compliance Matrix: (Units=1/GPa)
#
#
# Indices 1 2 3 4 5 6 
#
# 1 0.018406 0.001463 -0.008959 0.000897 0.006438 -0.003790
# 2 0.001463 0.023248 -0.008413 0.009698 0.014944 -0.013070
# 3 -0.008959 -0.008413 0.018120 -0.006449 -0.008863 0.008938
# 4 0.000897 0.009698 -0.006449 0.033426 0.010405 -0.007052
# 5 0.006438 0.014944 -0.008863 0.010405 0.043893 -0.028989
# 6 -0.003790 -0.013070 0.008938 -0.007052 -0.028989 0.047623
#
#
# Mechanical properties :
#
#
# Convention : Reuss Voigt Hill
#
# Bulk Modulus (GPa) = 35.76888 44.30049 40.03468
# Shear Modulus (GPa) = 22.13826 33.74488 27.94157
#
# Velocity S-wave (km/s) = 3.06223 3.78068 3.44026
# Velocity P-wave (km/s) = 5.25870 6.15002 5.72174
#
# Compressibility (1/GPa) = 0.02795726
#
# Stress axis : x y z
#
# Youngs Moduli (GPa) = 54.32928 43.01420 55.18616
#
# Poissons Ratio (x) = -0.06295 0.49443
# Poissons Ratio (y) = -0.07951 0.46428
# Poissons Ratio (z) = 0.48675 0.36188
#
# Static dielectric constant tensor:
#      x y z
#    x 1.949410 -0.070620 0.031110 
#    y -0.070620 2.040870 -0.033350 
#    z 0.031110 -0.033350 1.940000 
# 
# From -- ./inp_files/173235.got.cif
#   From: 2010.05.17/outbox.cif.g08.bks.cpg/sg2_87_cif.got.tgz:173235.got - 2010.06.03 11:33:40.
