data_PCOD9064594
_publ_section_title
;
Structure prediction by ZEFSAII (Michael W. Deem and Ramdas Pophale) SiO2 
 PCOD9064594
Probable space group: P -1
;
_chemical_formula_sum "Si O2"
_cell_formula_units_Z 16
_cell_length_a 9.652220
_cell_length_b 12.121033
_cell_length_c 20.896313
_cell_angle_alpha 28.653545
_cell_angle_beta 141.265785
_cell_angle_gamma 127.438411
_cell_volume 709.193410
_symmetry_space_group_name_H-M "P -1"
_symmetry_group_IT_number 2
_symmetry_cell_setting 'triclinic'
loop_
_space_group_symop_operation_xyz
x,y,z
-x,-y,-z
loop_
_atom_site_type_symbol
_atom_site_label
_atom_site_fract_x
_atom_site_fract_y
_atom_site_fract_z
Si Si1 0.749888 0.021058 0.931699
Si Si2 0.464190 0.721044 0.922030
Si Si3 0.256034 0.503826 0.071185
Si Si4 0.789974 0.891282 0.466839
Si Si5 0.093157 0.710730 0.396856
Si Si6 0.475837 0.957246 0.438205
Si Si7 0.318269 0.406544 0.521049
Si Si8 0.296715 0.872146 0.993999
O O1 0.498746 0.208820 0.729247
O O2 0.674433 0.779832 0.007538
O O3 0.783366 0.100435 0.975730
O O4 0.000000 0.000000 0.000000
O O5 0.381845 0.931259 0.733602
O O6 0.500000 0.500000 0.000000
O O7 0.288484 0.669718 0.938658
O O8 0.376848 0.229020 0.238994
O O9 0.353028 0.616375 0.110717
O O10 0.000000 0.500000 0.000000
O O11 0.843620 0.668514 0.551963
O O12 0.680838 0.853804 0.514723
O O13 0.000000 0.000000 0.500000
O O14 0.162998 0.615193 0.400049
O O15 0.000000 0.500000 0.500000
O O16 0.315176 0.776876 0.469926
O O17 0.903643 0.957428 0.205876
O O18 0.500000 0.000000 0.500000
O O19 0.500000 0.500000 0.500000
O O20 0.500000 0.000000 0.000000
#
# Coordination Sequence:
#
# PCOD9064594 Si02
#       8
#     2   2   2   2   2   2   2   2
#     4  11  26  43  73 104 141 188 243 298 355 429
#     4  11  25  47  71 102 143 186 244 296 358 427
#     4  12  27  47  75 103 148 194 237 301 363 427
#     4  11  27  46  72 103 143 188 241 296 360 432
#     4  12  28  47  73 104 149 191 237 303 363 433
#     4  12  29  49  71 110 147 189 244 300 368 434
#     4  11  24  46  70 101 143 185 238 294 361 425
#     4  12  26  47  71 106 144 190 245 292 360 429
#
# _framework density 22.560841
#
# number of rings (size 3 to 8) (size 9 to 14) (size 15 to 20)
#    0.000    0.500    5.000    1.500   12.250    2.000 
#    0.000    0.000    0.000    0.000    0.000    0.000 
#    0.000    0.000    0.000    0.000    0.000    0.000 
#
# Total GULP energy -89180.865375 kJ/mol
# GULP energy per Si atom -5573.804086 kJ/mol
# Density = 2.250949 g / cm^3
# Si number density = 22.560841 Si / 1000 Ang^3
#
#
#
# Elastic Constant Matrix: (Units=GPa)
#
#
# Indices 1 2 3 4 5 6 
#
# 1 138.1401 49.9586 -7.7506 6.5546 -9.2794 -6.6179
# 2 49.9586 184.0074 -13.0109 -5.6399 -1.0598 -7.1122
# 3 -7.7506 -13.0109 29.8638 -2.1060 -1.9664 -5.2556
# 4 6.5546 -5.6399 -2.1060 27.6378 -4.8659 6.6709
# 5 -9.2794 -1.0598 -1.9664 -4.8659 31.2531 -1.7551
# 6 -6.6179 -7.1122 -5.2556 6.6709 -1.7551 51.4459
#
#
#
# Elastic Compliance Matrix: (Units=1/GPa)
#
#
# Indices 1 2 3 4 5 6 
#
# 1 0.008433 -0.002193 0.001450 -0.002256 0.002243 0.001299
# 2 -0.002193 0.006280 0.002404 0.001848 0.000034 0.000593
# 3 0.001450 0.002404 0.036012 0.002526 0.003395 0.003986
# 4 -0.002256 0.001848 0.002526 0.039375 0.005418 -0.004697
# 5 0.002243 0.000034 0.003395 0.005418 0.033782 0.001090
# 6 0.001299 0.000593 0.003986 -0.004697 0.001090 0.020740
#
#
# Mechanical properties :
#
#
# Convention : Reuss Voigt Hill
#
# Bulk Modulus (GPa) = 18.50240 45.60064 32.05152
# Shear Modulus (GPa) = 31.38403 43.58830 37.48616
#
# Velocity S-wave (km/s) = 3.73377 4.40026 4.08064
# Velocity P-wave (km/s) = 5.17754 6.78768 6.03654
#
# Compressibility (1/GPa) = 0.05404705
#
# Stress axis : x y z
#
# Youngs Moduli (GPa) = 118.57507 159.24260 27.76839
#
# Poissons Ratio (x) = 0.34925 -0.04028
# Poissons Ratio (y) = 0.26006 -0.06674
# Poissons Ratio (z) = -0.17198 -0.38276
#
# Static dielectric constant tensor:
#      x y z
#    x 1.700070 1.858250 -0.829550 
#    y 1.858250 -24.283010 11.614290 
#    z -0.829550 11.614290 -3.236630 
# 
# From -- ./inp_files/217684.got.cif
#   From: 2010.05.17/outbox.cif.g08.bks.cpg/sg2_109_cif.got.tgz:217684.got - 2010.06.03 11:33:40.
