data_PCOD9064459
_publ_section_title
;
Structure prediction by ZEFSAII (Michael W. Deem and Ramdas Pophale) SiO2 
 PCOD9064459
Probable space group: P -1
;
_chemical_formula_sum "Si O2"
_cell_formula_units_Z 15
_cell_length_a 8.006419
_cell_length_b 12.356693
_cell_length_c 9.240319
_cell_angle_alpha 68.258719
_cell_angle_beta 108.263390
_cell_angle_gamma 136.450223
_cell_volume 583.603255
_symmetry_space_group_name_H-M "P -1"
_symmetry_group_IT_number 2
_symmetry_cell_setting 'triclinic'
loop_
_space_group_symop_operation_xyz
x,y,z
-x,-y,-z
loop_
_atom_site_type_symbol
_atom_site_label
_atom_site_fract_x
_atom_site_fract_y
_atom_site_fract_z
Si Si1 0.500000 0.500000 0.500000
Si Si2 0.974462 0.770821 0.166777
Si Si3 0.719274 0.781728 0.605536
Si Si4 0.153374 0.541080 0.663458
Si Si5 0.705564 0.007518 0.608651
Si Si6 0.483262 0.298786 0.822629
Si Si7 0.666211 0.235654 0.153616
Si Si8 0.819494 0.060900 0.157694
O O1 0.715631 0.691775 0.516083
O O2 0.588286 0.442654 0.672107
O O3 0.935276 0.616928 0.206885
O O4 0.724981 0.727532 0.131800
O O5 0.091364 0.832372 0.327516
O O6 0.135919 0.895594 0.021386
O O7 0.430418 0.640091 0.638313
O O8 0.767723 0.943654 0.531882
O O9 0.916001 0.833398 0.751475
O O10 0.153354 0.642366 0.731118
O O11 0.000000 0.500000 0.500000
O O12 0.587048 0.876759 0.770765
O O13 0.500000 0.000000 0.500000
O O14 0.353181 0.130974 0.788396
O O15 0.661152 0.321797 0.976274
O O16 0.703871 0.122570 0.165340
#
# Coordination Sequence:
#
# PCOD9064459 Si02
#       8
#     1   2   2   2   2   2   2   2
#     4  12  30  46  80 108 154 198 254 314 384 452
#     4  12  23  46  78 108 145 204 247 316 378 453
#     4  11  26  48  72 110 148 200 249 313 375 458
#     4  11  26  48  73 110 158 199 249 309 384 453
#     4  11  24  45  76 110 148 197 253 308 384 455
#     4  12  26  51  76 111 154 197 258 313 386 458
#     4  11  27  47  74 115 151 200 251 319 377 454
#     4  12  27  47  80 112 149 199 260 314 380 453
#
# _framework density 25.702394000000002
#
# number of rings (size 3 to 8) (size 9 to 14) (size 15 to 20)
#    0.000    0.533    4.000    4.000    5.600    4.267 
#    0.000    0.000    0.000    0.000    0.000    0.000 
#    0.000    0.000    0.000    0.000    0.000    0.000 
#
# Total GULP energy -83787.485103 kJ/mol
# GULP energy per Si atom -5585.832340 kJ/mol
# Density = 2.564389 g / cm^3
# Si number density = 25.702394 Si / 1000 Ang^3
#
#
#
# Elastic Constant Matrix: (Units=GPa)
#
#
# Indices 1 2 3 4 5 6 
#
# 1 94.4687 25.3392 45.2219 1.5186 4.3916 -9.0694
# 2 25.3392 116.0460 43.4160 7.6345 -6.5413 -30.8095
# 3 45.2219 43.4160 150.4159 9.1062 12.5776 -5.3561
# 4 1.5186 7.6345 9.1062 59.3713 -1.5741 6.9858
# 5 4.3916 -6.5413 12.5776 -1.5741 38.6680 2.4493
# 6 -9.0694 -30.8095 -5.3561 6.9858 2.4493 42.3815
#
#
#
# Elastic Compliance Matrix: (Units=1/GPa)
#
#
# Indices 1 2 3 4 5 6 
#
# 1 0.012683 -0.001164 -0.003383 0.000157 -0.000622 0.001450
# 2 -0.001164 0.012626 -0.003078 -0.002079 0.002631 0.008731
# 3 -0.003383 -0.003078 0.008789 -0.000760 -0.002928 -0.001556
# 4 0.000157 -0.002079 -0.000760 0.017783 0.000890 -0.004557
# 5 -0.000622 0.002631 -0.002928 0.000890 0.027386 -0.000320
# 6 0.001450 0.008731 -0.001556 -0.004557 -0.000320 0.030826
#
#
# Mechanical properties :
#
#
# Convention : Reuss Voigt Hill
#
# Bulk Modulus (GPa) = 53.05390 65.43164 59.24277
# Shear Modulus (GPa) = 37.98687 44.54772 41.26729
#
# Velocity S-wave (km/s) = 3.84858 4.16770 4.01132
# Velocity P-wave (km/s) = 6.35887 6.97656 6.67486
#
# Compressibility (1/GPa) = 0.01884875
#
# Stress axis : x y z
#
# Youngs Moduli (GPa) = 78.84718 79.20087 113.77811
#
# Poissons Ratio (x) = 0.09220 0.38489
# Poissons Ratio (y) = 0.09178 0.35017
# Poissons Ratio (z) = 0.26673 0.24375
#
# Static dielectric constant tensor:
#      x y z
#    x 2.103970 -0.008710 -0.048340 
#    y -0.008710 2.045850 0.053820 
#    z -0.048340 0.053820 1.994010 
# 
# From -- ./inp_files/186204.got.cif
#   From: 2010.05.17/outbox.cif.g08.bks.cpg/sg2_94_cif.got.tgz:186204.got - 2010.06.03 11:33:40.
