data_PCOD9064704
_publ_section_title
;
Structure prediction by ZEFSAII (Michael W. Deem and Ramdas Pophale) SiO2 
 PCOD9064704
Probable space group: P -1
;
_chemical_formula_sum "Si O2"
_cell_formula_units_Z 14
_cell_length_a 14.078004
_cell_length_b 15.223785
_cell_length_c 6.520291
_cell_angle_alpha 108.125091
_cell_angle_beta 82.635811
_cell_angle_gamma 152.062920
_cell_volume 587.489264
_symmetry_space_group_name_H-M "P -1"
_symmetry_group_IT_number 2
_symmetry_cell_setting 'triclinic'
loop_
_space_group_symop_operation_xyz
x,y,z
-x,-y,-z
loop_
_atom_site_type_symbol
_atom_site_label
_atom_site_fract_x
_atom_site_fract_y
_atom_site_fract_z
Si Si1 0.323771 0.364802 0.131494
Si Si2 0.420087 0.656658 0.361030
Si Si3 0.878585 0.571467 0.083659
Si Si4 0.299595 0.706215 0.749598
Si Si5 0.240669 0.863569 0.852331
Si Si6 0.116904 0.898758 0.559019
Si Si7 0.949764 0.948455 0.715768
O O1 0.363515 0.501565 0.303672
O O2 0.283668 0.260578 0.261749
O O3 0.500000 0.500000 0.000000
O O4 0.098836 0.154794 0.923666
O O5 0.309459 0.635381 0.524012
O O6 0.672362 0.892498 0.476474
O O7 0.338243 0.602174 0.111581
O O8 0.861014 0.466485 0.154942
O O9 0.934573 0.703394 0.316504
O O10 0.064260 0.724383 0.976097
O O11 0.245414 0.759664 0.715107
O O12 0.530841 0.914639 0.948028
O O13 0.184372 0.878662 0.686752
O O14 0.046745 0.930224 0.715678
O O15 0.000000 0.000000 0.500000
#
# Coordination Sequence:
#
# PCOD9064704 Si02
#       7
#     2   2   2   2   2   2   2
#     4  11  24  46  72 102 139 184 237 294 363 421
#     4  12  25  47  72 105 143 191 235 295 355 430
#     4  12  24  44  72 101 141 193 235 289 357 417
#     4  11  25  45  71 105 142 189 244 287 357 417
#     4  11  25  45  72 104 142 191 238 295 347 430
#     4  12  25  47  73 105 147 186 236 293 358 423
#     4  11  25  47  73 107 140 187 237 296 361 434
#
# _framework density 23.830224000000001
#
# number of rings (size 3 to 8) (size 9 to 14) (size 15 to 20)
#    0.000    0.571    4.286    3.857    0.000    5.714 
#    2.571    0.000    0.000    0.000    0.000    0.000 
#    0.000    0.000    0.000    0.000    0.000    0.000 
#
# Total GULP energy -78332.856118 kJ/mol
# GULP energy per Si atom -5595.204008 kJ/mol
# Density = 2.377598 g / cm^3
# Si number density = 23.830224 Si / 1000 Ang^3
#
#
#
# Elastic Constant Matrix: (Units=GPa)
#
#
# Indices 1 2 3 4 5 6 
#
# 1 58.4729 17.0090 27.1281 0.5268 -9.3086 -20.4586
# 2 17.0090 144.7008 35.1654 -18.7898 -8.3417 -24.4737
# 3 27.1281 35.1654 129.0569 1.2047 -14.0417 -17.0308
# 4 0.5268 -18.7898 1.2047 44.3715 1.6914 -6.0596
# 5 -9.3086 -8.3417 -14.0417 1.6914 34.0149 -3.3348
# 6 -20.4586 -24.4737 -17.0308 -6.0596 -3.3348 33.9549
#
#
#
# Elastic Compliance Matrix: (Units=1/GPa)
#
#
# Indices 1 2 3 4 5 6 
#
# 1 0.024504 0.001022 -0.002646 0.002019 0.007259 0.015247
# 2 0.001022 0.009217 -0.001503 0.004879 0.002423 0.007614
# 3 -0.002646 -0.001503 0.009336 -0.000676 0.003008 0.002179
# 4 0.002019 0.004879 -0.000676 0.025800 0.001080 0.009105
# 5 0.007259 0.002423 0.003008 0.001080 0.034264 0.011187
# 6 0.015247 0.007614 0.002179 0.009105 0.011187 0.047942
#
#
# Mechanical properties :
#
#
# Convention : Reuss Voigt Hill
#
# Bulk Modulus (GPa) = 27.17266 54.53729 40.85497
# Shear Modulus (GPa) = 29.48355 39.33012 34.40683
#
# Velocity S-wave (km/s) = 3.52125 4.06696 3.80390
# Velocity P-wave (km/s) = 5.28769 6.70738 6.03939
#
# Compressibility (1/GPa) = 0.03680170
#
# Stress axis : x y z
#
# Youngs Moduli (GPa) = 40.80892 108.49431 107.11629
#
# Poissons Ratio (x) = -0.11090 0.28348
# Poissons Ratio (y) = -0.04171 0.16105
# Poissons Ratio (z) = 0.10800 0.16312
#
# Static dielectric constant tensor:
#      x y z
#    x 1.913000 0.009950 0.047900 
#    y 0.009950 1.962070 -0.027150 
#    z 0.047900 -0.027150 1.905410 
# 
# From -- ./inp_files/98429.got.cif
#   From: 2010.05.17/outbox.cif.g08.bks.cpg/sg2_50_cif.got.tgz:98429.got - 2010.06.03 11:33:40.
