data_PCOD9064430
_publ_section_title
;
Structure prediction by ZEFSAII (Michael W. Deem and Ramdas Pophale) SiO2 
 PCOD9064430
Probable space group: P -1
;
_chemical_formula_sum "Si O2"
_cell_formula_units_Z 13
_cell_length_a 9.490526
_cell_length_b 11.954457
_cell_length_c 7.921424
_cell_angle_alpha 129.192695
_cell_angle_beta 116.145893
_cell_angle_gamma 97.074825
_cell_volume 510.547490
_symmetry_space_group_name_H-M "P -1"
_symmetry_group_IT_number 2
_symmetry_cell_setting 'triclinic'
loop_
_space_group_symop_operation_xyz
x,y,z
-x,-y,-z
loop_
_atom_site_type_symbol
_atom_site_label
_atom_site_fract_x
_atom_site_fract_y
_atom_site_fract_z
Si Si1 0.585741 0.736634 0.134701
Si Si2 0.286642 0.673291 0.431625
Si Si3 0.599312 0.655534 0.438382
Si Si4 0.796761 0.306242 0.214424
Si Si5 0.979631 0.259957 0.790674
Si Si6 0.000000 0.000000 0.500000
Si Si7 0.002369 0.145493 0.033257
O O1 0.638634 0.756331 0.379081
O O2 0.757095 0.889856 0.260400
O O3 0.540404 0.550653 0.872182
O O4 0.382703 0.713421 0.990586
O O5 0.493337 0.714787 0.555658
O O6 0.257882 0.724623 0.648015
O O7 0.217784 0.759254 0.346197
O O8 0.133884 0.461204 0.117154
O O9 0.784339 0.685344 0.652001
O O10 0.000000 0.500000 0.500000
O O11 0.845803 0.177797 0.037420
O O12 0.028067 0.181578 0.588172
O O13 0.991163 0.130088 0.807833
O O14 0.000000 0.000000 0.000000
#
# Coordination Sequence:
#
# PCOD9064430 Si02
#       7
#     2   2   2   2   2   1   2
#     4  11  25  44  77 106 156 194 256 304 376 448
#     4  11  25  44  76 110 145 198 250 306 372 455
#     4  11  24  45  75 110 144 205 249 305 379 447
#     4  12  25  47  76 109 148 197 251 306 375 452
#     4  11  25  43  72 102 154 189 245 307 372 438
#     4  12  26  44  72 112 146 196 246 316 368 430
#     4  12  27  47  75 109 150 193 250 316 374 444
#
# _framework density 25.462862999999999
#
# number of rings (size 3 to 8) (size 9 to 14) (size 15 to 20)
#    0.000    0.615    4.615    1.846    8.615    2.462 
#    0.000    4.615    0.000    0.000    0.000    0.000 
#    0.000    0.000    0.000    0.000    0.000    0.000 
#
# Total GULP energy -72631.418508 kJ/mol
# GULP energy per Si atom -5587.032193 kJ/mol
# Density = 2.540491 g / cm^3
# Si number density = 25.462863 Si / 1000 Ang^3
#
#
#
# Elastic Constant Matrix: (Units=GPa)
#
#
# Indices 1 2 3 4 5 6 
#
# 1 208.5725 54.5957 35.2461 -23.0424 1.2701 -19.5987
# 2 54.5957 118.1500 32.6382 -12.6162 -0.0555 -20.3806
# 3 35.2461 32.6382 78.3345 -9.0760 6.3467 2.1605
# 4 -23.0424 -12.6162 -9.0760 37.2794 -6.8807 4.0817
# 5 1.2701 -0.0555 6.3467 -6.8807 44.1153 0.8789
# 6 -19.5987 -20.3806 2.1605 4.0817 0.8789 50.3377
#
#
#
# Elastic Compliance Matrix: (Units=1/GPa)
#
#
# Indices 1 2 3 4 5 6 
#
# 1 0.005967 -0.001747 -0.001733 0.002597 0.000451 0.001472
# 2 -0.001747 0.011165 -0.003864 0.001476 0.000773 0.003873
# 3 -0.001733 -0.003864 0.015553 0.001381 -0.001918 -0.002985
# 4 0.002597 0.001476 0.001381 0.030195 0.004457 -0.000977
# 5 0.000451 0.000773 -0.001918 0.004457 0.023631 -0.000203
# 6 0.001472 0.003873 -0.002985 -0.000977 -0.000203 0.022218
#
#
# Mechanical properties :
#
#
# Convention : Reuss Voigt Hill
#
# Bulk Modulus (GPa) = 55.56699 72.22409 63.89554
# Shear Modulus (GPa) = 38.63497 45.18495 41.90996
#
# Velocity S-wave (km/s) = 3.89949 4.21710 4.06140
# Velocity P-wave (km/s) = 6.49190 7.22066 6.86596
#
# Compressibility (1/GPa) = 0.01799630
#
# Stress axis : x y z
#
# Youngs Moduli (GPa) = 167.58288 89.56867 64.29542
#
# Poissons Ratio (x) = 0.15649 0.11143
# Poissons Ratio (y) = 0.29279 0.24844
# Poissons Ratio (z) = 0.29045 0.34610
#
# Static dielectric constant tensor:
#      x y z
#    x 2.126330 0.035190 -0.111170 
#    y 0.035190 2.064360 0.033080 
#    z -0.111170 0.033080 2.136900 
# 
# From -- ./inp_files/149819.got.cif
#   From: 2010.05.17/outbox.cif.g08.bks.cpg/sg2_75_cif.got.tgz:149819.got - 2010.06.03 11:33:40.
