data_PCOD9064872
_publ_section_title
;
Structure prediction by ZEFSAII (Michael W. Deem and Ramdas Pophale) SiO2 
 PCOD9064872
Probable space group: P -1
;
_chemical_formula_sum "Si O2"
_cell_formula_units_Z 10
_cell_length_a 11.260189
_cell_length_b 6.460875
_cell_length_c 8.952361
_cell_angle_alpha 80.556317
_cell_angle_beta 125.289615
_cell_angle_gamma 124.029467
_cell_volume 428.194664
_symmetry_space_group_name_H-M "P -1"
_symmetry_group_IT_number 2
_symmetry_cell_setting 'triclinic'
loop_
_space_group_symop_operation_xyz
x,y,z
-x,-y,-z
loop_
_atom_site_type_symbol
_atom_site_label
_atom_site_fract_x
_atom_site_fract_y
_atom_site_fract_z
Si Si1 0.996301 0.224547 0.175861
Si Si2 0.785263 0.959676 0.781315
Si Si3 0.514929 0.454730 0.190752
Si Si4 0.736954 0.265216 0.502136
Si Si5 0.831754 0.016071 0.371524
O O1 0.091430 0.079957 0.230219
O O2 0.140428 0.487902 0.332502
O O3 0.832887 0.081162 0.190740
O O4 0.911220 0.197735 0.955965
O O5 0.667021 0.707415 0.828177
O O6 0.670441 0.023424 0.591364
O O7 0.603681 0.302853 0.309577
O O8 0.653648 0.743354 0.316255
O O9 0.500000 0.500000 0.000000
O O10 0.848252 0.228686 0.464192
O O11 0.000000 0.000000 0.500000
#
# Coordination Sequence:
#
# PCOD9064872 Si02
#       5
#     2   2   2   2   2
#     4  11  24  46  75 102 141 184 230 286 346 414
#     4  11  25  47  71 106 141 180 232 288 345 411
#     4  12  27  46  70 102 145 183 231 290 346 408
#     4  12  25  44  76 102 138 187 234 281 346 416
#     4  12  24  48  72 102 140 185 234 286 346 413
#
# _framework density 23.353864000000002
#
# number of rings (size 3 to 8) (size 9 to 14) (size 15 to 20)
#    0.000    0.400    6.000    1.800    0.000    5.600 
#    3.600    0.000    0.000    0.000    0.000    0.000 
#    0.000    0.000    0.000    0.000    0.000    0.000 
#
# Total GULP energy -55856.402624 kJ/mol
# GULP energy per Si atom -5585.640262 kJ/mol
# Density = 2.330071 g / cm^3
# Si number density = 23.353864 Si / 1000 Ang^3
#
#
#
# Elastic Constant Matrix: (Units=GPa)
#
#
# Indices 1 2 3 4 5 6 
#
# 1 111.8139 34.7011 48.6085 3.7760 -28.5238 -13.0568
# 2 34.7011 78.3349 39.0112 -3.6856 -18.0106 10.2425
# 3 48.6085 39.0112 136.3118 -18.6671 -18.6894 -17.9121
# 4 3.7760 -3.6856 -18.6671 54.0955 -4.4189 -4.2682
# 5 -28.5238 -18.0106 -18.6894 -4.4189 41.5022 4.9666
# 6 -13.0568 10.2425 -17.9121 -4.2682 4.9666 44.3513
#
#
#
# Elastic Compliance Matrix: (Units=1/GPa)
#
#
# Indices 1 2 3 4 5 6 
#
# 1 0.013047 -0.003567 -0.002665 -0.001383 0.005735 0.002813
# 2 -0.003567 0.018604 -0.004483 -0.000270 0.004494 -0.007686
# 3 -0.002665 -0.004483 0.010919 0.004119 0.000986 0.004947
# 4 -0.001383 -0.000270 0.004119 0.020434 0.002605 0.002994
# 5 0.005735 0.004494 0.000986 0.002605 0.030968 -0.002168
# 6 0.002813 -0.007686 0.004947 0.002994 -0.002168 0.027679
#
#
# Mechanical properties :
#
#
# Convention : Reuss Voigt Hill
#
# Bulk Modulus (GPa) = 47.30383 63.45579 55.37981
# Shear Modulus (GPa) = 33.30469 41.59911 37.45190
#
# Velocity S-wave (km/s) = 3.78046 4.22507 4.00893
# Velocity P-wave (km/s) = 6.27336 7.14367 6.72261
#
# Compressibility (1/GPa) = 0.02113994
#
# Stress axis : x y z
#
# Youngs Moduli (GPa) = 76.64446 53.75188 91.58381
#
# Poissons Ratio (x) = 0.19171 0.24410
# Poissons Ratio (y) = 0.27336 0.41059
# Poissons Ratio (z) = 0.20428 0.24098
#
# Static dielectric constant tensor:
#      x y z
#    x 1.845070 0.048990 -0.005690 
#    y 0.048990 1.916430 -0.030660 
#    z -0.005690 -0.030660 1.934790 
# 
# From -- ./inp_files/15709.got.cif
#   From: 2010.05.17/outbox.cif.g08.bks.cpg/sg2_8_cif.got.tgz:15709.got - 2010.06.03 11:33:40.
