data_PCOD9064572
_publ_section_title
;
Structure prediction by ZEFSAII (Michael W. Deem and Ramdas Pophale) SiO2 
 PCOD9064572
Probable space group: P -1
;
_chemical_formula_sum "Si O2"
_cell_formula_units_Z 16
_cell_length_a 5.110992
_cell_length_b 12.463078
_cell_length_c 25.115350
_cell_angle_alpha 28.487840
_cell_angle_beta 57.905688
_cell_angle_gamma 63.433687
_cell_volume 645.678773
_symmetry_space_group_name_H-M "P -1"
_symmetry_group_IT_number 2
_symmetry_cell_setting 'triclinic'
loop_
_space_group_symop_operation_xyz
x,y,z
-x,-y,-z
loop_
_atom_site_type_symbol
_atom_site_label
_atom_site_fract_x
_atom_site_fract_y
_atom_site_fract_z
Si Si1 0.456981 0.303185 0.145674
Si Si2 0.474253 0.496106 0.744233
Si Si3 0.069405 0.879578 0.183683
Si Si4 0.217336 0.242251 0.493277
Si Si5 0.603367 0.482128 0.435639
Si Si6 0.946549 0.190041 0.964883
Si Si7 0.364668 0.198584 0.089677
Si Si8 0.270086 0.752137 0.747399
O O1 0.486127 0.149608 0.157197
O O2 0.582896 0.204780 0.229395
O O3 0.087778 0.348057 0.167273
O O4 0.669583 0.533645 0.015903
O O5 0.675800 0.288300 0.794042
O O6 0.547060 0.687304 0.610012
O O7 0.498874 0.599905 0.755393
O O8 0.123204 0.401519 0.827146
O O9 0.765609 0.712433 0.293921
O O10 0.136558 0.996846 0.182498
O O11 0.065811 0.086156 0.052597
O O12 0.327099 0.394818 0.465322
O O13 0.879362 0.307443 0.482260
O O14 0.234323 0.986039 0.619329
O O15 0.500000 0.500000 0.500000
O O16 0.597370 0.213747 0.008129
O O17 0.000000 0.000000 0.000000
#
# Coordination Sequence:
#
# PCOD9064572 Si02
#       8
#     2   2   2   2   2   2   2   2
#     4  11  28  46  73 108 145 192 241 295 360 436
#     4  11  24  46  69 106 146 186 246 302 357 426
#     4  11  26  43  73 107 143 190 238 305 365 427
#     4  11  26  48  71 109 142 193 244 298 359 424
#     4  11  26  48  74 107 149 188 243 295 362 431
#     4  12  23  40  71 105 146 187 239 293 371 426
#     4  11  26  45  70 108 148 187 239 299 363 435
#     4  12  26  48  76 102 143 197 244 294 360 431
#
# _framework density 24.780123
#
# number of rings (size 3 to 8) (size 9 to 14) (size 15 to 20)
#    0.000    0.750    2.500    3.375    7.000    4.000 
#    0.000    4.375    0.000    0.000    0.000    0.000 
#    0.000    0.000    0.000    0.000    0.000    0.000 
#
# Total GULP energy -89428.857083 kJ/mol
# GULP energy per Si atom -5589.303568 kJ/mol
# Density = 2.472372 g / cm^3
# Si number density = 24.780123 Si / 1000 Ang^3
#
#
#
# Elastic Constant Matrix: (Units=GPa)
#
#
# Indices 1 2 3 4 5 6 
#
# 1 81.2766 18.8769 20.5962 0.1099 9.0243 12.8800
# 2 18.8769 122.2066 22.3269 13.8460 -4.9351 11.8936
# 3 20.5962 22.3269 93.1265 7.8292 4.1644 -0.9125
# 4 0.1099 13.8460 7.8292 47.2484 1.8726 -4.6996
# 5 9.0243 -4.9351 4.1644 1.8726 36.8731 2.2182
# 6 12.8800 11.8936 -0.9125 -4.6996 2.2182 19.2937
#
#
#
# Elastic Compliance Matrix: (Units=1/GPa)
#
#
# Indices 1 2 3 4 5 6 
#
# 1 0.015106 -0.000981 -0.003062 -0.000050 -0.002920 -0.009300
# 2 -0.000981 0.009809 -0.002028 -0.003281 0.002343 -0.006557
# 3 -0.003062 -0.002028 0.012068 -0.000984 -0.001061 0.003747
# 4 -0.000050 -0.003281 -0.000984 0.023151 -0.001965 0.007874
# 5 -0.002920 0.002343 -0.001061 -0.001965 0.028567 -0.003308
# 6 -0.009300 -0.006557 0.003747 0.007874 -0.003308 0.064557
#
#
# Mechanical properties :
#
#
# Convention : Reuss Voigt Hill
#
# Bulk Modulus (GPa) = 40.25546 46.68994 43.47270
# Shear Modulus (GPa) = 28.78855 36.33702 32.56278
#
# Velocity S-wave (km/s) = 3.41216 3.83349 3.62894
# Velocity P-wave (km/s) = 5.63951 6.20296 5.92793
#
# Compressibility (1/GPa) = 0.02484135
#
# Stress axis : x y z
#
# Youngs Moduli (GPa) = 66.20044 101.94262 82.86156
#
# Poissons Ratio (x) = 0.10001 0.25372
# Poissons Ratio (y) = 0.06495 0.16804
# Poissons Ratio (z) = 0.20270 0.20674
#
# Static dielectric constant tensor:
#      x y z
#    x 2.057920 -0.033120 0.162860 
#    y -0.033120 2.018210 -0.101930 
#    z 0.162860 -0.101930 2.802670 
# 
# From -- ./inp_files/604377.got.cif
#   From: 2010.05.17/outbox.cif.g08.bks.cpg/sg2_303_cif.got.tgz:604377.got - 2010.06.03 11:33:40.
