data_PCOD9064314
_publ_section_title
;
Structure prediction by ZEFSAII (Michael W. Deem and Ramdas Pophale) SiO2 
 PCOD9064314
Probable space group: P -1
;
_chemical_formula_sum "Si O2"
_cell_formula_units_Z 16
_cell_length_a 8.214936
_cell_length_b 19.758257
_cell_length_c 22.494268
_cell_angle_alpha 159.188966
_cell_angle_beta 37.884833
_cell_angle_gamma 149.148494
_cell_volume 663.459625
_symmetry_space_group_name_H-M "P -1"
_symmetry_group_IT_number 2
_symmetry_cell_setting 'triclinic'
loop_
_space_group_symop_operation_xyz
x,y,z
-x,-y,-z
loop_
_atom_site_type_symbol
_atom_site_label
_atom_site_fract_x
_atom_site_fract_y
_atom_site_fract_z
Si Si1 0.886626 0.271099 0.781451
Si Si2 0.272564 0.168177 0.366313
Si Si3 0.777908 0.253315 0.108809
Si Si4 0.366421 0.755180 0.991306
Si Si5 0.804128 0.959632 0.438383
Si Si6 0.878142 0.309216 0.556136
Si Si7 0.945096 0.612414 0.552733
Si Si8 0.238788 0.124880 0.913994
O O1 0.565259 0.189456 0.841657
O O2 0.108654 0.218722 0.712527
O O3 0.823064 0.120503 0.617636
O O4 0.068413 0.533707 0.926367
O O5 0.592723 0.415616 0.472790
O O6 0.024426 0.155893 0.380659
O O7 0.352188 0.978500 0.183049
O O8 0.069791 0.116399 0.442380
O O9 0.681276 0.297247 0.108375
O O10 0.090949 0.244102 0.019370
O O11 0.856246 0.452765 0.295512
O O12 0.500000 0.000000 0.000000
O O13 0.666680 0.805008 0.985905
O O14 0.427896 0.807639 0.409264
O O15 0.817721 0.346013 0.535989
O O16 0.000000 0.500000 0.500000
O O17 0.004121 0.851166 0.752128
#
# Coordination Sequence:
#
# PCOD9064314 Si02
#       8
#     2   2   2   2   2   2   2   2
#     4  11  24  45  73 110 148 189 246 308 368 441
#     4  12  25  45  75 107 148 192 249 306 369 442
#     4  12  29  50  72 110 153 194 248 307 366 443
#     4  12  26  46  75 111 148 193 244 305 374 438
#     4  11  24  46  74 108 145 191 254 303 367 437
#     4  12  26  48  72 108 148 193 245 312 367 437
#     4  12  24  47  75 105 142 194 249 298 369 444
#     4  12  25  50  76 106 149 198 245 303 377 440
#
# _framework density 24.116011
#
# number of rings (size 3 to 8) (size 9 to 14) (size 15 to 20)
#    0.000    0.250    3.750    4.875    3.500    1.000 
#    2.250    0.000    0.000    0.000    0.000    0.000 
#    0.000    0.000    0.000    0.000    0.000    0.000 
#
# Total GULP energy -89535.244212 kJ/mol
# GULP energy per Si atom -5595.952763 kJ/mol
# Density = 2.406112 g / cm^3
# Si number density = 24.116011 Si / 1000 Ang^3
#
#
#
# Elastic Constant Matrix: (Units=GPa)
#
#
# Indices 1 2 3 4 5 6 
#
# 1 78.6766 25.4665 26.2476 -5.9870 19.4308 -15.3166
# 2 25.4665 88.4066 15.8235 16.5840 4.5231 -3.0498
# 3 26.2476 15.8235 95.4594 17.8371 -0.6811 0.3899
# 4 -5.9870 16.5840 17.8371 43.9551 -5.3756 0.1667
# 5 19.4308 4.5231 -0.6811 -5.3756 31.8977 -6.8951
# 6 -15.3166 -3.0498 0.3899 0.1667 -6.8951 44.1985
#
#
#
# Elastic Compliance Matrix: (Units=1/GPa)
#
#
# Indices 1 2 3 4 5 6 
#
# 1 0.020171 -0.005199 -0.005877 0.005905 -0.009563 0.005169
# 2 -0.005199 0.013866 0.000263 -0.006042 0.000010 -0.000823
# 3 -0.005877 0.000263 0.013183 -0.005944 0.002449 -0.001730
# 4 0.005905 -0.006042 -0.005944 0.028528 0.002361 0.001942
# 5 -0.009563 0.000010 0.002449 0.002361 0.038190 0.002614
# 6 0.005169 -0.000823 -0.001730 0.001942 0.002614 0.024775
#
#
# Mechanical properties :
#
#
# Convention : Reuss Voigt Hill
#
# Bulk Modulus (GPa) = 39.06901 44.17974 41.62437
# Shear Modulus (GPa) = 29.60850 37.01058 33.30954
#
# Velocity S-wave (km/s) = 3.50773 3.92176 3.72051
# Velocity P-wave (km/s) = 5.71325 6.23429 5.97945
#
# Compressibility (1/GPa) = 0.02559574
#
# Stress axis : x y z
#
# Youngs Moduli (GPa) = 49.57559 72.11708 75.85438
#
# Poissons Ratio (x) = 0.37491 0.44581
# Poissons Ratio (y) = 0.25773 -0.01998
# Poissons Ratio (z) = 0.29137 -0.01900
#
# Static dielectric constant tensor:
#      x y z
#    x 2.019470 -0.004210 0.018480 
#    y -0.004210 1.907790 -0.011370 
#    z 0.018480 -0.011370 1.900090 
# 
# From -- ./inp_files/608660.got.cif
#   From: 2010.05.17/outbox.cif.g08.bks.cpg/sg2_305_cif.got.tgz:608660.got - 2010.06.03 11:33:40.
