data_PCOD9064118
_publ_section_title
;
Structure prediction by ZEFSAII (Michael W. Deem and Ramdas Pophale) SiO2 
 PCOD9064118
Probable space group: P -1
;
_chemical_formula_sum "Si O2"
_cell_formula_units_Z 16
_cell_length_a 9.240851
_cell_length_b 16.967182
_cell_length_c 12.681241
_cell_angle_alpha 33.075868
_cell_angle_beta 41.026504
_cell_angle_gamma 41.277024
_cell_volume 671.568832
_symmetry_space_group_name_H-M "P -1"
_symmetry_group_IT_number 2
_symmetry_cell_setting 'triclinic'
loop_
_space_group_symop_operation_xyz
x,y,z
-x,-y,-z
loop_
_atom_site_type_symbol
_atom_site_label
_atom_site_fract_x
_atom_site_fract_y
_atom_site_fract_z
Si Si1 0.547474 0.569859 0.005730
Si Si2 0.378022 0.878547 0.173257
Si Si3 0.953580 0.281333 0.839305
Si Si4 0.357432 0.408435 0.539687
Si Si5 0.889014 0.234554 0.699748
Si Si6 0.223314 0.189114 0.366309
Si Si7 0.087919 0.924091 0.706267
Si Si8 0.151649 0.692395 0.741570
O O1 0.578605 0.735252 0.809049
O O2 0.500000 0.500000 0.000000
O O3 0.303378 0.592434 0.172856
O O4 0.788068 0.455598 0.048936
O O5 0.562118 0.710112 0.274368
O O6 0.263958 0.870679 0.131958
O O7 0.154801 0.932960 0.313755
O O8 0.500000 0.000000 0.000000
O O9 0.993690 0.196725 0.800414
O O10 0.147580 0.360657 0.659351
O O11 0.933535 0.180495 0.065034
O O12 0.266711 0.585607 0.421096
O O13 0.598860 0.353552 0.403263
O O14 0.079308 0.215736 0.524985
O O15 0.061132 0.274504 0.260279
O O16 0.281201 0.008270 0.514429
O O17 0.111103 0.830883 0.690973
#
# Coordination Sequence:
#
# PCOD9064118 Si02
#       8
#     2   2   2   2   2   2   2   2
#     4  12  26  48  69 107 143 188 234 288 352 416
#     4  11  24  45  71 102 142 186 233 293 346 413
#     4  12  26  44  73 106 143 184 229 291 356 418
#     4  12  24  45  75 105 138 183 237 293 348 407
#     4  11  25  44  72 106 140 179 242 286 352 414
#     4  11  27  46  73 105 140 187 237 287 350 416
#     4  11  25  48  70 105 143 184 235 282 358 420
#     4  12  25  47  76 103 142 183 239 290 345 415
#
# _framework density 23.824811
#
# number of rings (size 3 to 8) (size 9 to 14) (size 15 to 20)
#    0.000    0.500    6.250    2.250    1.750    3.500 
#    0.000    0.000    0.000    0.000    0.000    0.000 
#    0.000    0.000    0.000    0.000    0.000    0.000 
#
# Total GULP energy -89350.665182 kJ/mol
# GULP energy per Si atom -5584.416574 kJ/mol
# Density = 2.377058 g / cm^3
# Si number density = 23.824811 Si / 1000 Ang^3
#
#
#
# Elastic Constant Matrix: (Units=GPa)
#
#
# Indices 1 2 3 4 5 6 
#
# 1 139.3788 32.8636 50.1655 -7.7183 -18.3799 32.5043
# 2 32.8636 75.0252 3.9895 -9.2358 -8.1610 17.2285
# 3 50.1655 3.9895 59.3550 -22.8545 -17.9078 18.1581
# 4 -7.7183 -9.2358 -22.8545 35.7360 3.6730 6.6601
# 5 -18.3799 -8.1610 -17.9078 3.6730 55.3281 -14.3204
# 6 32.5043 17.2285 18.1581 6.6601 -14.3204 49.4540
#
#
#
# Elastic Compliance Matrix: (Units=1/GPa)
#
#
# Indices 1 2 3 4 5 6 
#
# 1 0.013004 -0.005658 -0.013069 -0.006762 -0.000562 -0.001029
# 2 -0.005658 0.018721 0.011107 0.012055 0.001595 -0.008043
# 3 -0.013069 0.011107 0.045382 0.031105 0.006211 -0.014333
# 4 -0.006762 0.012055 0.031105 0.052704 0.001482 -0.017844
# 5 -0.000562 0.001595 0.006211 0.001482 0.020912 0.003389
# 6 -0.001029 -0.008043 -0.014333 -0.017844 0.003389 0.032347
#
#
# Mechanical properties :
#
#
# Convention : Reuss Voigt Hill
#
# Bulk Modulus (GPa) = 16.16351 49.75514 32.95933
# Shear Modulus (GPa) = 22.83812 40.55298 31.69555
#
# Velocity S-wave (km/s) = 3.09946 4.13017 3.65137
# Velocity P-wave (km/s) = 4.42809 6.60859 5.62501
#
# Compressibility (1/GPa) = 0.06186773
#
# Stress axis : x y z
#
# Youngs Moduli (GPa) = 76.89849 53.41532 22.03506
#
# Poissons Ratio (x) = 0.30225 0.28797
# Poissons Ratio (y) = 0.43513 -0.24475
# Poissons Ratio (z) = 1.00498 -0.59331
#
# Static dielectric constant tensor:
#      x y z
#    x 2.075500 -0.080090 -0.002330 
#    y -0.080090 1.915570 0.009780 
#    z -0.002330 0.009780 2.166270 
# 
# From -- ./inp_files/398349.got.cif
#   From: 2010.05.17/outbox.cif.g08.bks.cpg/sg2_200_cif.got.tgz:398349.got - 2010.06.03 11:33:40.
