data_PCOD9064840
_publ_section_title
;
Structure prediction by ZEFSAII (Michael W. Deem and Ramdas Pophale) SiO2 
 PCOD9064840
Probable space group: P -1
;
_chemical_formula_sum "Si O2"
_cell_formula_units_Z 16
_cell_length_a 9.964506
_cell_length_b 15.708772
_cell_length_c 15.787292
_cell_angle_alpha 146.110010
_cell_angle_beta 143.821326
_cell_angle_gamma 34.217535
_cell_volume 715.097382
_symmetry_space_group_name_H-M "P -1"
_symmetry_group_IT_number 2
_symmetry_cell_setting 'triclinic'
loop_
_space_group_symop_operation_xyz
x,y,z
-x,-y,-z
loop_
_atom_site_type_symbol
_atom_site_label
_atom_site_fract_x
_atom_site_fract_y
_atom_site_fract_z
Si Si1 0.859897 0.683832 0.626273
Si Si2 0.027638 0.765528 0.375159
Si Si3 0.680536 0.305903 0.040536
Si Si4 0.507840 0.187207 0.310499
Si Si5 0.221430 0.697012 0.108144
Si Si6 0.396323 0.184535 0.917940
Si Si7 0.724841 0.636409 0.826560
Si Si8 0.397563 0.947501 0.488205
O O1 0.721013 0.673647 0.633438
O O2 0.638645 0.826217 0.571468
O O3 0.000000 0.500000 0.500000
O O4 0.078757 0.729704 0.806992
O O5 0.891085 0.765903 0.218082
O O6 0.230514 0.837567 0.534153
O O7 0.175152 0.563873 0.308664
O O8 0.806030 0.883816 0.425703
O O9 0.467928 0.509988 0.099366
O O10 0.764854 0.260507 0.948781
O O11 0.542972 0.206103 0.930225
O O12 0.486946 0.250632 0.257007
O O13 0.483074 0.013106 0.154832
O O14 0.252588 0.838501 0.296332
O O15 0.963646 0.679645 0.976708
O O16 0.384926 0.309973 0.090847
O O17 0.500000 0.000000 0.500000
#
# Coordination Sequence:
#
# PCOD9064840 Si02
#       8
#     2   2   2   2   2   2   2   2
#     4  12  27  45  75 107 150 193 245 302 375 434
#     4  12  27  49  74 109 149 194 250 304 370 444
#     4  11  25  46  76 106 150 191 251 303 366 444
#     4  12  28  49  73 110 154 192 245 316 365 437
#     4  11  24  46  74 106 150 196 240 309 368 440
#     4  12  26  47  77 109 141 199 252 302 371 438
#     4  12  27  47  77 108 148 199 250 299 375 442
#     4  12  28  46  75 109 147 196 246 304 374 440
#
# _framework density 22.374573000000002
#
# number of rings (size 3 to 8) (size 9 to 14) (size 15 to 20)
#    0.000    0.250    5.000    3.000    7.000    2.500 
#    0.000    0.000    0.000    0.000    0.000    0.000 
#    0.000    0.000    0.000    0.000    0.000    0.000 
#
# Total GULP energy -89642.030953 kJ/mol
# GULP energy per Si atom -5602.626935 kJ/mol
# Density = 2.232365 g / cm^3
# Si number density = 22.374573 Si / 1000 Ang^3
#
#
#
# Elastic Constant Matrix: (Units=GPa)
#
#
# Indices 1 2 3 4 5 6 
#
# 1 66.2037 3.1749 8.3054 14.4082 -1.6052 -5.7876
# 2 3.1749 71.6642 21.3392 17.3654 -8.1448 6.3852
# 3 8.3054 21.3392 106.8266 1.0031 -1.2817 -3.5930
# 4 14.4082 17.3654 1.0031 39.0678 -4.6822 1.2461
# 5 -1.6052 -8.1448 -1.2817 -4.6822 33.4193 -2.9780
# 6 -5.7876 6.3852 -3.5930 1.2461 -2.9780 32.8849
#
#
#
# Elastic Compliance Matrix: (Units=1/GPa)
#
#
# Indices 1 2 3 4 5 6 
#
# 1 0.016956 0.001069 -0.001366 -0.006746 0.000337 0.002913
# 2 0.001069 0.017398 -0.003555 -0.007602 0.002820 -0.003035
# 3 -0.001366 -0.003555 0.010209 0.001755 -0.000162 0.001484
# 4 -0.006746 -0.007602 0.001755 0.031709 0.002287 -0.000514
# 5 0.000337 0.002820 -0.000162 0.002287 0.031139 0.002227
# 6 0.002913 -0.003035 0.001484 -0.000514 0.002227 0.031894
#
#
# Mechanical properties :
#
#
# Convention : Reuss Voigt Hill
#
# Bulk Modulus (GPa) = 27.13139 34.48151 30.80645
# Shear Modulus (GPa) = 31.38796 35.19940 33.29368
#
# Velocity S-wave (km/s) = 3.74951 3.97065 3.86166
# Velocity P-wave (km/s) = 5.55855 6.03870 5.80359
#
# Compressibility (1/GPa) = 0.03685768
#
# Stress axis : x y z
#
# Youngs Moduli (GPa) = 58.97581 57.47732 97.95386
#
# Poissons Ratio (x) = -0.06145 0.13385
# Poissons Ratio (y) = -0.06305 0.34826
# Poissons Ratio (z) = 0.08059 0.20435
#
# Static dielectric constant tensor:
#      x y z
#    x 1.822930 -0.003110 0.014320 
#    y -0.003110 1.817190 -0.005360 
#    z 0.014320 -0.005360 1.811380 
# 
# From -- ./inp_files/505644.got.cif
#   From: 2010.05.17/outbox.cif.g08.bks.cpg/sg2_253_cif.got.tgz:505644.got - 2010.06.03 11:33:40.
