data_PCOD9064545
_publ_section_title
;
Structure prediction by ZEFSAII (Michael W. Deem and Ramdas Pophale) SiO2 
 PCOD9064545
Probable space group: P -1
;
_chemical_formula_sum "Si O2"
_cell_formula_units_Z 16
_cell_length_a 5.520940
_cell_length_b 17.058427
_cell_length_c 9.255840
_cell_angle_alpha 82.272979
_cell_angle_beta 128.332907
_cell_angle_gamma 95.422348
_cell_volume 677.502478
_symmetry_space_group_name_H-M "P -1"
_symmetry_group_IT_number 2
_symmetry_cell_setting 'triclinic'
loop_
_space_group_symop_operation_xyz
x,y,z
-x,-y,-z
loop_
_atom_site_type_symbol
_atom_site_label
_atom_site_fract_x
_atom_site_fract_y
_atom_site_fract_z
Si Si1 0.055479 0.193901 0.712007
Si Si2 0.279006 0.933114 0.496607
Si Si3 0.268748 0.957127 0.812795
Si Si4 0.958804 0.720979 0.592188
Si Si5 0.237369 0.559864 0.651069
Si Si6 0.727163 0.316343 0.723536
Si Si7 0.735109 0.201760 0.037199
Si Si8 0.124163 0.501485 0.204071
O O1 0.751092 0.138224 0.614590
O O2 0.075520 0.203947 0.544590
O O3 0.985752 0.279317 0.728495
O O4 0.373521 0.173665 0.912351
O O5 0.364613 0.919866 0.700433
O O6 0.500000 0.000000 0.500000
O O7 0.943318 0.971944 0.340619
O O8 0.108726 0.884299 0.861880
O O9 0.500000 0.000000 0.000000
O O10 0.155919 0.651818 0.607929
O O11 0.125581 0.745959 0.794582
O O12 0.606886 0.690544 0.472808
O O13 0.555725 0.545414 0.687795
O O14 0.000000 0.500000 0.500000
O O15 0.151174 0.532977 0.789595
O O16 0.795783 0.407751 0.752907
O O17 0.745251 0.258587 0.885994
O O18 0.000000 0.500000 0.000000
#
# Coordination Sequence:
#
# PCOD9064545 Si02
#       8
#     2   2   2   2   2   2   2   2
#     4  11  25  44  65 101 140 176 231 292 349 422
#     4  11  26  42  70 101 135 180 227 288 347 417
#     4  11  24  46  68  95 138 176 227 280 344 421
#     4  11  25  45  69  96 140 184 233 287 359 427
#     4  12  25  46  75 104 142 195 247 299 371 433
#     4  11  27  43  69 100 140 180 232 298 351 424
#     4  11  25  45  67  99 135 186 227 284 359 424
#     4  12  27  47  73 107 147 191 248 308 365 435
#
# _framework density 23.616147999999999
#
# number of rings (size 3 to 8) (size 9 to 14) (size 15 to 20)
#    0.000    0.750    3.750    2.250    8.750    2.500 
#    0.000    0.000    0.000    0.000    0.000    0.000 
#    0.000    0.000    0.000    0.000    0.000    0.000 
#
# Total GULP energy -89157.200033 kJ/mol
# GULP energy per Si atom -5572.325002 kJ/mol
# Density = 2.356240 g / cm^3
# Si number density = 23.616148 Si / 1000 Ang^3
#
#
#
# Elastic Constant Matrix: (Units=GPa)
#
#
# Indices 1 2 3 4 5 6 
#
# 1 35.9998 7.2434 22.6313 -9.1903 -13.7964 1.4831
# 2 7.2434 112.2767 47.2612 -1.7378 -3.3158 2.6438
# 3 22.6313 47.2612 171.1425 20.1024 -22.3106 8.3266
# 4 -9.1903 -1.7378 20.1024 46.0299 9.7359 -3.0190
# 5 -13.7964 -3.3158 -22.3106 9.7359 25.0221 -1.9772
# 6 1.4831 2.6438 8.3266 -3.0190 -1.9772 35.7247
#
#
#
# Elastic Compliance Matrix: (Units=1/GPa)
#
#
# Indices 1 2 3 4 5 6 
#
# 1 0.037375 -0.000381 -0.003583 0.005854 0.015136 0.000644
# 2 -0.000381 0.010344 -0.003475 0.002449 -0.002881 0.000108
# 3 -0.003583 -0.003475 0.009241 -0.006757 0.008285 -0.001860
# 4 0.005854 0.002449 -0.006757 0.028985 -0.013525 0.002851
# 5 0.015136 -0.002881 0.008285 -0.013525 0.060567 -0.000137
# 6 0.000644 0.000108 -0.001860 0.002851 -0.000137 0.028624
#
#
# Mechanical properties :
#
#
# Convention : Reuss Voigt Hill
#
# Bulk Modulus (GPa) = 23.76231 52.63231 38.19731
# Shear Modulus (GPa) = 24.50497 37.50755 31.00626
#
# Velocity S-wave (km/s) = 3.22473 3.98957 3.62736
# Velocity P-wave (km/s) = 4.89376 6.59978 5.80974
#
# Compressibility (1/GPa) = 0.04208346
#
# Stress axis : x y z
#
# Youngs Moduli (GPa) = 26.75556 96.67457 108.21757
#
# Poissons Ratio (x) = 0.03679 0.38775
# Poissons Ratio (y) = 0.01018 0.37602
# Poissons Ratio (z) = 0.09587 0.33591
#
# Static dielectric constant tensor:
#      x y z
#    x 4.610620 -0.580090 1.129500 
#    y -0.580090 2.076180 -0.269190 
#    z 1.129500 -0.269190 2.427630 
# 
# From -- ./inp_files/139002.got.cif
#   From: 2010.05.17/outbox.cif.g08.bks.cpg/sg2_70_cif.got.tgz:139002.got - 2010.06.03 11:33:40.
