data_PCOD9064577
_publ_section_title
;
Structure prediction by ZEFSAII (Michael W. Deem and Ramdas Pophale) SiO2 
 PCOD9064577
Probable space group: P -1
;
_chemical_formula_sum "Si O2"
_cell_formula_units_Z 14
_cell_length_a 5.282474
_cell_length_b 27.431010
_cell_length_c 9.224270
_cell_angle_alpha 31.010063
_cell_angle_beta 60.085402
_cell_angle_gamma 62.668326
_cell_volume 595.365226
_symmetry_space_group_name_H-M "P -1"
_symmetry_group_IT_number 2
_symmetry_cell_setting 'triclinic'
loop_
_space_group_symop_operation_xyz
x,y,z
-x,-y,-z
loop_
_atom_site_type_symbol
_atom_site_label
_atom_site_fract_x
_atom_site_fract_y
_atom_site_fract_z
Si Si1 0.654433 0.287413 0.503645
Si Si2 0.212349 0.895973 0.906485
Si Si3 0.037845 0.398189 0.328594
Si Si4 0.847728 0.254962 0.233873
Si Si5 0.362212 0.106018 0.761598
Si Si6 0.798418 0.441560 0.602132
Si Si7 0.680907 0.891338 0.567509
O O1 0.362833 0.344381 0.379354
O O2 0.891661 0.286624 0.306960
O O3 0.802878 0.336665 0.471795
O O4 0.610794 0.180336 0.844771
O O5 0.350874 0.882158 0.742284
O O6 0.239088 0.006382 0.657793
O O7 0.881350 0.877839 0.086865
O O8 0.960516 0.415934 0.472206
O O9 0.000000 0.500000 0.000000
O O10 0.604995 0.180081 0.510700
O O11 0.117849 0.201310 0.208232
O O12 0.733508 0.345523 0.946239
O O13 0.249819 0.109789 0.619342
O O14 0.500000 0.000000 0.000000
O O15 0.500000 0.500000 0.500000
O O16 0.000000 0.500000 0.500000
#
# Coordination Sequence:
#
# PCOD9064577 Si02
#       7
#     2   2   2   2   2   2   2
#     4  12  25  44  75 106 149 198 251 315 385 458
#     4  11  24  46  69 108 151 201 261 318 390 461
#     4  12  26  48  74 108 149 195 254 317 393 461
#     4  12  26  46  75 107 152 206 259 319 398 460
#     4  12  24  44  71 105 152 202 256 320 387 461
#     4  12  28  49  78 113 154 200 260 327 394 467
#     4  11  25  45  70 105 151 201 263 318 386 465
#
# _framework density 23.514976999999998
#
# number of rings (size 3 to 8) (size 9 to 14) (size 15 to 20)
#    0.000    0.286    2.857    6.000    4.000    0.571 
#    2.571    0.000    0.000    0.000    0.000    0.000 
#    0.000    0.000    0.000    0.000    0.000    0.000 
#
# Total GULP energy -78341.052461 kJ/mol
# GULP energy per Si atom -5595.789461 kJ/mol
# Density = 2.346146 g / cm^3
# Si number density = 23.514977 Si / 1000 Ang^3
#
#
#
# Elastic Constant Matrix: (Units=GPa)
#
#
# Indices 1 2 3 4 5 6 
#
# 1 113.4839 52.9593 26.2527 -15.9447 3.0896 -8.1530
# 2 52.9593 148.2342 47.4591 2.7263 -1.3783 -18.6601
# 3 26.2527 47.4591 123.0009 -11.6927 18.0178 -9.2996
# 4 -15.9447 2.7263 -11.6927 42.1607 -17.1575 2.1842
# 5 3.0896 -1.3783 18.0178 -17.1575 38.3528 -2.6628
# 6 -8.1530 -18.6601 -9.2996 2.1842 -2.6628 47.4572
#
#
#
# Elastic Compliance Matrix: (Units=1/GPa)
#
#
# Indices 1 2 3 4 5 6 
#
# 1 0.011483 -0.003952 -0.000657 0.005017 0.001496 0.000143
# 2 -0.003952 0.009525 -0.003042 -0.002649 0.001089 0.002653
# 3 -0.000657 -0.003042 0.010210 0.000972 -0.004390 0.000400
# 4 0.005017 -0.002649 0.000972 0.031401 0.013043 -0.000702
# 5 0.001496 0.001089 -0.004390 0.013043 0.033968 0.001131
# 6 0.000143 0.002653 0.000400 -0.000702 0.001131 0.022314
#
#
# Mechanical properties :
#
#
# Convention : Reuss Voigt Hill
#
# Bulk Modulus (GPa) = 62.83833 70.89569 66.86701
# Shear Modulus (GPa) = 35.83986 42.79734 39.31860
#
# Velocity S-wave (km/s) = 3.90825 4.27078 4.09353
# Velocity P-wave (km/s) = 6.86633 7.38471 7.13024
#
# Compressibility (1/GPa) = 0.01591385
#
# Stress axis : x y z
#
# Youngs Moduli (GPa) = 87.08672 104.98684 97.94345
#
# Poissons Ratio (x) = 0.41495 0.06437
# Poissons Ratio (y) = 0.34420 0.29798
# Poissons Ratio (z) = 0.05724 0.31941
#
# Static dielectric constant tensor:
#      x y z
#    x 1.977030 -0.023560 0.060750 
#    y -0.023560 1.951400 -0.022410 
#    z 0.060750 -0.022410 1.906660 
# 
# From -- ./inp_files/107596.got.cif
#   From: 2010.05.17/outbox.cif.g08.bks.cpg/sg2_54_cif.got.tgz:107596.got - 2010.06.03 11:33:40.
