data_PCOD9064944
_publ_section_title
;
Structure prediction by ZEFSAII (Michael W. Deem and Ramdas Pophale) SiO2 
 PCOD9064944
Probable space group: P -1
;
_chemical_formula_sum "Si O2"
_cell_formula_units_Z 13
_cell_length_a 13.063233
_cell_length_b 5.383207
_cell_length_c 9.622361
_cell_angle_alpha 80.415394
_cell_angle_beta 123.847013
_cell_angle_gamma 71.207090
_cell_volume 477.766226
_symmetry_space_group_name_H-M "P -1"
_symmetry_group_IT_number 2
_symmetry_cell_setting 'triclinic'
loop_
_space_group_symop_operation_xyz
x,y,z
-x,-y,-z
loop_
_atom_site_type_symbol
_atom_site_label
_atom_site_fract_x
_atom_site_fract_y
_atom_site_fract_z
Si Si1 0.936371 0.402703 0.835676
Si Si2 0.684589 0.201992 0.302256
Si Si3 0.027222 0.304035 0.404993
Si Si4 0.295766 0.452420 0.942734
Si Si5 0.414761 0.828881 0.461841
Si Si6 0.500000 0.000000 0.000000
Si Si7 0.222921 0.843110 0.100312
O O1 0.887516 0.621460 0.651576
O O2 0.816734 0.346951 0.810366
O O3 0.000000 0.500000 0.000000
O O4 0.069250 0.099233 0.907056
O O5 0.637732 0.512202 0.159476
O O6 0.633576 0.206975 0.418116
O O7 0.858287 0.031633 0.444413
O O8 0.624175 0.042560 0.175521
O O9 0.000000 0.500000 0.500000
O O10 0.872340 0.415027 0.210934
O O11 0.395492 0.108986 0.053942
O O12 0.312558 0.632415 0.061861
O O13 0.500000 0.500000 0.500000
O O14 0.285922 0.981155 0.239906
O O15 0.500000 0.000000 0.500000
#
# Coordination Sequence:
#
# PCOD9064944 Si02
#       7
#     2   2   2   2   2   1   2
#     4  11  24  46  76 114 154 204 258 331 408 482
#     4  12  29  49  80 113 159 204 274 329 407 486
#     4  12  25  47  79 115 156 205 267 337 403 482
#     4  12  27  50  79 114 156 212 267 334 409 483
#     4  12  32  52  80 118 165 220 273 333 409 489
#     4  12  28  50  76 108 156 212 264 328 400 494
#     4  11  27  47  77 115 158 207 268 334 406 486
#
# _framework density 27.209956999999999
#
# number of rings (size 3 to 8) (size 9 to 14) (size 15 to 20)
#    0.000    0.308    3.077    3.692   12.923    0.000 
#    0.000    0.000    0.000    0.000    0.000    0.000 
#    0.000    0.000    0.000    0.000    0.000    0.000 
#
# Total GULP energy -72706.744934 kJ/mol
# GULP energy per Si atom -5592.826533 kJ/mol
# Density = 2.714803 g / cm^3
# Si number density = 27.209957 Si / 1000 Ang^3
#
#
#
# Elastic Constant Matrix: (Units=GPa)
#
#
# Indices 1 2 3 4 5 6 
#
# 1 129.9157 38.5670 53.4058 17.7834 -13.1089 -1.2212
# 2 38.5670 94.0245 13.7192 31.9687 -2.1676 -20.6969
# 3 53.4058 13.7192 93.2426 24.5092 9.3930 -8.2023
# 4 17.7834 31.9687 24.5092 60.4010 -8.0049 6.0227
# 5 -13.1089 -2.1676 9.3930 -8.0049 77.6512 0.4112
# 6 -1.2212 -20.6969 -8.2023 6.0227 0.4112 60.5866
#
#
#
# Elastic Compliance Matrix: (Units=1/GPa)
#
#
# Indices 1 2 3 4 5 6 
#
# 1 0.012399 -0.005648 -0.007704 0.003196 0.003213 -0.003062
# 2 -0.005648 0.017429 0.004244 -0.010303 -0.002082 0.007453
# 3 -0.007704 0.004244 0.017441 -0.008052 -0.004146 0.004484
# 4 0.003196 -0.010303 -0.008052 0.025561 0.003899 -0.007113
# 5 0.003213 -0.002082 -0.004146 0.003899 0.014275 -0.001692
# 6 -0.003062 0.007453 0.004484 -0.007113 -0.001692 0.020315
#
#
# Mechanical properties :
#
#
# Convention : Reuss Voigt Hill
#
# Bulk Modulus (GPa) = 34.41965 58.72965 46.57465
# Shear Modulus (GPa) = 36.94958 53.82715 45.38836
#
# Velocity S-wave (km/s) = 3.68903 4.45254 4.08864
# Velocity P-wave (km/s) = 5.55179 6.93284 6.28039
#
# Compressibility (1/GPa) = 0.02905317
#
# Stress axis : x y z
#
# Youngs Moduli (GPa) = 80.65285 57.37695 57.33554
#
# Poissons Ratio (x) = 0.32409 0.44169
# Poissons Ratio (y) = 0.45556 -0.24335
# Poissons Ratio (z) = 0.62132 -0.24352
#
# Static dielectric constant tensor:
#      x y z
#    x 2.176640 -0.248290 0.103890 
#    y -0.248290 0.826380 0.146500 
#    z 0.103890 0.146500 2.104550 
# 
# From -- ./inp_files/26294.got.cif
#   From: 2010.05.17/outbox.cif.g08.bks.cpg/sg2_14_cif.got.tgz:26294.got - 2010.06.03 11:33:40.
