data_PCOD9064551
_publ_section_title
;
Structure prediction by ZEFSAII (Michael W. Deem and Ramdas Pophale) SiO2 
 PCOD9064551
Probable space group: P -1
;
_chemical_formula_sum "Si O2"
_cell_formula_units_Z 13
_cell_length_a 11.963818
_cell_length_b 10.141720
_cell_length_c 12.230686
_cell_angle_alpha 43.921462
_cell_angle_beta 124.841811
_cell_angle_gamma 89.673033
_cell_volume 574.850102
_symmetry_space_group_name_H-M "P -1"
_symmetry_group_IT_number 2
_symmetry_cell_setting 'triclinic'
loop_
_space_group_symop_operation_xyz
x,y,z
-x,-y,-z
loop_
_atom_site_type_symbol
_atom_site_label
_atom_site_fract_x
_atom_site_fract_y
_atom_site_fract_z
Si Si1 0.838617 0.204968 0.019923
Si Si2 0.688351 0.937734 0.610367
Si Si3 0.298103 0.323599 0.714211
Si Si4 0.624992 0.317420 0.513784
Si Si5 0.006283 0.318931 0.229495
Si Si6 0.987549 0.348107 0.451501
Si Si7 0.000000 0.000000 0.000000
O O1 0.604312 0.473002 0.709211
O O2 0.955799 0.124218 0.023090
O O3 0.914176 0.261003 0.127928
O O4 0.890067 0.937984 0.243934
O O5 0.764606 0.879486 0.562868
O O6 0.500000 0.000000 0.500000
O O7 0.647522 0.183519 0.492550
O O8 0.877416 0.641129 0.948832
O O9 0.317872 0.518544 0.566209
O O10 0.117842 0.406166 0.499432
O O11 0.220783 0.411706 0.743744
O O12 0.500000 0.000000 0.000000
O O13 0.786439 0.091512 0.828599
O O14 0.977939 0.293065 0.354297
#
# Coordination Sequence:
#
# PCOD9064551 Si02
#       7
#     2   2   2   2   2   2   1
#     4  12  24  48  70 104 143 184 233 291 357 419
#     4  11  24  46  68  99 143 182 238 285 347 424
#     4  11  24  46  68  99 143 182 238 285 347 424
#     4  12  25  45  71 101 136 187 237 291 351 416
#     4  11  25  45  72 103 140 186 234 291 353 418
#     4  11  25  45  72 103 140 186 234 291 353 418
#     4  12  26  46  72 100 144 184 232 290 352 426
#
# _framework density 22.614591999999998
#
# number of rings (size 3 to 8) (size 9 to 14) (size 15 to 20)
#    0.000    0.615    6.154    0.923    2.154    1.231 
#    5.538    1.538    0.000    0.000    0.000    0.000 
#    0.000    0.000    0.000    0.000    0.000    0.000 
#
# Total GULP energy -72455.779141 kJ/mol
# GULP energy per Si atom -5573.521472 kJ/mol
# Density = 2.256312 g / cm^3
# Si number density = 22.614592 Si / 1000 Ang^3
#
#
#
# Elastic Constant Matrix: (Units=GPa)
#
#
# Indices 1 2 3 4 5 6 
#
# 1 85.5147 53.9174 19.3058 6.9579 23.8303 2.7759
# 2 53.9174 151.6917 23.1308 -1.2906 13.6078 -17.3167
# 3 19.3058 23.1308 62.5821 -12.8802 21.2038 -11.0639
# 4 6.9579 -1.2906 -12.8802 32.9419 6.9179 -1.7828
# 5 23.8303 13.6078 21.2038 6.9179 41.1132 -11.4341
# 6 2.7759 -17.3167 -11.0639 -1.7828 -11.4341 54.6420
#
#
#
# Elastic Compliance Matrix: (Units=1/GPa)
#
#
# Indices 1 2 3 4 5 6 
#
# 1 0.019066 -0.006289 -0.002329 -0.003659 -0.008643 -0.005361
# 2 -0.006289 0.009253 -0.001407 0.000882 0.002117 0.003439
# 3 -0.002329 -0.001407 0.024402 0.012677 -0.012215 0.002471
# 4 -0.003659 0.000882 0.012677 0.038460 -0.010605 0.002068
# 5 -0.008643 0.002117 -0.012215 -0.010605 0.038481 0.006343
# 6 -0.005361 0.003439 0.002471 0.002068 0.006343 0.021558
#
#
# Mechanical properties :
#
#
# Convention : Reuss Voigt Hill
#
# Bulk Modulus (GPa) = 30.61055 54.72184 42.66620
# Shear Modulus (GPa) = 27.44823 39.30168 33.37496
#
# Velocity S-wave (km/s) = 3.48766 4.17332 3.84580
# Velocity P-wave (km/s) = 5.45742 6.89001 6.21513
#
# Compressibility (1/GPa) = 0.03266848
#
# Stress axis : x y z
#
# Youngs Moduli (GPa) = 52.45043 108.07824 40.97944
#
# Poissons Ratio (x) = 0.67974 0.09546
# Poissons Ratio (y) = 0.32988 0.05767
# Poissons Ratio (z) = 0.12218 0.15210
#
# Static dielectric constant tensor:
#      x y z
#    x 1.879560 0.018400 -0.020790 
#    y 0.018400 1.819770 -0.031630 
#    z -0.020790 -0.031630 2.096840 
# 
# From -- ./inp_files/395170.got.cif
#   From: 2010.05.17/outbox.cif.g08.bks.cpg/sg2_198_cif.got.tgz:395170.got - 2010.06.03 11:33:40.
