data_PCOD9064057
_publ_section_title
;
Structure prediction by ZEFSAII (Michael W. Deem and Ramdas Pophale) SiO2 
 PCOD9064057
Probable space group: P -1
;
_chemical_formula_sum "Si O2"
_cell_formula_units_Z 12
_cell_length_a 9.992457
_cell_length_b 9.173345
_cell_length_c 9.132754
_cell_angle_alpha 112.339835
_cell_angle_beta 47.452312
_cell_angle_gamma 112.766576
_cell_volume 559.980044
_symmetry_space_group_name_H-M "P -1"
_symmetry_group_IT_number 2
_symmetry_cell_setting 'triclinic'
loop_
_space_group_symop_operation_xyz
x,y,z
-x,-y,-z
loop_
_atom_site_type_symbol
_atom_site_label
_atom_site_fract_x
_atom_site_fract_y
_atom_site_fract_z
Si Si1 0.132315 0.228116 0.524459
Si Si2 0.188213 0.896127 0.478561
Si Si3 0.476043 0.429790 0.223470
Si Si4 0.805274 0.056459 0.167748
Si Si5 0.860539 0.336753 0.002554
Si Si6 0.527738 0.748425 0.139236
O O1 0.304536 0.374300 0.438223
O O2 0.020090 0.188976 0.440644
O O3 0.974979 0.255087 0.766041
O O4 0.210165 0.071230 0.455955
O O5 0.232624 0.914592 0.623793
O O6 0.328561 0.791357 0.272336
O O7 0.514177 0.617438 0.228148
O O8 0.665354 0.378157 0.113315
O O9 0.414543 0.334839 0.081092
O O10 0.658626 0.913072 0.150791
O O11 0.821177 0.216185 0.121866
O O12 0.000000 0.000000 0.000000
O O13 0.000000 0.500000 0.000000
#
# Coordination Sequence:
#
# PCOD9064057 Si02
#       6
#     2   2   2   2   2   2
#     4  11  25  46  74 101 136 183 231 281 345 408
#     4  11  24  45  70 104 133 184 234 276 345 409
#     4  11  26  46  70 102 143 181 228 285 341 410
#     4  12  24  44  70 101 142 178 229 286 339 410
#     4  12  27  47  71 104 140 179 228 288 345 404
#     4  11  25  45  70 103 139 184 230 281 345 404
#
# _framework density 21.429334999999998
#
# number of rings (size 3 to 8) (size 9 to 14) (size 15 to 20)
#    0.000    0.667    3.333    3.500    4.667    4.000 
#    0.000    0.000    0.000    0.000    0.000    0.000 
#    0.000    0.000    0.000    0.000    0.000    0.000 
#
# Total GULP energy -67142.098654 kJ/mol
# GULP energy per Si atom -5595.174888 kJ/mol
# Density = 2.138056 g / cm^3
# Si number density = 21.429335 Si / 1000 Ang^3
#
#
#
# Elastic Constant Matrix: (Units=GPa)
#
#
# Indices 1 2 3 4 5 6 
#
# 1 105.3471 64.0053 12.9395 -19.6445 -8.6547 -19.6058
# 2 64.0053 142.1657 8.7517 -15.3207 -8.9487 -13.1260
# 3 12.9395 8.7517 41.7166 -6.7319 -10.8362 -5.7862
# 4 -19.6445 -15.3207 -6.7319 31.7062 6.2622 -7.3360
# 5 -8.6547 -8.9487 -10.8362 6.2622 34.0255 15.1062
# 6 -19.6058 -13.1260 -5.7862 -7.3360 15.1062 35.8738
#
#
#
# Elastic Compliance Matrix: (Units=1/GPa)
#
#
# Indices 1 2 3 4 5 6 
#
# 1 0.016776 -0.005551 -0.001997 0.010756 -0.004687 0.010988
# 2 -0.005551 0.009756 0.000144 0.001277 0.000739 0.000509
# 3 -0.001997 0.000144 0.027095 0.003439 0.007053 0.001065
# 4 0.010756 0.001277 0.003439 0.047770 -0.014790 0.022897
# 5 -0.004687 0.000739 0.007053 -0.014790 0.043312 -0.022416
# 6 0.010988 0.000509 0.001065 0.022897 -0.022416 0.048360
#
#
# Mechanical properties :
#
#
# Convention : Reuss Voigt Hill
#
# Bulk Modulus (GPa) = 25.76084 51.18028 38.47056
# Shear Modulus (GPa) = 22.64317 33.88994 28.26655
#
# Velocity S-wave (km/s) = 3.25413 3.98109 3.63583
# Velocity P-wave (km/s) = 5.11533 6.71321 5.96799
#
# Compressibility (1/GPa) = 0.03881860
#
# Stress axis : x y z
#
# Youngs Moduli (GPa) = 59.60860 102.50551 36.90695
#
# Poissons Ratio (x) = 0.56904 0.07369
# Poissons Ratio (y) = 0.33091 -0.00531
# Poissons Ratio (z) = 0.11901 -0.01474
#
# Static dielectric constant tensor:
#      x y z
#    x 1.791850 0.039430 0.017330 
#    y 0.039430 1.765210 -0.079840 
#    z 0.017330 -0.079840 2.153420 
# 
# From -- ./inp_files/147628.got.cif
#   From: 2010.05.17/outbox.cif.g08.bks.cpg/sg2_74_cif.got.tgz:147628.got - 2010.06.03 11:33:40.
