data_PCOD9064748
_publ_section_title
;
Structure prediction by ZEFSAII (Michael W. Deem and Ramdas Pophale) SiO2 
 PCOD9064748
Probable space group: P -1
;
_chemical_formula_sum "Si O2"
_cell_formula_units_Z 14
_cell_length_a 11.635708
_cell_length_b 8.793725
_cell_length_c 13.548301
_cell_angle_alpha 54.964051
_cell_angle_beta 147.549088
_cell_angle_gamma 113.246839
_cell_volume 596.209639
_symmetry_space_group_name_H-M "P -1"
_symmetry_group_IT_number 2
_symmetry_cell_setting 'triclinic'
loop_
_space_group_symop_operation_xyz
x,y,z
-x,-y,-z
loop_
_atom_site_type_symbol
_atom_site_label
_atom_site_fract_x
_atom_site_fract_y
_atom_site_fract_z
Si Si1 0.724305 0.079784 0.139380
Si Si2 0.825331 0.089757 0.752587
Si Si3 0.439970 0.795916 0.814059
Si Si4 0.087628 0.402020 0.805084
Si Si5 0.956361 0.319007 0.479139
Si Si6 0.058305 0.594241 0.905040
Si Si7 0.359680 0.126921 0.479938
O O1 0.912182 0.892697 0.328069
O O2 0.698996 0.151508 0.207093
O O3 0.781242 0.252016 0.048747
O O4 0.500000 0.000000 0.000000
O O5 0.583119 0.177613 0.584697
O O6 0.930067 0.258977 0.724420
O O7 0.769631 0.952586 0.675441
O O8 0.000000 0.000000 0.000000
O O9 0.298805 0.676399 0.694392
O O10 0.443692 0.973898 0.682027
O O11 0.683279 0.684835 0.048598
O O12 0.996027 0.612759 0.621452
O O13 0.135787 0.425392 0.946562
O O14 0.000000 0.500000 0.500000
O O15 0.817977 0.710763 0.660105
O O16 0.000000 0.500000 0.000000
#
# Coordination Sequence:
#
# PCOD9064748 Si02
#       7
#     2   2   2   2   2   2   2
#     4  12  28  48  76 111 154 204 255 324 394 455
#     4  11  24  46  72 111 151 201 255 306 382 467
#     4  12  24  47  76 107 153 196 255 319 385 459
#     4  12  26  44  75 111 149 194 255 316 383 459
#     4  12  25  45  74 111 150 191 254 318 389 460
#     4  12  28  48  74 109 155 201 258 314 383 468
#     4  11  25  46  78 104 150 206 252 315 385 455
#
# _framework density 23.481672
#
# number of rings (size 3 to 8) (size 9 to 14) (size 15 to 20)
#    0.000    0.286    4.286    4.286    6.000    2.857 
#    0.000    0.000    0.000    0.000    0.000    0.000 
#    0.000    0.000    0.000    0.000    0.000    0.000 
#
# Total GULP energy -78147.721162 kJ/mol
# GULP energy per Si atom -5581.980083 kJ/mol
# Density = 2.342823 g / cm^3
# Si number density = 23.481672 Si / 1000 Ang^3
#
#
#
# Elastic Constant Matrix: (Units=GPa)
#
#
# Indices 1 2 3 4 5 6 
#
# 1 110.4713 43.6536 27.8908 0.1454 14.8510 6.6712
# 2 43.6536 132.8168 51.7991 14.4337 19.0310 24.7482
# 3 27.8908 51.7991 83.3831 6.5946 11.2992 17.6203
# 4 0.1454 14.4337 6.5946 42.5660 12.5867 2.6631
# 5 14.8510 19.0310 11.2992 12.5867 38.8212 9.0501
# 6 6.6712 24.7482 17.6203 2.6631 9.0501 44.1440
#
#
#
# Elastic Compliance Matrix: (Units=1/GPa)
#
#
# Indices 1 2 3 4 5 6 
#
# 1 0.011025 -0.002886 -0.001887 0.002110 -0.003227 0.001239
# 2 -0.002886 0.011614 -0.005096 -0.002481 -0.001465 -0.003591
# 3 -0.001887 -0.005096 0.016621 -0.000424 -0.000706 -0.003322
# 4 0.002110 -0.002481 -0.000424 0.026815 -0.008479 0.001362
# 5 -0.003227 -0.001465 -0.000706 -0.008479 0.031691 -0.004395
# 6 0.001239 -0.003591 -0.003322 0.001362 -0.004395 0.026624
#
#
# Mechanical properties :
#
#
# Convention : Reuss Voigt Hill
#
# Bulk Modulus (GPa) = 51.22132 63.70648 57.46390
# Shear Modulus (GPa) = 33.19351 38.66142 35.92747
#
# Velocity S-wave (km/s) = 3.76386 4.06205 3.91579
# Velocity P-wave (km/s) = 6.38353 7.01353 6.70593
#
# Compressibility (1/GPa) = 0.01952312
#
# Stress axis : x y z
#
# Youngs Moduli (GPa) = 90.70392 86.10608 60.16603
#
# Poissons Ratio (x) = 0.24847 0.11350
# Poissons Ratio (y) = 0.26174 0.30660
# Poissons Ratio (z) = 0.17111 0.43878
#
# Static dielectric constant tensor:
#      x y z
#    x 2.203070 -0.050660 -0.434270 
#    y -0.050660 1.941430 0.029470 
#    z -0.434270 0.029470 2.436360 
# 
# From -- ./inp_files/515142.got.cif
#   From: 2010.05.17/outbox.cif.g08.bks.cpg/sg2_258_cif.got.tgz:515142.got - 2010.06.03 11:33:40.
