data_PCOD9064478
_publ_section_title
;
Structure prediction by ZEFSAII (Michael W. Deem and Ramdas Pophale) SiO2 
 PCOD9064478
Probable space group: P -1
;
_chemical_formula_sum "Si O2"
_cell_formula_units_Z 13
_cell_length_a 9.715080
_cell_length_b 15.571717
_cell_length_c 12.390157
_cell_angle_alpha 35.663462
_cell_angle_beta 129.355611
_cell_angle_gamma 149.266790
_cell_volume 545.345385
_symmetry_space_group_name_H-M "P -1"
_symmetry_group_IT_number 2
_symmetry_cell_setting 'triclinic'
loop_
_space_group_symop_operation_xyz
x,y,z
-x,-y,-z
loop_
_atom_site_type_symbol
_atom_site_label
_atom_site_fract_x
_atom_site_fract_y
_atom_site_fract_z
Si Si1 0.240889 0.127128 0.732365
Si Si2 0.763550 0.575393 0.428673
Si Si3 0.306817 0.234787 0.947539
Si Si4 0.611867 0.132891 0.534107
Si Si5 0.366822 0.258709 0.199305
Si Si6 0.500000 0.000000 0.000000
Si Si7 0.715596 0.263737 0.049207
O O1 0.524852 0.313445 0.614865
O O2 0.237714 0.279214 0.642713
O O3 0.276667 0.987971 0.944579
O O4 0.950332 0.941103 0.715566
O O5 0.682969 0.587757 0.258788
O O6 0.065257 0.695793 0.462527
O O7 0.344126 0.198443 0.123172
O O8 0.535055 0.297984 0.926392
O O9 0.000000 0.000000 0.000000
O O10 0.546626 0.263014 0.354477
O O11 0.500000 0.000000 0.500000
O O12 0.436661 0.948665 0.730947
O O13 0.500000 0.500000 0.000000
O O14 0.279890 0.805533 0.995424
O O15 0.000000 0.500000 0.000000
#
# Coordination Sequence:
#
# PCOD9064478 Si02
#       7
#     2   2   2   2   2   1   2
#     4  11  25  43  73 105 150 199 245 312 385 449
#     4  11  24  45  78 104 144 201 255 309 385 463
#     4  12  21  49  71 106 145 202 248 305 389 455
#     4  12  24  48  77 111 147 200 260 315 390 459
#     4  12  28  46  75 110 155 188 251 326 379 457
#     4  12  28  48  72 116 158 194 268 316 376 464
#     4  12  28  45  81 113 157 206 258 320 393 460
#
# _framework density 23.838101999999999
#
# number of rings (size 3 to 8) (size 9 to 14) (size 15 to 20)
#    0.000    0.308    7.692    0.000    8.615    1.231 
#    0.000    3.077    0.000    0.000    0.000    0.000 
#    0.000    0.000    0.000    0.000    0.000    0.000 
#
# Total GULP energy -72379.066400 kJ/mol
# GULP energy per Si atom -5567.620492 kJ/mol
# Density = 2.378385 g / cm^3
# Si number density = 23.838102 Si / 1000 Ang^3
#
#
#
# Elastic Constant Matrix: (Units=GPa)
#
#
# Indices 1 2 3 4 5 6 
#
# 1 78.7228 86.6626 17.1757 4.8792 18.2080 15.6636
# 2 86.6626 149.7553 56.2915 -5.4505 13.5535 20.6154
# 3 17.1757 56.2915 118.6430 11.7270 7.3775 25.9790
# 4 4.8792 -5.4505 11.7270 43.5423 15.7606 5.3275
# 5 18.2080 13.5535 7.3775 15.7606 38.0717 7.0857
# 6 15.6636 20.6154 25.9790 5.3275 7.0857 49.6512
#
#
#
# Elastic Compliance Matrix: (Units=1/GPa)
#
#
# Indices 1 2 3 4 5 6 
#
# 1 0.046441 -0.029127 0.009604 -0.007268 -0.009685 -0.005420
# 2 -0.029127 0.027118 -0.010044 0.008238 0.002449 0.001951
# 3 0.009604 -0.010044 0.013504 -0.005133 -0.000523 -0.005300
# 4 -0.007268 0.008238 -0.005133 0.030164 -0.010927 -0.000119
# 5 -0.009685 0.002449 -0.000523 -0.010927 0.034931 -0.001500
# 6 -0.005420 0.001951 -0.005300 -0.000119 -0.001500 0.024040
#
#
# Mechanical properties :
#
#
# Convention : Reuss Voigt Hill
#
# Bulk Modulus (GPa) = 35.80386 74.15341 54.97863
# Shear Modulus (GPa) = 20.43800 38.71911 29.57855
#
# Velocity S-wave (km/s) = 2.93126 4.03457 3.52633
# Velocity P-wave (km/s) = 5.14865 7.27175 6.30027
#
# Compressibility (1/GPa) = 0.02792995
#
# Stress axis : x y z
#
# Youngs Moduli (GPa) = 21.53252 36.87549 74.05211
#
# Poissons Ratio (x) = 1.07408 -0.71120
# Poissons Ratio (y) = 0.62718 0.74375
# Poissons Ratio (z) = -0.20680 0.37037
#
# Static dielectric constant tensor:
#      x y z
#    x 2.022350 -0.065700 0.040640 
#    y -0.065700 1.935550 -0.062120 
#    z 0.040640 -0.062120 2.023450 
# 
# From -- ./inp_files/395360.got.cif
#   From: 2010.05.17/outbox.cif.g08.bks.cpg/sg2_198_cif.got.tgz:395360.got - 2010.06.03 11:33:40.
