data_PCOD9064609
_publ_section_title
;
Structure prediction by ZEFSAII (Michael W. Deem and Ramdas Pophale) SiO2 
 PCOD9064609
Probable space group: P -1
;
_chemical_formula_sum "Si O2"
_cell_formula_units_Z 13
_cell_length_a 12.570350
_cell_length_b 16.246543
_cell_length_c 9.357163
_cell_angle_alpha 127.644112
_cell_angle_beta 65.308776
_cell_angle_gamma 156.451690
_cell_volume 540.049299
_symmetry_space_group_name_H-M "P -1"
_symmetry_group_IT_number 2
_symmetry_cell_setting 'triclinic'
loop_
_space_group_symop_operation_xyz
x,y,z
-x,-y,-z
loop_
_atom_site_type_symbol
_atom_site_label
_atom_site_fract_x
_atom_site_fract_y
_atom_site_fract_z
Si Si1 0.722166 0.111412 0.088075
Si Si2 0.844353 0.464208 0.142479
Si Si3 0.920643 0.907790 0.246390
Si Si4 0.871411 0.121979 0.746109
Si Si5 0.828036 0.479928 0.499950
Si Si6 0.680942 0.587750 0.789639
Si Si7 0.500000 0.500000 0.500000
O O1 0.915929 0.331739 0.327173
O O2 0.928876 0.227799 0.977292
O O3 0.500000 0.000000 0.000000
O O4 0.507436 0.849457 0.000969
O O5 0.912985 0.519001 0.331862
O O6 0.947795 0.660664 0.236201
O O7 0.000000 0.500000 0.000000
O O8 0.590729 0.668625 0.226449
O O9 0.051891 0.933370 0.315817
O O10 0.897966 0.827484 0.024691
O O11 0.149322 0.186099 0.393038
O O12 0.513867 0.835044 0.612906
O O13 0.804021 0.586458 0.639282
O O14 0.555357 0.556299 0.701700
#
# Coordination Sequence:
#
# PCOD9064609 Si02
#       7
#     2   2   2   2   2   2   1
#     4  11  24  49  71 101 144 181 241 305 356 422
#     4  11  26  47  71 106 140 189 238 302 359 432
#     4  11  25  46  71 103 150 191 235 295 348 429
#     4  11  24  46  70 103 145 186 240 294 357 429
#     4  11  26  45  73 106 144 191 237 297 363 426
#     4  11  25  45  69 107 145 191 236 290 358 422
#     4  12  24  44  72 104 142 190 246 286 352 414
#
# _framework density 24.071876
#
# number of rings (size 3 to 8) (size 9 to 14) (size 15 to 20)
#    0.000    0.923    4.615    0.923    2.154    4.308 
#    5.538    0.000    0.000    0.000    0.000    0.000 
#    0.000    0.000    0.000    0.000    0.000    0.000 
#
# Total GULP energy -72442.928325 kJ/mol
# GULP energy per Si atom -5572.532948 kJ/mol
# Density = 2.401709 g / cm^3
# Si number density = 24.071876 Si / 1000 Ang^3
#
#
#
# Elastic Constant Matrix: (Units=GPa)
#
#
# Indices 1 2 3 4 5 6 
#
# 1 58.6115 17.3728 28.4237 2.2700 2.5135 7.3408
# 2 17.3728 108.7071 40.0365 3.8188 13.4380 -23.6293
# 3 28.4237 40.0365 192.6907 2.3742 18.6566 -4.2321
# 4 2.2700 3.8188 2.3742 43.2849 9.9695 -4.3122
# 5 2.5135 13.4380 18.6566 9.9695 35.7505 -2.5147
# 6 7.3408 -23.6293 -4.2321 -4.3122 -2.5147 35.0686
#
#
#
# Elastic Compliance Matrix: (Units=1/GPa)
#
#
# Indices 1 2 3 4 5 6 
#
# 1 0.020383 -0.004078 -0.002428 -0.001613 0.001295 -0.007413
# 2 -0.004078 0.012788 -0.001545 0.000843 -0.003305 0.009150
# 3 -0.002428 -0.001545 0.006114 0.000531 -0.002581 0.000085
# 4 -0.001613 0.000843 0.000531 0.025102 -0.007232 0.003538
# 5 0.001295 -0.003305 -0.002581 -0.007232 0.032390 -0.001376
# 6 -0.007413 0.009150 0.000085 0.003538 -0.001376 0.036579
#
#
# Mechanical properties :
#
#
# Convention : Reuss Voigt Hill
#
# Bulk Modulus (GPa) = 43.13431 59.07504 51.10467
# Shear Modulus (GPa) = 31.80962 41.09920 36.45441
#
# Velocity S-wave (km/s) = 3.63911 4.13650 3.89575
# Velocity P-wave (km/s) = 5.96786 6.88538 6.44298
#
# Compressibility (1/GPa) = 0.02318340
#
# Stress axis : x y z
#
# Youngs Moduli (GPa) = 49.06060 78.20043 163.55874
#
# Poissons Ratio (x) = 0.31891 0.39707
# Poissons Ratio (y) = 0.20008 0.25267
# Poissons Ratio (z) = 0.11910 0.12080
#
# Static dielectric constant tensor:
#      x y z
#    x 2.107680 0.049210 -0.039280 
#    y 0.049210 1.907400 -0.017920 
#    z -0.039280 -0.017920 1.930210 
# 
# From -- ./inp_files/317264.got.cif
#   From: 2010.05.17/outbox.cif.g08.bks.cpg/sg2_159_cif.got.tgz:317264.got - 2010.06.03 11:33:40.
