data_PCOD9064435
_publ_section_title
;
Structure prediction by ZEFSAII (Michael W. Deem and Ramdas Pophale) SiO2 
 PCOD9064435
Probable space group: P -1
;
_chemical_formula_sum "Si O2"
_cell_formula_units_Z 11
_cell_length_a 5.823101
_cell_length_b 13.547169
_cell_length_c 11.170507
_cell_angle_alpha 31.330993
_cell_angle_beta 81.708517
_cell_angle_gamma 93.000186
_cell_volume 426.223870
_symmetry_space_group_name_H-M "P -1"
_symmetry_group_IT_number 2
_symmetry_cell_setting 'triclinic'
loop_
_space_group_symop_operation_xyz
x,y,z
-x,-y,-z
loop_
_atom_site_type_symbol
_atom_site_label
_atom_site_fract_x
_atom_site_fract_y
_atom_site_fract_z
Si Si1 0.857953 0.862888 0.293617
Si Si2 0.906613 0.433862 0.372602
Si Si3 0.500000 0.000000 0.000000
Si Si4 0.307578 0.255219 0.912508
Si Si5 0.394542 0.736236 0.905502
Si Si6 0.460369 0.780547 0.583870
O O1 0.678373 0.906078 0.166105
O O2 0.694502 0.748425 0.536150
O O3 0.018235 0.723552 0.387050
O O4 0.055170 0.070031 0.107541
O O5 0.735492 0.542500 0.336603
O O6 0.758487 0.298737 0.413357
O O7 0.141082 0.607530 0.121570
O O8 0.495788 0.831875 0.070668
O O9 0.383745 0.297503 0.001816
O O10 0.392759 0.688176 0.815209
O O11 0.454241 0.977097 0.660888
#
# Coordination Sequence:
#
# PCOD9064435 Si02
#       6
#     2   2   1   2   2   2
#     4  12  25  48  74 107 149 191 245 306 362 433
#     4  12  25  45  76 112 148 193 243 294 368 436
#     4  12  26  50  76 104 148 190 252 312 362 434
#     4  12  25  48  74 107 149 191 245 306 362 433
#     4  11  24  45  75 112 152 193 239 296 361 437
#     4  11  24  45  75 112 152 193 239 296 361 437
#
# _framework density 25.808032000000001
#
# number of rings (size 3 to 8) (size 9 to 14) (size 15 to 20)
#    0.000    0.364    5.455    2.182    0.000    5.818 
#    0.000    9.091    0.000    0.000    0.000    0.000 
#    0.000    0.000    0.000    0.000    0.000    0.000 
#
# Total GULP energy -61427.643077 kJ/mol
# GULP energy per Si atom -5584.331189 kJ/mol
# Density = 2.574929 g / cm^3
# Si number density = 25.808032 Si / 1000 Ang^3
#
#
#
# Elastic Constant Matrix: (Units=GPa)
#
#
# Indices 1 2 3 4 5 6 
#
# 1 131.0046 66.3407 51.6374 -8.7059 38.1517 2.7018
# 2 66.3407 114.6983 55.9635 -1.4452 19.0947 4.0733
# 3 51.6374 55.9635 125.4682 -16.7300 9.3912 -3.6623
# 4 -8.7059 -1.4452 -16.7300 45.4775 -8.9752 6.7056
# 5 38.1517 19.0947 9.3912 -8.9752 64.8817 -27.8459
# 6 2.7018 4.0733 -3.6623 6.7056 -27.8459 46.0588
#
#
#
# Elastic Compliance Matrix: (Units=1/GPa)
#
#
# Indices 1 2 3 4 5 6 
#
# 1 0.014112 -0.004974 -0.003023 0.000569 -0.008944 -0.006118
# 2 -0.004974 0.014117 -0.004470 -0.002193 -0.001772 -0.002064
# 3 -0.003023 -0.004470 0.011552 0.003732 0.003165 0.002861
# 4 0.000569 -0.002193 0.003732 0.024114 0.002426 -0.001587
# 5 -0.008944 -0.001772 0.003165 0.002426 0.028790 0.017986
# 6 -0.006118 -0.002064 0.002861 -0.001587 0.017986 0.033585
#
#
# Mechanical properties :
#
#
# Convention : Reuss Voigt Hill
#
# Bulk Modulus (GPa) = 67.34738 79.89493 73.62115
# Shear Modulus (GPa) = 32.01993 44.43222 38.22607
#
# Velocity S-wave (km/s) = 3.52617 4.15377 3.85277
# Velocity P-wave (km/s) = 6.53687 7.35049 6.95559
#
# Compressibility (1/GPa) = 0.01484839
#
# Stress axis : x y z
#
# Youngs Moduli (GPa) = 70.85926 70.83617 86.56506
#
# Poissons Ratio (x) = 0.35236 0.26166
# Poissons Ratio (y) = 0.35247 0.38691
# Poissons Ratio (z) = 0.21419 0.31661
#
# Static dielectric constant tensor:
#      x y z
#    x 3.180300 -0.204810 -0.932020 
#    y -0.204810 2.033760 0.110780 
#    z -0.932020 0.110780 2.833120 
# 
# From -- ./inp_files/78156.got.cif
#   From: 2010.05.17/outbox.cif.g08.bks.cpg/sg2_40_cif.got.tgz:78156.got - 2010.06.03 11:33:40.
