data_PCOD9064346
_publ_section_title
;
Structure prediction by ZEFSAII (Michael W. Deem and Ramdas Pophale) SiO2 
 PCOD9064346
Probable space group: P -1
;
_chemical_formula_sum "Si O2"
_cell_formula_units_Z 15
_cell_length_a 6.891977
_cell_length_b 10.020225
_cell_length_c 15.583082
_cell_angle_alpha 68.425728
_cell_angle_beta 95.974327
_cell_angle_gamma 134.212836
_cell_volume 698.316744
_symmetry_space_group_name_H-M "P -1"
_symmetry_group_IT_number 2
_symmetry_cell_setting 'triclinic'
loop_
_space_group_symop_operation_xyz
x,y,z
-x,-y,-z
loop_
_atom_site_type_symbol
_atom_site_label
_atom_site_fract_x
_atom_site_fract_y
_atom_site_fract_z
Si Si1 0.916995 0.617696 0.492373
Si Si2 0.725375 0.057692 0.307050
Si Si3 0.482553 0.621232 0.904218
Si Si4 0.162849 0.688265 0.070342
Si Si5 0.558887 0.966167 0.869655
Si Si6 0.500000 0.000000 0.500000
Si Si7 0.358764 0.307650 0.654068
Si Si8 0.332920 0.486348 0.205967
O O1 0.642027 0.467194 0.573873
O O2 0.838613 0.668314 0.392756
O O3 0.000000 0.500000 0.500000
O O4 0.164428 0.820373 0.507956
O O5 0.548870 0.026661 0.226169
O O6 0.020145 0.293054 0.269422
O O7 0.559566 0.990830 0.403066
O O8 0.771106 0.913949 0.322464
O O9 0.650577 0.850216 0.885742
O O10 0.576531 0.604178 0.822769
O O11 0.162565 0.502494 0.913003
O O12 0.500000 0.500000 0.000000
O O13 0.311377 0.615705 0.114713
O O14 0.213436 0.817458 0.123818
O O15 0.305728 0.830966 0.959243
O O16 0.454398 0.372144 0.741031
#
# Coordination Sequence:
#
# PCOD9064346 Si02
#       8
#     2   2   2   2   2   1   2   2
#     4  11  25  48  74  99 142 185 234 299 359 422
#     4  12  25  44  72 106 141 185 245 294 354 423
#     4  12  25  42  69 104 142 187 236 290 356 425
#     4  11  24  47  73 101 146 189 235 292 359 425
#     4  11  24  45  74 103 143 186 235 299 347 420
#     4  12  26  44  76 102 140 188 238 294 368 418
#     4  11  26  46  72 106 140 185 241 298 353 429
#     4  12  25  45  73 105 143 188 239 291 359 431
#
# _framework density 21.480225000000001
#
# number of rings (size 3 to 8) (size 9 to 14) (size 15 to 20)
#    0.000    0.533    6.667    1.200    0.000    7.467 
#    0.000    0.000    0.000    0.000    0.000    0.000 
#    0.000    0.000    0.000    0.000    0.000    0.000 
#
# Total GULP energy -83689.455338 kJ/mol
# GULP energy per Si atom -5579.297023 kJ/mol
# Density = 2.143134 g / cm^3
# Si number density = 21.480225 Si / 1000 Ang^3
#
#
#
# Elastic Constant Matrix: (Units=GPa)
#
#
# Indices 1 2 3 4 5 6 
#
# 1 74.6475 20.6979 30.4790 12.2081 26.8582 -14.0500
# 2 20.6979 97.2266 25.2834 18.3968 16.2031 -2.4306
# 3 30.4790 25.2834 92.7209 29.3422 11.1506 -10.4317
# 4 12.2081 18.3968 29.3422 36.7068 -0.9868 -2.2740
# 5 26.8582 16.2031 11.1506 -0.9868 39.8226 1.8158
# 6 -14.0500 -2.4306 -10.4317 -2.2740 1.8158 40.0825
#
#
#
# Elastic Compliance Matrix: (Units=1/GPa)
#
#
# Indices 1 2 3 4 5 6 
#
# 1 0.022042 -0.000464 -0.003166 -0.004500 -0.014234 0.007264
# 2 -0.000464 0.012434 -0.000930 -0.005443 -0.004632 0.000250
# 3 -0.003166 -0.000930 0.016261 -0.011388 -0.002437 0.002530
# 4 -0.004500 -0.005443 -0.011388 0.040642 0.009582 -0.003000
# 5 -0.014234 -0.004632 -0.002437 0.009582 0.037838 -0.007075
# 6 0.007264 0.000250 0.002530 -0.003000 -0.007075 0.028319
#
#
# Mechanical properties :
#
#
# Convention : Reuss Voigt Hill
#
# Bulk Modulus (GPa) = 24.02910 46.39063 35.20986
# Shear Modulus (GPa) = 27.69635 35.86469 31.78052
#
# Velocity S-wave (km/s) = 3.59470 4.09058 3.85063
# Velocity P-wave (km/s) = 5.33292 6.62980 6.01641
#
# Compressibility (1/GPa) = 0.04161621
#
# Stress axis : x y z
#
# Youngs Moduli (GPa) = 45.36790 80.42454 61.49672
#
# Poissons Ratio (x) = 0.03731 0.19470
# Poissons Ratio (y) = 0.02105 0.05722
# Poissons Ratio (z) = 0.14364 0.07483
#
# Static dielectric constant tensor:
#      x y z
#    x 1.750220 -0.017100 -0.006480 
#    y -0.017100 1.769260 -0.013100 
#    z -0.006480 -0.013100 1.774300 
# 
# From -- ./inp_files/480337.got.cif
#   From: 2010.05.17/outbox.cif.g08.bks.cpg/sg2_241_cif.got.tgz:480337.got - 2010.06.03 11:33:40.
