data_PCOD9064476
_publ_section_title
;
Structure prediction by ZEFSAII (Michael W. Deem and Ramdas Pophale) SiO2 
 PCOD9064476
Probable space group: P -1
;
_chemical_formula_sum "Si O2"
_cell_formula_units_Z 16
_cell_length_a 20.293537
_cell_length_b 17.676290
_cell_length_c 11.652799
_cell_angle_alpha 42.623473
_cell_angle_beta 150.911916
_cell_angle_gamma 158.278597
_cell_volume 681.684489
_symmetry_space_group_name_H-M "P -1"
_symmetry_group_IT_number 2
_symmetry_cell_setting 'triclinic'
loop_
_space_group_symop_operation_xyz
x,y,z
-x,-y,-z
loop_
_atom_site_type_symbol
_atom_site_label
_atom_site_fract_x
_atom_site_fract_y
_atom_site_fract_z
Si Si1 0.012179 0.326087 0.461581
Si Si2 0.071615 0.251822 0.193365
Si Si3 0.603707 0.652190 0.243145
Si Si4 0.565737 0.250512 0.220682
Si Si5 0.940026 0.810789 0.001035
Si Si6 0.799454 0.773532 0.155560
Si Si7 0.072717 0.678747 0.924917
Si Si8 0.293757 0.856998 0.577934
O O1 0.297052 0.589494 0.640345
O O2 0.008001 0.190590 0.628478
O O3 0.959484 0.297061 0.279282
O O4 0.808995 0.236432 0.344070
O O5 0.101853 0.379866 0.180093
O O6 0.206484 0.249727 0.474197
O O7 0.186128 0.327523 0.155939
O O8 0.745766 0.008781 0.944845
O O9 0.794960 0.790197 0.267352
O O10 0.464277 0.674811 0.005112
O O11 0.338505 0.379797 0.134939
O O12 0.740165 0.271013 0.418236
O O13 0.142720 0.860132 0.300827
O O14 0.097440 0.039617 0.958403
O O15 0.500000 0.500000 0.000000
O O16 0.000000 0.500000 0.000000
O O17 0.382989 0.901831 0.190007
#
# Coordination Sequence:
#
# PCOD9064476 Si02
#       8
#     2   2   2   2   2   2   2   2
#     4  12  24  48  71 105 145 194 239 301 367 430
#     4  11  25  46  70 106 148 190 244 302 360 433
#     4  12  24  46  70 111 142 189 251 300 364 420
#     4  11  24  45  78 101 146 199 237 299 365 440
#     4  12  27  44  75 113 143 196 249 298 362 440
#     4  12  25  45  74 105 150 195 239 304 368 432
#     4  11  28  43  73 106 144 190 239 307 364 439
#     4  11  27  47  72 109 146 191 248 296 365 441
#
# _framework density 23.471268999999999
#
# number of rings (size 3 to 8) (size 9 to 14) (size 15 to 20)
#    0.000    0.500    5.000    1.500    5.250    4.000 
#    0.000    0.000    0.000    0.000    0.000    0.000 
#    0.000    0.000    0.000    0.000    0.000    0.000 
#
# Total GULP energy -89340.057796 kJ/mol
# GULP energy per Si atom -5583.753612 kJ/mol
# Density = 2.341785 g / cm^3
# Si number density = 23.471269 Si / 1000 Ang^3
#
#
#
# Elastic Constant Matrix: (Units=GPa)
#
#
# Indices 1 2 3 4 5 6 
#
# 1 108.1182 43.3103 27.6047 -15.1919 1.6957 -21.6855
# 2 43.3103 90.2440 5.9273 -3.6638 20.4700 -17.1132
# 3 27.6047 5.9273 80.7349 -5.3299 0.0949 -19.2734
# 4 -15.1919 -3.6638 -5.3299 32.3448 -0.5790 3.4636
# 5 1.6957 20.4700 0.0949 -0.5790 34.4626 0.4079
# 6 -21.6855 -17.1132 -19.2734 3.4636 0.4079 38.6817
#
#
#
# Elastic Compliance Matrix: (Units=1/GPa)
#
#
# Indices 1 2 3 4 5 6 
#
# 1 0.013882 -0.006434 -0.003273 0.005007 0.003198 0.002823
# 2 -0.006434 0.017253 0.002118 -0.001468 -0.010025 0.005318
# 3 -0.003273 0.002118 0.014936 0.000444 -0.001208 0.006517
# 4 0.005007 -0.001468 0.000444 0.033262 0.001190 -0.000612
# 5 0.003198 -0.010025 -0.001208 0.001190 0.034881 -0.003718
# 6 0.002823 0.005318 0.006517 -0.000612 -0.003718 0.033128
#
#
# Mechanical properties :
#
#
# Convention : Reuss Voigt Hill
#
# Bulk Modulus (GPa) = 32.37166 48.08685 40.22925
# Shear Modulus (GPa) = 28.93188 34.58147 31.75667
#
# Velocity S-wave (km/s) = 3.51472 3.84259 3.68231
# Velocity P-wave (km/s) = 5.50391 6.34187 5.93769
#
# Compressibility (1/GPa) = 0.03089122
#
# Stress axis : x y z
#
# Youngs Moduli (GPa) = 72.03642 57.96215 66.95018
#
# Poissons Ratio (x) = 0.37294 0.21916
# Poissons Ratio (y) = 0.46350 -0.14178
# Poissons Ratio (z) = 0.23581 -0.12275
#
# Static dielectric constant tensor:
#      x y z
#    x 2.093330 0.017380 -0.084740 
#    y 0.017380 2.020650 -0.014610 
#    z -0.084740 -0.014610 1.950010 
# 
# From -- ./inp_files/472395.got.cif
#   From: 2010.05.17/outbox.cif.g08.bks.cpg/sg2_237_cif.got.tgz:472395.got - 2010.06.03 11:33:40.
