data_PCOD9064858
_publ_section_title
;
Structure prediction by ZEFSAII (Michael W. Deem and Ramdas Pophale) SiO2 
 PCOD9064858
Probable space group: P -1
;
_chemical_formula_sum "Si O2"
_cell_formula_units_Z 14
_cell_length_a 10.738262
_cell_length_b 11.776094
_cell_length_c 10.218062
_cell_angle_alpha 53.852096
_cell_angle_beta 55.486631
_cell_angle_gamma 37.223977
_cell_volume 618.634980
_symmetry_space_group_name_H-M "P -1"
_symmetry_group_IT_number 2
_symmetry_cell_setting 'triclinic'
loop_
_space_group_symop_operation_xyz
x,y,z
-x,-y,-z
loop_
_atom_site_type_symbol
_atom_site_label
_atom_site_fract_x
_atom_site_fract_y
_atom_site_fract_z
Si Si1 0.357160 0.524707 0.181558
Si Si2 0.202324 0.988675 0.440865
Si Si3 0.799869 0.184615 0.688294
Si Si4 0.879024 0.649501 0.847432
Si Si5 0.412317 0.951785 0.972189
Si Si6 0.929705 0.670084 0.257725
Si Si7 0.431628 0.187319 0.476222
O O1 0.321864 0.624516 0.276788
O O2 0.459582 0.307646 0.294103
O O3 0.121044 0.650302 0.185535
O O4 0.500000 0.500000 0.000000
O O5 0.232456 0.832789 0.435759
O O6 0.430343 0.879833 0.431325
O O7 0.117420 0.182509 0.282044
O O8 0.047522 0.061411 0.607789
O O9 0.722443 0.089626 0.863216
O O10 0.635497 0.758716 0.912588
O O11 0.990997 0.510854 0.751505
O O12 0.000000 0.500000 0.000000
O O13 0.253611 0.131381 0.847757
O O14 0.500000 0.000000 0.000000
O O15 0.811118 0.680102 0.442987
O O16 0.500000 0.000000 0.500000
#
# Coordination Sequence:
#
# PCOD9064858 Si02
#       7
#     2   2   2   2   2   2   2
#     4  12  29  48  71 115 152 201 253 312 375 447
#     4  11  24  46  74 111 145 200 241 316 382 438
#     4  11  25  47  71 104 156 187 253 306 385 437
#     4  12  23  44  75 111 146 186 253 305 369 451
#     4  12  23  46  72 112 143 199 243 310 375 446
#     4  12  25  45  78 103 152 198 252 303 372 449
#     4  12  26  49  77 107 154 198 257 304 375 454
#
# _framework density 22.630469000000002
#
# number of rings (size 3 to 8) (size 9 to 14) (size 15 to 20)
#    0.000    0.286    4.286    3.857    4.000    1.143 
#    5.143    0.000    0.000    0.000    0.000    0.000 
#    0.000    0.000    0.000    0.000    0.000    0.000 
#
# Total GULP energy -78154.770809 kJ/mol
# GULP energy per Si atom -5582.483629 kJ/mol
# Density = 2.257896 g / cm^3
# Si number density = 22.630469 Si / 1000 Ang^3
#
#
#
# Elastic Constant Matrix: (Units=GPa)
#
#
# Indices 1 2 3 4 5 6 
#
# 1 105.4114 56.9626 30.2208 -8.5680 -3.2495 -0.4400
# 2 56.9626 149.9151 61.1753 15.4069 2.3913 10.0350
# 3 30.2208 61.1753 131.8254 3.6758 -31.0890 6.3164
# 4 -8.5680 15.4069 3.6758 49.8082 -7.9701 11.1133
# 5 -3.2495 2.3913 -31.0890 -7.9701 38.7236 6.3029
# 6 -0.4400 10.0350 6.3164 11.1133 6.3029 45.5288
#
#
#
# Elastic Compliance Matrix: (Units=1/GPa)
#
#
# Indices 1 2 3 4 5 6 
#
# 1 0.012775 -0.005292 -0.000066 0.004201 0.002216 -0.000033
# 2 -0.005292 0.011620 -0.005672 -0.005278 -0.006869 0.000414
# 3 -0.000066 -0.005672 0.013137 0.003395 0.012091 -0.003076
# 4 0.004201 -0.005278 0.003395 0.025245 0.009702 -0.006772
# 5 0.002216 -0.006869 0.012091 0.009702 0.039435 -0.007970
# 6 -0.000033 0.000414 -0.003076 -0.006772 -0.007970 0.025056
#
#
# Mechanical properties :
#
#
# Convention : Reuss Voigt Hill
#
# Bulk Modulus (GPa) = 64.62885 75.98549 70.30717
# Shear Modulus (GPa) = 32.36558 42.73167 37.54862
#
# Velocity S-wave (km/s) = 3.78587 4.35010 4.07776
# Velocity P-wave (km/s) = 6.90875 7.67337 7.30108
#
# Compressibility (1/GPa) = 0.01547297
#
# Stress axis : x y z
#
# Youngs Moduli (GPa) = 78.27827 86.05872 76.12054
#
# Poissons Ratio (x) = 0.45544 0.00499
# Poissons Ratio (y) = 0.41426 0.43173
# Poissons Ratio (z) = 0.00514 0.48810
#
# Static dielectric constant tensor:
#      x y z
#    x 1.878730 0.015210 0.009330 
#    y 0.015210 1.836290 0.038240 
#    z 0.009330 0.038240 1.953210 
# 
# From -- ./inp_files/427513.got.cif
#   From: 2010.05.17/outbox.cif.g08.bks.cpg/sg2_214_cif.got.tgz:427513.got - 2010.06.03 11:33:40.
