data_PCOD9064266
_publ_section_title
;
Structure prediction by ZEFSAII (Michael W. Deem and Ramdas Pophale) SiO2 
 PCOD9064266
Probable space group: P -1
;
_chemical_formula_sum "Si O2"
_cell_formula_units_Z 16
_cell_length_a 13.788961
_cell_length_b 21.653550
_cell_length_c 16.452769
_cell_angle_alpha 156.657275
_cell_angle_beta 35.216863
_cell_angle_gamma 158.277523
_cell_volume 698.395913
_symmetry_space_group_name_H-M "P -1"
_symmetry_group_IT_number 2
_symmetry_cell_setting 'triclinic'
loop_
_space_group_symop_operation_xyz
x,y,z
-x,-y,-z
loop_
_atom_site_type_symbol
_atom_site_label
_atom_site_fract_x
_atom_site_fract_y
_atom_site_fract_z
Si Si1 0.464363 0.814266 0.249497
Si Si2 0.899721 0.774749 0.457032
Si Si3 0.177130 0.480205 0.333089
Si Si4 0.313560 0.032119 0.355605
Si Si5 0.752939 0.761213 0.099435
Si Si6 0.590497 0.371145 0.410786
Si Si7 0.961712 0.149422 0.228715
Si Si8 0.852016 0.404849 0.125391
O O1 0.617754 0.780119 0.147761
O O2 0.147947 0.560974 0.142801
O O3 0.500000 0.000000 0.500000
O O4 0.648122 0.965654 0.225910
O O5 0.601242 0.627118 0.481584
O O6 0.900571 0.599321 0.277494
O O7 0.028559 0.879164 0.404370
O O8 0.065559 0.004221 0.682674
O O9 0.480083 0.764495 0.468637
O O10 0.000000 0.500000 0.500000
O O11 0.144458 0.358681 0.289024
O O12 0.096443 0.289722 0.093671
O O13 0.435698 0.182437 0.367255
O O14 0.282155 0.825279 0.115567
O O15 0.500000 0.500000 0.000000
O O16 0.653579 0.294856 0.204247
O O17 0.885877 0.666491 0.576391
O O18 0.000000 0.000000 0.000000
#
# Coordination Sequence:
#
# PCOD9064266 Si02
#       8
#     2   2   2   2   2   2   2   2
#     4  12  25  47  73 104 143 184 242 292 353 425
#     4  12  26  46  72 107 144 185 242 293 356 424
#     4  11  27  45  72 105 144 184 238 294 356 426
#     4  11  27  47  67 107 143 192 235 286 366 420
#     4  12  26  45  71 105 142 187 235 291 355 417
#     4  11  26  47  70 102 145 188 238 289 361 424
#     4  11  24  45  73 102 138 190 237 290 355 417
#     4  12  27  46  75 105 143 191 236 296 355 424
#
# _framework density 22.909642999999999
#
# number of rings (size 3 to 8) (size 9 to 14) (size 15 to 20)
#    0.000    0.500    5.000    1.500    8.750    1.000 
#    0.000    0.000    0.000    0.000    0.000    0.000 
#    0.000    0.000    0.000    0.000    0.000    0.000 
#
# Total GULP energy -89239.402362 kJ/mol
# GULP energy per Si atom -5577.462648 kJ/mol
# Density = 2.285750 g / cm^3
# Si number density = 22.909643 Si / 1000 Ang^3
#
#
#
# Elastic Constant Matrix: (Units=GPa)
#
#
# Indices 1 2 3 4 5 6 
#
# 1 24.4169 2.5161 34.2600 11.1608 -1.1660 -3.8615
# 2 2.5161 106.1865 25.1314 -18.9631 1.5389 -10.3353
# 3 34.2600 25.1314 178.3838 -9.6177 -21.2297 -11.6743
# 4 11.1608 -18.9631 -9.6177 40.4803 -11.3683 -6.6200
# 5 -1.1660 1.5389 -21.2297 -11.3683 15.0306 -13.2322
# 6 -3.8615 -10.3353 -11.6743 -6.6200 -13.2322 19.2067
#
#
#
# Elastic Compliance Matrix: (Units=1/GPa)
#
#
# Indices 1 2 3 4 5 6 
#
# 1 0.049233 0.003789 -0.002094 0.005950 0.041086 0.041021
# 2 0.003789 0.009669 -0.003871 -0.001491 -0.011597 -0.004891
# 3 -0.002094 -0.003871 0.002098 -0.010141 -0.021934 -0.019835
# 4 0.005950 -0.001491 -0.010141 -0.001920 -0.052917 -0.042888
# 5 0.041086 -0.011597 -0.021934 -0.052917 -0.066360 -0.075268
# 6 0.041021 -0.004891 -0.019835 -0.042888 -0.075268 -0.021013
#
#
# Mechanical properties :
#
#
# Convention : Reuss Voigt Hill
#
# Bulk Modulus (GPa) = 17.65269 48.08913 32.87091
# Shear Modulus (GPa) = -988.88274 31.41553 -478.73361
#
# Velocity S-wave (km/s) = -20.79860 3.70710 -14.47134
# Velocity P-wave (km/s) = 23.85485 6.27374 16.27412
#
# Compressibility (1/GPa) = 0.05664858
#
# Stress axis : x y z
#
# Youngs Moduli (GPa) = 20.31157 103.41929 476.58534
#
# Poissons Ratio (x) = -0.39183 0.99810
# Poissons Ratio (y) = -0.07696 1.84465
# Poissons Ratio (z) = 0.04254 0.40029
#
# Static dielectric constant tensor:
#      x y z
#    x 1.897320 -0.126640 -0.116670 
#    y -0.126640 1.962130 -0.251980 
#    z -0.116670 -0.251980 1.510380 
# 
# From -- ./inp_files/574426.got.cif
#   From: 2010.05.17/outbox.cif.g08.bks.cpg/sg2_288_cif.got.tgz:574426.got - 2010.06.03 11:33:40.
