data_PCOD9064888
_publ_section_title
;
Structure prediction by ZEFSAII (Michael W. Deem and Ramdas Pophale) SiO2 
 PCOD9064888
Probable space group: P -1
;
_chemical_formula_sum "Si O2"
_cell_formula_units_Z 13
_cell_length_a 12.818339
_cell_length_b 6.755285
_cell_length_c 13.736756
_cell_angle_alpha 82.564063
_cell_angle_beta 144.644742
_cell_angle_gamma 119.996569
_cell_volume 495.706087
_symmetry_space_group_name_H-M "P -1"
_symmetry_group_IT_number 2
_symmetry_cell_setting 'triclinic'
loop_
_space_group_symop_operation_xyz
x,y,z
-x,-y,-z
loop_
_atom_site_type_symbol
_atom_site_label
_atom_site_fract_x
_atom_site_fract_y
_atom_site_fract_z
Si Si1 0.395997 0.563222 0.134363
Si Si2 0.487380 0.287753 0.566159
Si Si3 0.000000 0.000000 0.500000
Si Si4 0.864411 0.334261 0.733380
Si Si5 0.130796 0.498247 0.476234
Si Si6 0.387133 0.898014 0.801931
Si Si7 0.716138 0.793952 0.099043
O O1 0.494902 0.624867 0.314572
O O2 0.601559 0.852030 0.211085
O O3 0.153752 0.519620 0.958445
O O4 0.288595 0.294252 0.009380
O O5 0.500000 0.500000 0.500000
O O6 0.261539 0.969762 0.380289
O O7 0.720821 0.322074 0.714726
O O8 0.156215 0.320395 0.571251
O O9 0.837976 0.471011 0.615908
O O10 0.669926 0.200741 0.345971
O O11 0.852912 0.354539 0.304121
O O12 0.940185 0.934658 0.335419
O O13 0.619104 0.948402 0.010997
O O14 0.500000 0.500000 0.000000
#
# Coordination Sequence:
#
# PCOD9064888 Si02
#       7
#     2   2   1   2   2   2   2
#     4  12  27  48  77 108 150 195 243 304 374 443
#     4  11  28  50  77 108 141 191 257 315 366 434
#     4  12  26  44  70 108 150 192 248 288 360 446
#     4  11  26  49  76 107 147 197 244 308 372 432
#     4  11  24  46  75 106 155 200 241 302 367 443
#     4  11  25  46  71 111 155 195 242 296 370 452
#     4  12  26  43  68 107 149 195 237 295 359 438
#
# _framework density 26.225218000000002
#
# number of rings (size 3 to 8) (size 9 to 14) (size 15 to 20)
#    0.000    0.615    3.077    3.231    4.308    6.154 
#    0.000    0.000    0.000    0.000    0.000    0.000 
#    0.000    0.000    0.000    0.000    0.000    0.000 
#
# Total GULP energy -72565.971124 kJ/mol
# GULP energy per Si atom -5581.997779 kJ/mol
# Density = 2.616553 g / cm^3
# Si number density = 26.225218 Si / 1000 Ang^3
#
#
#
# Elastic Constant Matrix: (Units=GPa)
#
#
# Indices 1 2 3 4 5 6 
#
# 1 71.9366 7.3578 36.7064 -3.0505 -34.6427 -7.4598
# 2 7.3578 153.7856 59.1809 -17.7583 -18.4946 -13.6957
# 3 36.7064 59.1809 153.6836 6.4018 -43.9406 -12.0672
# 4 -3.0505 -17.7583 6.4018 42.7245 -5.5560 -6.9023
# 5 -34.6427 -18.4946 -43.9406 -5.5560 42.3898 5.7190
# 6 -7.4598 -13.6957 -12.0672 -6.9023 5.7190 41.1855
#
#
#
# Elastic Compliance Matrix: (Units=1/GPa)
#
#
# Indices 1 2 3 4 5 6 
#
# 1 0.024724 0.002720 -0.001041 0.006269 0.020696 0.003255
# 2 0.002720 0.008820 -0.003147 0.005210 0.003095 0.002947
# 3 -0.001041 -0.003147 0.010451 -0.001806 0.008323 0.000369
# 4 0.006269 0.005210 -0.001806 0.028343 0.008441 0.005917
# 5 0.020696 0.003095 0.008323 0.008441 0.051387 0.001495
# 6 0.003255 0.002947 0.000369 0.005917 0.001495 0.026742
#
#
# Mechanical properties :
#
#
# Convention : Reuss Voigt Hill
#
# Bulk Modulus (GPa) = 24.35474 65.09954 44.72714
# Shear Modulus (GPa) = 29.92429 43.67066 36.79747
#
# Velocity S-wave (km/s) = 3.38161 4.08513 3.74991
# Velocity P-wave (km/s) = 4.95519 6.86500 5.98674
#
# Compressibility (1/GPa) = 0.04105977
#
# Stress axis : x y z
#
# Youngs Moduli (GPa) = 40.44658 113.38285 95.68160
#
# Poissons Ratio (x) = -0.30845 0.09962
# Poissons Ratio (y) = -0.11003 0.30110
# Poissons Ratio (z) = 0.04211 0.35681
#
# Static dielectric constant tensor:
#      x y z
#    x 2.181440 -0.032600 0.126620 
#    y -0.032600 2.052980 0.042660 
#    z 0.126620 0.042660 2.144180 
# 
# From -- ./inp_files/64857.got.cif
#   From: 2010.05.17/outbox.cif.g08.bks.cpg/sg2_33_cif.got.tgz:64857.got - 2010.06.03 11:33:40.
