data_PCOD9064676
_publ_section_title
;
Structure prediction by ZEFSAII (Michael W. Deem and Ramdas Pophale) SiO2 
 PCOD9064676
Probable space group: P -1
;
_chemical_formula_sum "Si O2"
_cell_formula_units_Z 16
_cell_length_a 6.324399
_cell_length_b 10.047963
_cell_length_c 11.156337
_cell_angle_alpha 76.845676
_cell_angle_beta 105.234326
_cell_angle_gamma 114.932342
_cell_volume 614.741206
_symmetry_space_group_name_H-M "P -1"
_symmetry_group_IT_number 2
_symmetry_cell_setting 'triclinic'
loop_
_space_group_symop_operation_xyz
x,y,z
-x,-y,-z
loop_
_atom_site_type_symbol
_atom_site_label
_atom_site_fract_x
_atom_site_fract_y
_atom_site_fract_z
Si Si1 0.000512 0.999259 0.855966
Si Si2 0.963827 0.471344 0.796611
Si Si3 0.513114 0.155820 0.918817
Si Si4 0.309531 0.542352 0.031901
Si Si5 0.917570 0.189677 0.275757
Si Si6 0.367741 0.266562 0.480273
Si Si7 0.417568 0.920948 0.299923
Si Si8 0.205641 0.459344 0.603182
O O1 0.013787 0.848516 0.838437
O O2 0.795655 0.023530 0.745456
O O3 0.251021 0.131290 0.841396
O O4 0.000000 0.000000 0.000000
O O5 0.072655 0.645942 0.741918
O O6 0.072740 0.405055 0.720888
O O7 0.717956 0.466941 0.825235
O O8 0.080289 0.445281 0.941503
O O9 0.606249 0.280445 0.005988
O O10 0.653394 0.182066 0.809931
O O11 0.500000 0.000000 0.000000
O O12 0.500000 0.500000 0.000000
O O13 0.659949 0.064853 0.289102
O O14 0.122450 0.177805 0.394420
O O15 0.515355 0.171877 0.570040
O O16 0.282984 0.345160 0.561006
O O17 0.554490 0.392204 0.398324
O O18 0.000000 0.500000 0.500000
#
# Coordination Sequence:
#
# PCOD9064676 Si02
#       8
#     2   2   2   2   2   2   2   2
#     4  11  25  42  75 108 146 204 245 311 397 455
#     4  11  27  47  73 109 149 196 252 313 383 462
#     4  11  24  46  71 107 150 195 250 314 389 461
#     4  11  28  45  76 110 150 195 256 315 381 472
#     4  11  26  47  73 106 151 200 255 316 382 457
#     4  11  27  48  76 111 147 206 264 317 382 455
#     4  11  26  45  73 108 151 191 264 315 375 465
#     4  11  26  48  76 106 151 202 250 320 393 455
#
# _framework density 26.027211999999999
#
# number of rings (size 3 to 8) (size 9 to 14) (size 15 to 20)
#    0.000    1.000    2.500    1.875    8.750    3.500 
#    0.000    0.000    0.000    0.000    0.000    0.000 
#    0.000    0.000    0.000    0.000    0.000    0.000 
#
# Total GULP energy -89333.110184 kJ/mol
# GULP energy per Si atom -5583.319387 kJ/mol
# Density = 2.596797 g / cm^3
# Si number density = 26.027212 Si / 1000 Ang^3
#
#
#
# Elastic Constant Matrix: (Units=GPa)
#
#
# Indices 1 2 3 4 5 6 
#
# 1 170.5333 44.6326 51.1239 -4.5292 0.8687 4.1040
# 2 44.6326 62.2094 21.8457 -2.6534 -7.7306 -13.3638
# 3 51.1239 21.8457 100.0653 -3.6271 -15.0565 3.0925
# 4 -4.5292 -2.6534 -3.6271 37.8464 0.6321 -3.2021
# 5 0.8687 -7.7306 -15.0565 0.6321 70.1847 -0.8798
# 6 4.1040 -13.3638 3.0925 -3.2021 -0.8798 41.3793
#
#
#
# Elastic Compliance Matrix: (Units=1/GPa)
#
#
# Indices 1 2 3 4 5 6 
#
# 1 0.008341 -0.005555 -0.003185 0.000124 -0.001430 -0.002404
# 2 -0.005555 0.022881 -0.002024 0.001406 0.002246 0.008248
# 3 -0.003185 -0.002024 0.012491 0.000533 0.002477 -0.001177
# 4 0.000124 0.001406 0.000533 0.026796 0.000057 0.002477
# 5 -0.001430 0.002246 0.002477 0.000057 0.015057 0.001007
# 6 -0.002404 0.008248 -0.001177 0.002477 0.001007 0.027370
#
#
# Mechanical properties :
#
#
# Convention : Reuss Voigt Hill
#
# Bulk Modulus (GPa) = 45.07174 63.11248 54.09211
# Shear Modulus (GPa) = 35.24653 44.22911 39.73782
#
# Velocity S-wave (km/s) = 3.68396 4.12678 3.91164
# Velocity P-wave (km/s) = 5.95401 6.85626 6.42100
#
# Compressibility (1/GPa) = 0.02218685
#
# Stress axis : x y z
#
# Youngs Moduli (GPa) = 119.88934 43.70345 80.05826
#
# Poissons Ratio (x) = 0.24276 0.25500
# Poissons Ratio (y) = 0.66594 0.16200
# Poissons Ratio (z) = 0.38187 0.08844
#
# Static dielectric constant tensor:
#      x y z
#    x 2.405110 0.012760 -0.109060 
#    y 0.012760 2.239820 -0.021810 
#    z -0.109060 -0.021810 2.123800 
# 
# From -- ./inp_files/364796.got.cif
#   From: 2010.05.17/outbox.cif.g08.bks.cpg/sg2_183_cif.got.tgz:364796.got - 2010.06.03 11:33:40.
