data_PCOD9064496
_publ_section_title
;
Structure prediction by ZEFSAII (Michael W. Deem and Ramdas Pophale) SiO2 
 PCOD9064496
Probable space group: P -1
;
_chemical_formula_sum "Si O2"
_cell_formula_units_Z 14
_cell_length_a 19.751835
_cell_length_b 23.616035
_cell_length_c 8.230659
_cell_angle_alpha 139.622796
_cell_angle_beta 148.567962
_cell_angle_gamma 17.063478
_cell_volume 549.830560
_symmetry_space_group_name_H-M "P -1"
_symmetry_group_IT_number 2
_symmetry_cell_setting 'triclinic'
loop_
_space_group_symop_operation_xyz
x,y,z
-x,-y,-z
loop_
_atom_site_type_symbol
_atom_site_label
_atom_site_fract_x
_atom_site_fract_y
_atom_site_fract_z
Si Si1 0.770431 0.754475 0.480091
Si Si2 0.267910 0.847983 0.082845
Si Si3 0.653447 0.912923 0.952830
Si Si4 0.887141 0.295606 0.738301
Si Si5 0.170455 0.032043 0.017681
Si Si6 0.382329 0.547038 0.039957
Si Si7 0.841079 0.609607 0.741883
O O1 0.982846 0.698993 0.883292
O O2 0.990371 0.552676 0.400276
O O3 0.576114 0.921349 0.302694
O O4 0.511180 0.858899 0.282966
O O5 0.491011 0.627901 0.055561
O O6 0.494994 0.790034 0.458433
O O7 0.160789 0.945384 0.898408
O O8 0.000000 0.000000 0.000000
O O9 0.905884 0.833795 0.281987
O O10 0.843680 0.706468 0.896333
O O11 0.500000 0.000000 0.000000
O O12 0.987433 0.153415 0.740882
O O13 0.448006 0.500822 0.575270
O O14 0.974885 0.214557 0.139767
O O15 0.500000 0.500000 0.000000
O O16 0.000000 0.500000 0.000000
#
# Coordination Sequence:
#
# PCOD9064496 Si02
#       7
#     2   2   2   2   2   2   2
#     4  11  25  51  78 116 156 194 262 328 385 456
#     4  12  28  48  75 110 159 206 260 320 378 462
#     4  11  24  45  79 115 154 201 257 321 386 454
#     4  11  26  45  80 113 153 206 252 321 391 444
#     4  11  25  51  75 114 155 200 261 321 390 455
#     4  12  28  50  77 109 161 212 259 310 388 471
#     4  12  27  46  79 116 149 201 260 320 386 456
#
# _framework density 25.462389999999999
#
# number of rings (size 3 to 8) (size 9 to 14) (size 15 to 20)
#    0.000    0.571    2.857    4.714    4.000    7.429 
#    0.000    1.429    0.000    0.000    0.000    0.000 
#    0.000    0.000    0.000    0.000    0.000    0.000 
#
# Total GULP energy -78198.099890 kJ/mol
# GULP energy per Si atom -5585.578564 kJ/mol
# Density = 2.540444 g / cm^3
# Si number density = 25.462390 Si / 1000 Ang^3
#
#
#
# Elastic Constant Matrix: (Units=GPa)
#
#
# Indices 1 2 3 4 5 6 
#
# 1 232.2851 66.8583 35.7726 -8.1464 8.2630 27.1932
# 2 66.8583 163.5212 17.5230 4.8615 7.3086 13.5130
# 3 35.7726 17.5230 84.9816 -18.7600 -6.5079 -0.1437
# 4 -8.1464 4.8615 -18.7600 33.0722 -1.0969 3.2517
# 5 8.2630 7.3086 -6.5079 -1.0969 38.6943 -8.9247
# 6 27.1932 13.5130 -0.1437 3.2517 -8.9247 50.8133
#
#
#
# Elastic Compliance Matrix: (Units=1/GPa)
#
#
# Indices 1 2 3 4 5 6 
#
# 1 0.005538 -0.001759 -0.001950 0.000738 -0.001819 -0.002868
# 2 -0.001759 0.007204 -0.001350 -0.002200 -0.001530 -0.001106
# 3 -0.001950 -0.001350 0.014964 0.008176 0.003786 0.001586
# 4 0.000738 -0.002200 0.008176 0.035619 0.002258 -0.001670
# 5 -0.001819 -0.001530 0.003786 0.002258 0.028671 0.006282
# 6 -0.002868 -0.001106 0.001586 -0.001670 0.006282 0.022724
#
#
# Mechanical properties :
#
#
# Convention : Reuss Voigt Hill
#
# Bulk Modulus (GPa) = 56.85245 80.12174 68.48710
# Shear Modulus (GPa) = 38.25580 48.55822 43.40701
#
# Velocity S-wave (km/s) = 3.88034 4.37172 4.13334
# Velocity P-wave (km/s) = 6.51556 7.55100 7.05231
#
# Compressibility (1/GPa) = 0.01758939
#
# Stress axis : x y z
#
# Youngs Moduli (GPa) = 180.57207 138.80313 66.82846
#
# Poissons Ratio (x) = 0.24416 0.13029
# Poissons Ratio (y) = 0.31763 0.09020
# Poissons Ratio (z) = 0.35204 0.18735
#
# Static dielectric constant tensor:
#      x y z
#    x 2.160440 -0.055720 -0.067730 
#    y -0.055720 2.075430 0.024980 
#    z -0.067730 0.024980 2.109520 
# 
# From -- ./inp_files/337861.got.cif
#   From: 2010.05.17/outbox.cif.g08.bks.cpg/sg2_169_cif.got.tgz:337861.got - 2010.06.03 11:33:40.
