data_PCOD9064589
_publ_section_title
;
Structure prediction by ZEFSAII (Michael W. Deem and Ramdas Pophale) SiO2 
 PCOD9064589
Probable space group: P -1
;
_chemical_formula_sum "Si O2"
_cell_formula_units_Z 16
_cell_length_a 8.552371
_cell_length_b 9.470592
_cell_length_c 17.919355
_cell_angle_alpha 147.872761
_cell_angle_beta 88.508322
_cell_angle_gamma 85.999367
_cell_volume 759.998729
_symmetry_space_group_name_H-M "P -1"
_symmetry_group_IT_number 2
_symmetry_cell_setting 'triclinic'
loop_
_space_group_symop_operation_xyz
x,y,z
-x,-y,-z
loop_
_atom_site_type_symbol
_atom_site_label
_atom_site_fract_x
_atom_site_fract_y
_atom_site_fract_z
Si Si1 0.627964 0.823540 0.064141
Si Si2 0.101294 0.730641 0.581125
Si Si3 0.336017 0.658170 0.920372
Si Si4 0.594388 0.393293 0.378004
Si Si5 0.882247 0.278122 0.601359
Si Si6 0.487320 0.694281 0.370622
Si Si7 0.143926 0.164429 0.077124
Si Si8 0.864409 0.671601 0.126727
O O1 0.717230 0.737111 0.101029
O O2 0.551362 0.132638 0.220617
O O3 0.489262 0.660962 0.971987
O O4 0.757849 0.810610 0.989661
O O5 0.230883 0.679216 0.623008
O O6 0.131419 0.688357 0.473211
O O7 0.000000 0.500000 0.500000
O O8 0.067362 0.059566 0.730564
O O9 0.405744 0.503418 0.776066
O O10 0.202276 0.501504 0.885402
O O11 0.266329 0.969560 0.041851
O O12 0.500000 0.500000 0.500000
O O13 0.554121 0.618434 0.417728
O O14 0.698453 0.305703 0.640169
O O15 0.927526 0.544386 0.757771
O O16 0.000000 0.000000 0.500000
O O17 0.500000 0.000000 0.500000
O O18 0.000000 0.000000 0.000000
O O19 0.000000 0.500000 0.000000
#
# Coordination Sequence:
#
# PCOD9064589 Si02
#       8
#     2   2   2   2   2   2   2   2
#     4  11  24  46  71 106 138 190 249 296 365 437
#     4  11  28  47  70 103 145 194 242 295 373 445
#     4  12  25  47  76 106 143 190 255 303 364 441
#     4  11  24  46  70 100 143 188 244 295 357 441
#     4  12  29  48  73 112 150 190 250 307 373 441
#     4  12  26  46  74 107 146 192 244 309 369 430
#     4  12  27  45  76 105 147 197 240 306 368 435
#     4  11  27  47  72 106 149 188 237 306 372 445
#
# _framework density 21.052668000000001
#
# number of rings (size 3 to 8) (size 9 to 14) (size 15 to 20)
#    0.000    0.500    3.750    3.000   14.000    0.000 
#    0.000    0.000    0.000    0.000    0.000    0.000 
#    0.000    0.000    0.000    0.000    0.000    0.000 
#
# Total GULP energy -89253.213661 kJ/mol
# GULP energy per Si atom -5578.325854 kJ/mol
# Density = 2.100475 g / cm^3
# Si number density = 21.052668 Si / 1000 Ang^3
#
#
#
# Elastic Constant Matrix: (Units=GPa)
#
#
# Indices 1 2 3 4 5 6 
#
# 1 72.8157 20.3866 40.9486 1.1593 5.4102 18.2136
# 2 20.3866 120.6472 55.6339 6.0571 -11.2135 3.1880
# 3 40.9486 55.6339 174.7069 2.1257 2.1968 16.8536
# 4 1.1593 6.0571 2.1257 34.9535 -2.3735 -1.5049
# 5 5.4102 -11.2135 2.1968 -2.3735 40.3824 2.9057
# 6 18.2136 3.1880 16.8536 -1.5049 2.9057 37.6497
#
#
#
# Elastic Compliance Matrix: (Units=1/GPa)
#
#
# Indices 1 2 3 4 5 6 
#
# 1 0.017764 -0.001641 -0.002931 -0.000578 -0.002207 -0.006995
# 2 -0.001641 0.010278 -0.003006 -0.001292 0.003091 0.000979
# 3 -0.002931 -0.003006 0.007535 0.000039 -0.000731 -0.001642
# 4 -0.000578 -0.001292 0.000039 0.029001 0.001318 0.001429
# 5 -0.002207 0.003091 -0.000731 0.001318 0.026094 -0.000828
# 6 -0.006995 0.000979 -0.001642 0.001429 -0.000828 0.030718
#
#
# Mechanical properties :
#
#
# Convention : Reuss Voigt Hill
#
# Bulk Modulus (GPa) = 48.97001 66.90089 57.93545
# Shear Modulus (GPa) = 34.87832 39.34382 37.11107
#
# Velocity S-wave (km/s) = 4.07469 4.32768 4.20309
# Velocity P-wave (km/s) = 6.74157 7.53782 7.15078
#
# Compressibility (1/GPa) = 0.02042066
#
# Stress axis : x y z
#
# Youngs Moduli (GPa) = 56.29285 97.29135 132.70799
#
# Poissons Ratio (x) = 0.15968 0.38902
# Poissons Ratio (y) = 0.09239 0.39892
# Poissons Ratio (z) = 0.16502 0.29246
#
# Static dielectric constant tensor:
#      x y z
#    x 2.072480 -0.227520 -0.181240 
#    y -0.227520 1.897180 0.190320 
#    z -0.181240 0.190320 2.056730 
# 
# From -- ./inp_files/470120.got.cif
#   From: 2010.05.17/outbox.cif.g08.bks.cpg/sg2_236_cif.got.tgz:470120.got - 2010.06.03 11:33:40.
