data_PCOD9064658
_publ_section_title
;
Structure prediction by ZEFSAII (Michael W. Deem and Ramdas Pophale) SiO2 
 PCOD9064658
Probable space group: P -1
;
_chemical_formula_sum "Si O2"
_cell_formula_units_Z 16
_cell_length_a 15.612710
_cell_length_b 15.848727
_cell_length_c 5.798477
_cell_angle_alpha 124.154944
_cell_angle_beta 70.270059
_cell_angle_gamma 139.276071
_cell_volume 764.286796
_symmetry_space_group_name_H-M "P -1"
_symmetry_group_IT_number 2
_symmetry_cell_setting 'triclinic'
loop_
_space_group_symop_operation_xyz
x,y,z
-x,-y,-z
loop_
_atom_site_type_symbol
_atom_site_label
_atom_site_fract_x
_atom_site_fract_y
_atom_site_fract_z
Si Si1 0.293133 0.052660 0.671455
Si Si2 0.858342 0.146800 0.102077
Si Si3 0.594543 0.604806 0.284777
Si Si4 0.099790 0.486574 0.374071
Si Si5 0.249116 0.632860 0.962112
Si Si6 0.481631 0.660246 0.792595
Si Si7 0.363855 0.930641 0.129850
Si Si8 0.143738 0.067609 0.480399
O O1 0.194286 0.049474 0.632048
O O2 0.195348 0.897084 0.658064
O O3 0.383965 0.052951 0.433871
O O4 0.393627 0.198538 0.959275
O O5 0.005293 0.309901 0.183242
O O6 0.752476 0.130284 0.035100
O O7 0.850486 0.021624 0.842550
O O8 0.539132 0.669880 0.513205
O O9 0.577907 0.493594 0.292308
O O10 0.750102 0.754484 0.360262
O O11 0.500000 0.500000 0.000000
O O12 0.175026 0.550689 0.654615
O O13 0.000000 0.500000 0.500000
O O14 0.176242 0.558604 0.165621
O O15 0.372290 0.656630 0.883285
O O16 0.305195 0.793125 0.131119
O O17 0.500000 0.000000 0.000000
O O18 0.000000 0.000000 0.500000
#
# Coordination Sequence:
#
# PCOD9064658 Si02
#       8
#     2   2   2   2   2   2   2   2
#     4  11  24  46  71 104 146 189 243 310 368 441
#     4  11  25  45  71 100 145 193 237 304 368 438
#     4  11  24  47  72 100 146 189 239 317 374 439
#     4  12  27  48  72 105 153 197 243 301 371 440
#     4  12  29  46  77 111 145 199 251 302 366 457
#     4  11  26  44  73 104 140 189 250 304 378 437
#     4  11  26  43  73 107 146 189 244 299 371 439
#     4  11  26  43  71 104 142 189 247 303 372 445
#
# _framework density 20.934550999999999
#
# number of rings (size 3 to 8) (size 9 to 14) (size 15 to 20)
#    0.000    0.750    3.750    1.875   10.500    1.500 
#    0.000    0.000    0.000    0.000    0.000    0.000 
#    0.000    0.000    0.000    0.000    0.000    0.000 
#
# Total GULP energy -89226.150402 kJ/mol
# GULP energy per Si atom -5576.634400 kJ/mol
# Density = 2.088690 g / cm^3
# Si number density = 20.934551 Si / 1000 Ang^3
#
#
#
# Elastic Constant Matrix: (Units=GPa)
#
#
# Indices 1 2 3 4 5 6 
#
# 1 154.4230 47.2768 64.2654 -6.7387 -19.5776 20.7595
# 2 47.2768 148.9718 52.9385 9.4406 -3.1627 7.2326
# 3 64.2654 52.9385 124.6246 8.3663 6.9568 19.2000
# 4 -6.7387 9.4406 8.3663 32.9021 -3.8070 -5.8803
# 5 -19.5776 -3.1627 6.9568 -3.8070 18.4927 -0.7642
# 6 20.7595 7.2326 19.2000 -5.8803 -0.7642 36.3345
#
#
#
# Elastic Compliance Matrix: (Units=1/GPa)
#
#
# Indices 1 2 3 4 5 6 
#
# 1 0.012411 -0.001460 -0.006858 0.006314 0.016695 -0.001804
# 2 -0.001460 0.008251 -0.002707 -0.001859 0.000515 0.000332
# 3 -0.006858 -0.002707 0.014744 -0.006954 -0.014899 -0.004773
# 4 0.006314 -0.001859 -0.006954 0.037162 0.016914 0.006807
# 5 0.016695 0.000515 -0.014899 0.016914 0.081035 0.002674
# 6 -0.001804 0.000332 -0.004773 0.006807 0.002674 0.032166
#
#
# Mechanical properties :
#
#
# Convention : Reuss Voigt Hill
#
# Bulk Modulus (GPa) = 74.87030 84.10899 79.48964
# Shear Modulus (GPa) = 23.55477 35.11509 29.33493
#
# Velocity S-wave (km/s) = 3.35798 4.10002 3.74741
# Velocity P-wave (km/s) = 7.13277 7.91694 7.53506
#
# Compressibility (1/GPa) = 0.01335643
#
# Stress axis : x y z
#
# Youngs Moduli (GPa) = 80.57192 121.20412 67.82292
#
# Poissons Ratio (x) = 0.17694 0.46513
# Poissons Ratio (y) = 0.11762 0.18360
# Poissons Ratio (z) = 0.55256 0.32810
#
# Static dielectric constant tensor:
#      x y z
#    x 1.711140 -0.012270 0.014090 
#    y -0.012270 1.790840 -0.053560 
#    z 0.014090 -0.053560 1.863520 
# 
# From -- ./inp_files/98589.got.cif
#   From: 2010.05.17/outbox.cif.g08.bks.cpg/sg2_50_cif.got.tgz:98589.got - 2010.06.03 11:33:40.
