data_PCOD9064855
_publ_section_title
;
Structure prediction by ZEFSAII (Michael W. Deem and Ramdas Pophale) SiO2 
 PCOD9064855
Probable space group: P -1
;
_chemical_formula_sum "Si O2"
_cell_formula_units_Z 14
_cell_length_a 5.225652
_cell_length_b 20.600191
_cell_length_c 6.754882
_cell_angle_alpha 112.025897
_cell_angle_beta 81.223022
_cell_angle_gamma 118.770346
_cell_volume 590.526329
_symmetry_space_group_name_H-M "P -1"
_symmetry_group_IT_number 2
_symmetry_cell_setting 'triclinic'
loop_
_space_group_symop_operation_xyz
x,y,z
-x,-y,-z
loop_
_atom_site_type_symbol
_atom_site_label
_atom_site_fract_x
_atom_site_fract_y
_atom_site_fract_z
Si Si1 0.853449 0.660732 0.875390
Si Si2 0.207206 0.077158 0.187529
Si Si3 0.673690 0.080274 0.446745
Si Si4 0.338570 0.553770 0.065928
Si Si5 0.275771 0.754254 0.265841
Si Si6 0.752144 0.345744 0.474792
Si Si7 0.697460 0.775182 0.912524
O O1 0.950184 0.749672 0.881589
O O2 0.951062 0.617263 0.648660
O O3 0.521374 0.613194 0.935105
O O4 0.034922 0.683286 0.083064
O O5 0.477723 0.074346 0.266246
O O6 0.279299 0.148339 0.108972
O O7 0.989548 0.086354 0.378695
O O8 0.000000 0.000000 0.000000
O O9 0.733046 0.163093 0.632720
O O10 0.500000 0.000000 0.500000
O O11 0.338132 0.599222 0.319556
O O12 0.500000 0.500000 0.000000
O O13 0.000000 0.500000 0.000000
O O14 0.246732 0.717937 0.442929
O O15 0.576118 0.773237 0.143144
O O16 0.513417 0.296364 0.284643
#
# Coordination Sequence:
#
# PCOD9064855 Si02
#       7
#     2   2   2   2   2   2   2
#     4  11  27  45  79 110 147 203 255 310 381 459
#     4  12  27  46  71 109 157 195 254 316 372 438
#     4  12  27  45  72 106 152 205 248 314 380 432
#     4  12  29  51  77 113 154 195 248 318 386 463
#     4  11  24  46  74 109 150 196 260 310 370 452
#     4  11  25  49  75 108 152 196 254 311 378 458
#     4  11  25  44  76 111 144 201 255 312 370 451
#
# _framework density 23.707664999999999
#
# number of rings (size 3 to 8) (size 9 to 14) (size 15 to 20)
#    0.000    0.571    2.857    3.429   14.000    1.143 
#    0.000    0.000    0.000    0.000    0.000    0.000 
#    0.000    0.000    0.000    0.000    0.000    0.000 
#
# Total GULP energy -78236.685151 kJ/mol
# GULP energy per Si atom -5588.334654 kJ/mol
# Density = 2.365371 g / cm^3
# Si number density = 23.707665 Si / 1000 Ang^3
#
#
#
# Elastic Constant Matrix: (Units=GPa)
#
#
# Indices 1 2 3 4 5 6 
#
# 1 67.6169 31.7192 29.9963 3.2087 -8.9502 -1.9160
# 2 31.7192 121.4081 50.0202 2.6681 -5.2765 -14.5457
# 3 29.9963 50.0202 148.0040 6.1059 -27.4030 2.2237
# 4 3.2087 2.6681 6.1059 43.8493 -15.4621 -4.2157
# 5 -8.9502 -5.2765 -27.4030 -15.4621 47.3493 -1.8603
# 6 -1.9160 -14.5457 2.2237 -4.2157 -1.8603 40.4773
#
#
#
# Elastic Compliance Matrix: (Units=1/GPa)
#
#
# Indices 1 2 3 4 5 6 
#
# 1 0.017656 -0.003761 -0.001981 -0.000228 0.001684 -0.000353
# 2 -0.003761 0.010960 -0.003223 0.000007 -0.001200 0.003883
# 3 -0.001981 -0.003223 0.009110 0.000577 0.004669 -0.001478
# 4 -0.000228 0.000007 0.000577 0.026202 0.008970 0.003101
# 5 0.001684 -0.001200 0.004669 0.008970 0.026997 0.001567
# 6 -0.000353 0.003883 -0.001478 0.003101 0.001567 0.026560
#
#
# Mechanical properties :
#
#
# Convention : Reuss Voigt Hill
#
# Bulk Modulus (GPa) = 50.51224 62.27782 56.39503
# Shear Modulus (GPa) = 35.20801 41.35474 38.28137
#
# Velocity S-wave (km/s) = 3.85787 4.18109 4.02272
# Velocity P-wave (km/s) = 6.41847 7.04519 6.73912
#
# Compressibility (1/GPa) = 0.01979718
#
# Stress axis : x y z
#
# Youngs Moduli (GPa) = 56.63858 91.24181 109.76854
#
# Poissons Ratio (x) = 0.34314 0.21744
# Poissons Ratio (y) = 0.21301 0.35374
# Poissons Ratio (z) = 0.11220 0.29404
#
# Static dielectric constant tensor:
#      x y z
#    x 2.023170 -0.056280 -0.017140 
#    y -0.056280 1.878160 -0.052300 
#    z -0.017140 -0.052300 1.851800 
# 
# From -- ./inp_files/7476.got.cif
#   From: 2010.05.17/outbox.cif.g08.bks.cpg/sg2_4_cif.got.tgz:7476.got - 2010.06.03 11:33:40.
