data_PCOD9064094
_publ_section_title
;
Structure prediction by ZEFSAII (Michael W. Deem and Ramdas Pophale) SiO2 
 PCOD9064094
Probable space group: P -1
;
_chemical_formula_sum "Si O2"
_cell_formula_units_Z 16
_cell_length_a 4.983591
_cell_length_b 25.971920
_cell_length_c 5.553203
_cell_angle_alpha 109.571955
_cell_angle_beta 80.867393
_cell_angle_gamma 106.282916
_cell_volume 648.405382
_symmetry_space_group_name_H-M "P -1"
_symmetry_group_IT_number 2
_symmetry_cell_setting 'triclinic'
loop_
_space_group_symop_operation_xyz
x,y,z
-x,-y,-z
loop_
_atom_site_type_symbol
_atom_site_label
_atom_site_fract_x
_atom_site_fract_y
_atom_site_fract_z
Si Si1 0.152834 0.670012 0.934540
Si Si2 0.810747 0.036870 0.961256
Si Si3 0.405256 0.403031 0.335781
Si Si4 0.354379 0.238740 0.061272
Si Si5 0.190268 0.866412 0.546063
Si Si6 0.760700 0.885186 0.282835
Si Si7 0.054153 0.257868 0.621091
Si Si8 0.268640 0.489019 0.815458
O O1 0.388799 0.638316 0.775240
O O2 0.312824 0.732998 0.918819
O O3 0.862767 0.629686 0.828171
O O4 0.081312 0.688907 0.242294
O O5 0.784565 0.096845 0.164452
O O6 0.004189 0.059783 0.739158
O O7 0.500000 0.000000 0.000000
O O8 0.000000 0.000000 0.000000
O O9 0.260026 0.427409 0.617402
O O10 0.620451 0.461061 0.311287
O O11 0.220218 0.259685 0.350502
O O12 0.283821 0.170784 0.963013
O O13 0.236665 0.255734 0.841940
O O14 0.455145 0.894913 0.386410
O O15 0.889903 0.867806 0.482389
O O16 0.181222 0.800851 0.459798
O O17 0.500000 0.500000 0.000000
O O18 0.000000 0.500000 0.000000
#
# Coordination Sequence:
#
# PCOD9064094 Si02
#       8
#     2   2   2   2   2   2   2   2
#     4  12  24  47  68 114 146 195 242 311 366 439
#     4  12  26  44  68 104 134 180 242 311 364 431
#     4  11  26  46  70 110 148 183 248 303 362 435
#     4  11  25  48  74 108 149 202 245 300 371 451
#     4  11  24  45  70  98 138 187 237 297 365 444
#     4  11  24  45  70  98 138 187 237 297 365 444
#     4  11  25  48  74 108 149 202 245 300 371 451
#     4  11  24  47  76 102 142 199 240 295 369 430
#
# _framework density 24.675924999999999
#
# number of rings (size 3 to 8) (size 9 to 14) (size 15 to 20)
#    0.000    0.750    3.750    3.000    0.000    9.000 
#    4.500    0.000    0.000    0.000    0.000    0.000 
#    0.000    0.000    0.000    0.000    0.000    0.000 
#
# Total GULP energy -89188.435968 kJ/mol
# GULP energy per Si atom -5574.277248 kJ/mol
# Density = 2.461976 g / cm^3
# Si number density = 24.675925 Si / 1000 Ang^3
#
#
#
# Elastic Constant Matrix: (Units=GPa)
#
#
# Indices 1 2 3 4 5 6 
#
# 1 122.3243 13.3168 18.2652 -1.5880 -33.0005 23.0180
# 2 13.3168 93.2139 17.2809 3.4098 -9.2826 25.5889
# 3 18.2652 17.2809 117.2209 11.3572 -21.9605 11.0657
# 4 -1.5880 3.4098 11.3572 41.7221 2.6857 -3.3056
# 5 -33.0005 -9.2826 -21.9605 2.6857 32.5686 -1.7548
# 6 23.0180 25.5889 11.0657 -3.3056 -1.7548 46.1420
#
#
#
# Elastic Compliance Matrix: (Units=1/GPa)
#
#
# Indices 1 2 3 4 5 6 
#
# 1 0.012949 0.001309 0.001224 -0.001410 0.014056 -0.007046
# 2 0.001309 0.013305 -0.000380 -0.001855 0.004589 -0.007898
# 3 0.001224 -0.000380 0.010590 -0.003574 0.008413 -0.002876
# 4 -0.001410 -0.001855 -0.003574 0.025775 -0.006267 0.004198
# 5 0.014056 0.004589 0.008413 -0.006267 0.051903 -0.010049
# 6 -0.007046 -0.007898 -0.002876 0.004198 -0.010049 0.030175
#
#
# Mechanical properties :
#
#
# Convention : Reuss Voigt Hill
#
# Bulk Modulus (GPa) = 24.30167 47.83164 36.06665
# Shear Modulus (GPa) = 32.44474 43.01294 37.72884
#
# Velocity S-wave (km/s) = 3.63000 4.17959 3.91445
# Velocity P-wave (km/s) = 5.23821 6.53590 5.92270
#
# Compressibility (1/GPa) = 0.04114944
#
# Stress axis : x y z
#
# Youngs Moduli (GPa) = 77.22466 75.16172 94.42832
#
# Poissons Ratio (x) = -0.09835 -0.11562
# Poissons Ratio (y) = -0.10105 0.03590
# Poissons Ratio (z) = -0.09456 0.02858
#
# Static dielectric constant tensor:
#      x y z
#    x 1.968790 -0.034410 -0.007480 
#    y -0.034410 1.980500 -0.044980 
#    z -0.007480 -0.044980 2.024030 
# 
# From -- ./inp_files/15010.got.cif
#   From: 2010.05.17/outbox.cif.g08.bks.cpg/sg2_8_cif.got.tgz:15010.got - 2010.06.03 11:33:40.
