data_PCOD9064447
_publ_section_title
;
Structure prediction by ZEFSAII (Michael W. Deem and Ramdas Pophale) SiO2 
 PCOD9064447
Probable space group: P -1
;
_chemical_formula_sum "Si O2"
_cell_formula_units_Z 12
_cell_length_a 8.894157
_cell_length_b 11.188796
_cell_length_c 5.582480
_cell_angle_alpha 90.723432
_cell_angle_beta 70.754761
_cell_angle_gamma 115.599747
_cell_volume 467.478923
_symmetry_space_group_name_H-M "P -1"
_symmetry_group_IT_number 2
_symmetry_cell_setting 'triclinic'
loop_
_space_group_symop_operation_xyz
x,y,z
-x,-y,-z
loop_
_atom_site_type_symbol
_atom_site_label
_atom_site_fract_x
_atom_site_fract_y
_atom_site_fract_z
Si Si1 0.896163 0.252357 0.391408
Si Si2 0.213259 0.580514 0.858438
Si Si3 0.879505 0.841651 0.076975
Si Si4 0.590772 0.989695 0.702659
Si Si5 0.558487 0.722507 0.906481
Si Si6 0.219086 0.374882 0.502663
O O1 0.768710 0.298333 0.317764
O O2 0.780604 0.120251 0.599295
O O3 0.014375 0.217753 0.141480
O O4 0.045852 0.371665 0.467165
O O5 0.343109 0.641726 0.019852
O O6 0.278548 0.486471 0.677255
O O7 0.000000 0.500000 0.000000
O O8 0.679046 0.789035 0.076810
O O9 0.857545 0.771692 0.340200
O O10 0.000000 0.000000 0.000000
O O11 0.500000 0.000000 0.500000
O O12 0.601114 0.850535 0.716897
O O13 0.500000 0.000000 0.000000
O O14 0.633664 0.624544 0.755012
#
# Coordination Sequence:
#
# PCOD9064447 Si02
#       6
#     2   2   2   2   2   2
#     4  11  25  47  73 108 145 198 259 315 384 455
#     4  12  25  48  74 105 152 203 259 312 383 460
#     4  11  24  45  76 106 149 192 249 316 387 456
#     4  12  28  47  78 116 154 197 258 330 394 455
#     4  11  27  46  73 112 146 197 256 315 389 458
#     4  11  25  47  71 104 149 198 252 319 379 463
#
# _framework density 25.669608
#
# number of rings (size 3 to 8) (size 9 to 14) (size 15 to 20)
#    0.000    0.667    3.333    3.000    9.333    3.333 
#    3.000    0.000    0.000    0.000    0.000    0.000 
#    0.000    0.000    0.000    0.000    0.000    0.000 
#
# Total GULP energy -67203.182235 kJ/mol
# GULP energy per Si atom -5600.265186 kJ/mol
# Density = 2.561118 g / cm^3
# Si number density = 25.669608 Si / 1000 Ang^3
#
#
#
# Elastic Constant Matrix: (Units=GPa)
#
#
# Indices 1 2 3 4 5 6 
#
# 1 156.0989 56.0392 31.1333 -2.4986 11.6699 28.7259
# 2 56.0392 106.8579 6.9184 -3.0217 -4.9232 10.2156
# 3 31.1333 6.9184 87.1223 -3.4803 -7.5506 5.4305
# 4 -2.4986 -3.0217 -3.4803 42.8684 2.7509 -1.2037
# 5 11.6699 -4.9232 -7.5506 2.7509 36.1340 -2.3747
# 6 28.7259 10.2156 5.4305 -1.2037 -2.3747 58.6518
#
#
#
# Elastic Compliance Matrix: (Units=1/GPa)
#
#
# Indices 1 2 3 4 5 6 
#
# 1 0.009868 -0.004806 -0.003312 0.000167 -0.004802 -0.003880
# 2 -0.004806 0.011948 0.001060 0.000440 0.003389 0.000321
# 3 -0.003312 0.001060 0.012916 0.000692 0.003888 0.000413
# 4 0.000167 0.000440 0.000692 0.023534 -0.001628 0.000195
# 5 -0.004802 0.003389 0.003888 -0.001628 0.030795 0.002615
# 6 -0.003880 0.000321 0.000413 0.000195 0.002615 0.018966
#
#
# Mechanical properties :
#
#
# Convention : Reuss Voigt Hill
#
# Bulk Modulus (GPa) = 48.50734 59.80675 54.15705
# Shear Modulus (GPa) = 38.75483 44.59673 41.67578
#
# Velocity S-wave (km/s) = 3.88977 4.17266 4.03370
# Velocity P-wave (km/s) = 6.25393 6.82378 6.54506
#
# Compressibility (1/GPa) = 0.02061544
#
# Stress axis : x y z
#
# Youngs Moduli (GPa) = 101.33892 83.69646 77.42082
#
# Poissons Ratio (x) = 0.40225 0.25644
# Poissons Ratio (y) = 0.48704 -0.08206
# Poissons Ratio (z) = 0.33566 -0.08872
#
# Static dielectric constant tensor:
#      x y z
#    x 2.022800 0.039050 0.026080 
#    y 0.039050 2.038510 0.023170 
#    z 0.026080 0.023170 2.049760 
# 
# From -- ./inp_files/20934.got.cif
#   From: 2010.05.17/outbox.cif.g08.bks.cpg/sg2_11_cif.got.tgz:20934.got - 2010.06.03 11:33:40.
