data_PCOD9064583
_publ_section_title
;
Structure prediction by ZEFSAII (Michael W. Deem and Ramdas Pophale) SiO2 
 PCOD9064583
Probable space group: P -1
;
_chemical_formula_sum "Si O2"
_cell_formula_units_Z 12
_cell_length_a 11.383420
_cell_length_b 8.428939
_cell_length_c 15.877354
_cell_angle_alpha 118.895979
_cell_angle_beta 40.044143
_cell_angle_gamma 143.118071
_cell_volume 554.386862
_symmetry_space_group_name_H-M "P -1"
_symmetry_group_IT_number 2
_symmetry_cell_setting 'triclinic'
loop_
_space_group_symop_operation_xyz
x,y,z
-x,-y,-z
loop_
_atom_site_type_symbol
_atom_site_label
_atom_site_fract_x
_atom_site_fract_y
_atom_site_fract_z
Si Si1 0.804631 0.117988 0.654242
Si Si2 0.540770 0.054451 0.629617
Si Si3 0.236066 0.449164 0.785933
Si Si4 0.227144 0.706768 0.115397
Si Si5 0.986180 0.200810 0.043075
Si Si6 0.420361 0.633078 0.462718
O O1 0.797997 0.191013 0.582443
O O2 0.771315 0.249152 0.775959
O O3 0.125020 0.298598 0.543698
O O4 0.532219 0.780519 0.724916
O O5 0.578888 0.242062 0.589328
O O6 0.308986 0.949257 0.796954
O O7 0.453132 0.806182 0.563068
O O8 0.329088 0.322620 0.668603
O O9 0.034426 0.397062 0.816937
O O10 0.061339 0.301575 0.931032
O O11 0.211673 0.483244 0.047017
O O12 0.500000 0.000000 0.000000
O O13 0.000000 0.000000 0.000000
#
# Coordination Sequence:
#
# PCOD9064583 Si02
#       6
#     2   2   2   2   2   2
#     4  12  23  43  72  99 140 182 232 278 349 411
#     4  11  24  46  69  97 145 178 230 291 344 405
#     4  12  25  43  74 102 140 177 237 288 343 413
#     4  12  25  46  73 105 138 183 233 290 348 408
#     4  12  23  47  71  99 138 182 229 289 343 403
#     4  11  25  44  68 104 138 185 225 285 350 412
#
# _framework density 21.645534000000001
#
# number of rings (size 3 to 8) (size 9 to 14) (size 15 to 20)
#    0.000    0.333    6.667    2.500    0.000    4.000 
#    0.000    6.667    0.000    0.000    0.000    0.000 
#    0.000    0.000    0.000    0.000    0.000    0.000 
#
# Total GULP energy -67052.650484 kJ/mol
# GULP energy per Si atom -5587.720874 kJ/mol
# Density = 2.159627 g / cm^3
# Si number density = 21.645534 Si / 1000 Ang^3
#
#
#
# Elastic Constant Matrix: (Units=GPa)
#
#
# Indices 1 2 3 4 5 6 
#
# 1 92.4439 52.3212 47.6852 18.7863 18.7040 4.2864
# 2 52.3212 130.9727 48.7706 10.7823 -9.0830 -2.0102
# 3 47.6852 48.7706 130.1713 7.5626 -0.4896 1.6564
# 4 18.7863 10.7823 7.5626 34.1324 -5.7160 -7.1149
# 5 18.7040 -9.0830 -0.4896 -5.7160 36.2287 -1.0412
# 6 4.2864 -2.0102 1.6564 -7.1149 -1.0412 28.8958
#
#
#
# Elastic Compliance Matrix: (Units=1/GPa)
#
#
# Indices 1 2 3 4 5 6 
#
# 1 0.025130 -0.008231 -0.005226 -0.014757 -0.017674 -0.008271
# 2 -0.008231 0.011859 -0.001620 0.003110 0.007783 0.003185
# 3 -0.005226 -0.001620 0.010105 0.001731 0.002719 0.000607
# 4 -0.014757 0.003110 0.001731 0.041337 0.015319 0.013036
# 5 -0.017674 0.007783 0.002719 0.015319 0.041370 0.008270
# 6 -0.008271 0.003185 0.000607 0.013036 0.008270 0.039529
#
#
# Mechanical properties :
#
#
# Convention : Reuss Voigt Hill
#
# Bulk Modulus (GPa) = 59.02748 72.34909 65.68829
# Shear Modulus (GPa) = 24.37482 33.50543 28.94013
#
# Velocity S-wave (km/s) = 3.35937 3.93862 3.66047
# Velocity P-wave (km/s) = 6.50971 7.36076 6.94828
#
# Compressibility (1/GPa) = 0.01694126
#
# Stress axis : x y z
#
# Youngs Moduli (GPa) = 39.79330 84.32396 98.95674
#
# Poissons Ratio (x) = 0.69405 0.51713
# Poissons Ratio (y) = 0.32753 0.16031
# Poissons Ratio (z) = 0.20795 0.13660
#
# Static dielectric constant tensor:
#      x y z
#    x 1.814170 0.009840 -0.032990 
#    y 0.009840 1.809450 -0.032410 
#    z -0.032990 -0.032410 1.827650 
# 
# From -- ./inp_files/22194.got.cif
#   From: 2010.05.17/outbox.cif.g08.bks.cpg/sg2_12_cif.got.tgz:22194.got - 2010.06.03 11:33:40.
