data_PCOD9064938
_publ_section_title
;
Structure prediction by ZEFSAII (Michael W. Deem and Ramdas Pophale) SiO2 
 PCOD9064938
Probable space group: P -1
;
_chemical_formula_sum "Si O2"
_cell_formula_units_Z 16
_cell_length_a 8.368116
_cell_length_b 13.271280
_cell_length_c 16.122249
_cell_angle_alpha 43.690915
_cell_angle_beta 99.642415
_cell_angle_gamma 63.279002
_cell_volume 665.141224
_symmetry_space_group_name_H-M "P -1"
_symmetry_group_IT_number 2
_symmetry_cell_setting 'triclinic'
loop_
_space_group_symop_operation_xyz
x,y,z
-x,-y,-z
loop_
_atom_site_type_symbol
_atom_site_label
_atom_site_fract_x
_atom_site_fract_y
_atom_site_fract_z
Si Si1 0.728548 0.881411 0.394589
Si Si2 0.128124 0.650957 0.066357
Si Si3 0.325796 0.342987 0.675364
Si Si4 0.609207 0.832047 0.968753
Si Si5 0.333487 0.517056 0.414191
Si Si6 0.219005 0.968092 0.531090
Si Si7 0.719936 0.023548 0.649828
Si Si8 0.718446 0.147330 0.964444
O O1 0.542364 0.893834 0.412611
O O2 0.022343 0.612117 0.532604
O O3 0.511694 0.109125 0.169223
O O4 0.817032 0.915494 0.457786
O O5 0.194022 0.757523 0.052908
O O6 0.921865 0.684437 0.075308
O O7 0.440503 0.340655 0.259949
O O8 0.953369 0.821660 0.864322
O O9 0.309188 0.396053 0.545746
O O10 0.408658 0.111419 0.825696
O O11 0.580746 0.242852 0.803901
O O12 0.535302 0.742898 0.067485
O O13 0.500000 0.500000 0.500000
O O14 0.552161 0.304102 0.485748
O O15 0.012190 0.824398 0.183828
O O16 0.152449 0.089967 0.363388
O O17 0.000000 0.000000 0.500000
#
# Coordination Sequence:
#
# PCOD9064938 Si02
#       8
#     2   2   2   2   2   2   2   2
#     4  11  24  49  74 104 150 192 243 299 362 436
#     4  11  27  50  71 111 145 189 254 298 355 447
#     4  12  24  45  74 114 149 185 243 296 369 447
#     4  11  24  46  76 110 148 190 236 305 371 431
#     4  12  24  42  74 110 155 188 234 305 367 435
#     4  12  30  50  74 103 144 195 250 305 358 436
#     4  11  26  48  75 106 144 196 242 301 368 428
#     4  12  26  41  76 112 149 196 230 298 377 433
#
# _framework density 24.055042
#
# number of rings (size 3 to 8) (size 9 to 14) (size 15 to 20)
#    0.000    0.500    5.000    2.625    8.750    3.500 
#    4.500    0.000    0.000    0.000    0.000    0.000 
#    0.000    0.000    0.000    0.000    0.000    0.000 
#
# Total GULP energy -89619.744329 kJ/mol
# GULP energy per Si atom -5601.234021 kJ/mol
# Density = 2.400029 g / cm^3
# Si number density = 24.055042 Si / 1000 Ang^3
#
#
#
# Elastic Constant Matrix: (Units=GPa)
#
#
# Indices 1 2 3 4 5 6 
#
# 1 134.5748 47.3704 31.0470 15.4187 26.4711 -7.4720
# 2 47.3704 119.1867 10.4556 26.1697 13.3320 -0.5997
# 3 31.0470 10.4556 111.7364 13.4595 18.8605 -5.5082
# 4 15.4187 26.1697 13.4595 36.8958 -3.9516 15.1040
# 5 26.4711 13.3320 18.8605 -3.9516 37.3750 9.9974
# 6 -7.4720 -0.5997 -5.5082 15.1040 9.9974 46.8929
#
#
#
# Elastic Compliance Matrix: (Units=1/GPa)
#
#
# Indices 1 2 3 4 5 6 
#
# 1 0.011043 -0.001855 -0.000250 -0.006578 -0.009282 0.005804
# 2 -0.001855 0.012282 0.002183 -0.011642 -0.006823 0.005322
# 3 -0.000250 0.002183 0.011817 -0.009350 -0.009255 0.006361
# 4 -0.006578 -0.011642 -0.009350 0.054763 0.026143 -0.025508
# 5 -0.009282 -0.006823 -0.009255 0.026143 0.048952 -0.021510
# 6 0.005804 0.005322 0.006361 -0.025508 -0.021510 0.035867
#
#
# Mechanical properties :
#
#
# Convention : Reuss Voigt Hill
#
# Bulk Modulus (GPa) = 28.33056 60.36044 44.34550
# Shear Modulus (GPa) = 26.83350 42.67439 34.75395
#
# Velocity S-wave (km/s) = 3.34354 4.21649 3.80513
# Velocity P-wave (km/s) = 5.16804 6.98944 6.14658
#
# Compressibility (1/GPa) = 0.03529757
#
# Stress axis : x y z
#
# Youngs Moduli (GPa) = 90.55421 81.41694 84.62570
#
# Poissons Ratio (x) = 0.15106 0.02113
# Poissons Ratio (y) = 0.16802 -0.18472
# Poissons Ratio (z) = 0.02261 -0.17771
#
# Static dielectric constant tensor:
#      x y z
#    x 2.127160 0.201910 -0.051250 
#    y 0.201910 2.219040 0.004130 
#    z -0.051250 0.004130 1.933700 
# 
# From -- ./inp_files/500195.got.cif
#   From: 2010.05.17/outbox.cif.g08.bks.cpg/sg2_251_cif.got.tgz:500195.got - 2010.06.03 11:33:40.
