data_PCOD9064542
_publ_section_title
;
Structure prediction by ZEFSAII (Michael W. Deem and Ramdas Pophale) SiO2 
 PCOD9064542
Probable space group: P -1
;
_chemical_formula_sum "Si O2"
_cell_formula_units_Z 16
_cell_length_a 9.353058
_cell_length_b 12.790202
_cell_length_c 8.000571
_cell_angle_alpha 61.987503
_cell_angle_beta 127.027283
_cell_angle_gamma 101.092854
_cell_volume 668.998190
_symmetry_space_group_name_H-M "P -1"
_symmetry_group_IT_number 2
_symmetry_cell_setting 'triclinic'
loop_
_space_group_symop_operation_xyz
x,y,z
-x,-y,-z
loop_
_atom_site_type_symbol
_atom_site_label
_atom_site_fract_x
_atom_site_fract_y
_atom_site_fract_z
Si Si1 0.380144 0.837600 0.970981
Si Si2 0.719204 0.371406 0.498690
Si Si3 0.958285 0.340466 0.383479
Si Si4 0.897993 0.601061 0.065674
Si Si5 0.579887 0.133045 0.650611
Si Si6 0.744644 0.000751 0.560462
Si Si7 0.672056 0.631660 0.198559
Si Si8 0.997380 0.796663 0.768267
O O1 0.314490 0.917467 0.703668
O O2 0.211634 0.768242 0.953399
O O3 0.415807 0.901577 0.123847
O O4 0.544104 0.743364 0.094380
O O5 0.789734 0.333832 0.390146
O O6 0.603393 0.272156 0.556564
O O7 0.615301 0.504618 0.309402
O O8 0.909068 0.376823 0.728024
O O9 0.908448 0.459617 0.146569
O O10 0.128710 0.370243 0.583795
O O11 0.025192 0.215709 0.435984
O O12 0.724191 0.632882 0.039326
O O13 0.889969 0.694387 0.841450
O O14 0.730670 0.066421 0.680006
O O15 0.398973 0.095299 0.471406
O O16 0.933597 0.922076 0.713259
#
# Coordination Sequence:
#
# PCOD9064542 Si02
#       8
#     2   2   2   2   2   2   2   2
#     4  12  25  45  68  99 129 170 223 269 322 385
#     4   9  18  42  66  98 128 168 213 263 326 388
#     4   9  19  39  67  96 135 167 205 268 324 391
#     4   9  19  39  66  97 131 169 209 255 334 391
#     4  11  24  46  68  93 131 170 224 269 320 387
#     4  11  28  45  63  94 134 172 220 276 320 375
#     4   9  21  40  70  95 132 169 207 267 327 387
#     4  12  23  42  63  97 129 171 218 267 321 387
#
# _framework density 23.916359
#
# number of rings (size 3 to 8) (size 9 to 14) (size 15 to 20)
#    0.000    1.750    1.250    4.125    3.500    1.000 
#    6.750    1.875    0.000    0.000    0.000    0.000 
#    0.000    0.000    0.000    0.000    0.000    0.000 
#
# Total GULP energy -89312.949969 kJ/mol
# GULP energy per Si atom -5582.059373 kJ/mol
# Density = 2.386192 g / cm^3
# Si number density = 23.916359 Si / 1000 Ang^3
#
#
#
# Elastic Constant Matrix: (Units=GPa)
#
#
# Indices 1 2 3 4 5 6 
#
# 1 77.4085 32.3650 35.6828 -19.8462 -5.1891 -21.4205
# 2 32.3650 80.2795 14.0532 -0.2578 -12.3251 -11.7727
# 3 35.6828 14.0532 47.8356 -16.7351 -11.7154 -16.7180
# 4 -19.8462 -0.2578 -16.7351 24.3917 0.8913 -1.0446
# 5 -5.1891 -12.3251 -11.7154 0.8913 20.9300 0.4758
# 6 -21.4205 -11.7727 -16.7180 -1.0446 0.4758 59.3369
#
#
#
# Elastic Compliance Matrix: (Units=1/GPa)
#
#
# Indices 1 2 3 4 5 6 
#
# 1 0.026688 -0.008803 -0.012521 0.013459 -0.006254 0.004647
# 2 -0.008803 0.017156 0.001888 -0.005998 0.009219 0.000578
# 3 -0.012521 0.001888 0.045465 0.020587 0.022379 0.008847
# 4 0.013459 -0.005998 0.020587 0.066160 0.008271 0.010567
# 5 -0.006254 0.009219 0.022379 0.008271 0.063705 0.005511
# 6 0.004647 0.000578 0.008847 0.010567 0.005511 0.021280
#
#
# Mechanical properties :
#
#
# Convention : Reuss Voigt Hill
#
# Bulk Modulus (GPa) = 19.82633 41.08063 30.45348
# Shear Modulus (GPa) = 16.88397 29.15990 23.02194
#
# Velocity S-wave (km/s) = 2.65987 3.49556 3.10595
# Velocity P-wave (km/s) = 4.21202 5.78843 5.06197
#
# Compressibility (1/GPa) = 0.05043797
#
# Stress axis : x y z
#
# Youngs Moduli (GPa) = 37.46989 58.28895 21.99474
#
# Poissons Ratio (x) = 0.51312 0.27539
# Poissons Ratio (y) = 0.32985 -0.04153
# Poissons Ratio (z) = 0.46916 -0.11007
#
# Static dielectric constant tensor:
#      x y z
#    x 1.921400 -0.002910 -0.045070 
#    y -0.002910 1.961170 0.060630 
#    z -0.045070 0.060630 1.978070 
# 
# From -- ./inp_files/185329.got.cif
#   From: 2010.05.17/outbox.cif.g08.bks.cpg/sg2_93_cif.got.tgz:185329.got - 2010.06.03 11:33:40.
