data_PCOD9064394
_publ_section_title
;
Structure prediction by ZEFSAII (Michael W. Deem and Ramdas Pophale) SiO2 
 PCOD9064394
Probable space group: P -1
;
_chemical_formula_sum "Si O2"
_cell_formula_units_Z 16
_cell_length_a 20.734294
_cell_length_b 17.382416
_cell_length_c 8.635987
_cell_angle_alpha 141.385648
_cell_angle_beta 36.767014
_cell_angle_gamma 160.590752
_cell_volume 613.875551
_symmetry_space_group_name_H-M "P -1"
_symmetry_group_IT_number 2
_symmetry_cell_setting 'triclinic'
loop_
_space_group_symop_operation_xyz
x,y,z
-x,-y,-z
loop_
_atom_site_type_symbol
_atom_site_label
_atom_site_fract_x
_atom_site_fract_y
_atom_site_fract_z
Si Si1 0.549054 0.295915 0.055293
Si Si2 0.283119 0.181247 0.795123
Si Si3 0.552889 0.651356 0.955028
Si Si4 0.466771 0.092861 0.322447
Si Si5 0.098353 0.890567 0.434193
Si Si6 0.230219 0.739167 0.482085
Si Si7 0.869159 0.450138 0.293145
Si Si8 0.834560 0.728475 0.407220
O O1 0.521849 0.319208 0.970782
O O2 0.739621 0.550100 0.174301
O O3 0.318367 0.079583 0.226881
O O4 0.622169 0.228556 0.797010
O O5 0.360849 0.398962 0.006754
O O6 0.416174 0.183114 0.500323
O O7 0.134814 0.042041 0.714474
O O8 0.266785 0.139006 0.943879
O O9 0.633159 0.612438 0.645452
O O10 0.676446 0.309185 0.349240
O O11 0.310081 0.917083 0.487581
O O12 0.500000 0.000000 0.000000
O O13 0.018507 0.712563 0.434322
O O14 0.936641 0.750816 0.386426
O O15 0.206820 0.704737 0.659302
O O16 0.000000 0.500000 0.500000
O O17 0.000000 0.500000 0.000000
O O18 0.000000 0.000000 0.500000
#
# Coordination Sequence:
#
# PCOD9064394 Si02
#       8
#     2   2   2   2   2   2   2   2
#     4  12  26  51  77 112 161 203 264 330 398 476
#     4  11  24  45  74 110 154 198 258 320 400 464
#     4  11  24  46  76 110 155 205 253 329 392 471
#     4  12  26  50  79 112 157 210 263 332 398 476
#     4  12  26  46  78 111 158 203 258 325 398 478
#     4  12  28  49  77 113 152 208 263 327 397 474
#     4  12  27  46  73 112 149 205 266 319 396 468
#     4  12  25  43  76 114 150 205 265 316 405 476
#
# _framework density 26.063914
#
# number of rings (size 3 to 8) (size 9 to 14) (size 15 to 20)
#    0.000    0.250    2.500    6.750    3.500    4.500 
#    0.000    0.000    0.000    0.000    0.000    0.000 
#    0.000    0.000    0.000    0.000    0.000    0.000 
#
# Total GULP energy -89137.140545 kJ/mol
# GULP energy per Si atom -5571.071284 kJ/mol
# Density = 2.600459 g / cm^3
# Si number density = 26.063914 Si / 1000 Ang^3
#
#
#
# Elastic Constant Matrix: (Units=GPa)
#
#
# Indices 1 2 3 4 5 6 
#
# 1 129.4275 30.2026 -10.5973 4.3819 8.9481 -5.5148
# 2 30.2026 133.0668 -1.7794 -2.7994 5.9579 -2.7053
# 3 -10.5973 -1.7794 51.8620 3.6184 6.5442 -10.5261
# 4 4.3819 -2.7994 3.6184 23.5149 11.5692 -1.3662
# 5 8.9481 5.9579 6.5442 11.5692 44.3895 9.1275
# 6 -5.5148 -2.7053 -10.5261 -1.3662 9.1275 56.4966
#
#
#
# Elastic Compliance Matrix: (Units=1/GPa)
#
#
# Indices 1 2 3 4 5 6 
#
# 1 0.008567 -0.001829 0.002291 -0.001196 -0.001803 0.001438
# 2 -0.001829 0.008041 0.000028 0.001974 -0.001327 0.000474
# 3 0.002291 0.000028 0.021370 -0.001328 -0.004270 0.004864
# 4 -0.001196 0.001974 -0.001328 0.050014 -0.013505 0.003122
# 5 -0.001803 -0.001327 -0.004270 -0.013505 0.028444 -0.005957
# 6 0.001438 0.000474 0.004864 0.003122 -0.005957 0.019807
#
#
# Mechanical properties :
#
#
# Convention : Reuss Voigt Hill
#
# Bulk Modulus (GPa) = 25.66935 38.88977 32.27956
# Shear Modulus (GPa) = 33.72687 44.64889 39.18788
#
# Velocity S-wave (km/s) = 3.60113 4.14340 3.88174
# Velocity P-wave (km/s) = 5.21161 6.15172 5.70107
#
# Compressibility (1/GPa) = 0.03895697
#
# Stress axis : x y z
#
# Youngs Moduli (GPa) = 116.72522 124.36101 46.79525
#
# Poissons Ratio (x) = 0.22747 -0.10719
# Poissons Ratio (y) = 0.21350 -0.00131
# Poissons Ratio (z) = -0.26737 -0.00348
#
# Static dielectric constant tensor:
#      x y z
#    x 2.119170 -0.073110 -0.042770 
#    y -0.073110 2.193610 0.013700 
#    z -0.042770 0.013700 2.021610 
# 
# From -- ./inp_files/348942.got.cif
#   From: 2010.05.17/outbox.cif.g08.bks.cpg/sg2_175_cif.got.tgz:348942.got - 2010.06.03 11:33:40.
