data_PCOD9064957
_publ_section_title
;
Structure prediction by ZEFSAII (Michael W. Deem and Ramdas Pophale) SiO2 
 PCOD9064957
Probable space group: P -1
;
_chemical_formula_sum "Si O2"
_cell_formula_units_Z 13
_cell_length_a 9.981223
_cell_length_b 12.715477
_cell_length_c 8.373454
_cell_angle_alpha 114.113548
_cell_angle_beta 119.573338
_cell_angle_gamma 35.703371
_cell_volume 539.335552
_symmetry_space_group_name_H-M "P -1"
_symmetry_group_IT_number 2
_symmetry_cell_setting 'triclinic'
loop_
_space_group_symop_operation_xyz
x,y,z
-x,-y,-z
loop_
_atom_site_type_symbol
_atom_site_label
_atom_site_fract_x
_atom_site_fract_y
_atom_site_fract_z
Si Si1 0.806399 0.595086 0.250085
Si Si2 0.430109 0.146151 0.442205
Si Si3 0.000000 0.000000 0.000000
Si Si4 0.846567 0.428492 0.735339
Si Si5 0.591833 0.205838 0.126377
Si Si6 0.048436 0.244477 0.085425
Si Si7 0.122086 0.052257 0.594273
O O1 0.733531 0.683001 0.434138
O O2 0.022992 0.543175 0.264433
O O3 0.863182 0.427526 0.195627
O O4 0.588815 0.734701 0.081196
O O5 0.299562 0.161171 0.226206
O O6 0.679271 0.064264 0.498511
O O7 0.500000 0.000000 0.500000
O O8 0.802198 0.148389 0.116396
O O9 0.031606 0.119945 0.039066
O O10 0.575046 0.621613 0.743388
O O11 0.925617 0.265678 0.591302
O O12 0.968480 0.331507 0.917452
O O13 0.715536 0.037043 0.204145
O O14 0.000000 0.000000 0.500000
#
# Coordination Sequence:
#
# PCOD9064957 Si02
#       7
#     2   2   1   2   2   2   2
#     4  11  24  46  77 109 142 188 252 301 367 433
#     4  12  25  42  74 108 150 194 240 306 361 442
#     4  12  26  42  74 106 146 198 238 298 362 436
#     4  11  24  48  75 106 140 193 245 305 362 439
#     4  11  26  46  73 102 146 190 246 297 366 433
#     4  11  25  45  73 106 148 189 250 297 369 433
#     4  12  28  46  72 107 151 197 240 303 375 434
#
# _framework density 24.103731
#
# number of rings (size 3 to 8) (size 9 to 14) (size 15 to 20)
#    0.000    0.615    3.077    5.077    4.308    5.538 
#    0.000    0.000    0.000    0.000    0.000    0.000 
#    0.000    0.000    0.000    0.000    0.000    0.000 
#
# Total GULP energy -72393.880567 kJ/mol
# GULP energy per Si atom -5568.760044 kJ/mol
# Density = 2.404887 g / cm^3
# Si number density = 24.103731 Si / 1000 Ang^3
#
#
#
# Elastic Constant Matrix: (Units=GPa)
#
#
# Indices 1 2 3 4 5 6 
#
# 1 190.9100 66.1395 35.0610 31.5875 -20.0177 -5.1122
# 2 66.1395 153.7457 29.3303 39.4354 0.9154 8.4027
# 3 35.0610 29.3303 48.2741 17.4920 -0.9700 2.3462
# 4 31.5875 39.4354 17.4920 51.0701 -5.4433 -2.4774
# 5 -20.0177 0.9154 -0.9700 -5.4433 31.1308 20.9927
# 6 -5.1122 8.4027 2.3462 -2.4774 20.9927 51.7729
#
#
#
# Elastic Compliance Matrix: (Units=1/GPa)
#
#
# Indices 1 2 3 4 5 6 
#
# 1 0.007322 -0.002176 -0.003424 -0.001180 0.005047 -0.000871
# 2 -0.002176 0.009290 -0.002105 -0.005366 -0.001935 -0.001099
# 3 -0.003424 -0.002105 0.026495 -0.005558 -0.001789 -0.000738
# 4 -0.001180 -0.005366 -0.005558 0.026751 0.003251 0.000968
# 5 0.005047 -0.001935 -0.001789 0.003251 0.048488 -0.018612
# 6 -0.000871 -0.001099 -0.000738 0.000968 -0.018612 0.027034
#
#
# Mechanical properties :
#
#
# Convention : Reuss Voigt Hill
#
# Bulk Modulus (GPa) = 36.10662 72.66570 54.38616
# Shear Modulus (GPa) = 29.40781 44.28803 36.84792
#
# Velocity S-wave (km/s) = 3.49671 4.29113 3.91413
# Velocity P-wave (km/s) = 5.59597 7.40029 6.56046
#
# Compressibility (1/GPa) = 0.02769575
#
# Stress axis : x y z
#
# Youngs Moduli (GPa) = 136.57498 107.64201 37.74336
#
# Poissons Ratio (x) = 0.23427 0.12925
# Poissons Ratio (y) = 0.29724 0.07944
# Poissons Ratio (z) = 0.46768 0.22656
#
# Static dielectric constant tensor:
#      x y z
#    x 1.825670 -0.046950 -0.016250 
#    y -0.046950 2.003980 0.006620 
#    z -0.016250 0.006620 2.060560 
# 
# From -- ./inp_files/181737.got.cif
#   From: 2010.05.17/outbox.cif.g08.bks.cpg/sg2_91_cif.got.tgz:181737.got - 2010.06.03 11:33:40.
