data_PCOD9064928
_publ_section_title
;
Structure prediction by ZEFSAII (Michael W. Deem and Ramdas Pophale) SiO2 
 PCOD9064928
Probable space group: P -1
;
_chemical_formula_sum "Si O2"
_cell_formula_units_Z 12
_cell_length_a 5.572423
_cell_length_b 8.906197
_cell_length_c 14.492116
_cell_angle_alpha 138.712676
_cell_angle_beta 81.836626
_cell_angle_gamma 109.959823
_cell_volume 438.398740
_symmetry_space_group_name_H-M "P -1"
_symmetry_group_IT_number 2
_symmetry_cell_setting 'triclinic'
loop_
_space_group_symop_operation_xyz
x,y,z
-x,-y,-z
loop_
_atom_site_type_symbol
_atom_site_label
_atom_site_fract_x
_atom_site_fract_y
_atom_site_fract_z
Si Si1 0.726225 0.568616 0.837654
Si Si2 0.256263 0.949513 0.423942
Si Si3 0.936160 0.837848 0.606957
Si Si4 0.061110 0.260504 0.912618
Si Si5 0.044476 0.624090 0.682723
Si Si6 0.443715 0.147000 0.155758
O O1 0.771286 0.317130 0.733625
O O2 0.527320 0.599475 0.786547
O O3 0.972202 0.711430 0.824803
O O4 0.724487 0.676412 0.988383
O O5 0.500000 0.000000 0.500000
O O6 0.304724 0.126570 0.414171
O O7 0.000000 0.000000 0.500000
O O8 0.031758 0.664382 0.456380
O O9 0.900223 0.692516 0.637499
O O10 0.118219 0.113666 0.754586
O O11 0.807671 0.061021 0.881285
O O12 0.000000 0.500000 0.000000
O O13 0.350230 0.758629 0.729552
O O14 0.500000 0.000000 0.000000
#
# Coordination Sequence:
#
# PCOD9064928 Si02
#       6
#     2   2   2   2   2   2
#     4  12  24  47  75 104 153 202 256 314 399 467
#     4  12  27  48  76 113 161 206 256 326 403 474
#     4  11  24  47  70 111 151 189 259 325 382 463
#     4  12  25  45  70 107 153 195 251 324 389 465
#     4  11  24  46  76 107 144 201 256 320 384 463
#     4  12  25  45  78 107 147 204 263 316 390 476
#
# _framework density 27.372343000000001
#
# number of rings (size 3 to 8) (size 9 to 14) (size 15 to 20)
#    0.000    0.333    6.667    2.500    0.000    2.000 
#    0.000    1.667    0.000    0.000    0.000    0.000 
#    0.000    0.000    0.000    0.000    0.000    0.000 
#
# Total GULP energy -66894.464951 kJ/mol
# GULP energy per Si atom -5574.538746 kJ/mol
# Density = 2.731004 g / cm^3
# Si number density = 27.372343 Si / 1000 Ang^3
#
#
#
# Elastic Constant Matrix: (Units=GPa)
#
#
# Indices 1 2 3 4 5 6 
#
# 1 76.1652 55.8324 31.4150 -6.0267 8.9663 -24.3689
# 2 55.8324 164.8513 34.2741 14.1049 0.9298 -64.9327
# 3 31.4150 34.2741 150.5500 -4.5747 -9.4555 -17.9306
# 4 -6.0267 14.1049 -4.5747 55.0431 -19.3515 -6.0360
# 5 8.9663 0.9298 -9.4555 -19.3515 41.7429 -6.9856
# 6 -24.3689 -64.9327 -17.9306 -6.0360 -6.9856 57.6217
#
#
#
# Elastic Compliance Matrix: (Units=1/GPa)
#
#
# Indices 1 2 3 4 5 6 
#
# 1 0.019406 -0.006024 -0.002794 0.002215 -0.003582 0.000346
# 2 -0.006024 0.013118 -0.000202 -0.001963 0.002091 0.012219
# 3 -0.002794 -0.000202 0.007733 0.001776 0.003448 0.001601
# 4 0.002215 -0.001963 0.001776 0.023384 0.011330 0.003101
# 5 -0.003582 0.002091 0.003448 0.011330 0.031878 0.006965
# 6 0.000346 0.012219 0.001601 0.003101 0.006965 0.032938
#
#
# Mechanical properties :
#
#
# Convention : Reuss Voigt Hill
#
# Bulk Modulus (GPa) = 45.01634 70.51217 57.76426
# Shear Modulus (GPa) = 32.48822 48.88453 40.68638
#
# Velocity S-wave (km/s) = 3.44888 4.23059 3.85957
# Velocity P-wave (km/s) = 5.68694 7.04841 6.40396
#
# Compressibility (1/GPa) = 0.02221415
#
# Stress axis : x y z
#
# Youngs Moduli (GPa) = 51.53101 76.23383 129.32319
#
# Poissons Ratio (x) = 0.45925 0.36137
# Poissons Ratio (y) = 0.31044 0.02616
# Poissons Ratio (z) = 0.14399 0.01542
#
# Static dielectric constant tensor:
#      x y z
#    x 2.430910 -0.023520 -0.071610 
#    y -0.023520 2.213460 -0.016920 
#    z -0.071610 -0.016920 2.239110 
# 
# From -- ./inp_files/38658.got.cif
#   From: 2010.05.17/outbox.cif.g08.bks.cpg/sg2_20_cif.got.tgz:38658.got - 2010.06.03 11:33:40.
