data_PCOD9064158
_publ_section_title
;
Structure prediction by ZEFSAII (Michael W. Deem and Ramdas Pophale) SiO2 
 PCOD9064158
Probable space group: P -1
;
_chemical_formula_sum "Si O2"
_cell_formula_units_Z 14
_cell_length_a 14.503560
_cell_length_b 23.196175
_cell_length_c 6.254275
_cell_angle_alpha 86.723574
_cell_angle_beta 82.277351
_cell_angle_gamma 160.221369
_cell_volume 590.380192
_symmetry_space_group_name_H-M "P -1"
_symmetry_group_IT_number 2
_symmetry_cell_setting 'triclinic'
loop_
_space_group_symop_operation_xyz
x,y,z
-x,-y,-z
loop_
_atom_site_type_symbol
_atom_site_label
_atom_site_fract_x
_atom_site_fract_y
_atom_site_fract_z
Si Si1 0.267328 0.652223 0.696710
Si Si2 0.703376 0.791624 0.936458
Si Si3 0.019146 0.941725 0.396886
Si Si4 0.944054 0.765881 0.355437
Si Si5 0.351699 0.373003 0.886257
Si Si6 0.374959 0.929558 0.304711
Si Si7 0.957801 0.567860 0.549753
O O1 0.630459 0.859342 0.635169
O O2 0.169700 0.540600 0.598891
O O3 0.216851 0.678905 0.558981
O O4 0.000000 0.500000 0.000000
O O5 0.936131 0.987620 0.830425
O O6 0.745625 0.750304 0.007847
O O7 0.354851 0.606564 0.164240
O O8 0.747901 0.807316 0.664808
O O9 0.908949 0.812098 0.404989
O O10 0.646392 0.550741 0.584755
O O11 0.942304 0.765237 0.099122
O O12 0.255014 0.924370 0.335334
O O13 0.500000 0.500000 0.000000
O O14 0.113907 0.722348 0.424621
O O15 0.500000 0.000000 0.500000
O O16 0.500000 0.000000 0.000000
#
# Coordination Sequence:
#
# PCOD9064158 Si02
#       7
#     2   2   2   2   2   2   2
#     4  11  25  47  72 103 151 198 254 322 401 464
#     4  11  24  45  71 109 144 189 258 309 386 460
#     4  11  25  43  74 108 146 197 254 328 381 471
#     4  11  26  45  72 107 149 199 253 317 392 464
#     4  11  24  46  71 102 149 199 242 316 396 460
#     4  12  30  49  80 118 156 209 270 324 387 478
#     4  11  26  46  75 106 148 207 254 327 391 472
#
# _framework density 23.713532000000001
#
# number of rings (size 3 to 8) (size 9 to 14) (size 15 to 20)
#    0.000    0.857    4.286    0.857    6.000    6.857 
#    0.000    0.000    0.000    0.000    0.000    0.000 
#    0.000    0.000    0.000    0.000    0.000    0.000 
#
# Total GULP energy -78021.412006 kJ/mol
# GULP energy per Si atom -5572.958000 kJ/mol
# Density = 2.365956 g / cm^3
# Si number density = 23.713532 Si / 1000 Ang^3
#
#
#
# Elastic Constant Matrix: (Units=GPa)
#
#
# Indices 1 2 3 4 5 6 
#
# 1 156.9534 47.8956 59.7326 14.6370 24.4083 -16.6243
# 2 47.8956 102.6867 57.5888 29.0026 0.6969 -15.3437
# 3 59.7326 57.5888 152.8044 0.0281 9.9194 -8.3725
# 4 14.6370 29.0026 0.0281 30.4348 -6.5394 15.2567
# 5 24.4083 0.6969 9.9194 -6.5394 43.9950 -2.7418
# 6 -16.6243 -15.3437 -8.3725 15.2567 -2.7418 53.5004
#
#
#
# Elastic Compliance Matrix: (Units=1/GPa)
#
#
# Indices 1 2 3 4 5 6 
#
# 1 0.009710 0.000764 -0.003439 -0.009123 -0.005668 0.005009
# 2 0.000764 0.026882 -0.009345 -0.034739 -0.002894 0.016243
# 3 -0.003439 -0.009345 0.011004 0.013772 0.001255 -0.005890
# 4 -0.009123 -0.034739 0.013772 0.091348 0.013842 -0.035983
# 5 -0.005668 -0.002894 0.001255 0.013842 0.027387 -0.004938
# 6 0.005009 0.016243 -0.005890 -0.035983 -0.004938 0.033993
#
#
# Mechanical properties :
#
#
# Convention : Reuss Voigt Hill
#
# Bulk Modulus (GPa) = 42.45707 82.54205 62.49956
# Shear Modulus (GPa) = 21.53155 42.06788 31.79972
#
# Velocity S-wave (km/s) = 3.01655 4.21646 3.66593
# Velocity P-wave (km/s) = 5.48414 7.65430 6.65823
#
# Compressibility (1/GPa) = 0.02355320
#
# Stress axis : x y z
#
# Youngs Moduli (GPa) = 102.98643 37.20017 90.87452
#
# Poissons Ratio (x) = -0.02840 0.31256
# Poissons Ratio (y) = -0.07864 0.84926
# Poissons Ratio (z) = 0.35422 0.34765
#
# Static dielectric constant tensor:
#      x y z
#    x 1.912640 0.076480 -0.004060 
#    y 0.076480 2.054390 0.040570 
#    z -0.004060 0.040570 2.032710 
# 
# From -- ./inp_files/101132.got.cif
#   From: 2010.05.17/outbox.cif.g08.bks.cpg/sg2_51_cif.got.tgz:101132.got - 2010.06.03 11:33:40.
