data_PCOD9064669
_publ_section_title
;
Structure prediction by ZEFSAII (Michael W. Deem and Ramdas Pophale) SiO2 
 PCOD9064669
Probable space group: P -1
;
_chemical_formula_sum "Si O2"
_cell_formula_units_Z 13
_cell_length_a 13.302447
_cell_length_b 5.839092
_cell_length_c 8.793610
_cell_angle_alpha 99.876837
_cell_angle_beta 64.433072
_cell_angle_gamma 120.923723
_cell_volume 527.454417
_symmetry_space_group_name_H-M "P -1"
_symmetry_group_IT_number 2
_symmetry_cell_setting 'triclinic'
loop_
_space_group_symop_operation_xyz
x,y,z
-x,-y,-z
loop_
_atom_site_type_symbol
_atom_site_label
_atom_site_fract_x
_atom_site_fract_y
_atom_site_fract_z
Si Si1 0.030220 0.596024 0.286093
Si Si2 0.586521 0.806733 0.527150
Si Si3 0.149292 0.945336 0.507475
Si Si4 0.415574 0.060173 0.776838
Si Si5 0.728469 0.408123 0.978485
Si Si6 0.500000 0.500000 0.000000
Si Si7 0.910841 0.771518 0.149136
O O1 0.085009 0.870740 0.376358
O O2 0.145837 0.528788 0.193375
O O3 0.908348 0.352960 0.418460
O O4 0.986825 0.633197 0.153975
O O5 0.500000 0.500000 0.500000
O O6 0.651926 0.949090 0.339270
O O7 0.698301 0.888935 0.584542
O O8 0.501410 0.927886 0.660933
O O9 0.118233 0.107950 0.669228
O O10 0.494296 0.356329 0.824084
O O11 0.331657 0.897172 0.958088
O O12 0.622080 0.454240 0.972775
O O13 0.783390 0.577639 0.117109
O O14 0.000000 0.000000 0.000000
#
# Coordination Sequence:
#
# PCOD9064669 Si02
#       7
#     2   2   2   2   2   1   2
#     4  11  26  45  73 109 150 191 243 307 378 442
#     4  11  24  46  72 104 148 202 251 303 373 452
#     4  11  24  46  71 106 146 193 242 306 375 442
#     4  11  25  44  70 104 146 198 248 306 370 440
#     4  12  26  46  73 107 148 192 248 312 371 447
#     4  12  26  44  70 106 148 190 250 306 368 436
#     4  12  25  44  73 110 143 192 244 302 370 447
#
# _framework density 24.646678999999999
#
# number of rings (size 3 to 8) (size 9 to 14) (size 15 to 20)
#    0.000    0.615    1.538    6.000    4.308    2.462 
#    0.000    0.000    0.000    0.000    0.000    0.000 
#    0.000    0.000    0.000    0.000    0.000    0.000 
#
# Total GULP energy -72490.891163 kJ/mol
# GULP energy per Si atom -5576.222397 kJ/mol
# Density = 2.459058 g / cm^3
# Si number density = 24.646679 Si / 1000 Ang^3
#
#
#
# Elastic Constant Matrix: (Units=GPa)
#
#
# Indices 1 2 3 4 5 6 
#
# 1 91.0666 19.2335 -5.9015 -5.7866 10.0641 17.5160
# 2 19.2335 43.4535 22.7020 5.4511 -9.5387 16.0813
# 3 -5.9015 22.7020 59.7786 29.2521 2.3726 6.6676
# 4 -5.7866 5.4511 29.2521 63.1731 -1.2605 3.4601
# 5 10.0641 -9.5387 2.3726 -1.2605 41.2073 12.9569
# 6 17.5160 16.0813 6.6676 3.4601 12.9569 32.4716
#
#
#
# Elastic Compliance Matrix: (Units=1/GPa)
#
#
# Indices 1 2 3 4 5 6 
#
# 1 0.014392 -0.009992 0.005913 -0.000576 -0.005647 -0.001714
# 2 -0.009992 0.054322 -0.022992 0.007060 0.025237 -0.027614
# 3 0.005913 -0.022992 0.031977 -0.012921 -0.011376 0.007548
# 4 -0.000576 0.007060 -0.012921 0.021500 0.004647 -0.004678
# 5 -0.005647 0.025237 -0.011376 0.004647 0.039654 -0.023435
# 6 -0.001714 -0.027614 0.007548 -0.004678 -0.023435 0.053696
#
#
# Mechanical properties :
#
#
# Convention : Reuss Voigt Hill
#
# Bulk Modulus (GPa) = 21.48399 29.59628 25.54013
# Shear Modulus (GPa) = 17.53165 37.92139 27.72652
#
# Velocity S-wave (km/s) = 2.66995 3.92676 3.35768
# Velocity P-wave (km/s) = 4.27090 5.70907 5.04153
#
# Compressibility (1/GPa) = 0.04654630
#
# Stress axis : x y z
#
# Youngs Moduli (GPa) = 69.48476 18.40891 31.27296
#
# Poissons Ratio (x) = 0.18394 -0.18491
# Poissons Ratio (y) = 0.69429 0.71904
# Poissons Ratio (z) = -0.41084 0.42326
#
# Static dielectric constant tensor:
#      x y z
#    x 1.898730 -0.085770 0.032930 
#    y -0.085770 2.006980 0.021860 
#    z 0.032930 0.021860 1.904740 
# 
# From -- ./inp_files/28881.got.cif
#   From: 2010.05.17/outbox.cif.g08.bks.cpg/sg2_15_cif.got.tgz:28881.got - 2010.06.03 11:33:40.
