data_PCOD9064800
_publ_section_title
;
Structure prediction by ZEFSAII (Michael W. Deem and Ramdas Pophale) SiO2 
 PCOD9064800
Probable space group: P -1
;
_chemical_formula_sum "Si O2"
_cell_formula_units_Z 16
_cell_length_a 8.996562
_cell_length_b 11.408502
_cell_length_c 11.117413
_cell_angle_alpha 75.966028
_cell_angle_beta 128.875309
_cell_angle_gamma 128.392670
_cell_volume 675.661405
_symmetry_space_group_name_H-M "P -1"
_symmetry_group_IT_number 2
_symmetry_cell_setting 'triclinic'
loop_
_space_group_symop_operation_xyz
x,y,z
-x,-y,-z
loop_
_atom_site_type_symbol
_atom_site_label
_atom_site_fract_x
_atom_site_fract_y
_atom_site_fract_z
Si Si1 0.227916 0.187914 0.295357
Si Si2 0.660519 0.746401 0.946518
Si Si3 0.551753 0.765634 0.289401
Si Si4 0.689212 0.968266 0.083172
Si Si5 0.646806 0.997101 0.469618
Si Si6 0.929091 0.713302 0.498674
Si Si7 0.160214 0.411713 0.779651
Si Si8 0.256350 0.567360 0.372414
O O1 0.281688 0.222419 0.173031
O O2 0.479072 0.329393 0.452003
O O3 0.194844 0.038017 0.366601
O O4 0.957788 0.130165 0.198789
O O5 0.385639 0.590934 0.870755
O O6 0.697371 0.894153 0.983365
O O7 0.817665 0.701271 0.101541
O O8 0.598522 0.830878 0.165466
O O9 0.795005 0.786315 0.438727
O O10 0.325046 0.594696 0.258971
O O11 0.518512 0.867026 0.334939
O O12 0.500000 0.000000 0.000000
O O13 0.796555 0.152926 0.431765
O O14 0.500000 0.000000 0.500000
O O15 0.819906 0.617593 0.342890
O O16 0.883897 0.603496 0.608926
O O17 0.910619 0.385372 0.684734
#
# Coordination Sequence:
#
# PCOD9064800 Si02
#       8
#     2   2   2   2   2   2   2   2
#     4  11  24  47  73 107 135 187 246 294 359 423
#     4  11  25  48  74 103 147 194 239 292 356 439
#     4  11  25  46  64 104 145 187 237 298 363 417
#     4  12  28  46  72 101 148 197 239 296 362 430
#     4  11  25  41  74 105 141 185 240 301 359 423
#     4  12  21  44  68 103 147 179 236 304 360 416
#     4  11  24  46  73 108 144 188 239 294 363 435
#     4  11  26  43  76 107 140 188 240 301 358 429
#
# _framework density 23.680502000000001
#
# number of rings (size 3 to 8) (size 9 to 14) (size 15 to 20)
#    0.000    0.750    3.750    3.000    7.000    0.000 
#    2.250    0.625    0.000    0.000    0.000    0.000 
#    0.000    0.000    0.000    0.000    0.000    0.000 
#
# Total GULP energy -89443.816378 kJ/mol
# GULP energy per Si atom -5590.238524 kJ/mol
# Density = 2.362660 g / cm^3
# Si number density = 23.680502 Si / 1000 Ang^3
#
#
#
# Elastic Constant Matrix: (Units=GPa)
#
#
# Indices 1 2 3 4 5 6 
#
# 1 128.8521 31.9782 29.7046 0.0887 20.5208 21.2932
# 2 31.9782 113.1737 22.1818 -4.0888 4.7453 27.1762
# 3 29.7046 22.1818 47.0260 -8.4277 11.9256 5.5102
# 4 0.0887 -4.0888 -8.4277 32.2631 11.2758 -13.0887
# 5 20.5208 4.7453 11.9256 11.2758 42.9146 -7.2241
# 6 21.2932 27.1762 5.5102 -13.0887 -7.2241 49.1348
#
#
#
# Elastic Compliance Matrix: (Units=1/GPa)
#
#
# Indices 1 2 3 4 5 6 
#
# 1 0.010503 -0.000759 -0.005146 -0.002044 -0.003755 -0.004652
# 2 -0.000759 0.011302 -0.004515 -0.002152 -0.000077 -0.006000
# 3 -0.005146 -0.004515 0.030332 0.011439 -0.007935 0.003206
# 4 -0.002044 -0.002152 0.011439 0.041807 -0.011218 0.010281
# 5 -0.003755 -0.000077 -0.007935 -0.011218 0.030952 0.004122
# 6 -0.004652 -0.006000 0.003206 0.010281 0.004122 0.028672
#
#
# Mechanical properties :
#
#
# Convention : Reuss Voigt Hill
#
# Bulk Modulus (GPa) = 31.95120 50.75345 41.35232
# Shear Modulus (GPa) = 27.05046 38.54166 32.79606
#
# Velocity S-wave (km/s) = 3.38347 4.03869 3.72551
# Velocity P-wave (km/s) = 5.36524 6.57474 6.00054
#
# Compressibility (1/GPa) = 0.03129773
#
# Stress axis : x y z
#
# Youngs Moduli (GPa) = 95.20646 88.48341 32.96894
#
# Poissons Ratio (x) = 0.06713 0.16966
# Poissons Ratio (y) = 0.07223 0.14885
# Poissons Ratio (z) = 0.48993 0.39948
#
# Static dielectric constant tensor:
#      x y z
#    x 1.878900 -0.022630 -0.008220 
#    y -0.022630 2.005880 0.047400 
#    z -0.008220 0.047400 1.963950 
# 
# From -- ./inp_files/392483.got.cif
#   From: 2010.05.17/outbox.cif.g08.bks.cpg/sg2_197_cif.got.tgz:392483.got - 2010.06.03 11:33:40.
