data_PCOD9064085
_publ_section_title
;
Structure prediction by ZEFSAII (Michael W. Deem and Ramdas Pophale) SiO2 
 PCOD9064085
Probable space group: P -1
;
_chemical_formula_sum "Si O2"
_cell_formula_units_Z 14
_cell_length_a 11.328670
_cell_length_b 15.043927
_cell_length_c 8.696486
_cell_angle_alpha 60.922690
_cell_angle_beta 150.342572
_cell_angle_gamma 132.377335
_cell_volume 521.206891
_symmetry_space_group_name_H-M "P -1"
_symmetry_group_IT_number 2
_symmetry_cell_setting 'triclinic'
loop_
_space_group_symop_operation_xyz
x,y,z
-x,-y,-z
loop_
_atom_site_type_symbol
_atom_site_label
_atom_site_fract_x
_atom_site_fract_y
_atom_site_fract_z
Si Si1 0.244665 0.792549 0.173237
Si Si2 0.695770 0.374624 0.810043
Si Si3 0.689731 0.405111 0.141401
Si Si4 0.845542 0.073775 0.276676
Si Si5 0.041146 0.844192 0.345588
Si Si6 0.280670 0.375444 0.088524
Si Si7 0.429765 0.134119 0.217277
O O1 0.341226 0.751352 0.173058
O O2 0.486113 0.868432 0.511140
O O3 0.112958 0.861614 0.894670
O O4 0.007010 0.667153 0.102908
O O5 0.474766 0.374637 0.441950
O O6 0.682366 0.377574 0.975377
O O7 0.000000 0.500000 0.000000
O O8 0.554992 0.274504 0.183591
O O9 0.000000 0.500000 0.500000
O O10 0.562126 0.488261 0.920983
O O11 0.996360 0.179166 0.493781
O O12 0.000000 0.000000 0.500000
O O13 0.500000 0.000000 0.000000
O O14 0.373708 0.895102 0.635088
O O15 0.852457 0.731328 0.103730
O O16 0.916515 0.928723 0.124581
#
# Coordination Sequence:
#
# PCOD9064085 Si02
#       7
#     2   2   2   2   2   2   2
#     4  11  25  46  73 102 150 187 248 308 367 434
#     4  12  24  42  69 107 151 203 248 288 353 428
#     4  12  23  40  63 107 156 198 251 280 345 432
#     4  12  30  53  80 112 138 185 248 317 388 446
#     4  11  24  48  75 100 148 185 243 301 379 426
#     4  11  25  43  66 106 150 200 243 296 357 428
#     4  11  24  45  70 113 145 204 235 294 357 436
#
# _framework density 26.860734999999998
#
# number of rings (size 3 to 8) (size 9 to 14) (size 15 to 20)
#    0.000    0.571    5.714    2.143    4.000    1.714 
#    0.000   10.000    0.000    0.000    0.000    0.000 
#    0.000    0.000    0.000    0.000    0.000    0.000 
#
# Total GULP energy -78186.719997 kJ/mol
# GULP energy per Si atom -5584.765714 kJ/mol
# Density = 2.679960 g / cm^3
# Si number density = 26.860735 Si / 1000 Ang^3
#
#
#
# Elastic Constant Matrix: (Units=GPa)
#
#
# Indices 1 2 3 4 5 6 
#
# 1 183.4440 63.7502 60.1621 -4.9589 -24.4075 -30.0171
# 2 63.7502 108.2212 44.2787 -29.0594 -11.8497 12.7383
# 3 60.1621 44.2787 144.1039 -34.0356 -12.8047 -5.1019
# 4 -4.9589 -29.0594 -34.0356 51.9412 -2.1850 -2.8053
# 5 -24.4075 -11.8497 -12.8047 -2.1850 73.7945 3.7946
# 6 -30.0171 12.7383 -5.1019 -2.8053 3.7946 52.4667
#
#
#
# Elastic Compliance Matrix: (Units=1/GPa)
#
#
# Indices 1 2 3 4 5 6 
#
# 1 0.009622 -0.006247 -0.002686 -0.003934 0.001265 0.006459
# 2 -0.006247 0.016245 -0.000742 0.007657 0.001013 -0.007254
# 3 -0.002686 -0.000742 0.009709 0.005718 0.000855 -0.000168
# 4 -0.003934 0.007657 0.005718 0.026863 0.001831 -0.002250
# 5 0.001265 0.001013 0.000855 0.001831 0.014354 -0.000380
# 6 0.006459 -0.007254 -0.000168 -0.002250 -0.000380 0.024407
#
#
# Mechanical properties :
#
#
# Convention : Reuss Voigt Hill
#
# Bulk Modulus (GPa) = 61.62823 85.79457 73.71140
# Shear Modulus (GPa) = 39.69596 53.47903 46.58749
#
# Velocity S-wave (km/s) = 3.84844 4.46687 4.16914
# Velocity P-wave (km/s) = 6.53764 7.65597 7.11880
#
# Compressibility (1/GPa) = 0.01622633
#
# Stress axis : x y z
#
# Youngs Moduli (GPa) = 103.93030 61.55842 102.99719
#
# Poissons Ratio (x) = 0.38458 0.27661
# Poissons Ratio (y) = 0.64929 0.07639
# Poissons Ratio (z) = 0.27912 0.04565
#
# Static dielectric constant tensor:
#      x y z
#    x 2.146860 0.002780 0.052990 
#    y 0.002780 2.150830 0.026100 
#    z 0.052990 0.026100 2.283010 
# 
# From -- ./inp_files/272285.got.cif
#   From: 2010.05.17/outbox.cif.g08.bks.cpg/sg2_137_cif.got.tgz:272285.got - 2010.06.03 11:33:40.
