data_PCOD9064018
_publ_section_title
;
Structure prediction by ZEFSAII (Michael W. Deem and Ramdas Pophale) SiO2 
 PCOD9064018
Probable space group: P -1
;
_chemical_formula_sum "Si O2"
_cell_formula_units_Z 16
_cell_length_a 11.567324
_cell_length_b 5.114556
_cell_length_c 21.253555
_cell_angle_alpha 107.862284
_cell_angle_beta 150.922597
_cell_angle_gamma 75.684673
_cell_volume 581.037900
_symmetry_space_group_name_H-M "P -1"
_symmetry_group_IT_number 2
_symmetry_cell_setting 'triclinic'
loop_
_space_group_symop_operation_xyz
x,y,z
-x,-y,-z
loop_
_atom_site_type_symbol
_atom_site_label
_atom_site_fract_x
_atom_site_fract_y
_atom_site_fract_z
Si Si1 0.158840 0.553815 0.301461
Si Si2 0.047905 0.028961 0.691353
Si Si3 0.821958 0.248140 0.422108
Si Si4 0.480822 0.226256 0.062694
Si Si5 0.608303 0.757139 0.217048
Si Si6 0.779705 0.286694 0.891529
Si Si7 0.047406 0.950010 0.910548
Si Si8 0.649227 0.589906 0.478497
O O1 0.375544 0.643295 0.366031
O O2 0.254614 0.490200 0.412255
O O3 0.982859 0.796130 0.247450
O O4 0.026735 0.292961 0.189147
O O5 0.130810 0.233281 0.690156
O O6 0.263837 0.827762 0.787272
O O7 0.804290 0.859470 0.551746
O O8 0.685157 0.366120 0.425521
O O9 0.000000 0.500000 0.500000
O O10 0.625521 0.075337 0.273583
O O11 0.000000 0.000000 0.500000
O O12 0.484862 0.561361 0.087595
O O13 0.500000 0.000000 0.000000
O O14 0.250754 0.140252 0.988457
O O15 0.485174 0.623276 0.211330
O O16 0.840930 0.149490 0.977757
O O17 0.809063 0.090567 0.831605
O O18 0.000000 0.500000 0.000000
#
# Coordination Sequence:
#
# PCOD9064018 Si02
#       8
#     2   2   2   2   2   2   2   2
#     4  11  26  46  74 102 148 193 247 318 381 460
#     4  12  23  43  70 103 143 192 243 306 380 450
#     4  12  26  48  80 112 152 200 260 325 386 461
#     4  12  26  42  72 109 150 195 249 311 378 464
#     4  12  25  44  72 105 147 196 246 318 379 453
#     4  11  24  45  70 100 147 188 242 306 382 463
#     4  11  24  45  69 108 142 191 248 303 385 465
#     4  11  25  49  71 108 145 191 258 313 386 455
#
# _framework density 27.536930000000002
#
# number of rings (size 3 to 8) (size 9 to 14) (size 15 to 20)
#    0.000    0.500    3.750    4.875    1.750    2.000 
#    2.250    0.000    0.000    0.000    0.000    0.000 
#    0.000    0.000    0.000    0.000    0.000    0.000 
#
# Total GULP energy -89366.375096 kJ/mol
# GULP energy per Si atom -5585.398444 kJ/mol
# Density = 2.747425 g / cm^3
# Si number density = 27.536930 Si / 1000 Ang^3
#
#
#
# Elastic Constant Matrix: (Units=GPa)
#
#
# Indices 1 2 3 4 5 6 
#
# 1 198.2827 87.2414 91.1152 23.9127 33.8976 -43.3090
# 2 87.2414 121.8260 55.8323 34.3148 4.7630 -36.8623
# 3 91.1152 55.8323 152.7260 52.4327 30.0995 -11.8603
# 4 23.9127 34.3148 52.4327 63.1108 -10.4137 -5.8345
# 5 33.8976 4.7630 30.0995 -10.4137 74.8205 2.3113
# 6 -43.3090 -36.8623 -11.8603 -5.8345 2.3113 68.4164
#
#
#
# Elastic Compliance Matrix: (Units=1/GPa)
#
#
# Indices 1 2 3 4 5 6 
#
# 1 0.009895 -0.004695 -0.004276 0.002287 -0.002246 0.003264
# 2 -0.004695 0.014559 -0.000492 -0.005240 0.000535 0.004322
# 3 -0.004276 -0.000492 0.013760 -0.010488 -0.004986 -0.001312
# 4 0.002287 -0.005240 -0.010488 0.027662 0.007400 -0.001085
# 5 -0.002246 0.000535 -0.004986 0.007400 0.017445 -0.001956
# 6 0.003264 0.004322 -0.001312 -0.001085 -0.001956 0.018757
#
#
# Mechanical properties :
#
#
# Convention : Reuss Voigt Hill
#
# Bulk Modulus (GPa) = 51.84612 104.57917 78.21264
# Shear Modulus (GPa) = 39.23575 57.17928 48.20751
#
# Velocity S-wave (km/s) = 3.77880 4.56176 4.18862
# Velocity P-wave (km/s) = 6.15693 8.11212 7.20119
#
# Compressibility (1/GPa) = 0.01928785
#
# Stress axis : x y z
#
# Youngs Moduli (GPa) = 101.06013 68.68544 72.67400
#
# Poissons Ratio (x) = 0.32250 0.31075
# Poissons Ratio (y) = 0.47450 0.03576
# Poissons Ratio (z) = 0.43212 0.03380
#
# Static dielectric constant tensor:
#      x y z
#    x 2.172810 0.069090 -0.094410 
#    y 0.069090 2.501140 -0.340360 
#    z -0.094410 -0.340360 2.478460 
# 
# From -- ./inp_files/617948.got.cif
#   From: 2010.05.17/outbox.cif.g08.bks.cpg/sg2_309_cif.got.tgz:617948.got - 2010.06.03 11:33:40.
