data_PCOD9064485
_publ_section_title
;
Structure prediction by ZEFSAII (Michael W. Deem and Ramdas Pophale) SiO2 
 PCOD9064485
Probable space group: P -1
;
_chemical_formula_sum "Si O2"
_cell_formula_units_Z 14
_cell_length_a 9.228475
_cell_length_b 11.412136
_cell_length_c 5.654063
_cell_angle_alpha 75.444029
_cell_angle_beta 93.549040
_cell_angle_gamma 81.211372
_cell_volume 566.446540
_symmetry_space_group_name_H-M "P -1"
_symmetry_group_IT_number 2
_symmetry_cell_setting 'triclinic'
loop_
_space_group_symop_operation_xyz
x,y,z
-x,-y,-z
loop_
_atom_site_type_symbol
_atom_site_label
_atom_site_fract_x
_atom_site_fract_y
_atom_site_fract_z
Si Si1 0.893466 0.803502 0.436848
Si Si2 0.674445 0.676813 0.324835
Si Si3 0.355665 0.971651 0.856257
Si Si4 0.955509 0.366716 0.100305
Si Si5 0.469766 0.254346 0.223925
Si Si6 0.667983 0.406396 0.357983
Si Si7 0.185682 0.791233 0.212801
O O1 0.846116 0.690447 0.340296
O O2 0.921579 0.743442 0.728932
O O3 0.046320 0.839760 0.343214
O O4 0.759114 0.914618 0.318001
O O5 0.618441 0.731270 0.547288
O O6 0.637782 0.540872 0.391406
O O7 0.614904 0.735779 0.039990
O O8 0.421691 0.875891 0.707972
O O9 0.254642 0.898104 0.043520
O O10 0.500000 0.000000 0.000000
O O11 0.830770 0.393118 0.275369
O O12 0.876520 0.303551 0.918236
O O13 0.000000 0.500000 0.000000
O O14 0.558513 0.368024 0.173460
O O15 0.680370 0.295821 0.600780
#
# Coordination Sequence:
#
# PCOD9064485 Si02
#       7
#     2   2   2   2   2   2   2
#     4  11  27  47  76 117 153 211 262 322 399 475
#     4  12  27  47  79 119 158 207 265 331 406 482
#     4  12  26  53  78 110 160 211 271 331 388 476
#     4  11  24  45  78 112 156 198 261 324 400 478
#     4  12  27  49  74 118 157 211 266 329 401 470
#     4  11  25  46  77 111 155 202 262 329 406 472
#     4  11  25  50  74 114 156 206 263 328 397 471
#
# _framework density 24.715482000000002
#
# number of rings (size 3 to 8) (size 9 to 14) (size 15 to 20)
#    0.000    0.571    2.857    3.857    6.000    3.429 
#    5.143    0.000    0.000    0.000    0.000    0.000 
#    0.000    0.000    0.000    0.000    0.000    0.000 
#
# Total GULP energy -78278.972005 kJ/mol
# GULP energy per Si atom -5591.355143 kJ/mol
# Density = 2.465923 g / cm^3
# Si number density = 24.715482 Si / 1000 Ang^3
#
#
#
# Elastic Constant Matrix: (Units=GPa)
#
#
# Indices 1 2 3 4 5 6 
#
# 1 126.7225 34.0025 39.3031 -5.3912 -9.4095 14.6809
# 2 34.0025 102.9805 29.0433 -3.4148 -22.4372 5.6752
# 3 39.3031 29.0433 111.8202 -6.0071 1.1747 -6.5649
# 4 -5.3912 -3.4148 -6.0071 38.2435 12.4126 -4.8683
# 5 -9.4095 -22.4372 1.1747 12.4126 34.1400 2.2397
# 6 14.6809 5.6752 -6.5649 -4.8683 2.2397 46.4574
#
#
#
# Elastic Compliance Matrix: (Units=1/GPa)
#
#
# Indices 1 2 3 4 5 6 
#
# 1 0.009920 -0.001706 -0.003295 -0.000405 0.002105 -0.003536
# 2 -0.001706 0.013321 -0.003259 -0.002986 0.009635 -0.002326
# 3 -0.003295 -0.003259 0.011372 0.003041 -0.004782 0.003596
# 4 -0.000405 -0.002986 0.003041 0.031447 -0.013933 0.004889
# 5 0.002105 0.009635 -0.004782 -0.013933 0.041828 -0.005995
# 6 -0.003536 -0.002326 0.003596 0.004889 -0.005995 0.024236
#
#
# Mechanical properties :
#
#
# Convention : Reuss Voigt Hill
#
# Bulk Modulus (GPa) = 55.26646 60.69122 57.97884
# Shear Modulus (GPa) = 32.32608 39.71312 36.01960
#
# Velocity S-wave (km/s) = 3.62045 4.01285 3.82169
# Velocity P-wave (km/s) = 6.31558 6.78822 6.55616
#
# Compressibility (1/GPa) = 0.01809416
#
# Stress axis : x y z
#
# Youngs Moduli (GPa) = 100.80980 75.06757 87.93436
#
# Poissons Ratio (x) = 0.12806 0.28974
# Poissons Ratio (y) = 0.17197 0.28654
# Poissons Ratio (z) = 0.33217 0.24462
#
# Static dielectric constant tensor:
#      x y z
#    x 2.068950 -0.017160 0.001520 
#    y -0.017160 1.981500 -0.009740 
#    z 0.001520 -0.009740 1.984880 
# 
# From -- ./inp_files/27210.got.cif
#   From: 2010.05.17/outbox.cif.g08.bks.cpg/sg2_14_cif.got.tgz:27210.got - 2010.06.03 11:33:40.
