data_PCOD9064290
_publ_section_title
;
Structure prediction by ZEFSAII (Michael W. Deem and Ramdas Pophale) SiO2 
 PCOD9064290
Probable space group: P -1
;
_chemical_formula_sum "Si O2"
_cell_formula_units_Z 16
_cell_length_a 13.854584
_cell_length_b 14.939904
_cell_length_c 9.082460
_cell_angle_alpha 37.718564
_cell_angle_beta 54.663635
_cell_angle_gamma 36.888220
_cell_volume 682.778245
_symmetry_space_group_name_H-M "P -1"
_symmetry_group_IT_number 2
_symmetry_cell_setting 'triclinic'
loop_
_space_group_symop_operation_xyz
x,y,z
-x,-y,-z
loop_
_atom_site_type_symbol
_atom_site_label
_atom_site_fract_x
_atom_site_fract_y
_atom_site_fract_z
Si Si1 0.015732 0.652077 0.841312
Si Si2 0.094077 0.070043 0.155584
Si Si3 0.422615 0.474825 0.376708
Si Si4 0.302153 0.602816 0.649119
Si Si5 0.829691 0.732026 0.369276
Si Si6 0.228852 0.089857 0.502306
Si Si7 0.504221 0.906461 0.270325
Si Si8 0.151275 0.844887 0.955587
O O1 0.918176 0.799420 0.873907
O O2 0.943318 0.792895 0.579250
O O3 0.194438 0.555187 0.843388
O O4 0.000000 0.500000 0.000000
O O5 0.196428 0.842290 0.413196
O O6 0.161820 0.110661 0.909687
O O7 0.924536 0.150722 0.135667
O O8 0.368858 0.515678 0.540789
O O9 0.556255 0.488909 0.240405
O O10 0.507503 0.252532 0.553521
O O11 0.268713 0.629006 0.209394
O O12 0.796377 0.782204 0.505370
O O13 0.676577 0.788217 0.351418
O O14 0.000000 0.500000 0.500000
O O15 0.355625 0.053564 0.323800
O O16 0.262314 0.895699 0.774710
O O17 0.500000 0.000000 0.000000
O O18 0.000000 0.000000 0.000000
#
# Coordination Sequence:
#
# PCOD9064290 Si02
#       8
#     2   2   2   2   2   2   2   2
#     4  12  27  45  72 110 151 196 258 313 380 463
#     4  12  24  46  77 104 146 204 248 319 379 455
#     4  11  25  45  73 107 145 197 252 318 376 451
#     4  11  24  45  73 105 145 195 262 300 378 461
#     4  12  26  47  76 111 153 202 259 315 395 462
#     4  12  26  48  76 110 153 203 256 316 393 455
#     4  12  29  49  75 110 160 204 257 319 387 463
#     4  12  23  47  78 109 149 195 259 322 381 460
#
# _framework density 23.433669999999999
#
# number of rings (size 3 to 8) (size 9 to 14) (size 15 to 20)
#    0.000    0.250    3.750    4.500    7.000    1.500 
#    4.500    0.000    0.000    0.000    0.000    0.000 
#    0.000    0.000    0.000    0.000    0.000    0.000 
#
# Total GULP energy -89505.477581 kJ/mol
# GULP energy per Si atom -5594.092349 kJ/mol
# Density = 2.338033 g / cm^3
# Si number density = 23.433670 Si / 1000 Ang^3
#
#
#
# Elastic Constant Matrix: (Units=GPa)
#
#
# Indices 1 2 3 4 5 6 
#
# 1 150.3476 57.1460 17.9355 2.3329 8.3078 9.8755
# 2 57.1460 127.8746 35.4313 10.2591 -2.3164 25.5155
# 3 17.9355 35.4313 58.8069 5.4988 -0.9862 10.2664
# 4 2.3329 10.2591 5.4988 30.3260 -3.3790 -2.7896
# 5 8.3078 -2.3164 -0.9862 -3.3790 46.5958 2.7256
# 6 9.8755 25.5155 10.2664 -2.7896 2.7256 44.6580
#
#
#
# Elastic Compliance Matrix: (Units=1/GPa)
#
#
# Indices 1 2 3 4 5 6 
#
# 1 0.008159 -0.003713 -0.000429 0.000574 -0.001639 0.000552
# 2 -0.003713 0.012196 -0.004965 -0.003289 0.001234 -0.005287
# 3 -0.000429 -0.004965 0.020680 -0.002194 0.000224 -0.001974
# 4 0.000574 -0.003289 -0.002194 0.035059 0.001977 0.004326
# 5 -0.001639 0.001234 0.000224 0.001977 0.022057 -0.001617
# 6 0.000552 -0.005287 -0.001974 0.004326 -0.001617 0.026114
#
#
# Mechanical properties :
#
#
# Convention : Reuss Voigt Hill
#
# Bulk Modulus (GPa) = 43.81665 62.00608 52.91137
# Shear Modulus (GPa) = 33.31402 39.41704 36.36553
#
# Velocity S-wave (km/s) = 3.77454 4.10575 3.94363
# Velocity P-wave (km/s) = 6.14288 6.99957 6.58517
#
# Compressibility (1/GPa) = 0.02282237
#
# Stress axis : x y z
#
# Youngs Moduli (GPa) = 122.56049 81.99189 48.35546
#
# Poissons Ratio (x) = 0.30447 0.02073
# Poissons Ratio (y) = 0.45512 0.24007
# Poissons Ratio (z) = 0.05254 0.40706
#
# Static dielectric constant tensor:
#      x y z
#    x 1.868960 -0.027430 -0.016520 
#    y -0.027430 1.946770 0.006260 
#    z -0.016520 0.006260 1.940450 
# 
# From -- ./inp_files/312352.got.cif
#   From: 2010.05.17/outbox.cif.g08.bks.cpg/sg2_157_cif.got.tgz:312352.got - 2010.06.03 11:33:40.
