data_PCOD9064242
_publ_section_title
;
Structure prediction by ZEFSAII (Michael W. Deem and Ramdas Pophale) SiO2 
 PCOD9064242
Probable space group: P -1
;
_chemical_formula_sum "Si O2"
_cell_formula_units_Z 13
_cell_length_a 9.156074
_cell_length_b 12.332712
_cell_length_c 5.000219
_cell_angle_alpha 75.037991
_cell_angle_beta 102.174489
_cell_angle_gamma 91.353089
_cell_volume 532.926482
_symmetry_space_group_name_H-M "P -1"
_symmetry_group_IT_number 2
_symmetry_cell_setting 'triclinic'
loop_
_space_group_symop_operation_xyz
x,y,z
-x,-y,-z
loop_
_atom_site_type_symbol
_atom_site_label
_atom_site_fract_x
_atom_site_fract_y
_atom_site_fract_z
Si Si1 0.332185 0.952837 0.760742
Si Si2 0.611278 0.486339 0.806009
Si Si3 0.000184 0.751851 0.441240
Si Si4 0.435273 0.165440 0.476210
Si Si5 0.830915 0.681917 0.910562
Si Si6 0.700592 0.260169 0.760930
Si Si7 0.000000 0.000000 0.500000
O O1 0.455021 0.892932 0.658487
O O2 0.177482 0.977695 0.532363
O O3 0.396745 0.076152 0.749573
O O4 0.285769 0.863809 0.022673
O O5 0.500000 0.500000 0.500000
O O6 0.742774 0.573671 0.852084
O O7 0.691052 0.363335 0.893806
O O8 0.500000 0.500000 0.000000
O O9 0.969687 0.703192 0.753838
O O10 0.966481 0.885581 0.372643
O O11 0.165432 0.729710 0.402300
O O12 0.888461 0.692904 0.227797
O O13 0.287563 0.216021 0.253823
O O14 0.535910 0.261463 0.568962
#
# Coordination Sequence:
#
# PCOD9064242 Si02
#       7
#     2   2   2   2   2   2   1
#     4  11  25  42  72 110 151 199 252 318 377 455
#     4  12  27  49  84 114 150 202 257 322 381 451
#     4  12  29  48  77 112 157 203 252 318 382 462
#     4  11  24  45  72 110 148 198 252 320 376 452
#     4  12  27  51  75 114 153 200 259 317 383 450
#     4  12  27  47  76 110 155 200 262 312 385 457
#     4  12  24  50  72 114 154 208 248 304 394 458
#
# _framework density 24.393609000000001
#
# number of rings (size 3 to 8) (size 9 to 14) (size 15 to 20)
#    0.000    0.308    4.615    3.231    2.154    6.154 
#    0.000    0.000    0.000    0.000    0.000    0.000 
#    0.000    0.000    0.000    0.000    0.000    0.000 
#
# Total GULP energy -72486.587566 kJ/mol
# GULP energy per Si atom -5575.891351 kJ/mol
# Density = 2.433809 g / cm^3
# Si number density = 24.393609 Si / 1000 Ang^3
#
#
#
# Elastic Constant Matrix: (Units=GPa)
#
#
# Indices 1 2 3 4 5 6 
#
# 1 148.7128 49.5802 15.2471 -3.0846 -18.1089 -5.9600
# 2 49.5802 115.2549 27.5781 24.9173 6.2876 -1.2052
# 3 15.2471 27.5781 59.1694 16.1782 -8.4075 3.0274
# 4 -3.0846 24.9173 16.1782 27.3769 1.4544 1.2233
# 5 -18.1089 6.2876 -8.4075 1.4544 33.9868 16.5078
# 6 -5.9600 -1.2052 3.0274 1.2233 16.5078 38.1979
#
#
#
# Elastic Compliance Matrix: (Units=1/GPa)
#
#
# Indices 1 2 3 4 5 6 
#
# 1 0.009550 -0.005731 -0.000493 0.006310 0.006582 -0.001698
# 2 -0.005731 0.015069 -0.003605 -0.011971 -0.008028 0.003720
# 3 -0.000493 -0.003605 0.023290 -0.010781 0.009427 -0.005765
# 4 0.006310 -0.011971 -0.010781 0.054486 0.000906 -0.000675
# 5 0.006582 -0.008028 0.009427 0.000906 0.046462 -0.020082
# 6 -0.001698 0.003720 -0.005765 -0.000675 -0.020082 0.035189
#
#
# Mechanical properties :
#
#
# Convention : Reuss Voigt Hill
#
# Bulk Modulus (GPa) = 35.39589 56.43868 45.91729
# Shear Modulus (GPa) = 23.46079 35.29443 29.37761
#
# Velocity S-wave (km/s) = 3.10459 3.80790 3.47409
# Velocity P-wave (km/s) = 5.23384 6.52077 5.91242
#
# Compressibility (1/GPa) = 0.02825187
#
# Stress axis : x y z
#
# Youngs Moduli (GPa) = 104.71308 66.36057 42.93691
#
# Poissons Ratio (x) = 0.38032 0.02116
# Poissons Ratio (y) = 0.60013 0.15477
# Poissons Ratio (z) = 0.05160 0.23920
#
# Static dielectric constant tensor:
#      x y z
#    x 1.886320 0.049870 0.029170 
#    y 0.049870 1.958050 -0.029450 
#    z 0.029170 -0.029450 1.971130 
# 
# From -- ./inp_files/23576.got.cif
#   From: 2010.05.17/outbox.cif.g08.bks.cpg/sg2_12_cif.got.tgz:23576.got - 2010.06.03 11:33:40.
