data_PCOD9064212
_publ_section_title
;
Structure prediction by ZEFSAII (Michael W. Deem and Ramdas Pophale) SiO2 
 PCOD9064212
Probable space group: P -1
;
_chemical_formula_sum "Si O2"
_cell_formula_units_Z 14
_cell_length_a 10.042589
_cell_length_b 10.091204
_cell_length_c 11.731446
_cell_angle_alpha 118.632920
_cell_angle_beta 80.719771
_cell_angle_gamma 136.679947
_cell_volume 680.375330
_symmetry_space_group_name_H-M "P -1"
_symmetry_group_IT_number 2
_symmetry_cell_setting 'triclinic'
loop_
_space_group_symop_operation_xyz
x,y,z
-x,-y,-z
loop_
_atom_site_type_symbol
_atom_site_label
_atom_site_fract_x
_atom_site_fract_y
_atom_site_fract_z
Si Si1 0.027250 0.845686 0.408377
Si Si2 0.478216 0.157291 0.541692
Si Si3 0.821352 0.437784 0.432059
Si Si4 0.862032 0.807017 0.035530
Si Si5 0.934714 0.275370 0.881294
Si Si6 0.489471 0.004122 0.865189
Si Si7 0.455269 0.277427 0.842159
O O1 0.968618 0.717254 0.243027
O O2 0.913442 0.655600 0.442446
O O3 0.266430 0.015519 0.454061
O O4 0.000000 0.000000 0.500000
O O5 0.661493 0.356046 0.515934
O O6 0.470136 0.221908 0.692955
O O7 0.500000 0.000000 0.500000
O O8 0.703891 0.233394 0.270980
O O9 0.000000 0.500000 0.500000
O O10 0.773663 0.852122 0.158223
O O11 0.994597 0.781571 0.055601
O O12 0.641315 0.553548 0.926756
O O13 0.000000 0.000000 0.000000
O O14 0.690828 0.085714 0.828121
O O15 0.000000 0.500000 0.000000
O O16 0.497603 0.184297 0.893615
O O17 0.500000 0.000000 0.000000
#
# Coordination Sequence:
#
# PCOD9064212 Si02
#       7
#     2   2   2   2   2   2   2
#     4  12  27  47  70 108 150 186 237 308 376 425
#     4  12  23  47  72 104 140 186 250 294 351 446
#     4  12  26  45  78 106 142 203 250 298 367 448
#     4  11  26  46  70 106 146 193 237 293 372 444
#     4  12  24  46  74 104 147 189 238 309 365 428
#     4  12  24  44  74 110 142 188 253 304 365 441
#     4  11  24  45  72 104 146 189 238 304 359 437
#
# _framework density 20.576879999999999
#
# number of rings (size 3 to 8) (size 9 to 14) (size 15 to 20)
#    0.000    0.286    5.714    2.571    0.000    5.143 
#    2.571    0.000    0.000    0.000    0.000    0.000 
#    0.000    0.000    0.000    0.000    0.000    0.000 
#
# Total GULP energy -78187.733968 kJ/mol
# GULP energy per Si atom -5584.838141 kJ/mol
# Density = 2.053005 g / cm^3
# Si number density = 20.576880 Si / 1000 Ang^3
#
#
#
# Elastic Constant Matrix: (Units=GPa)
#
#
# Indices 1 2 3 4 5 6 
#
# 1 137.8638 74.4839 39.6216 3.6902 -9.9751 -2.7671
# 2 74.4839 189.1942 67.7605 -15.7776 -13.8619 -7.2967
# 3 39.6216 67.7605 139.2022 -16.6224 -12.2910 -6.6386
# 4 3.6902 -15.7776 -16.6224 32.5988 6.8142 2.6523
# 5 -9.9751 -13.8619 -12.2910 6.8142 38.0981 0.1614
# 6 -2.7671 -7.2967 -6.6386 2.6523 0.1614 40.6769
#
#
#
# Elastic Compliance Matrix: (Units=1/GPa)
#
#
# Indices 1 2 3 4 5 6 
#
# 1 0.009792 -0.003572 -0.001373 -0.003857 0.001511 0.000047
# 2 -0.003572 0.007850 -0.002384 0.002805 0.000648 0.000591
# 3 -0.001373 -0.002384 0.009283 0.003432 0.001151 0.000766
# 4 -0.003857 0.002805 0.003432 0.035431 -0.005213 -0.001489
# 5 0.001511 0.000648 0.001151 -0.005213 0.028180 0.000635
# 6 0.000047 0.000591 0.000766 -0.001489 0.000635 0.024913
#
#
# Mechanical properties :
#
#
# Convention : Reuss Voigt Hill
#
# Bulk Modulus (GPa) = 81.52819 92.22136 86.87477
# Shear Modulus (GPa) = 37.25892 41.23436 39.24664
#
# Velocity S-wave (km/s) = 4.25987 4.48137 4.37202
# Velocity P-wave (km/s) = 7.99391 8.46712 8.23392
#
# Compressibility (1/GPa) = 0.01226570
#
# Stress axis : x y z
#
# Youngs Moduli (GPa) = 102.12792 127.38946 107.72218
#
# Poissons Ratio (x) = 0.45507 0.14791
# Poissons Ratio (y) = 0.36483 0.25683
# Poissons Ratio (z) = 0.14023 0.30371
#
# Static dielectric constant tensor:
#      x y z
#    x 1.716480 0.000560 -0.016080 
#    y 0.000560 1.717600 0.038680 
#    z -0.016080 0.038680 1.805600 
# 
# From -- ./inp_files/185631.got.cif
#   From: 2010.05.17/outbox.cif.g08.bks.cpg/sg2_93_cif.got.tgz:185631.got - 2010.06.03 11:33:40.
