data_PCOD9064543
_publ_section_title
;
Structure prediction by ZEFSAII (Michael W. Deem and Ramdas Pophale) SiO2 
 PCOD9064543
Probable space group: P -1
;
_chemical_formula_sum "Si O2"
_cell_formula_units_Z 16
_cell_length_a 12.759006
_cell_length_b 7.019044
_cell_length_c 11.694829
_cell_angle_alpha 80.579534
_cell_angle_beta 100.751500
_cell_angle_gamma 128.592636
_cell_volume 802.705309
_symmetry_space_group_name_H-M "P -1"
_symmetry_group_IT_number 2
_symmetry_cell_setting 'triclinic'
loop_
_space_group_symop_operation_xyz
x,y,z
-x,-y,-z
loop_
_atom_site_type_symbol
_atom_site_label
_atom_site_fract_x
_atom_site_fract_y
_atom_site_fract_z
Si Si1 0.616810 0.285654 0.002565
Si Si2 0.667442 0.636640 0.788320
Si Si3 0.912782 0.089316 0.935124
Si Si4 0.136295 0.288986 0.368558
Si Si5 0.116311 0.259218 0.635523
Si Si6 0.620078 0.570902 0.187620
Si Si7 0.992680 0.514618 0.281328
Si Si8 0.213433 0.869621 0.875454
O O1 0.595490 0.424612 0.080730
O O2 0.740960 0.292190 0.064404
O O3 0.641691 0.411849 0.874763
O O4 0.500000 0.000000 0.000000
O O5 0.773901 0.868983 0.867112
O O6 0.741210 0.664087 0.683296
O O7 0.521717 0.578200 0.759138
O O8 0.977887 0.306856 0.835334
O O9 0.881266 0.159567 0.040300
O O10 0.000000 0.000000 0.000000
O O11 0.150283 0.272061 0.508207
O O12 0.111092 0.489708 0.324087
O O13 0.001655 0.023141 0.328849
O O14 0.251655 0.378608 0.725385
O O15 0.049085 0.393307 0.632516
O O16 0.668281 0.841889 0.141495
O O17 0.864083 0.243519 0.247387
#
# Coordination Sequence:
#
# PCOD9064543 Si02
#       8
#     2   2   2   2   2   2   2   2
#     4  12  23  40  65  95 135 179 212 257 333 410
#     4  12  24  42  66  99 137 174 214 273 337 392
#     4  12  23  39  63 100 142 174 213 273 333 396
#     4  11  25  44  70  95 129 178 228 281 328 383
#     4  11  24  46  68  95 130 176 230 280 329 383
#     4  12  24  43  66  96 139 170 217 273 332 399
#     4  12  22  42  69  96 129 175 229 271 329 397
#     4  12  22  38  63  96 133 177 209 262 335 397
#
# _framework density 19.932597000000001
#
# number of rings (size 3 to 8) (size 9 to 14) (size 15 to 20)
#    0.000    0.250    6.250    4.875    0.000    0.500 
#    0.000    0.000    0.000    2.250    0.000    0.000 
#    0.000    0.000    0.000    0.000    0.000    0.000 
#
# Total GULP energy -89410.917287 kJ/mol
# GULP energy per Si atom -5588.182330 kJ/mol
# Density = 1.988723 g / cm^3
# Si number density = 19.932597 Si / 1000 Ang^3
#
#
#
# Elastic Constant Matrix: (Units=GPa)
#
#
# Indices 1 2 3 4 5 6 
#
# 1 119.3592 21.5104 28.7511 -4.5998 -23.3389 -5.6233
# 2 21.5104 105.4957 23.2345 2.9649 -10.2717 4.7233
# 3 28.7511 23.2345 60.1281 0.4777 -25.9610 4.3807
# 4 -4.5998 2.9649 0.4777 26.8048 -3.1751 -1.0831
# 5 -23.3389 -10.2717 -25.9610 -3.1751 37.8371 2.8885
# 6 -5.6233 4.7233 4.3807 -1.0831 2.8885 36.4075
#
#
#
# Elastic Compliance Matrix: (Units=1/GPa)
#
#
# Indices 1 2 3 4 5 6 
#
# 1 0.010267 -0.001226 -0.002795 0.002513 0.004154 0.001826
# 2 -0.001226 0.010568 -0.003558 -0.001405 -0.000359 -0.001146
# 3 -0.002795 -0.003558 0.026542 0.001153 0.015953 -0.004395
# 4 0.002513 -0.001405 0.001153 0.038525 0.005103 0.001173
# 5 0.004154 -0.000359 0.015953 0.005103 0.040596 -0.004300
# 6 0.001826 -0.001146 -0.004395 0.001173 -0.004300 0.028803
#
#
# Mechanical properties :
#
#
# Convention : Reuss Voigt Hill
#
# Bulk Modulus (GPa) = 31.03725 47.99720 39.51722
# Shear Modulus (GPa) = 27.59395 34.30902 30.95149
#
# Velocity S-wave (km/s) = 3.72474 4.15330 3.94484
# Velocity P-wave (km/s) = 5.83979 6.86527 6.37319
#
# Compressibility (1/GPa) = 0.03221935
#
# Stress axis : x y z
#
# Youngs Moduli (GPa) = 97.39499 94.62125 37.67669
#
# Poissons Ratio (x) = 0.11599 0.10532
# Poissons Ratio (y) = 0.11939 0.13405
# Poissons Ratio (z) = 0.27225 0.33665
#
# Static dielectric constant tensor:
#      x y z
#    x 1.759380 0.026440 0.037390 
#    y 0.026440 1.730150 0.010510 
#    z 0.037390 0.010510 1.690980 
# 
# From -- ./inp_files/77800.got.cif
#   From: 2010.05.17/outbox.cif.g08.bks.cpg/sg2_39_cif.got.tgz:77800.got - 2010.06.03 11:33:40.
