data_PCOD9064334
_publ_section_title
;
Structure prediction by ZEFSAII (Michael W. Deem and Ramdas Pophale) SiO2 
 PCOD9064334
Probable space group: P -1
;
_chemical_formula_sum "Si O2"
_cell_formula_units_Z 13
_cell_length_a 8.997848
_cell_length_b 18.131452
_cell_length_c 11.308718
_cell_angle_alpha 140.782190
_cell_angle_beta 138.504633
_cell_angle_gamma 32.155492
_cell_volume 596.601844
_symmetry_space_group_name_H-M "P -1"
_symmetry_group_IT_number 2
_symmetry_cell_setting 'triclinic'
loop_
_space_group_symop_operation_xyz
x,y,z
-x,-y,-z
loop_
_atom_site_type_symbol
_atom_site_label
_atom_site_fract_x
_atom_site_fract_y
_atom_site_fract_z
Si Si1 0.781066 0.545031 0.670220
Si Si2 0.289858 0.549477 0.047766
Si Si3 0.000000 0.000000 0.000000
Si Si4 0.251198 0.322153 0.408321
Si Si5 0.834569 0.151686 0.666449
Si Si6 0.348287 0.646079 0.751830
Si Si7 0.220742 0.070853 0.009097
O O1 0.612059 0.674587 0.629265
O O2 0.588391 0.589989 0.725501
O O3 0.841932 0.397909 0.467897
O O4 0.062346 0.525464 0.848123
O O5 0.125831 0.725980 0.195073
O O6 0.483215 0.450487 0.151146
O O7 0.500000 0.500000 0.000000
O O8 0.170269 0.821282 0.882982
O O9 0.242186 0.976589 0.015202
O O10 0.494179 0.242205 0.554536
O O11 0.000000 0.500000 0.500000
O O12 0.148427 0.225869 0.201952
O O13 0.960664 0.106198 0.816815
O O14 0.000000 0.000000 0.500000
O O15 0.500000 0.000000 0.000000
#
# Coordination Sequence:
#
# PCOD9064334 Si02
#       7
#     2   2   1   2   2   2   2
#     4  11  24  45  74 101 146 193 240 299 377 439
#     4  12  25  45  73 106 140 189 248 303 366 449
#     4  12  28  46  74 110 148 194 250 302 376 442
#     4  12  24  44  76 110 143 198 249 300 378 444
#     4  12  26  42  75 111 144 194 255 303 374 457
#     4  11  26  47  69 107 147 187 245 304 366 445
#     4  12  26  50  74 107 157 196 243 316 376 443
#
# _framework density 21.790077
#
# number of rings (size 3 to 8) (size 9 to 14) (size 15 to 20)
#    0.000    0.308    4.615    4.154    0.000    0.000 
#    0.000    3.077    0.000    0.000    0.000    0.000 
#    0.000    0.000    0.000    0.000    0.000    0.000 
#
# Total GULP energy -72477.091881 kJ/mol
# GULP energy per Si atom -5575.160914 kJ/mol
# Density = 2.174048 g / cm^3
# Si number density = 21.790077 Si / 1000 Ang^3
#
#
#
# Elastic Constant Matrix: (Units=GPa)
#
#
# Indices 1 2 3 4 5 6 
#
# 1 149.6694 31.3912 38.7341 9.4764 12.5445 9.3022
# 2 31.3912 115.0746 71.3685 28.4682 5.7261 -0.2626
# 3 38.7341 71.3685 172.2606 7.9738 12.8185 -1.8225
# 4 9.4764 28.4682 7.9738 52.4433 -0.8293 11.9704
# 5 12.5445 5.7261 12.8185 -0.8293 33.5575 2.4148
# 6 9.3022 -0.2626 -1.8225 11.9704 2.4148 36.3269
#
#
#
# Elastic Compliance Matrix: (Units=1/GPa)
#
#
# Indices 1 2 3 4 5 6 
#
# 1 0.007508 -0.001291 -0.001013 -0.000123 -0.002073 -0.001804
# 2 -0.001291 0.014030 -0.005139 -0.007192 -0.000311 0.002564
# 3 -0.001013 -0.005139 0.008227 0.001643 -0.001862 0.000217
# 4 -0.000123 -0.007192 0.001643 0.024641 0.001843 -0.008180
# 5 -0.002073 -0.000311 -0.001862 0.001843 0.031548 -0.002269
# 6 -0.001804 0.002564 0.000217 -0.008180 -0.002269 0.030866
#
#
# Mechanical properties :
#
#
# Convention : Reuss Voigt Hill
#
# Bulk Modulus (GPa) = 67.20630 79.99912 73.60271
# Shear Modulus (GPa) = 36.58619 44.16625 40.37622
#
# Velocity S-wave (km/s) = 4.10204 4.50699 4.30928
# Velocity P-wave (km/s) = 7.30378 7.99232 7.65580
#
# Compressibility (1/GPa) = 0.01487956
#
# Stress axis : x y z
#
# Youngs Moduli (GPa) = 133.19475 71.27652 121.55209
#
# Poissons Ratio (x) = 0.09199 0.12309
# Poissons Ratio (y) = 0.17189 0.62469
# Poissons Ratio (z) = 0.13488 0.36631
#
# Static dielectric constant tensor:
#      x y z
#    x 1.906600 -0.058650 -0.030960 
#    y -0.058650 1.780890 0.003680 
#    z -0.030960 0.003680 1.811480 
# 
# From -- ./inp_files/402402.got.cif
#   From: 2010.05.17/outbox.cif.g08.bks.cpg/sg2_202_cif.got.tgz:402402.got - 2010.06.03 11:33:40.
