data_PCOD9064481
_publ_section_title
;
Structure prediction by ZEFSAII (Michael W. Deem and Ramdas Pophale) SiO2 
 PCOD9064481
Probable space group: P -1
;
_chemical_formula_sum "Si O2"
_cell_formula_units_Z 14
_cell_length_a 5.010765
_cell_length_b 6.985654
_cell_length_c 21.078957
_cell_angle_alpha 65.844471
_cell_angle_beta 95.568535
_cell_angle_gamma 112.172200
_cell_volume 622.007319
_symmetry_space_group_name_H-M "P -1"
_symmetry_group_IT_number 2
_symmetry_cell_setting 'triclinic'
loop_
_space_group_symop_operation_xyz
x,y,z
-x,-y,-z
loop_
_atom_site_type_symbol
_atom_site_label
_atom_site_fract_x
_atom_site_fract_y
_atom_site_fract_z
Si Si1 0.829081 0.617815 0.467537
Si Si2 0.532772 0.851907 0.113959
Si Si3 0.965213 0.045989 0.688377
Si Si4 0.827980 0.121158 0.467872
Si Si5 0.669785 0.347695 0.001630
Si Si6 0.009897 0.735327 0.206173
Si Si7 0.305810 0.768530 0.688714
O O1 0.500000 0.500000 0.500000
O O2 0.895761 0.742564 0.384200
O O3 0.895436 0.373997 0.478540
O O4 0.895480 0.875473 0.478171
O O5 0.835154 0.831828 0.140654
O O6 0.304548 0.746887 0.178918
O O7 0.580665 0.113173 0.069559
O O8 0.403260 0.721942 0.063760
O O9 0.925594 0.124347 0.746630
O O10 0.181211 0.913371 0.711422
O O11 0.651136 0.888476 0.675913
O O12 0.834180 0.224015 0.383923
O O13 0.500000 0.000000 0.500000
O O14 0.500000 0.500000 0.000000
O O15 0.000000 0.500000 0.000000
O O16 0.802171 0.482727 0.253580
#
# Coordination Sequence:
#
# PCOD9064481 Si02
#       7
#     2   2   2   2   2   2   2
#     4  12  24  40  65  92 122 166 228 296 359 415
#     4  11  26  46  69 109 144 181 227 282 327 403
#     4  12  26  45  66  96 135 180 234 287 349 430
#     4  12  22  42  65  88 125 167 226 299 355 401
#     4  11  24  45  78 108 143 181 230 273 331 398
#     4  12  27  45  69 101 147 184 229 279 344 415
#     4  12  25  45  68  96 134 185 234 290 359 423
#
# _framework density 22.507774000000001
#
# number of rings (size 3 to 8) (size 9 to 14) (size 15 to 20)
#    0.000    0.286    2.857    6.000    0.000   11.429 
#    0.000    0.000    0.000    0.000    0.000    0.000 
#    0.000    0.000    0.000    0.000    0.000    0.000 
#
# Total GULP energy -78372.789393 kJ/mol
# GULP energy per Si atom -5598.056385 kJ/mol
# Density = 2.245655 g / cm^3
# Si number density = 22.507774 Si / 1000 Ang^3
#
#
#
# Elastic Constant Matrix: (Units=GPa)
#
#
# Indices 1 2 3 4 5 6 
#
# 1 117.5906 28.7772 7.4589 -5.5760 -9.1724 -8.9126
# 2 28.7772 146.4113 38.0194 -13.7328 5.6444 -0.0718
# 3 7.4589 38.0194 78.4648 -4.9389 -2.3888 4.5343
# 4 -5.5760 -13.7328 -4.9389 19.9503 -3.9136 3.2948
# 5 -9.1724 5.6444 -2.3888 -3.9136 37.7743 -1.6424
# 6 -8.9126 -0.0718 4.5343 3.2948 -1.6424 55.8367
#
#
#
# Elastic Compliance Matrix: (Units=1/GPa)
#
#
# Indices 1 2 3 4 5 6 
#
# 1 0.009350 -0.001810 0.000095 0.001696 0.002786 0.001464
# 2 -0.001810 0.008622 -0.003770 0.004238 -0.001539 -0.000267
# 3 0.000095 -0.003770 0.014785 0.001617 0.001635 -0.001238
# 4 0.001696 0.004238 0.001617 0.055485 0.005500 -0.002967
# 5 0.002786 -0.001539 0.001635 0.005500 0.028088 0.000812
# 6 0.001464 -0.000267 -0.001238 -0.002967 0.000812 0.018442
#
#
# Mechanical properties :
#
#
# Convention : Reuss Voigt Hill
#
# Bulk Modulus (GPa) = 45.89968 54.55309 50.22638
# Shear Modulus (GPa) = 32.67893 40.59298 36.63595
#
# Velocity S-wave (km/s) = 3.81451 4.25138 4.03886
# Velocity P-wave (km/s) = 6.31171 6.95622 6.64179
#
# Compressibility (1/GPa) = 0.02178665
#
# Stress axis : x y z
#
# Youngs Moduli (GPa) = 106.95513 115.98892 67.63445
#
# Poissons Ratio (x) = 0.20995 -0.00644
# Poissons Ratio (y) = 0.19360 0.25499
# Poissons Ratio (z) = -0.01018 0.43729
#
# Static dielectric constant tensor:
#      x y z
#    x 1.798480 -0.081050 -0.009260 
#    y -0.081050 2.063430 -0.001330 
#    z -0.009260 -0.001330 1.796050 
# 
# From -- ./inp_files/10903.got.cif
#   From: 2010.05.17/outbox.cif.g08.bks.cpg/sg2_6_cif.got.tgz:10903.got - 2010.06.03 11:33:40.
