data_PCOD9064069
_publ_section_title
;
Structure prediction by ZEFSAII (Michael W. Deem and Ramdas Pophale) SiO2 
 PCOD9064069
Probable space group: P -1
;
_chemical_formula_sum "Si O2"
_cell_formula_units_Z 14
_cell_length_a 12.198429
_cell_length_b 5.069195
_cell_length_c 9.168079
_cell_angle_alpha 97.983329
_cell_angle_beta 96.356102
_cell_angle_gamma 80.720668
_cell_volume 551.811576
_symmetry_space_group_name_H-M "P -1"
_symmetry_group_IT_number 2
_symmetry_cell_setting 'triclinic'
loop_
_space_group_symop_operation_xyz
x,y,z
-x,-y,-z
loop_
_atom_site_type_symbol
_atom_site_label
_atom_site_fract_x
_atom_site_fract_y
_atom_site_fract_z
Si Si1 0.096962 0.618260 0.440859
Si Si2 0.561395 0.998831 0.815211
Si Si3 0.672723 0.788617 0.524571
Si Si4 0.095666 0.639760 0.106596
Si Si5 0.785288 0.905852 0.990462
Si Si6 0.421488 0.514911 0.741203
Si Si7 0.776257 0.079044 0.309176
O O1 0.210566 0.399399 0.437574
O O2 0.069842 0.700098 0.276882
O O3 0.126300 0.852195 0.568823
O O4 0.000000 0.500000 0.500000
O O5 0.626236 0.969798 0.666972
O O6 0.502212 0.735093 0.791314
O O7 0.656914 0.017208 0.948178
O O8 0.469909 0.262252 0.826767
O O9 0.587029 0.604072 0.432772
O O10 0.694600 0.968483 0.402887
O O11 0.134550 0.898502 0.054797
O O12 0.196325 0.391662 0.096696
O O13 0.000000 0.500000 0.000000
O O14 0.810476 0.888746 0.164400
O O15 0.293808 0.655271 0.754684
#
# Coordination Sequence:
#
# PCOD9064069 Si02
#       7
#     2   2   2   2   2   2   2
#     4  11  26  47  76 110 143 189 241 304 363 427
#     4  12  24  44  72 103 147 189 245 294 355 426
#     4  11  24  45  70 106 146 187 245 295 360 431
#     4  12  27  51  77 106 143 193 244 294 366 432
#     4  12  28  48  73 107 150 193 237 302 359 428
#     4  11  25  42  72 106 141 195 241 294 357 418
#     4  11  27  46  72 107 153 187 245 296 359 433
#
# _framework density 25.370978999999998
#
# number of rings (size 3 to 8) (size 9 to 14) (size 15 to 20)
#    0.000    0.571    2.857    3.857   10.000    1.714 
#    0.000    0.000    0.000    0.000    0.000    0.000 
#    0.000    0.000    0.000    0.000    0.000    0.000 
#
# Total GULP energy -78470.125626 kJ/mol
# GULP energy per Si atom -5605.008973 kJ/mol
# Density = 2.531323 g / cm^3
# Si number density = 25.370979 Si / 1000 Ang^3
#
#
#
# Elastic Constant Matrix: (Units=GPa)
#
#
# Indices 1 2 3 4 5 6 
#
# 1 96.3776 22.6708 45.1112 -4.9655 23.2169 19.7057
# 2 22.6708 108.5684 30.1865 -1.8368 -4.6963 21.0147
# 3 45.1112 30.1865 198.4459 12.0955 -3.0334 24.6095
# 4 -4.9655 -1.8368 12.0955 27.0459 3.5730 -1.1429
# 5 23.2169 -4.6963 -3.0334 3.5730 49.6672 -2.7132
# 6 19.7057 21.0147 24.6095 -1.1429 -2.7132 58.2229
#
#
#
# Elastic Compliance Matrix: (Units=1/GPa)
#
#
# Indices 1 2 3 4 5 6 
#
# 1 0.015188 -0.001896 -0.003170 0.004993 -0.008017 -0.003392
# 2 -0.001896 0.010434 -0.000821 0.000397 0.001647 -0.002693
# 3 -0.003170 -0.000821 0.006304 -0.003774 0.001991 -0.001276
# 4 0.004993 0.000397 -0.003774 0.040333 -0.005412 0.000302
# 5 -0.008017 0.001647 0.001991 -0.005412 0.024675 0.002321
# 6 -0.003392 -0.002693 -0.001276 0.000302 0.002321 0.019949
#
#
# Mechanical properties :
#
#
# Convention : Reuss Voigt Hill
#
# Bulk Modulus (GPa) = 49.62676 66.59211 58.10943
# Shear Modulus (GPa) = 36.93469 47.34875 42.14172
#
# Velocity S-wave (km/s) = 3.81961 4.32471 4.07998
# Velocity P-wave (km/s) = 6.24944 7.15834 6.71927
#
# Compressibility (1/GPa) = 0.02015042
#
# Stress axis : x y z
#
# Youngs Moduli (GPa) = 65.84283 95.83890 158.64158
#
# Poissons Ratio (x) = 0.18169 0.50296
# Poissons Ratio (y) = 0.12482 0.13029
# Poissons Ratio (z) = 0.20875 0.07871
#
# Static dielectric constant tensor:
#      x y z
#    x 2.066780 -0.017810 0.053090 
#    y -0.017810 2.070830 0.040510 
#    z 0.053090 0.040510 2.013270 
# 
# From -- ./inp_files/28212.got.cif
#   From: 2010.05.17/outbox.cif.g08.bks.cpg/sg2_15_cif.got.tgz:28212.got - 2010.06.03 11:33:40.
