data_PCOD9064195
_publ_section_title
;
Structure prediction by ZEFSAII (Michael W. Deem and Ramdas Pophale) SiO2 
 PCOD9064195
Probable space group: P -1
;
_chemical_formula_sum "Si O2"
_cell_formula_units_Z 16
_cell_length_a 12.161688
_cell_length_b 22.492283
_cell_length_c 9.523185
_cell_angle_alpha 151.266192
_cell_angle_beta 135.725453
_cell_angle_gamma 39.506291
_cell_volume 790.031760
_symmetry_space_group_name_H-M "P -1"
_symmetry_group_IT_number 2
_symmetry_cell_setting 'triclinic'
loop_
_space_group_symop_operation_xyz
x,y,z
-x,-y,-z
loop_
_atom_site_type_symbol
_atom_site_label
_atom_site_fract_x
_atom_site_fract_y
_atom_site_fract_z
Si Si1 0.379950 0.421112 0.687782
Si Si2 0.290331 0.588069 0.460315
Si Si3 0.156652 0.898577 0.027893
Si Si4 0.942211 0.064599 0.428944
Si Si5 0.552515 0.100253 0.161237
Si Si6 0.218266 0.400661 0.198901
Si Si7 0.874666 0.370196 0.908764
Si Si8 0.500426 0.121176 0.839517
O O1 0.475322 0.258364 0.471599
O O2 0.316096 0.427492 0.480620
O O3 0.500000 0.500000 0.000000
O O4 0.213682 0.505903 0.806741
O O5 0.500000 0.500000 0.500000
O O6 0.201475 0.740231 0.758281
O O7 0.185181 0.516304 0.294632
O O8 0.247569 0.603273 0.286335
O O9 0.319076 0.881212 0.044785
O O10 0.000000 0.000000 0.000000
O O11 0.100204 0.974916 0.283039
O O12 0.757554 0.054595 0.222947
O O13 0.904048 0.223682 0.698859
O O14 0.000000 0.000000 0.500000
O O15 0.474131 0.104438 0.944248
O O16 0.500000 0.000000 0.000000
O O17 0.351220 0.265541 0.962462
O O18 0.055692 0.372597 0.036606
O O19 0.500000 0.000000 0.500000
#
# Coordination Sequence:
#
# PCOD9064195 Si02
#       8
#     2   2   2   2   2   2   2   2
#     4  11  24  46  73  97 147 197 241 301 373 437
#     4  12  25  45  74 105 145 190 245 298 371 444
#     4  12  24  47  73 101 145 192 244 305 362 441
#     4  12  28  44  73 106 144 194 246 302 377 439
#     4  11  26  46  69 108 147 187 251 307 361 449
#     4  11  26  44  70 109 144 191 249 302 369 444
#     4  12  25  47  71 104 150 191 249 308 365 447
#     4  11  24  45  72 102 147 192 237 302 375 431
#
# _framework density 20.25235
#
# number of rings (size 3 to 8) (size 9 to 14) (size 15 to 20)
#    0.000    0.500    5.000    2.250    7.000    3.000 
#    0.000    0.000    0.000    0.000    0.000    0.000 
#    0.000    0.000    0.000    0.000    0.000    0.000 
#
# Total GULP energy -89244.388427 kJ/mol
# GULP energy per Si atom -5577.774277 kJ/mol
# Density = 2.020625 g / cm^3
# Si number density = 20.252350 Si / 1000 Ang^3
#
#
#
# Elastic Constant Matrix: (Units=GPa)
#
#
# Indices 1 2 3 4 5 6 
#
# 1 122.6740 33.5728 40.1976 27.7214 10.7893 3.3336
# 2 33.5728 94.4133 46.4088 21.7593 7.4241 12.2950
# 3 40.1976 46.4088 131.6877 30.0087 -6.4962 8.8348
# 4 27.7214 21.7593 30.0087 36.4019 -1.9289 -3.3591
# 5 10.7893 7.4241 -6.4962 -1.9289 49.3101 5.1919
# 6 3.3336 12.2950 8.8348 -3.3591 5.1919 51.5119
#
#
#
# Elastic Compliance Matrix: (Units=1/GPa)
#
#
# Indices 1 2 3 4 5 6 
#
# 1 0.010647 -0.001409 -0.001439 -0.006237 -0.002524 -0.000258
# 2 -0.001409 0.014520 -0.003424 -0.005169 -0.002226 -0.002900
# 3 -0.001439 -0.003424 0.010762 -0.005754 0.002184 -0.001531
# 4 -0.006237 -0.005169 -0.005754 0.040648 0.002445 0.005028
# 5 -0.002524 -0.002226 0.002184 0.002445 0.021731 -0.001711
# 6 -0.000258 -0.002900 -0.001531 0.005028 -0.001711 0.020885
#
#
# Mechanical properties :
#
#
# Convention : Reuss Voigt Hill
#
# Bulk Modulus (GPa) = 42.76560 65.45924 54.11242
# Shear Modulus (GPa) = 35.83409 42.68450 39.25929
#
# Velocity S-wave (km/s) = 4.21096 4.59588 4.40762
# Velocity P-wave (km/s) = 6.69366 7.78169 7.25809
#
# Compressibility (1/GPa) = 0.02338328
#
# Stress axis : x y z
#
# Youngs Moduli (GPa) = 93.91948 68.87094 92.92362
#
# Poissons Ratio (x) = 0.09704 0.13376
# Poissons Ratio (y) = 0.13234 0.31820
# Poissons Ratio (z) = 0.13519 0.23583
#
# Static dielectric constant tensor:
#      x y z
#    x 1.468650 -0.013450 0.033580 
#    y -0.013450 1.727570 -0.063650 
#    z 0.033580 -0.063650 1.611950 
# 
# From -- ./inp_files/283525.got.cif
#   From: 2010.05.17/outbox.cif.g08.bks.cpg/sg2_142_cif.got.tgz:283525.got - 2010.06.03 11:33:40.
