data_PCOD9064310
_publ_section_title
;
Structure prediction by ZEFSAII (Michael W. Deem and Ramdas Pophale) SiO2 
 PCOD9064310
Probable space group: P -1
;
_chemical_formula_sum "Si O2"
_cell_formula_units_Z 14
_cell_length_a 13.989613
_cell_length_b 14.764988
_cell_length_c 9.549390
_cell_angle_alpha 132.981144
_cell_angle_beta 68.254687
_cell_angle_gamma 148.097994
_cell_volume 642.447801
_symmetry_space_group_name_H-M "P -1"
_symmetry_group_IT_number 2
_symmetry_cell_setting 'triclinic'
loop_
_space_group_symop_operation_xyz
x,y,z
-x,-y,-z
loop_
_atom_site_type_symbol
_atom_site_label
_atom_site_fract_x
_atom_site_fract_y
_atom_site_fract_z
Si Si1 0.247735 0.212622 0.389740
Si Si2 0.523143 0.376671 0.835905
Si Si3 0.502089 0.115093 0.731347
Si Si4 0.151898 0.563231 0.907026
Si Si5 0.950193 0.814292 0.898511
Si Si6 0.084364 0.933681 0.478734
Si Si7 0.005879 0.616779 0.508141
O O1 0.500000 0.500000 0.500000
O O2 0.076612 0.147639 0.429720
O O3 0.209712 0.123847 0.476368
O O4 0.129071 0.995673 0.116286
O O5 0.596809 0.348779 0.876577
O O6 0.708451 0.565116 0.820845
O O7 0.282230 0.089411 0.622436
O O8 0.500000 0.500000 0.000000
O O9 0.500000 0.000000 0.500000
O O10 0.257318 0.887626 0.637505
O O11 0.613511 0.184300 0.885400
O O12 0.061489 0.335178 0.762685
O O13 0.122724 0.544814 0.736481
O O14 0.000000 0.500000 0.000000
O O15 0.949399 0.692398 0.675750
O O16 0.000000 0.000000 0.000000
O O17 0.000000 0.500000 0.500000
#
# Coordination Sequence:
#
# PCOD9064310 Si02
#       7
#     2   2   2   2   2   2   2
#     4  11  25  43  70 111 151 197 253 315 381 459
#     4  12  23  45  75 106 145 197 251 308 376 459
#     4  12  25  49  77 105 146 202 250 307 379 463
#     4  12  26  48  79 104 147 201 257 306 383 468
#     4  12  25  45  70 104 154 190 245 318 383 448
#     4  11  24  45  73 109 148 198 257 307 383 464
#     4  12  28  48  73 114 150 190 260 321 385 453
#
# _framework density 21.791651999999999
#
# number of rings (size 3 to 8) (size 9 to 14) (size 15 to 20)
#    0.000    0.286    4.286    4.286    6.000    0.571 
#    0.000    0.000    0.000    0.000    0.000    0.000 
#    0.000    0.000    0.000    0.000    0.000    0.000 
#
# Total GULP energy -77978.685803 kJ/mol
# GULP energy per Si atom -5569.906129 kJ/mol
# Density = 2.174205 g / cm^3
# Si number density = 21.791652 Si / 1000 Ang^3
#
#
#
# Elastic Constant Matrix: (Units=GPa)
#
#
# Indices 1 2 3 4 5 6 
#
# 1 146.5654 74.6068 64.7582 -22.8266 12.2538 -6.7752
# 2 74.6068 145.5996 39.5530 -9.1130 0.8370 8.6704
# 3 64.7582 39.5530 135.1094 -26.2468 20.1340 3.3768
# 4 -22.8266 -9.1130 -26.2468 34.1993 7.5295 -2.5908
# 5 12.2538 0.8370 20.1340 7.5295 53.2699 1.9995
# 6 -6.7752 8.6704 3.3768 -2.5908 1.9995 47.1522
#
#
#
# Elastic Compliance Matrix: (Units=1/GPa)
#
#
# Indices 1 2 3 4 5 6 
#
# 1 0.011879 -0.005154 -0.002923 0.005084 -0.002387 0.003245
# 2 -0.005154 0.009800 -0.001040 -0.002235 0.001841 -0.002669
# 3 -0.002923 -0.001040 0.011232 0.007368 -0.004582 -0.000434
# 4 0.005084 -0.002235 0.007368 0.040074 -0.009705 0.003227
# 5 -0.002387 0.001841 -0.004582 -0.009705 0.022465 -0.001839
# 6 0.003245 -0.002669 -0.000434 0.003227 -0.001839 0.022451
#
#
# Mechanical properties :
#
#
# Convention : Reuss Voigt Hill
#
# Bulk Modulus (GPa) = 68.13440 87.23448 77.68444
# Shear Modulus (GPa) = 35.45379 43.48137 39.46758
#
# Velocity S-wave (km/s) = 4.03791 4.47175 4.26036
# Velocity P-wave (km/s) = 7.28518 8.17191 7.74125
#
# Compressibility (1/GPa) = 0.01467687
#
# Stress axis : x y z
#
# Youngs Moduli (GPa) = 84.17946 102.03615 89.03418
#
# Poissons Ratio (x) = 0.52594 0.26021
# Poissons Ratio (y) = 0.43390 0.09262
# Poissons Ratio (z) = 0.24602 0.10615
#
# Static dielectric constant tensor:
#      x y z
#    x 1.692960 0.054450 0.153210 
#    y 0.054450 1.664680 -0.147320 
#    z 0.153210 -0.147320 1.723390 
# 
# From -- ./inp_files/315855.got.cif
#   From: 2010.05.17/outbox.cif.g08.bks.cpg/sg2_158_cif.got.tgz:315855.got - 2010.06.03 11:33:40.
