data_PCOD9064102
_publ_section_title
;
Structure prediction by ZEFSAII (Michael W. Deem and Ramdas Pophale) SiO2 
 PCOD9064102
Probable space group: P -1
;
_chemical_formula_sum "Si O2"
_cell_formula_units_Z 16
_cell_length_a 11.916614
_cell_length_b 14.622020
_cell_length_c 9.164555
_cell_angle_alpha 108.187141
_cell_angle_beta 46.463948
_cell_angle_gamma 137.380609
_cell_volume 719.535809
_symmetry_space_group_name_H-M "P -1"
_symmetry_group_IT_number 2
_symmetry_cell_setting 'triclinic'
loop_
_space_group_symop_operation_xyz
x,y,z
-x,-y,-z
loop_
_atom_site_type_symbol
_atom_site_label
_atom_site_fract_x
_atom_site_fract_y
_atom_site_fract_z
Si Si1 0.264671 0.377696 0.741564
Si Si2 0.040689 0.881156 0.487002
Si Si3 0.502520 0.577122 0.905289
Si Si4 0.607575 0.924808 0.250786
Si Si5 0.107566 0.644974 0.054229
Si Si6 0.992072 0.929089 0.240220
Si Si7 0.778711 0.363513 0.726346
Si Si8 0.517789 0.929694 0.654997
O O1 0.500000 0.500000 0.500000
O O2 0.328024 0.451765 0.877511
O O3 0.201786 0.235380 0.729614
O O4 0.063672 0.347283 0.829557
O O5 0.771959 0.719572 0.675222
O O6 0.090961 0.919244 0.289974
O O7 0.073062 0.000021 0.596118
O O8 0.250800 0.922065 0.395230
O O9 0.500000 0.500000 0.000000
O O10 0.391784 0.626649 0.077114
O O11 0.373023 0.777665 0.309773
O O12 0.589943 0.909272 0.431929
O O13 0.636340 0.051354 0.249768
O O14 0.820076 0.969414 0.005364
O O15 0.135484 0.640717 0.199260
O O16 0.362510 0.790269 0.829667
O O17 0.000000 0.500000 0.000000
O O18 0.000000 0.500000 0.500000
#
# Coordination Sequence:
#
# PCOD9064102 Si02
#       8
#     2   2   2   2   2   2   2   2
#     4  12  27  46  73 108 143 191 238 294 362 434
#     4  11  26  46  70 104 141 189 233 295 353 424
#     4  12  29  48  70 106 151 188 240 300 361 426
#     4  11  25  46  69 105 143 184 240 293 356 425
#     4  12  26  47  74 105 145 188 240 300 358 426
#     4  11  24  45  71 100 141 182 237 287 354 421
#     4  12  28  47  73 104 145 192 245 295 362 431
#     4  11  27  43  73 105 143 185 237 297 354 424
#
# _framework density 22.236559
#
# number of rings (size 3 to 8) (size 9 to 14) (size 15 to 20)
#    0.000    0.500    5.000    1.500   10.500    2.500 
#    0.000    0.000    0.000    0.000    0.000    0.000 
#    0.000    0.000    0.000    0.000    0.000    0.000 
#
# Total GULP energy -89539.121446 kJ/mol
# GULP energy per Si atom -5596.195090 kJ/mol
# Density = 2.218595 g / cm^3
# Si number density = 22.236559 Si / 1000 Ang^3
#
#
#
# Elastic Constant Matrix: (Units=GPa)
#
#
# Indices 1 2 3 4 5 6 
#
# 1 115.5378 16.2591 27.2413 -2.3683 25.4875 17.0489
# 2 16.2591 120.0695 14.5230 -8.3327 12.9308 7.6274
# 3 27.2413 14.5230 106.7992 -17.1745 24.4137 9.1679
# 4 -2.3683 -8.3327 -17.1745 43.4501 1.2645 -1.2128
# 5 25.4875 12.9308 24.4137 1.2645 41.7618 5.5916
# 6 17.0489 7.6274 9.1679 -1.2128 5.5916 31.5493
#
#
#
# Elastic Compliance Matrix: (Units=1/GPa)
#
#
# Indices 1 2 3 4 5 6 
#
# 1 0.010790 -0.000478 -0.001101 0.000088 -0.005198 -0.004471
# 2 -0.000478 0.008854 -0.000202 0.001618 -0.002197 -0.001372
# 3 -0.001101 -0.000202 0.011994 0.004780 -0.006214 -0.001557
# 4 0.000088 0.001618 0.004780 0.025335 -0.004099 -0.000127
# 5 -0.005198 -0.002197 -0.006214 -0.004099 0.031637 -0.000619
# 6 -0.004471 -0.001372 -0.001557 -0.000127 -0.000619 0.035001
#
#
# Mechanical properties :
#
#
# Convention : Reuss Voigt Hill
#
# Bulk Modulus (GPa) = 35.61803 50.93925 43.27864
# Shear Modulus (GPa) = 36.62134 42.31112 39.46623
#
# Velocity S-wave (km/s) = 4.06260 4.36681 4.21745
# Velocity P-wave (km/s) = 6.16919 6.95579 6.57426
#
# Compressibility (1/GPa) = 0.02807567
#
# Stress axis : x y z
#
# Youngs Moduli (GPa) = 92.67684 112.94743 83.37273
#
# Poissons Ratio (x) = 0.05400 0.09181
# Poissons Ratio (y) = 0.04431 0.01683
# Poissons Ratio (z) = 0.10206 0.02281
#
# Static dielectric constant tensor:
#      x y z
#    x 1.825870 0.014690 -0.020060 
#    y 0.014690 1.715350 -0.012040 
#    z -0.020060 -0.012040 1.778570 
# 
# From -- ./inp_files/273579.got.cif
#   From: 2010.05.17/outbox.cif.g08.bks.cpg/sg2_137_cif.got.tgz:273579.got - 2010.06.03 11:33:40.
