data_PCOD9064692
_publ_section_title
;
Structure prediction by ZEFSAII (Michael W. Deem and Ramdas Pophale) SiO2 
 PCOD9064692
Probable space group: P -1
;
_chemical_formula_sum "Si O2"
_cell_formula_units_Z 16
_cell_length_a 8.715489
_cell_length_b 5.470690
_cell_length_c 16.848700
_cell_angle_alpha 81.740121
_cell_angle_beta 126.811821
_cell_angle_gamma 90.283065
_cell_volume 633.143185
_symmetry_space_group_name_H-M "P -1"
_symmetry_group_IT_number 2
_symmetry_cell_setting 'triclinic'
loop_
_space_group_symop_operation_xyz
x,y,z
-x,-y,-z
loop_
_atom_site_type_symbol
_atom_site_label
_atom_site_fract_x
_atom_site_fract_y
_atom_site_fract_z
Si Si1 0.043805 0.717499 0.944474
Si Si2 0.624113 0.901675 0.803063
Si Si3 0.070784 0.416762 0.821800
Si Si4 0.075667 0.475139 0.649047
Si Si5 0.357260 0.039567 0.025624
Si Si6 0.172733 0.991617 0.428313
Si Si7 0.652951 0.249190 0.659321
Si Si8 0.394317 0.640550 0.624820
O O1 0.043522 0.666730 0.852429
O O2 0.852333 0.900683 0.888276
O O3 0.000000 0.500000 0.000000
O O4 0.251476 0.797705 0.022864
O O5 0.541354 0.888157 0.865817
O O6 0.557960 0.684011 0.738161
O O7 0.576592 0.135678 0.721837
O O8 0.173057 0.434688 0.768159
O O9 0.861215 0.339178 0.739524
O O10 0.188775 0.235162 0.929003
O O11 0.222607 0.525664 0.622935
O O12 0.975113 0.224257 0.611884
O O13 0.929998 0.729907 0.604858
O O14 0.500000 0.000000 0.000000
O O15 0.298732 0.943179 0.388844
O O16 0.303187 0.901848 0.547868
O O17 0.492493 0.481837 0.589779
#
# Coordination Sequence:
#
# PCOD9064692 Si02
#       8
#     2   2   2   2   2   2   2   2
#     4  12  23  45  71  98 143 196 255 307 386 443
#     4  12  26  43  71 105 146 193 255 310 383 452
#     4  11  24  46  72 100 142 197 244 312 378 459
#     4  11  28  48  79 109 155 202 253 314 392 464
#     4  12  29  44  71 106 151 200 253 316 383 466
#     4  11  27  52  76 111 156 204 249 316 397 462
#     4  11  25  45  75 109 147 196 256 313 382 455
#     4  12  28  45  77 112 148 195 259 321 378 462
#
# _framework density 25.270747
#
# number of rings (size 3 to 8) (size 9 to 14) (size 15 to 20)
#    0.000    0.500    3.750    3.000   10.500    1.000 
#    0.000    0.000    0.000    0.000    0.000    0.000 
#    0.000    0.000    0.000    0.000    0.000    0.000 
#
# Total GULP energy -89501.772437 kJ/mol
# GULP energy per Si atom -5593.860777 kJ/mol
# Density = 2.521323 g / cm^3
# Si number density = 25.270747 Si / 1000 Ang^3
#
#
#
# Elastic Constant Matrix: (Units=GPa)
#
#
# Indices 1 2 3 4 5 6 
#
# 1 121.5374 36.8706 38.6657 10.8972 -15.2805 -13.7088
# 2 36.8706 79.8500 13.4682 2.4502 4.4081 3.6415
# 3 38.6657 13.4682 85.5244 9.4527 -26.4512 6.5736
# 4 10.8972 2.4502 9.4527 43.8712 -1.4953 -7.4669
# 5 -15.2805 4.4081 -26.4512 -1.4953 35.1198 1.4596
# 6 -13.7088 3.6415 6.5736 -7.4669 1.4596 31.1158
#
#
#
# Elastic Compliance Matrix: (Units=1/GPa)
#
#
# Indices 1 2 3 4 5 6 
#
# 1 0.012410 -0.005400 -0.004477 -0.000578 0.002399 0.006794
# 2 -0.005400 0.015700 -0.001343 -0.000053 -0.005180 -0.003702
# 3 -0.004477 -0.001343 0.018752 -0.003660 0.012489 -0.007241
# 4 -0.000578 -0.000053 -0.003660 0.024772 -0.002220 0.006573
# 5 0.002399 -0.005180 0.012489 -0.002220 0.039619 -0.003367
# 6 0.006794 -0.003702 -0.007241 0.006573 -0.003367 0.038830
#
#
# Mechanical properties :
#
#
# Convention : Reuss Voigt Hill
#
# Bulk Modulus (GPa) = 40.94466 51.65786 46.30126
# Shear Modulus (GPa) = 27.67604 35.21519 31.44562
#
# Velocity S-wave (km/s) = 3.31294 3.73703 3.53136
# Velocity P-wave (km/s) = 5.55623 6.25353 5.91517
#
# Compressibility (1/GPa) = 0.02442321
#
# Stress axis : x y z
#
# Youngs Moduli (GPa) = 80.58062 63.69564 53.32872
#
# Poissons Ratio (x) = 0.34394 0.23873
# Poissons Ratio (y) = 0.43511 0.07160
# Poissons Ratio (z) = 0.36073 0.08552
#
# Static dielectric constant tensor:
#      x y z
#    x 2.013310 0.000370 -0.008690 
#    y 0.000370 2.167730 -0.005780 
#    z -0.008690 -0.005780 2.025740 
# 
# From -- ./inp_files/536420.got.cif
#   From: 2010.05.17/outbox.cif.g08.bks.cpg/sg2_269_cif.got.tgz:536420.got - 2010.06.03 11:33:40.
