data_PCOD9064745
_publ_section_title
;
Structure prediction by ZEFSAII (Michael W. Deem and Ramdas Pophale) SiO2 
 PCOD9064745
Probable space group: P -1
;
_chemical_formula_sum "Si O2"
_cell_formula_units_Z 15
_cell_length_a 9.553347
_cell_length_b 8.127449
_cell_length_c 15.546285
_cell_angle_alpha 142.346157
_cell_angle_beta 118.830635
_cell_angle_gamma 80.325005
_cell_volume 592.242820
_symmetry_space_group_name_H-M "P -1"
_symmetry_group_IT_number 2
_symmetry_cell_setting 'triclinic'
loop_
_space_group_symop_operation_xyz
x,y,z
-x,-y,-z
loop_
_atom_site_type_symbol
_atom_site_label
_atom_site_fract_x
_atom_site_fract_y
_atom_site_fract_z
Si Si1 0.868566 0.398014 0.236998
Si Si2 0.149727 0.967120 0.205416
Si Si3 0.558504 0.489897 0.110079
Si Si4 0.715037 0.451803 0.397304
Si Si5 0.000000 0.000000 0.000000
Si Si6 0.771555 0.540409 0.920544
Si Si7 0.416035 0.668158 0.377850
Si Si8 0.746120 0.160253 0.449427
O O1 0.699211 0.358175 0.114563
O O2 0.813789 0.419619 0.328258
O O3 0.050539 0.686947 0.402036
O O4 0.925380 0.145409 0.116333
O O5 0.265741 0.783360 0.187787
O O6 0.142647 0.982886 0.107282
O O7 0.197932 0.260874 0.396638
O O8 0.958548 0.754426 0.095226
O O9 0.380267 0.361361 0.056985
O O10 0.665428 0.823197 0.311527
O O11 0.500000 0.500000 0.000000
O O12 0.540986 0.495856 0.337184
O O13 0.707768 0.194696 0.352857
O O14 0.763096 0.508044 0.800944
O O15 0.358066 0.686105 0.464176
O O16 0.500000 0.000000 0.500000
#
# Coordination Sequence:
#
# PCOD9064745 Si02
#       8
#     2   2   2   2   1   2   2   2
#     4  12  27  50  78 109 154 202 253 316 378 457
#     4  11  25  45  77 106 155 199 250 302 378 453
#     4  12  27  48  73 110 151 195 253 314 376 450
#     4  12  25  48  78 112 150 200 256 321 373 452
#     4  12  26  50  72 114 148 192 256 314 380 444
#     4  11  24  46  72 109 151 204 244 304 375 458
#     4  12  22  45  75 112 152 198 249 309 380 452
#     4  12  26  47  77 113 151 196 255 310 384 453
#
# _framework density 25.327451
#
# number of rings (size 3 to 8) (size 9 to 14) (size 15 to 20)
#    0.000    0.267    5.333    2.800    1.867    1.067 
#    4.800    1.333    0.000    0.000    0.000    0.000 
#    0.000    0.000    0.000    0.000    0.000    0.000 
#
# Total GULP energy -83779.728410 kJ/mol
# GULP energy per Si atom -5585.315227 kJ/mol
# Density = 2.526980 g / cm^3
# Si number density = 25.327451 Si / 1000 Ang^3
#
#
#
# Elastic Constant Matrix: (Units=GPa)
#
#
# Indices 1 2 3 4 5 6 
#
# 1 140.6288 10.2600 24.6414 -5.5065 -17.9143 -12.9139
# 2 10.2600 59.9483 18.9988 -18.0349 -3.2411 -14.1688
# 3 24.6414 18.9988 97.8278 -18.7136 -14.3597 7.2059
# 4 -5.5065 -18.0349 -18.7136 54.1612 2.2729 -5.9139
# 5 -17.9143 -3.2411 -14.3597 2.2729 51.9972 -7.5358
# 6 -12.9139 -14.1688 7.2059 -5.9139 -7.5358 38.2432
#
#
#
# Elastic Compliance Matrix: (Units=1/GPa)
#
#
# Indices 1 2 3 4 5 6 
#
# 1 0.008162 0.000491 -0.001898 0.000650 0.002864 0.003960
# 2 0.000491 0.022611 -0.003620 0.007424 0.001810 0.010730
# 3 -0.001898 -0.003620 0.012411 0.002420 0.001925 -0.003567
# 4 0.000650 0.007424 0.002420 0.022465 0.001277 0.006240
# 5 0.002864 0.001810 0.001925 0.001277 0.021638 0.005736
# 6 0.003960 0.010730 -0.003567 0.006240 0.005736 0.034228
#
#
# Mechanical properties :
#
#
# Convention : Reuss Voigt Hill
#
# Bulk Modulus (GPa) = 30.18320 45.13393 37.65857
# Shear Modulus (GPa) = 35.05976 45.18064 40.12020
#
# Velocity S-wave (km/s) = 3.72460 4.22816 3.98434
# Velocity P-wave (km/s) = 5.51724 6.45719 6.00563
#
# Compressibility (1/GPa) = 0.03313101
#
# Stress axis : x y z
#
# Youngs Moduli (GPa) = 122.52435 44.22545 80.57153
#
# Poissons Ratio (x) = -0.02172 0.15294
# Poissons Ratio (y) = -0.06017 0.29163
# Poissons Ratio (z) = 0.23258 0.16007
#
# Static dielectric constant tensor:
#      x y z
#    x 1.461630 -0.345920 -0.104800 
#    y -0.345920 1.938670 0.043470 
#    z -0.104800 0.043470 2.037310 
# 
# From -- ./inp_files/495924.got.cif
#   From: 2010.05.17/outbox.cif.g08.bks.cpg/sg2_248_cif.got.tgz:495924.got - 2010.06.03 11:33:40.
