data_PCOD9064766
_publ_section_title
;
Structure prediction by ZEFSAII (Michael W. Deem and Ramdas Pophale) SiO2 
 PCOD9064766
Probable space group: P -1
;
_chemical_formula_sum "Si O2"
_cell_formula_units_Z 16
_cell_length_a 8.916894
_cell_length_b 8.015317
_cell_length_c 12.109453
_cell_angle_alpha 51.774128
_cell_angle_beta 100.151113
_cell_angle_gamma 89.964240
_cell_volume 662.495502
_symmetry_space_group_name_H-M "P -1"
_symmetry_group_IT_number 2
_symmetry_cell_setting 'triclinic'
loop_
_space_group_symop_operation_xyz
x,y,z
-x,-y,-z
loop_
_atom_site_type_symbol
_atom_site_label
_atom_site_fract_x
_atom_site_fract_y
_atom_site_fract_z
Si Si1 0.284381 0.982431 0.181037
Si Si2 0.532310 0.728620 0.461434
Si Si3 0.141390 0.488635 0.684564
Si Si4 0.033211 0.363444 0.950667
Si Si5 0.547481 0.403998 0.256211
Si Si6 0.276265 0.964938 0.721892
Si Si7 0.975957 0.172391 0.644344
Si Si8 0.295890 0.782432 0.031722
O O1 0.419408 0.923247 0.310450
O O2 0.337760 0.877581 0.114772
O O3 0.149625 0.874466 0.265427
O O4 0.198566 0.218406 0.049041
O O5 0.500000 0.500000 0.500000
O O6 0.507752 0.709625 0.595563
O O7 0.692861 0.808042 0.419256
O O8 0.323091 0.452533 0.746775
O O9 0.081668 0.314160 0.669092
O O10 0.050180 0.486336 0.788299
O O11 0.105483 0.705351 0.520638
O O12 0.886218 0.235262 0.974405
O O13 0.000000 0.500000 0.000000
O O14 0.638344 0.229943 0.258287
O O15 0.400453 0.552282 0.126418
O O16 0.092183 0.970446 0.699222
O O17 0.325421 0.923036 0.872437
#
# Coordination Sequence:
#
# PCOD9064766 Si02
#       8
#     2   2   2   2   2   2   2   2
#     4  12  25  48  74 101 142 188 241 298 346 427
#     4  12  27  49  72 106 143 189 246 291 358 424
#     4  11  25  44  74 104 139 188 238 290 357 418
#     4  12  27  45  71 106 145 187 236 293 358 423
#     4  12  27  47  71 107 149 187 234 298 361 427
#     4  12  28  45  71 105 147 190 236 294 365 425
#     4  11  24  46  73 102 139 184 244 296 344 423
#     4  12  26  48  72 103 150 186 239 291 358 430
#
# _framework density 24.151107
#
# number of rings (size 3 to 8) (size 9 to 14) (size 15 to 20)
#    0.000    0.250    5.000    3.375    7.000    2.000 
#    0.000    0.000    0.000    0.000    0.000    0.000 
#    0.000    0.000    0.000    0.000    0.000    0.000 
#
# Total GULP energy -89600.162877 kJ/mol
# GULP energy per Si atom -5600.010180 kJ/mol
# Density = 2.409614 g / cm^3
# Si number density = 24.151107 Si / 1000 Ang^3
#
#
#
# Elastic Constant Matrix: (Units=GPa)
#
#
# Indices 1 2 3 4 5 6 
#
# 1 69.2359 9.6297 15.9953 13.1986 -10.5223 -7.4359
# 2 9.6297 72.2858 30.2521 0.8756 -4.0580 -32.7124
# 3 15.9953 30.2521 151.3934 20.8570 -22.1031 -19.9364
# 4 13.1986 0.8756 20.8570 23.8488 -16.1348 -5.9588
# 5 -10.5223 -4.0580 -22.1031 -16.1348 51.2801 3.4157
# 6 -7.4359 -32.7124 -19.9364 -5.9588 3.4157 41.1866
#
#
#
# Elastic Compliance Matrix: (Units=1/GPa)
#
#
# Indices 1 2 3 4 5 6 
#
# 1 0.016464 -0.002008 -0.000072 -0.008648 0.000464 0.000053
# 2 -0.002008 0.023461 -0.003054 0.008475 0.001603 0.017886
# 3 -0.000072 -0.003054 0.008340 -0.006046 0.001396 0.000608
# 4 -0.008648 0.008475 -0.006046 0.065173 0.016108 0.010337
# 5 0.000464 0.001603 0.001396 0.016108 0.025241 0.002270
# 6 0.000053 0.017886 0.000608 0.010337 0.002270 0.040097
#
#
# Mechanical properties :
#
#
# Convention : Reuss Voigt Hill
#
# Bulk Modulus (GPa) = 26.31846 44.96325 35.64086
# Shear Modulus (GPa) = 24.78784 39.06564 31.92674
#
# Velocity S-wave (km/s) = 3.20717 4.02624 3.63982
# Velocity P-wave (km/s) = 4.96343 6.34603 5.69683
#
# Compressibility (1/GPa) = 0.03799614
#
# Stress axis : x y z
#
# Youngs Moduli (GPa) = 60.73818 42.62322 119.90597
#
# Poissons Ratio (x) = 0.08561 0.00865
# Poissons Ratio (y) = 0.12199 0.36619
# Poissons Ratio (z) = 0.00438 0.13017
#
# Static dielectric constant tensor:
#      x y z
#    x 1.971530 0.032090 0.000770 
#    y 0.032090 1.936920 -0.046460 
#    z 0.000770 -0.046460 1.898740 
# 
# From -- ./inp_files/187526.got.cif
#   From: 2010.05.17/outbox.cif.g08.bks.cpg/sg2_94_cif.got.tgz:187526.got - 2010.06.03 11:33:40.
