data_PCOD9064364
_publ_section_title
;
Structure prediction by ZEFSAII (Michael W. Deem and Ramdas Pophale) SiO2 
 PCOD9064364
Probable space group: P -1
;
_chemical_formula_sum "Si O2"
_cell_formula_units_Z 12
_cell_length_a 9.502284
_cell_length_b 9.212177
_cell_length_c 13.009702
_cell_angle_alpha 37.128354
_cell_angle_beta 90.296583
_cell_angle_gamma 111.127433
_cell_volume 554.837639
_symmetry_space_group_name_H-M "P -1"
_symmetry_group_IT_number 2
_symmetry_cell_setting 'triclinic'
loop_
_space_group_symop_operation_xyz
x,y,z
-x,-y,-z
loop_
_atom_site_type_symbol
_atom_site_label
_atom_site_fract_x
_atom_site_fract_y
_atom_site_fract_z
Si Si1 0.841152 0.059877 0.662155
Si Si2 0.779019 0.325706 0.702142
Si Si3 0.539285 0.526666 0.605737
Si Si4 0.688111 0.077971 0.434774
Si Si5 0.168045 0.039441 0.932742
Si Si6 0.063211 0.344046 0.020338
O O1 0.750802 0.133274 0.708761
O O2 0.761934 0.036127 0.563670
O O3 0.043281 0.346352 0.500423
O O4 0.840456 0.778541 0.852817
O O5 0.626354 0.353604 0.714548
O O6 0.809739 0.179441 0.879323
O O7 0.500000 0.500000 0.500000
O O8 0.351640 0.358102 0.755485
O O9 0.662526 0.849890 0.475315
O O10 0.500000 0.000000 0.500000
O O11 0.814816 0.412900 0.203220
O O12 0.110381 0.935062 0.875391
O O13 0.000000 0.000000 0.000000
O O14 0.000000 0.500000 0.000000
#
# Coordination Sequence:
#
# PCOD9064364 Si02
#       6
#     2   2   2   2   2   2
#     4  11  25  45  75 104 141 192 235 289 360 417
#     4  11  24  45  74 105 142 185 242 292 347 424
#     4  12  27  46  71 107 143 185 239 295 350 419
#     4  12  27  47  71 104 146 183 234 297 352 418
#     4  12  24  47  74 103 141 192 236 284 358 424
#     4  12  26  45  73 104 140 186 237 290 352 423
#
# _framework density 21.627949000000001
#
# number of rings (size 3 to 8) (size 9 to 14) (size 15 to 20)
#    0.000    0.333    3.333    5.500    4.667    2.000 
#    3.000    0.000    0.000    0.000    0.000    0.000 
#    0.000    0.000    0.000    0.000    0.000    0.000 
#
# Total GULP energy -67148.800499 kJ/mol
# GULP energy per Si atom -5595.733375 kJ/mol
# Density = 2.157872 g / cm^3
# Si number density = 21.627949 Si / 1000 Ang^3
#
#
#
# Elastic Constant Matrix: (Units=GPa)
#
#
# Indices 1 2 3 4 5 6 
#
# 1 129.2268 56.3037 50.7991 6.5703 17.7847 -1.4178
# 2 56.3037 132.5889 35.0204 7.9758 25.2540 -1.2230
# 3 50.7991 35.0204 112.8919 8.6228 27.9399 17.0318
# 4 6.5703 7.9758 8.6228 35.9786 10.1331 4.7799
# 5 17.7847 25.2540 27.9399 10.1331 48.1866 6.4903
# 6 -1.4178 -1.2230 17.0318 4.7799 6.4903 34.7602
#
#
#
# Elastic Compliance Matrix: (Units=1/GPa)
#
#
# Indices 1 2 3 4 5 6 
#
# 1 0.010956 -0.003494 -0.004171 -0.000549 -0.000008 0.002445
# 2 -0.003494 0.009955 -0.000803 -0.000561 -0.003524 0.001336
# 3 -0.004171 -0.000803 0.013039 -0.000074 -0.004820 -0.005677
# 4 -0.000549 -0.000561 -0.000074 0.029956 -0.005338 -0.003129
# 5 -0.000008 -0.003524 -0.004820 -0.005338 0.026794 -0.002031
# 6 0.002445 0.001336 -0.005677 -0.003129 -0.002031 0.032506
#
#
# Mechanical properties :
#
#
# Convention : Reuss Voigt Hill
#
# Bulk Modulus (GPa) = 58.77029 73.21710 65.99369
# Shear Modulus (GPa) = 34.29059 39.29070 36.79064
#
# Velocity S-wave (km/s) = 3.98612 4.26686 4.12888
# Velocity P-wave (km/s) = 6.95830 7.62897 7.30134
#
# Compressibility (1/GPa) = 0.01701540
#
# Stress axis : x y z
#
# Youngs Moduli (GPa) = 91.27411 100.45149 76.69313
#
# Poissons Ratio (x) = 0.35094 0.31990
# Poissons Ratio (y) = 0.31888 0.06155
# Poissons Ratio (z) = 0.38072 0.08062
#
# Static dielectric constant tensor:
#      x y z
#    x 1.946130 -0.071940 0.039950 
#    y -0.071940 1.802400 -0.020430 
#    z 0.039950 -0.020430 1.824740 
# 
# From -- ./inp_files/148621.got.cif
#   From: 2010.05.17/outbox.cif.g08.bks.cpg/sg2_75_cif.got.tgz:148621.got - 2010.06.03 11:33:40.
