data_PCOD9064110
_publ_section_title
;
Structure prediction by ZEFSAII (Michael W. Deem and Ramdas Pophale) SiO2 
 PCOD9064110
Probable space group: P -1
;
_chemical_formula_sum "Si O2"
_cell_formula_units_Z 16
_cell_length_a 11.885157
_cell_length_b 12.690102
_cell_length_c 8.591776
_cell_angle_alpha 51.362100
_cell_angle_beta 124.781837
_cell_angle_gamma 133.059474
_cell_volume 715.578588
_symmetry_space_group_name_H-M "P -1"
_symmetry_group_IT_number 2
_symmetry_cell_setting 'triclinic'
loop_
_space_group_symop_operation_xyz
x,y,z
-x,-y,-z
loop_
_atom_site_type_symbol
_atom_site_label
_atom_site_fract_x
_atom_site_fract_y
_atom_site_fract_z
Si Si1 0.057700 0.175510 0.429371
Si Si2 0.596604 0.679441 0.451865
Si Si3 0.144618 0.863948 0.408030
Si Si4 0.321535 0.232989 0.197513
Si Si5 0.142915 0.402544 0.770505
Si Si6 0.366031 0.750506 0.566209
Si Si7 0.975885 0.369439 0.978536
Si Si8 0.401342 0.840218 0.162938
O O1 0.234334 0.245564 0.570623
O O2 0.932085 0.177114 0.445152
O O3 0.000000 0.000000 0.500000
O O4 0.058769 0.275603 0.192814
O O5 0.500000 0.500000 0.500000
O O6 0.639977 0.720118 0.632048
O O7 0.481207 0.742652 0.258230
O O8 0.287044 0.829147 0.531522
O O9 0.004232 0.742694 0.296923
O O10 0.198866 0.046025 0.257051
O O11 0.485132 0.253520 0.238815
O O12 0.259456 0.339172 0.973209
O O13 0.238324 0.566404 0.601994
O O14 0.063916 0.439761 0.820801
O O15 0.420963 0.847253 0.359105
O O16 0.787893 0.248402 0.927346
O O17 0.000000 0.500000 0.000000
O O18 0.500000 0.000000 0.000000
#
# Coordination Sequence:
#
# PCOD9064110 Si02
#       8
#     2   2   2   2   2   2   2   2
#     4  12  24  45  72 103 141 188 240 294 349 423
#     4  11  24  45  71 101 144 184 235 291 358 418
#     4  12  25  46  75 103 148 190 237 300 356 421
#     4  11  25  47  69 106 142 190 238 292 354 431
#     4  12  25  48  73 107 146 190 241 293 359 428
#     4  11  26  47  72 103 146 187 235 294 364 422
#     4  12  25  44  73 106 141 186 244 292 350 427
#     4  11  26  47  71 104 143 185 239 292 357 427
#
# _framework density 22.359528999999998
#
# number of rings (size 3 to 8) (size 9 to 14) (size 15 to 20)
#    0.000    0.500    3.750    3.750    7.000    0.000 
#    4.500    0.000    0.000    0.000    0.000    0.000 
#    0.000    0.000    0.000    0.000    0.000    0.000 
#
# Total GULP energy -89518.067454 kJ/mol
# GULP energy per Si atom -5594.879216 kJ/mol
# Density = 2.230864 g / cm^3
# Si number density = 22.359529 Si / 1000 Ang^3
#
#
#
# Elastic Constant Matrix: (Units=GPa)
#
#
# Indices 1 2 3 4 5 6 
#
# 1 151.5410 17.1758 24.3840 -5.4963 12.0275 -2.3785
# 2 17.1758 127.4689 40.7762 -22.6521 6.0735 1.9685
# 3 24.3840 40.7762 127.7202 -26.8569 34.3448 21.9842
# 4 -5.4963 -22.6521 -26.8569 35.8483 0.5629 -0.0986
# 5 12.0275 6.0735 34.3448 0.5629 48.4755 10.2798
# 6 -2.3785 1.9685 21.9842 -0.0986 10.2798 52.5815
#
#
#
# Elastic Compliance Matrix: (Units=1/GPa)
#
#
# Indices 1 2 3 4 5 6 
#
# 1 0.006931 -0.000579 -0.001009 -0.000038 -0.001140 0.000980
# 2 -0.000579 0.009335 -0.002169 0.004181 0.000363 0.000468
# 3 -0.001009 -0.002169 0.013437 0.008661 -0.008261 -0.003951
# 4 -0.000038 0.004181 0.008661 0.037116 -0.006567 -0.002426
# 5 -0.001140 0.000363 -0.008261 -0.006567 0.027208 -0.001943
# 6 0.000980 0.000468 -0.003951 -0.002426 -0.001943 0.021072
#
#
# Mechanical properties :
#
#
# Convention : Reuss Voigt Hill
#
# Bulk Modulus (GPa) = 45.06296 63.48911 54.27603
# Shear Modulus (GPa) = 38.45870 49.00733 43.73301
#
# Velocity S-wave (km/s) = 4.15180 4.68673 4.42735
# Velocity P-wave (km/s) = 6.57121 7.59892 7.10368
#
# Compressibility (1/GPa) = 0.02219118
#
# Stress axis : x y z
#
# Youngs Moduli (GPa) = 144.27425 107.12028 74.41939
#
# Poissons Ratio (x) = 0.06201 0.07506
# Poissons Ratio (y) = 0.08352 0.16141
# Poissons Ratio (z) = 0.14551 0.23233
#
# Static dielectric constant tensor:
#      x y z
#    x 1.870350 0.074330 0.009430 
#    y 0.074330 1.880980 0.104480 
#    z 0.009430 0.104480 1.858880 
# 
# From -- ./inp_files/261766.got.cif
#   From: 2010.05.17/outbox.cif.g08.bks.cpg/sg2_131_cif.got.tgz:261766.got - 2010.06.03 11:33:40.
