data_PCOD9064507
_publ_section_title
;
Structure prediction by ZEFSAII (Michael W. Deem and Ramdas Pophale) SiO2 
 PCOD9064507
Probable space group: P -1
;
_chemical_formula_sum "Si O2"
_cell_formula_units_Z 16
_cell_length_a 6.404332
_cell_length_b 14.094926
_cell_length_c 15.714661
_cell_angle_alpha 139.298944
_cell_angle_beta 52.959067
_cell_angle_gamma 126.753691
_cell_volume 710.493753
_symmetry_space_group_name_H-M "P -1"
_symmetry_group_IT_number 2
_symmetry_cell_setting 'triclinic'
loop_
_space_group_symop_operation_xyz
x,y,z
-x,-y,-z
loop_
_atom_site_type_symbol
_atom_site_label
_atom_site_fract_x
_atom_site_fract_y
_atom_site_fract_z
Si Si1 0.784952 0.428518 0.619803
Si Si2 0.273693 0.106673 0.043231
Si Si3 0.936942 0.367429 0.831233
Si Si4 0.623363 0.380154 0.435812
Si Si5 0.450139 0.593142 0.918325
Si Si6 0.211710 0.804270 0.413153
Si Si7 0.300498 0.088303 0.214624
Si Si8 0.142831 0.101180 0.687164
O O1 0.620966 0.394536 0.548545
O O2 0.615945 0.476161 0.770330
O O3 0.842850 0.274333 0.534341
O O4 0.056408 0.563390 0.628803
O O5 0.495462 0.013700 0.920226
O O6 0.380697 0.251940 0.057626
O O7 0.247221 0.151916 0.178858
O O8 0.000000 0.000000 0.000000
O O9 0.936163 0.317264 0.701169
O O10 0.158711 0.525934 0.898690
O O11 0.025454 0.235341 0.772153
O O12 0.647161 0.382656 0.946518
O O13 0.500000 0.500000 0.500000
O O14 0.455380 0.218531 0.330722
O O15 0.533551 0.845321 0.342627
O O16 0.114189 0.955525 0.534108
O O17 0.027772 0.975193 0.241389
#
# Coordination Sequence:
#
# PCOD9064507 Si02
#       8
#     2   2   2   2   2   2   2   2
#     4  11  25  44  68 109 137 175 235 285 346 412
#     4  11  25  45  67 102 135 179 224 281 344 411
#     4  11  25  46  69  99 137 186 230 287 341 409
#     4  11  25  45  71 102 139 182 228 287 347 411
#     4  11  24  46  69  98 142 179 232 281 345 413
#     4  11  26  42  72 101 137 183 226 294 343 403
#     4  11  25  42  71  97 134 181 225 279 345 410
#     4  11  24  46  66 104 135 178 239 278 346 413
#
# _framework density 22.519552999999998
#
# number of rings (size 3 to 8) (size 9 to 14) (size 15 to 20)
#    0.000    1.000    2.500    2.625    7.000    5.500 
#    0.000    0.000    0.000    0.000    0.000    0.000 
#    0.000    0.000    0.000    0.000    0.000    0.000 
#
# Total GULP energy -89448.845256 kJ/mol
# GULP energy per Si atom -5590.552829 kJ/mol
# Density = 2.246830 g / cm^3
# Si number density = 22.519553 Si / 1000 Ang^3
#
#
#
# Elastic Constant Matrix: (Units=GPa)
#
#
# Indices 1 2 3 4 5 6 
#
# 1 37.7578 21.7918 26.1600 -3.1512 1.5757 0.7616
# 2 21.7918 118.1507 16.0800 6.9319 0.4169 22.1158
# 3 26.1600 16.0800 88.1300 5.4133 -3.5605 -0.3019
# 4 -3.1512 6.9319 5.4133 34.6314 10.1071 -8.1223
# 5 1.5757 0.4169 -3.5605 10.1071 36.5668 4.1914
# 6 0.7616 22.1158 -0.3019 -8.1223 4.1914 29.2444
#
#
#
# Elastic Compliance Matrix: (Units=1/GPa)
#
#
# Indices 1 2 3 4 5 6 
#
# 1 0.040121 -0.008201 -0.011349 0.011222 -0.006890 0.009144
# 2 -0.008201 0.012482 0.000702 -0.007154 0.003600 -0.011722
# 3 -0.011349 0.000702 0.015034 -0.005029 0.003563 -0.001987
# 4 0.011222 -0.007154 -0.005029 0.040571 -0.014211 0.018371
# 5 -0.006890 0.003600 0.003563 -0.014211 0.033163 -0.011207
# 6 0.009144 -0.011722 -0.001987 0.018371 -0.011207 0.049509
#
#
# Mechanical properties :
#
#
# Convention : Reuss Voigt Hill
#
# Bulk Modulus (GPa) = 33.40095 41.34468 37.37282
# Shear Modulus (GPa) = 20.95950 32.08896 26.52423
#
# Velocity S-wave (km/s) = 3.05409 3.77893 3.43568
# Velocity P-wave (km/s) = 5.22501 6.11880 5.68949
#
# Compressibility (1/GPa) = 0.02993926
#
# Stress axis : x y z
#
# Youngs Moduli (GPa) = 24.92488 80.11529 66.51723
#
# Poissons Ratio (x) = 0.65702 0.75491
# Poissons Ratio (y) = 0.20441 -0.04667
# Poissons Ratio (z) = 0.28288 -0.05621
#
# Static dielectric constant tensor:
#      x y z
#    x 1.850220 0.034090 0.009660 
#    y 0.034090 1.832330 0.023240 
#    z 0.009660 0.023240 1.927020 
# 
# From -- ./inp_files/484434.got.cif
#   From: 2010.05.17/outbox.cif.g08.bks.cpg/sg2_243_cif.got.tgz:484434.got - 2010.06.03 11:33:40.
