data_PCOD9064595
_publ_section_title
;
Structure prediction by ZEFSAII (Michael W. Deem and Ramdas Pophale) SiO2 
 PCOD9064595
Probable space group: P -1
;
_chemical_formula_sum "Si O2"
_cell_formula_units_Z 14
_cell_length_a 9.478785
_cell_length_b 9.220126
_cell_length_c 9.186907
_cell_angle_alpha 101.533372
_cell_angle_beta 125.873176
_cell_angle_gamma 82.438524
_cell_volume 637.356991
_symmetry_space_group_name_H-M "P -1"
_symmetry_group_IT_number 2
_symmetry_cell_setting 'triclinic'
loop_
_space_group_symop_operation_xyz
x,y,z
-x,-y,-z
loop_
_atom_site_type_symbol
_atom_site_label
_atom_site_fract_x
_atom_site_fract_y
_atom_site_fract_z
Si Si1 0.455405 0.112788 0.865612
Si Si2 0.149256 0.857240 0.909525
Si Si3 0.617479 0.084541 0.472737
Si Si4 0.024848 0.822785 0.142804
Si Si5 0.487037 0.607273 0.650483
Si Si6 0.247655 0.385034 0.937018
Si Si7 0.161984 0.595112 0.667639
O O1 0.357183 0.255259 0.896643
O O2 0.347715 0.029381 0.660738
O O3 0.646206 0.153131 0.931301
O O4 0.500000 0.000000 0.000000
O O5 0.115235 0.760882 0.725721
O O6 0.048262 0.800213 0.979227
O O7 0.093694 0.027854 0.885006
O O8 0.791406 0.142610 0.664573
O O9 0.511153 0.223756 0.369669
O O10 0.500000 0.000000 0.500000
O O11 0.932924 0.686445 0.137038
O O12 0.500000 0.500000 0.500000
O O13 0.310285 0.593076 0.634364
O O14 0.645601 0.573173 0.847537
O O15 0.230192 0.517518 0.840539
O O16 0.000000 0.500000 0.500000
#
# Coordination Sequence:
#
# PCOD9064595 Si02
#       7
#     2   2   2   2   2   2   2
#     4  12  22  46  72 101 140 182 239 292 354 418
#     4  11  24  46  70 101 146 182 236 291 356 418
#     4  12  26  44  74 107 139 184 239 296 349 420
#     4  11  26  43  74 106 138 185 238 298 349 412
#     4  12  29  48  71 107 145 187 241 290 356 428
#     4  12  27  47  76 102 142 195 233 297 357 420
#     4  12  29  49  71 105 146 191 237 291 358 426
#
# _framework density 21.965710999999999
#
# number of rings (size 3 to 8) (size 9 to 14) (size 15 to 20)
#    0.000    0.286    5.714    1.286   10.000    1.143 
#    0.000    0.000    0.000    0.000    0.000    0.000 
#    0.000    0.000    0.000    0.000    0.000    0.000 
#
# Total GULP energy -78445.711400 kJ/mol
# GULP energy per Si atom -5603.265100 kJ/mol
# Density = 2.191572 g / cm^3
# Si number density = 21.965711 Si / 1000 Ang^3
#
#
#
# Elastic Constant Matrix: (Units=GPa)
#
#
# Indices 1 2 3 4 5 6 
#
# 1 118.3809 34.7595 36.8690 12.4665 -13.4646 22.2027
# 2 34.7595 70.8964 15.1325 -2.2858 -18.7985 16.5292
# 3 36.8690 15.1325 135.6715 18.2984 -14.4909 -2.6268
# 4 12.4665 -2.2858 18.2984 41.6356 -5.9893 -12.3822
# 5 -13.4646 -18.7985 -14.4909 -5.9893 39.5588 3.8905
# 6 22.2027 16.5292 -2.6268 -12.3822 3.8905 35.1951
#
#
#
# Elastic Compliance Matrix: (Units=1/GPa)
#
#
# Indices 1 2 3 4 5 6 
#
# 1 0.012494 -0.003313 -0.002290 -0.005180 0.001894 -0.008528
# 2 -0.003313 0.020237 -0.000710 0.001360 0.009223 -0.008008
# 3 -0.002290 -0.000710 0.008599 -0.002507 0.001519 0.001370
# 4 -0.005180 0.001360 -0.002507 0.030848 0.001343 0.013146
# 5 0.001894 0.009223 0.001519 0.001343 0.031898 -0.008466
# 6 -0.008528 -0.008008 0.001370 0.013146 -0.008466 0.043217
#
#
# Mechanical properties :
#
#
# Convention : Reuss Voigt Hill
#
# Bulk Modulus (GPa) = 34.83917 55.38564 45.11241
# Shear Modulus (GPa) = 29.50051 39.15709 34.32880
#
# Velocity S-wave (km/s) = 3.66871 4.22672 3.95756
# Velocity P-wave (km/s) = 5.81730 7.00639 6.43935
#
# Compressibility (1/GPa) = 0.02870332
#
# Stress axis : x y z
#
# Youngs Moduli (GPa) = 80.04003 49.41324 116.29186
#
# Poissons Ratio (x) = 0.16372 0.26629
# Poissons Ratio (y) = 0.26520 0.08260
# Poissons Ratio (z) = 0.18328 0.03510
#
# Static dielectric constant tensor:
#      x y z
#    x 1.809450 0.018620 0.000390 
#    y 0.018620 1.839480 -0.002250 
#    z 0.000390 -0.002250 1.792070 
# 
# From -- ./inp_files/156595.got.cif
#   From: 2010.05.17/outbox.cif.g08.bks.cpg/sg2_79_cif.got.tgz:156595.got - 2010.06.03 11:33:40.
