data_PCOD9064900
_publ_section_title
;
Structure prediction by ZEFSAII (Michael W. Deem and Ramdas Pophale) SiO2 
 PCOD9064900
Probable space group: P -1
;
_chemical_formula_sum "Si O2"
_cell_formula_units_Z 14
_cell_length_a 18.147850
_cell_length_b 9.198221
_cell_length_c 5.523276
_cell_angle_alpha 103.098870
_cell_angle_beta 99.543310
_cell_angle_gamma 36.970972
_cell_volume 539.882462
_symmetry_space_group_name_H-M "P -1"
_symmetry_group_IT_number 2
_symmetry_cell_setting 'triclinic'
loop_
_space_group_symop_operation_xyz
x,y,z
-x,-y,-z
loop_
_atom_site_type_symbol
_atom_site_label
_atom_site_fract_x
_atom_site_fract_y
_atom_site_fract_z
Si Si1 0.399166 0.845152 0.017202
Si Si2 0.543367 0.650477 0.532570
Si Si3 0.947924 0.695136 0.243762
Si Si4 0.834232 0.619274 0.378177
Si Si5 0.751674 0.205461 0.175028
Si Si6 0.314354 0.287208 0.290479
Si Si7 0.132603 0.722311 0.030011
O O1 0.476060 0.734993 0.267814
O O2 0.337174 0.108214 0.062057
O O3 0.477238 0.697424 0.757326
O O4 0.309233 0.845491 0.997201
O O5 0.672939 0.367427 0.430973
O O6 0.575165 0.773032 0.650650
O O7 0.835310 0.783563 0.338969
O O8 0.057393 0.546932 0.429527
O O9 0.889237 0.938788 0.213408
O O10 0.000000 0.500000 0.000000
O O11 0.713777 0.750577 0.488490
O O12 0.873218 0.431696 0.145695
O O13 0.767303 0.326401 0.061334
O O14 0.195558 0.576821 0.264465
O O15 0.000000 0.000000 0.000000
#
# Coordination Sequence:
#
# PCOD9064900 Si02
#       7
#     2   2   2   2   2   2   2
#     4  12  29  52  82 112 158 207 277 326 387 470
#     4  12  28  52  80 117 155 206 272 336 390 455
#     4  11  25  48  74 114 149 204 253 317 383 484
#     4  11  24  46  75 108 152 197 259 304 393 479
#     4  12  26  49  78 112 159 203 257 328 403 449
#     4  12  27  49  79 110 154 209 256 324 400 465
#     4  12  27  46  76 116 158 198 255 319 397 478
#
# _framework density 25.931567999999999
#
# number of rings (size 3 to 8) (size 9 to 14) (size 15 to 20)
#    0.000    0.286    1.429    6.857    6.000    3.429 
#    5.143    0.000    0.000    0.000    0.000    0.000 
#    0.000    0.000    0.000    0.000    0.000    0.000 
#
# Total GULP energy -78368.570891 kJ/mol
# GULP energy per Si atom -5597.755064 kJ/mol
# Density = 2.587255 g / cm^3
# Si number density = 25.931568 Si / 1000 Ang^3
#
#
#
# Elastic Constant Matrix: (Units=GPa)
#
#
# Indices 1 2 3 4 5 6 
#
# 1 160.5401 3.2452 18.1066 -14.2385 0.8952 21.3642
# 2 3.2452 126.7815 29.1568 5.0578 -4.8632 6.6428
# 3 18.1066 29.1568 87.4568 -15.2445 9.4621 -3.2802
# 4 -14.2385 5.0578 -15.2445 34.3501 -0.9614 -0.1827
# 5 0.8952 -4.8632 9.4621 -0.9614 60.9278 -1.1326
# 6 21.3642 6.6428 -3.2802 -0.1827 -1.1326 40.3037
#
#
#
# Elastic Compliance Matrix: (Units=1/GPa)
#
#
# Indices 1 2 3 4 5 6 
#
# 1 0.007093 0.000231 -0.001297 0.002312 0.000080 -0.003891
# 2 0.000231 0.009005 -0.003753 -0.002872 0.001218 -0.001891
# 3 -0.001297 -0.003753 0.014410 0.006357 -0.002373 0.002441
# 4 0.002312 -0.002872 0.006357 0.033293 -0.000727 -0.000104
# 5 0.000080 0.001218 -0.002373 -0.000727 0.016867 0.000035
# 6 -0.003891 -0.001891 0.002441 -0.000104 0.000035 0.027385
#
#
# Mechanical properties :
#
#
# Convention : Reuss Voigt Hill
#
# Bulk Modulus (GPa) = 47.91491 52.86617 50.39054
# Shear Modulus (GPa) = 40.11274 48.73431 44.42353
#
# Velocity S-wave (km/s) = 3.93729 4.33984 4.14346
# Velocity P-wave (km/s) = 6.25997 6.74858 6.50886
#
# Compressibility (1/GPa) = 0.02087033
#
# Stress axis : x y z
#
# Youngs Moduli (GPa) = 140.98434 111.04669 69.39412
#
# Poissons Ratio (x) = -0.02571 0.09002
# Poissons Ratio (y) = -0.03264 0.26046
# Poissons Ratio (z) = 0.18289 0.41680
#
# Static dielectric constant tensor:
#      x y z
#    x 2.015400 -0.039180 -0.000210 
#    y -0.039180 2.148790 -0.020810 
#    z -0.000210 -0.020810 2.065870 
# 
# From -- ./inp_files/107206.got.cif
#   From: 2010.05.17/outbox.cif.g08.bks.cpg/sg2_54_cif.got.tgz:107206.got - 2010.06.03 11:33:40.
