data_PCOD9064713
_publ_section_title
;
Structure prediction by ZEFSAII (Michael W. Deem and Ramdas Pophale) SiO2 
 PCOD9064713
Probable space group: P -1
;
_chemical_formula_sum "Si O2"
_cell_formula_units_Z 16
_cell_length_a 9.296887
_cell_length_b 9.806841
_cell_length_c 14.044782
_cell_angle_alpha 115.464876
_cell_angle_beta 139.891053
_cell_angle_gamma 64.673501
_cell_volume 733.958456
_symmetry_space_group_name_H-M "P -1"
_symmetry_group_IT_number 2
_symmetry_cell_setting 'triclinic'
loop_
_space_group_symop_operation_xyz
x,y,z
-x,-y,-z
loop_
_atom_site_type_symbol
_atom_site_label
_atom_site_fract_x
_atom_site_fract_y
_atom_site_fract_z
Si Si1 0.184663 0.805063 0.310598
Si Si2 0.942489 0.983048 0.856202
Si Si3 0.682853 0.723560 0.606332
Si Si4 0.628930 0.532238 0.881293
Si Si5 0.641774 0.140630 0.112560
Si Si6 0.987039 0.908831 0.561440
Si Si7 0.208946 0.365118 0.575368
Si Si8 0.910296 0.513270 0.823056
O O1 0.422225 0.728140 0.452384
O O2 0.039425 0.671900 0.212165
O O3 0.154410 0.860229 0.202570
O O4 0.130095 0.964220 0.385895
O O5 0.165733 0.899788 0.884799
O O6 0.745761 0.880327 0.723571
O O7 0.000000 0.000000 0.000000
O O8 0.783009 0.705968 0.546732
O O9 0.789542 0.591337 0.692454
O O10 0.516026 0.692740 0.921120
O O11 0.432394 0.431766 0.735388
O O12 0.746031 0.556583 0.844789
O O13 0.842102 0.445053 0.022805
O O14 0.774246 0.148291 0.282549
O O15 0.500000 0.000000 0.000000
O O16 0.854383 0.769646 0.432561
O O17 0.000000 0.000000 0.500000
O O18 0.000000 0.500000 0.500000
#
# Coordination Sequence:
#
# PCOD9064713 Si02
#       8
#     2   2   2   2   2   2   2   2
#     4  11  24  47  69 104 141 187 244 301 350 439
#     4  11  26  45  72 103 145 189 246 301 370 433
#     4  12  25  44  69 106 139 186 247 298 362 426
#     4  11  24  46  72 103 148 188 245 292 373 437
#     4  11  24  48  69 102 145 188 236 308 359 441
#     4  11  26  44  71 105 137 184 242 294 370 432
#     4  12  24  47  73 100 148 186 236 306 362 437
#     4  11  27  42  73 105 143 196 239 299 364 440
#
# _framework density 21.799599000000001
#
# number of rings (size 3 to 8) (size 9 to 14) (size 15 to 20)
#    0.000    0.750    5.000    2.250    8.750    0.000 
#    2.250    1.250    0.000    0.000    0.000    0.000 
#    0.000    0.000    0.000    0.000    0.000    0.000 
#
# Total GULP energy -89373.794359 kJ/mol
# GULP energy per Si atom -5585.862147 kJ/mol
# Density = 2.174998 g / cm^3
# Si number density = 21.799599 Si / 1000 Ang^3
#
#
#
# Elastic Constant Matrix: (Units=GPa)
#
#
# Indices 1 2 3 4 5 6 
#
# 1 55.2017 30.6241 51.0145 -2.0839 4.9083 14.3089
# 2 30.6241 125.5182 55.6315 -0.9401 0.9504 20.0955
# 3 51.0145 55.6315 165.2612 -4.9062 6.4051 14.4764
# 4 -2.0839 -0.9401 -4.9062 42.1140 2.2563 -4.5412
# 5 4.9083 0.9504 6.4051 2.2563 29.3934 -4.0843
# 6 14.3089 20.0955 14.4764 -4.5412 -4.0843 36.6213
#
#
#
# Elastic Compliance Matrix: (Units=1/GPa)
#
#
# Indices 1 2 3 4 5 6 
#
# 1 0.028358 -0.002573 -0.007087 -0.000050 -0.004123 -0.007333
# 2 -0.002573 0.010226 -0.002343 -0.000582 0.000135 -0.003737
# 3 -0.007087 -0.002343 0.009033 0.000740 -0.000697 0.000498
# 4 -0.000050 -0.000582 0.000740 0.024211 -0.001594 0.002871
# 5 -0.004123 0.000135 -0.000697 -0.001594 0.035758 0.005603
# 6 -0.007333 -0.003737 0.000498 0.002871 0.005603 0.033006
#
#
# Mechanical properties :
#
#
# Convention : Reuss Voigt Hill
#
# Bulk Modulus (GPa) = 42.35445 68.94681 55.65063
# Shear Modulus (GPa) = 28.99087 35.53980 32.26533
#
# Velocity S-wave (km/s) = 3.65071 4.04207 3.85137
# Velocity P-wave (km/s) = 6.10257 7.31305 6.73506
#
# Compressibility (1/GPa) = 0.02361027
#
# Stress axis : x y z
#
# Youngs Moduli (GPa) = 35.26398 97.78762 110.70672
#
# Poissons Ratio (x) = 0.25159 0.78457
# Poissons Ratio (y) = 0.09073 0.25943
# Poissons Ratio (z) = 0.24991 0.22915
#
# Static dielectric constant tensor:
#      x y z
#    x 1.714690 0.026340 0.064090 
#    y 0.026340 1.834710 0.018390 
#    z 0.064090 0.018390 1.804720 
# 
# From -- ./inp_files/495527.got.cif
#   From: 2010.05.17/outbox.cif.g08.bks.cpg/sg2_248_cif.got.tgz:495527.got - 2010.06.03 11:33:40.
