data_PCOD9064726
_publ_section_title
;
Structure prediction by ZEFSAII (Michael W. Deem and Ramdas Pophale) SiO2 
 PCOD9064726
Probable space group: P -1
;
_chemical_formula_sum "Si O2"
_cell_formula_units_Z 11
_cell_length_a 8.646288
_cell_length_b 8.771752
_cell_length_c 9.837468
_cell_angle_alpha 51.462243
_cell_angle_beta 83.638860
_cell_angle_gamma 115.192889
_cell_volume 447.413059
_symmetry_space_group_name_H-M "P -1"
_symmetry_group_IT_number 2
_symmetry_cell_setting 'triclinic'
loop_
_space_group_symop_operation_xyz
x,y,z
-x,-y,-z
loop_
_atom_site_type_symbol
_atom_site_label
_atom_site_fract_x
_atom_site_fract_y
_atom_site_fract_z
Si Si1 0.500000 0.500000 0.500000
Si Si2 0.719395 0.804311 0.843611
Si Si3 0.974088 0.660008 0.818438
Si Si4 0.917922 0.607670 0.540741
Si Si5 0.528983 0.792334 0.143846
Si Si6 0.417022 0.151985 0.450222
O O1 0.659850 0.798230 0.245385
O O2 0.527447 0.369566 0.431486
O O3 0.801603 0.655283 0.899501
O O4 0.597881 0.761930 0.743843
O O5 0.596197 0.763348 0.010604
O O6 0.923901 0.096550 0.661012
O O7 0.917980 0.553459 0.729559
O O8 0.182530 0.941458 0.629612
O O9 0.000000 0.500000 0.000000
O O10 0.679672 0.466857 0.619305
O O11 0.000000 0.500000 0.500000
O O12 0.500000 0.000000 0.000000
O O13 0.500000 0.000000 0.500000
#
# Coordination Sequence:
#
# PCOD9064726 Si02
#       6
#     1   2   2   2   2   2
#     4  12  28  44  76 114 150 192 258 316 370 468
#     4  11  25  51  74 106 153 200 247 312 385 450
#     4  11  27  46  72 107 148 198 251 308 376 454
#     4  11  24  46  72 105 149 192 247 311 372 454
#     4  12  26  46  78 112 149 201 254 311 393 454
#     4  11  26  49  76 111 153 196 255 316 388 456
#
# _framework density 24.585781999999998
#
# number of rings (size 3 to 8) (size 9 to 14) (size 15 to 20)
#    0.000    0.727    1.818    5.455   10.182    1.455 
#    0.000    2.727    0.000    0.000    0.000    0.000 
#    0.000    0.000    0.000    0.000    0.000    0.000 
#
# Total GULP energy -61363.166570 kJ/mol
# GULP energy per Si atom -5578.469688 kJ/mol
# Density = 2.452982 g / cm^3
# Si number density = 24.585782 Si / 1000 Ang^3
#
#
#
# Elastic Constant Matrix: (Units=GPa)
#
#
# Indices 1 2 3 4 5 6 
#
# 1 171.6854 81.2457 70.5771 21.8961 1.8302 -54.6711
# 2 81.2457 151.7874 70.5240 40.0192 -3.8231 -25.9695
# 3 70.5771 70.5240 179.8843 27.2805 0.8728 -20.1538
# 4 21.8961 40.0192 27.2805 60.0572 7.5904 -9.5370
# 5 1.8302 -3.8231 0.8728 7.5904 64.6470 -5.8579
# 6 -54.6711 -25.9695 -20.1538 -9.5370 -5.8579 57.1843
#
#
#
# Elastic Compliance Matrix: (Units=1/GPa)
#
#
# Indices 1 2 3 4 5 6 
#
# 1 0.010914 -0.003672 -0.002028 0.000667 0.000164 0.008180
# 2 -0.003672 0.010907 -0.002059 -0.005170 0.001384 -0.000003
# 3 -0.002028 -0.002059 0.007298 -0.001279 -0.000060 -0.000521
# 4 0.000667 -0.005170 -0.001279 0.020939 -0.002670 0.001058
# 5 0.000164 0.001384 -0.000060 -0.002670 0.016038 0.001962
# 6 0.008180 -0.000003 -0.000521 0.001058 0.001962 0.025500
#
#
# Mechanical properties :
#
#
# Convention : Reuss Voigt Hill
#
# Bulk Modulus (GPa) = 73.51755 105.33895 89.42825
# Shear Modulus (GPa) = 44.78416 55.11171 49.94793
#
# Velocity S-wave (km/s) = 4.27259 4.73970 4.51219
# Velocity P-wave (km/s) = 7.36936 8.53765 7.97493
#
# Compressibility (1/GPa) = 0.01360219
#
# Stress axis : x y z
#
# Youngs Moduli (GPa) = 91.62687 91.68155 137.02789
#
# Poissons Ratio (x) = 0.33662 0.27789
# Poissons Ratio (y) = 0.33642 0.28210
# Poissons Ratio (z) = 0.18582 0.18874
#
# Static dielectric constant tensor:
#      x y z
#    x 2.524290 -0.014300 0.507160 
#    y -0.014300 1.817080 -0.001120 
#    z 0.507160 -0.001120 2.264010 
# 
# From -- ./inp_files/152719.got.cif
#   From: 2010.05.17/outbox.cif.g08.bks.cpg/sg2_77_cif.got.tgz:152719.got - 2010.06.03 11:33:40.
