data_PCOD9064533
_publ_section_title
;
Structure prediction by ZEFSAII (Michael W. Deem and Ramdas Pophale) SiO2 
 PCOD9064533
Probable space group: P -1
;
_chemical_formula_sum "Si O2"
_cell_formula_units_Z 16
_cell_length_a 11.452868
_cell_length_b 9.207097
_cell_length_c 14.678064
_cell_angle_alpha 70.829211
_cell_angle_beta 53.014409
_cell_angle_gamma 115.134453
_cell_volume 660.282928
_symmetry_space_group_name_H-M "P -1"
_symmetry_group_IT_number 2
_symmetry_cell_setting 'triclinic'
loop_
_space_group_symop_operation_xyz
x,y,z
-x,-y,-z
loop_
_atom_site_type_symbol
_atom_site_label
_atom_site_fract_x
_atom_site_fract_y
_atom_site_fract_z
Si Si1 0.453613 0.492900 0.128495
Si Si2 0.474988 0.128430 0.422213
Si Si3 0.300305 0.590105 0.911218
Si Si4 0.046412 0.898538 0.155617
Si Si5 0.971307 0.289049 0.435103
Si Si6 0.071028 0.410012 0.560232
Si Si7 0.219234 0.027068 0.722726
Si Si8 0.641800 0.016363 0.150616
O O1 0.481694 0.352499 0.193684
O O2 0.190641 0.357861 0.292633
O O3 0.500000 0.500000 0.000000
O O4 0.687507 0.798124 0.993882
O O5 0.405104 0.199120 0.513204
O O6 0.254289 0.913676 0.492810
O O7 0.500000 0.000000 0.500000
O O8 0.717712 0.381391 0.193223
O O9 0.345907 0.788865 0.900519
O O10 0.038400 0.281679 0.129380
O O11 0.915010 0.697883 0.342836
O O12 0.139513 0.868015 0.038625
O O13 0.866125 0.884101 0.215346
O O14 0.918351 0.216899 0.583287
O O15 0.046610 0.535826 0.352858
O O16 0.355543 0.702818 0.329463
O O17 0.323511 0.009395 0.756633
#
# Coordination Sequence:
#
# PCOD9064533 Si02
#       8
#     2   2   2   2   2   2   2   2
#     4  11  26  46  71 108 145 188 242 292 367 424
#     4  12  25  45  74 106 140 188 240 288 363 427
#     4  11  26  45  75 105 146 187 238 304 351 424
#     4  11  27  44  73 103 145 193 240 297 359 429
#     4  11  24  46  68 104 146 184 235 298 354 430
#     4  11  26  45  70 105 144 188 241 291 367 425
#     4  11  26  46  71 110 143 192 246 293 364 420
#     4  12  24  48  72 106 147 190 242 295 359 429
#
# _framework density 24.232036999999998
#
# number of rings (size 3 to 8) (size 9 to 14) (size 15 to 20)
#    0.000    0.750    3.750    2.250    7.000    2.500 
#    0.000    0.000    0.000    0.000    0.000    0.000 
#    0.000    0.000    0.000    0.000    0.000    0.000 
#
# Total GULP energy -89558.353651 kJ/mol
# GULP energy per Si atom -5597.397103 kJ/mol
# Density = 2.417688 g / cm^3
# Si number density = 24.232037 Si / 1000 Ang^3
#
#
#
# Elastic Constant Matrix: (Units=GPa)
#
#
# Indices 1 2 3 4 5 6 
#
# 1 92.5784 17.5638 0.4179 0.6578 -2.7258 -12.8236
# 2 17.5638 98.3665 28.3900 22.1272 -12.7022 -8.6430
# 3 0.4179 28.3900 58.8113 16.1203 9.0392 -14.6364
# 4 0.6578 22.1272 16.1203 46.4227 -1.7115 -3.1117
# 5 -2.7258 -12.7022 9.0392 -1.7115 39.6405 2.3620
# 6 -12.8236 -8.6430 -14.6364 -3.1117 2.3620 49.7568
#
#
#
# Elastic Compliance Matrix: (Units=1/GPa)
#
#
# Indices 1 2 3 4 5 6 
#
# 1 0.011699 -0.002563 0.001878 0.000595 -0.000610 0.003189
# 2 -0.002563 0.014204 -0.006746 -0.004227 0.005774 -0.000716
# 3 0.001878 -0.006746 0.024590 -0.005211 -0.008258 0.006612
# 4 0.000595 -0.004227 -0.005211 0.025355 0.001004 -0.000576
# 5 -0.000610 0.005774 -0.008258 0.001004 0.029134 -0.002904
# 6 0.003189 -0.000716 0.006612 -0.000576 -0.002904 0.022842
#
#
# Mechanical properties :
#
#
# Convention : Reuss Voigt Hill
#
# Bulk Modulus (GPa) = 28.06490 38.05553 33.06022
# Shear Modulus (GPa) = 32.34928 40.72297 36.53612
#
# Velocity S-wave (km/s) = 3.65770 4.10389 3.88720
# Velocity P-wave (km/s) = 5.42635 6.18018 5.81549
#
# Compressibility (1/GPa) = 0.03563170
#
# Stress axis : x y z
#
# Youngs Moduli (GPa) = 85.47735 70.40243 40.66736
#
# Poissons Ratio (x) = 0.18047 -0.07639
# Poissons Ratio (y) = 0.21912 0.27432
# Poissons Ratio (z) = -0.16057 0.47490
#
# Static dielectric constant tensor:
#      x y z
#    x 1.931980 -0.001300 -0.039640 
#    y -0.001300 1.933090 -0.030080 
#    z -0.039640 -0.030080 1.979890 
# 
# From -- ./inp_files/515338.got.cif
#   From: 2010.05.17/outbox.cif.g08.bks.cpg/sg2_258_cif.got.tgz:515338.got - 2010.06.03 11:33:40.
