data_PCOD9064424
_publ_section_title
;
Structure prediction by ZEFSAII (Michael W. Deem and Ramdas Pophale) SiO2 
 PCOD9064424
Probable space group: P -1
;
_chemical_formula_sum "Si O2"
_cell_formula_units_Z 13
_cell_length_a 9.942241
_cell_length_b 9.092766
_cell_length_c 12.151644
_cell_angle_alpha 127.653301
_cell_angle_beta 57.815136
_cell_angle_gamma 87.493071
_cell_volume 614.323841
_symmetry_space_group_name_H-M "P -1"
_symmetry_group_IT_number 2
_symmetry_cell_setting 'triclinic'
loop_
_space_group_symop_operation_xyz
x,y,z
-x,-y,-z
loop_
_atom_site_type_symbol
_atom_site_label
_atom_site_fract_x
_atom_site_fract_y
_atom_site_fract_z
Si Si1 0.310121 0.337445 0.757850
Si Si2 0.412675 0.027688 0.931892
Si Si3 0.992300 0.139544 0.172382
Si Si4 0.033497 0.175231 0.797113
Si Si5 0.372357 0.398870 0.510226
Si Si6 0.000000 0.000000 0.500000
Si Si7 0.451932 0.737028 0.168854
O O1 0.208103 0.203709 0.755852
O O2 0.371388 0.316919 0.595574
O O3 0.477048 0.267612 0.740221
O O4 0.150176 0.598346 0.970859
O O5 0.535929 0.799866 0.706588
O O6 0.429722 0.202727 0.933679
O O7 0.500000 0.000000 0.000000
O O8 0.199062 0.095286 0.071557
O O9 0.837433 0.398989 0.339994
O O10 0.941877 0.037430 0.249213
O O11 0.000000 0.000000 0.000000
O O12 0.001126 0.148183 0.671784
O O13 0.500000 0.500000 0.500000
O O14 0.773986 0.093845 0.665430
O O15 0.500000 0.500000 0.000000
#
# Coordination Sequence:
#
# PCOD9064424 Si02
#       7
#     2   2   2   2   2   1   2
#     4  11  25  46  74 107 146 189 250 299 364 431
#     4  12  29  49  73 111 150 191 247 305 372 439
#     4  12  24  47  78 105 146 193 243 301 365 437
#     4  11  24  45  75 108 144 190 241 303 358 449
#     4  12  27  46  76 109 146 195 247 300 366 438
#     4  12  26  44  70 106 144 184 244 286 376 424
#     4  12  28  47  76 107 150 195 242 311 367 432
#
# _framework density 21.161477000000001
#
# number of rings (size 3 to 8) (size 9 to 14) (size 15 to 20)
#    0.000    0.308    4.615    2.769    6.462    3.077 
#    0.000    0.000    0.000    0.000    0.000    0.000 
#    0.000    0.000    0.000    0.000    0.000    0.000 
#
# Total GULP energy -72558.363540 kJ/mol
# GULP energy per Si atom -5581.412580 kJ/mol
# Density = 2.111331 g / cm^3
# Si number density = 21.161477 Si / 1000 Ang^3
#
#
#
# Elastic Constant Matrix: (Units=GPa)
#
#
# Indices 1 2 3 4 5 6 
#
# 1 169.4004 45.9669 46.5174 -7.1058 1.3379 11.5867
# 2 45.9669 118.7042 38.2406 -3.3486 -0.0006 12.3166
# 3 46.5174 38.2406 107.7718 -10.2855 23.7425 -1.2378
# 4 -7.1058 -3.3486 -10.2855 27.1882 5.7821 -0.9062
# 5 1.3379 -0.0006 23.7425 5.7821 43.7422 -4.1708
# 6 11.5867 12.3166 -1.2378 -0.9062 -4.1708 28.4450
#
#
#
# Elastic Compliance Matrix: (Units=1/GPa)
#
#
# Indices 1 2 3 4 5 6 
#
# 1 0.007276 -0.001693 -0.002754 0.000362 0.001016 -0.002190
# 2 -0.001693 0.010593 -0.003549 -0.000979 0.001743 -0.003827
# 3 -0.002754 -0.003549 0.014122 0.005996 -0.008158 0.002268
# 4 0.000362 -0.000979 0.005996 0.040874 -0.008614 0.000576
# 5 0.001016 0.001743 -0.008158 -0.008614 0.028625 0.002399
# 6 -0.002190 -0.003827 0.002268 0.000576 0.002399 0.038174
#
#
# Mechanical properties :
#
#
# Convention : Reuss Voigt Hill
#
# Bulk Modulus (GPa) = 62.50543 73.03625 67.77084
# Shear Modulus (GPa) = 31.05792 37.55185 34.30489
#
# Velocity S-wave (km/s) = 3.83517 4.21710 4.03066
# Velocity P-wave (km/s) = 7.01518 7.63548 7.33190
#
# Compressibility (1/GPa) = 0.01599861
#
# Stress axis : x y z
#
# Youngs Moduli (GPa) = 137.44275 94.40457 70.80911
#
# Poissons Ratio (x) = 0.15980 0.19502
# Poissons Ratio (y) = 0.23266 0.25132
# Poissons Ratio (z) = 0.37853 0.33507
#
# Static dielectric constant tensor:
#      x y z
#    x 1.737460 -0.006550 -0.036420 
#    y -0.006550 1.785850 -0.032050 
#    z -0.036420 -0.032050 1.793160 
# 
# From -- ./inp_files/156471.got.cif
#   From: 2010.05.17/outbox.cif.g08.bks.cpg/sg2_79_cif.got.tgz:156471.got - 2010.06.03 11:33:40.
