data_PCOD9064428
_publ_section_title
;
Structure prediction by ZEFSAII (Michael W. Deem and Ramdas Pophale) SiO2 
 PCOD9064428
Probable space group: P -1
;
_chemical_formula_sum "Si O2"
_cell_formula_units_Z 15
_cell_length_a 11.839236
_cell_length_b 17.751176
_cell_length_c 8.515088
_cell_angle_alpha 137.490906
_cell_angle_beta 50.464192
_cell_angle_gamma 149.931540
_cell_volume 605.846099
_symmetry_space_group_name_H-M "P -1"
_symmetry_group_IT_number 2
_symmetry_cell_setting 'triclinic'
loop_
_space_group_symop_operation_xyz
x,y,z
-x,-y,-z
loop_
_atom_site_type_symbol
_atom_site_label
_atom_site_fract_x
_atom_site_fract_y
_atom_site_fract_z
Si Si1 0.517863 0.127691 0.593330
Si Si2 0.792147 0.458221 0.068707
Si Si3 0.381471 0.204856 0.268023
Si Si4 0.000000 0.500000 0.500000
Si Si5 0.886142 0.052300 0.167498
Si Si6 0.785971 0.616766 0.799591
Si Si7 0.741267 0.657406 0.243960
Si Si8 0.613491 0.177685 0.232136
O O1 0.656427 0.301170 0.826695
O O2 0.636138 0.186106 0.412641
O O3 0.500000 0.000000 0.500000
O O4 0.258957 0.013755 0.649508
O O5 0.615910 0.377511 0.243922
O O6 0.821704 0.594984 0.170760
O O7 0.000000 0.500000 0.000000
O O8 0.228375 0.218636 0.479324
O O9 0.444422 0.174012 0.319770
O O10 0.277270 0.059758 0.010422
O O11 0.157801 0.479273 0.362428
O O12 0.130489 0.640940 0.751133
O O13 0.053393 0.246433 0.270725
O O14 0.000000 0.000000 0.000000
O O15 0.530681 0.497351 0.788624
O O16 0.836547 0.711523 0.064818
O O17 0.500000 0.000000 0.000000
#
# Coordination Sequence:
#
# PCOD9064428 Si02
#       8
#     2   2   2   1   2   2   2   2
#     4  11  25  48  71 102 149 198 244 317 383 441
#     4  11  26  46  73 109 146 196 254 307 386 464
#     4  11  25  46  69 107 148 191 248 320 375 451
#     4  12  24  44  78 110 146 204 248 314 392 452
#     4  11  26  48  73 102 150 202 249 307 391 462
#     4  11  24  45  75 109 144 195 254 305 386 464
#     4  11  25  44  72 107 148 187 242 321 377 450
#     4  12  26  47  77 111 156 195 262 323 376 461
#
# _framework density 24.758761
#
# number of rings (size 3 to 8) (size 9 to 14) (size 15 to 20)
#    0.000    0.800    1.333    6.000    7.467    2.667 
#    4.800    0.000    0.000    0.000    0.000    0.000 
#    0.000    0.000    0.000    0.000    0.000    0.000 
#
# Total GULP energy -83682.663653 kJ/mol
# GULP energy per Si atom -5578.844244 kJ/mol
# Density = 2.470241 g / cm^3
# Si number density = 24.758761 Si / 1000 Ang^3
#
#
#
# Elastic Constant Matrix: (Units=GPa)
#
#
# Indices 1 2 3 4 5 6 
#
# 1 118.4679 4.0691 8.3778 -0.6177 -32.9875 4.2166
# 2 4.0691 42.0031 -5.8164 -5.8776 -6.8465 5.0498
# 3 8.3778 -5.8164 112.1302 2.2619 -14.4364 -1.1784
# 4 -0.6177 -5.8776 2.2619 43.1138 2.5793 2.9962
# 5 -32.9875 -6.8465 -14.4364 2.5793 48.6047 -1.8326
# 6 4.2166 5.0498 -1.1784 2.9962 -1.8326 36.3612
#
#
#
# Elastic Compliance Matrix: (Units=1/GPa)
#
#
# Indices 1 2 3 4 5 6 
#
# 1 0.010441 0.000250 0.000147 -0.000191 0.007143 -0.000865
# 2 0.000250 0.025578 0.001712 0.003414 0.003964 -0.003607
# 3 0.000147 0.001712 0.009416 -0.000466 0.003172 0.000249
# 4 -0.000191 0.003414 -0.000466 0.023924 -0.001151 -0.002496
# 5 0.007143 0.003964 0.003172 -0.001151 0.026990 0.000179
# 6 -0.000865 -0.003607 0.000249 -0.002496 0.000179 0.028326
#
#
# Mechanical properties :
#
#
# Convention : Reuss Voigt Hill
#
# Bulk Modulus (GPa) = 20.13941 31.76247 25.95094
# Shear Modulus (GPa) = 36.49427 43.34733 39.92080
#
# Velocity S-wave (km/s) = 3.84343 4.18878 4.01982
# Velocity P-wave (km/s) = 5.27710 6.02089 5.66123
#
# Compressibility (1/GPa) = 0.04965389
#
# Stress axis : x y z
#
# Youngs Moduli (GPa) = 95.77876 39.09587 106.19807
#
# Poissons Ratio (x) = -0.00979 -0.01564
# Poissons Ratio (y) = -0.02398 -0.18177
# Poissons Ratio (z) = -0.01410 -0.06692
#
# Static dielectric constant tensor:
#      x y z
#    x 2.005640 0.049150 0.087530 
#    y 0.049150 1.843390 0.017580 
#    z 0.087530 0.017580 1.985360 
# 
# From -- ./inp_files/280084.got.cif
#   From: 2010.05.17/outbox.cif.g08.bks.cpg/sg2_141_cif.got.tgz:280084.got - 2010.06.03 11:33:40.
