data_PCOD9064011
_publ_section_title
;
Structure prediction by ZEFSAII (Michael W. Deem and Ramdas Pophale) SiO2 
 PCOD9064011
Probable space group: P -1
;
_chemical_formula_sum "Si O2"
_cell_formula_units_Z 14
_cell_length_a 9.986225
_cell_length_b 22.907817
_cell_length_c 8.251323
_cell_angle_alpha 134.950531
_cell_angle_beta 45.505323
_cell_angle_gamma 151.706494
_cell_volume 615.496731
_symmetry_space_group_name_H-M "P -1"
_symmetry_group_IT_number 2
_symmetry_cell_setting 'triclinic'
loop_
_space_group_symop_operation_xyz
x,y,z
-x,-y,-z
loop_
_atom_site_type_symbol
_atom_site_label
_atom_site_fract_x
_atom_site_fract_y
_atom_site_fract_z
Si Si1 0.005998 0.902495 0.008231
Si Si2 0.326107 0.620727 0.524826
Si Si3 0.115939 0.828868 0.458348
Si Si4 0.476317 0.451504 0.599616
Si Si5 0.580207 0.158764 0.190342
Si Si6 0.370585 0.063912 0.552854
Si Si7 0.774500 0.690118 0.031312
O O1 0.841018 0.933900 0.209871
O O2 0.835178 0.785442 0.044620
O O3 0.329275 0.026160 0.046812
O O4 0.019095 0.859349 0.743058
O O5 0.360662 0.581881 0.586424
O O6 0.413386 0.745294 0.690967
O O7 0.555853 0.651084 0.274170
O O8 0.000000 0.500000 0.500000
O O9 0.379073 0.866256 0.388596
O O10 0.860168 0.681074 0.345032
O O11 0.203079 0.920523 0.421528
O O12 0.500000 0.500000 0.500000
O O13 0.617446 0.562450 0.822180
O O14 0.495300 0.124669 0.387240
O O15 0.906130 0.234950 0.045805
#
# Coordination Sequence:
#
# PCOD9064011 Si02
#       7
#     2   2   2   2   2   2   2
#     4  12  24  43  73 106 142 192 238 296 362 422
#     4  12  28  50  76 106 141 190 249 299 358 434
#     4  11  26  45  68 104 150 191 236 297 363 425
#     4  12  25  49  73 103 151 191 236 297 365 431
#     4  12  25  45  74 106 143 186 246 299 357 424
#     4  11  24  45  69 105 144 189 243 298 355 426
#     4  12  26  47  74 105 146 192 241 299 364 428
#
# _framework density 22.745857000000001
#
# number of rings (size 3 to 8) (size 9 to 14) (size 15 to 20)
#    0.000    0.286    5.714    2.571    2.000    1.143 
#    2.571    1.429    0.000    0.000    0.000    0.000 
#    0.000    0.000    0.000    0.000    0.000    0.000 
#
# Total GULP energy -78456.273634 kJ/mol
# GULP energy per Si atom -5604.019545 kJ/mol
# Density = 2.269409 g / cm^3
# Si number density = 22.745857 Si / 1000 Ang^3
#
#
#
# Elastic Constant Matrix: (Units=GPa)
#
#
# Indices 1 2 3 4 5 6 
#
# 1 140.5579 61.7875 47.8411 -2.6272 -27.3611 -20.0370
# 2 61.7875 173.5173 40.3733 16.3841 -7.1372 5.9062
# 3 47.8411 40.3733 92.2426 -15.2900 -9.1670 15.7886
# 4 -2.6272 16.3841 -15.2900 46.4339 3.6720 -4.9051
# 5 -27.3611 -7.1372 -9.1670 3.6720 31.9510 -1.8674
# 6 -20.0370 5.9062 15.7886 -4.9051 -1.8674 55.7633
#
#
#
# Elastic Compliance Matrix: (Units=1/GPa)
#
#
# Indices 1 2 3 4 5 6 
#
# 1 0.013380 -0.003272 -0.005780 0.000010 0.009483 0.007109
# 2 -0.003272 0.007787 -0.002162 -0.003723 -0.001358 -0.001762
# 3 -0.005780 -0.002162 0.016558 0.005373 -0.001657 -0.006119
# 4 0.000010 -0.003723 0.005373 0.024889 -0.002084 0.000996
# 5 0.009483 -0.001358 -0.001657 -0.002084 0.039180 0.005149
# 6 0.007109 -0.001762 -0.006119 0.000996 0.005149 0.022667
#
#
# Mechanical properties :
#
#
# Convention : Reuss Voigt Hill
#
# Bulk Modulus (GPa) = 65.37262 78.48018 71.92640
# Shear Modulus (GPa) = 32.89724 43.91737 38.40731
#
# Velocity S-wave (km/s) = 3.80715 4.39884 4.11364
# Velocity P-wave (km/s) = 6.93748 7.77031 7.36567
#
# Compressibility (1/GPa) = 0.01529692
#
# Stress axis : x y z
#
# Youngs Moduli (GPa) = 74.73903 128.41910 60.39334
#
# Poissons Ratio (x) = 0.42024 0.34907
# Poissons Ratio (y) = 0.24457 0.13055
# Poissons Ratio (z) = 0.43199 0.27760
#
# Static dielectric constant tensor:
#      x y z
#    x 1.888860 -0.022540 0.031120 
#    y -0.022540 1.843740 -0.023540 
#    z 0.031120 -0.023540 1.823850 
# 
# From -- ./inp_files/224008.got.cif
#   From: 2010.05.17/outbox.cif.g08.bks.cpg/sg2_113_cif.got.tgz:224008.got - 2010.06.03 11:33:40.
