data_PCOD9064453
_publ_section_title
;
Structure prediction by ZEFSAII (Michael W. Deem and Ramdas Pophale) SiO2 
 PCOD9064453
Probable space group: P -1
;
_chemical_formula_sum "Si O2"
_cell_formula_units_Z 12
_cell_length_a 5.708635
_cell_length_b 6.875686
_cell_length_c 17.172610
_cell_angle_alpha 129.346756
_cell_angle_beta 95.190459
_cell_angle_gamma 67.884255
_cell_volume 472.450140
_symmetry_space_group_name_H-M "P -1"
_symmetry_group_IT_number 2
_symmetry_cell_setting 'triclinic'
loop_
_space_group_symop_operation_xyz
x,y,z
-x,-y,-z
loop_
_atom_site_type_symbol
_atom_site_label
_atom_site_fract_x
_atom_site_fract_y
_atom_site_fract_z
Si Si1 0.194777 0.553735 0.078337
Si Si2 0.746265 0.067029 0.953748
Si Si3 0.490856 0.796025 0.377261
Si Si4 0.667821 0.719483 0.741789
Si Si5 0.969348 0.752803 0.615149
Si Si6 0.776650 0.879114 0.270217
O O1 0.230526 0.786504 0.087845
O O2 0.530528 0.706763 0.965894
O O3 0.033379 0.693547 0.184950
O O4 0.000000 0.500000 0.000000
O O5 0.722171 0.799154 0.849729
O O6 0.000000 0.000000 0.000000
O O7 0.423931 0.533919 0.328552
O O8 0.500000 0.000000 0.500000
O O9 0.264319 0.991072 0.363907
O O10 0.725857 0.732133 0.306742
O O11 0.903384 0.679939 0.680174
O O12 0.441669 0.999740 0.771321
O O13 0.000000 0.500000 0.500000
O O14 0.204584 0.837820 0.632502
#
# Coordination Sequence:
#
# PCOD9064453 Si02
#       6
#     2   2   2   2   2   2
#     4  11  24  51  78 109 166 208 267 336 406 473
#     4  11  26  50  81 116 158 215 276 335 402 487
#     4  11  26  46  76 116 155 204 270 333 400 487
#     4  11  24  49  75 112 158 207 266 332 404 481
#     4  11  24  45  76 107 156 206 256 332 412 475
#     4  11  24  48  76 109 158 210 258 331 410 470
#
# _framework density 25.399508000000001
#
# number of rings (size 3 to 8) (size 9 to 14) (size 15 to 20)
#    0.000    1.000    3.333    2.000    0.000    8.667 
#    6.000    0.833    0.000    0.000    0.000    0.000 
#    0.000    0.000    0.000    0.000    0.000    0.000 
#
# Total GULP energy -67063.182505 kJ/mol
# GULP energy per Si atom -5588.598542 kJ/mol
# Density = 2.534170 g / cm^3
# Si number density = 25.399508 Si / 1000 Ang^3
#
#
#
# Elastic Constant Matrix: (Units=GPa)
#
#
# Indices 1 2 3 4 5 6 
#
# 1 108.6379 37.8061 51.8247 -13.5500 15.4733 -27.6010
# 2 37.8061 173.5396 51.9758 -8.1367 7.6816 -8.3398
# 3 51.8247 51.9758 169.2469 6.3071 20.4771 0.3741
# 4 -13.5500 -8.1367 6.3071 44.2841 11.6940 3.0680
# 5 15.4733 7.6816 20.4771 11.6940 50.9894 -3.5296
# 6 -27.6010 -8.3398 0.3741 3.0680 -3.5296 54.3408
#
#
#
# Elastic Compliance Matrix: (Units=1/GPa)
#
#
# Indices 1 2 3 4 5 6 
#
# 1 0.014211 -0.001269 -0.003764 0.005074 -0.003320 0.006547
# 2 -0.001269 0.006610 -0.001662 0.001087 -0.000171 0.000309
# 3 -0.003764 -0.001662 0.007826 -0.002040 -0.001435 -0.002199
# 4 0.005074 0.001087 -0.002040 0.026384 -0.006878 0.000822
# 5 -0.003320 -0.000171 -0.001435 -0.006878 0.022810 0.000167
# 6 0.006547 0.000309 -0.002199 0.000822 0.000167 0.021755
#
#
# Mechanical properties :
#
#
# Convention : Reuss Voigt Hill
#
# Bulk Modulus (GPa) = 65.54046 81.62643 73.58344
# Shear Modulus (GPa) = 42.34737 50.57738 46.46237
#
# Velocity S-wave (km/s) = 4.08763 4.46721 4.28163
# Velocity P-wave (km/s) = 6.93816 7.66908 7.31276
#
# Compressibility (1/GPa) = 0.01525775
#
# Stress axis : x y z
#
# Youngs Moduli (GPa) = 70.36684 151.28752 127.78283
#
# Poissons Ratio (x) = 0.19201 0.48093
# Poissons Ratio (y) = 0.08931 0.21234
# Poissons Ratio (z) = 0.26484 0.25140
#
# Static dielectric constant tensor:
#      x y z
#    x 2.032390 0.397870 0.298460 
#    y 0.397870 1.685930 -0.250780 
#    z 0.298460 -0.250780 1.795160 
# 
# From -- ./inp_files/546329.got.cif
#   From: 2010.05.17/outbox.cif.g08.bks.cpg/sg2_274_cif.got.tgz:546329.got - 2010.06.03 11:33:40.
