data_PCOD9064474
_publ_section_title
;
Structure prediction by ZEFSAII (Michael W. Deem and Ramdas Pophale) SiO2 
 PCOD9064474
Probable space group: P -1
;
_chemical_formula_sum "Si O2"
_cell_formula_units_Z 13
_cell_length_a 9.667818
_cell_length_b 14.101993
_cell_length_c 5.716738
_cell_angle_alpha 50.134548
_cell_angle_beta 115.501895
_cell_angle_gamma 116.184580
_cell_volume 524.346748
_symmetry_space_group_name_H-M "P -1"
_symmetry_group_IT_number 2
_symmetry_cell_setting 'triclinic'
loop_
_space_group_symop_operation_xyz
x,y,z
-x,-y,-z
loop_
_atom_site_type_symbol
_atom_site_label
_atom_site_fract_x
_atom_site_fract_y
_atom_site_fract_z
Si Si1 0.145755 0.795750 0.171841
Si Si2 0.665355 0.536419 0.198722
Si Si3 0.127759 0.554367 0.814323
Si Si4 0.488638 0.928837 0.353463
Si Si5 0.662874 0.295033 0.897220
Si Si6 0.329863 0.199030 0.007858
Si Si7 0.000000 0.000000 0.000000
O O1 0.073612 0.655938 0.447346
O O2 0.312765 0.843482 0.349373
O O3 0.208187 0.781675 0.974724
O O4 0.048330 0.898233 0.003692
O O5 0.811000 0.555189 0.096768
O O6 0.670748 0.407767 0.541638
O O7 0.500000 0.500000 0.000000
O O8 0.686691 0.658030 0.187303
O O9 0.279610 0.633175 0.937403
O O10 0.000000 0.500000 0.000000
O O11 0.619154 0.848856 0.625835
O O12 0.500000 0.000000 0.500000
O O13 0.500000 0.000000 0.000000
O O14 0.483783 0.218236 0.921496
O O15 0.179886 0.096239 0.964900
#
# Coordination Sequence:
#
# PCOD9064474 Si02
#       7
#     2   2   2   2   2   2   1
#     4  11  26  49  73 110 152 209 264 320 402 483
#     4  11  24  45  77 118 143 196 268 337 397 478
#     4  11  26  45  74 112 150 195 259 330 415 464
#     4  12  25  50  81 105 153 219 276 317 396 497
#     4  11  24  47  82 103 150 213 258 327 403 490
#     4  12  25  50  78 117 161 206 272 329 408 489
#     4  12  30  44  72 118 166 202 266 334 398 478
#
# _framework density 24.792756000000001
#
# number of rings (size 3 to 8) (size 9 to 14) (size 15 to 20)
#    0.000    0.615    4.615    2.308    4.308    1.231 
#    2.769    1.538    0.000    0.000    0.000    0.000 
#    0.000    0.000    0.000    0.000    0.000    0.000 
#
# Total GULP energy -72405.472569 kJ/mol
# GULP energy per Si atom -5569.651736 kJ/mol
# Density = 2.473633 g / cm^3
# Si number density = 24.792756 Si / 1000 Ang^3
#
#
#
# Elastic Constant Matrix: (Units=GPa)
#
#
# Indices 1 2 3 4 5 6 
#
# 1 176.9746 49.6279 30.6685 -24.4321 -20.8628 -17.8237
# 2 49.6279 110.0428 1.9905 -3.7066 5.6915 -14.2537
# 3 30.6685 1.9905 64.9265 -9.6349 -18.6196 -6.7830
# 4 -24.4321 -3.7066 -9.6349 35.7644 3.3687 8.0835
# 5 -20.8628 5.6915 -18.6196 3.3687 32.3222 -5.0195
# 6 -17.8237 -14.2537 -6.7830 8.0835 -5.0195 67.4086
#
#
#
# Elastic Compliance Matrix: (Units=1/GPa)
#
#
# Indices 1 2 3 4 5 6 
#
# 1 0.008185 -0.003625 -0.001692 0.004072 0.004692 0.001088
# 2 -0.003625 0.011039 0.000229 -0.001194 -0.003832 0.001256
# 3 -0.001692 0.000229 0.019764 0.002767 0.010279 0.002023
# 4 0.004072 -0.001194 0.002767 0.031903 0.000693 -0.002671
# 5 0.004692 -0.003832 0.010279 0.000693 0.041181 0.004448
# 6 0.001088 0.001256 0.002023 -0.002671 0.004448 0.016244
#
#
# Mechanical properties :
#
#
# Convention : Reuss Voigt Hill
#
# Bulk Modulus (GPa) = 34.70755 57.39086 46.04921
# Shear Modulus (GPa) = 33.76193 45.07616 39.41905
#
# Velocity S-wave (km/s) = 3.69421 4.26857 3.99173
# Velocity P-wave (km/s) = 5.67677 6.89149 6.31342
#
# Compressibility (1/GPa) = 0.02881217
#
# Stress axis : x y z
#
# Youngs Moduli (GPa) = 122.17152 90.58832 50.59747
#
# Poissons Ratio (x) = 0.32841 0.08560
# Poissons Ratio (y) = 0.44291 -0.01159
# Poissons Ratio (z) = 0.20668 -0.02075
#
# Static dielectric constant tensor:
#      x y z
#    x 2.028670 -0.010990 -0.016740 
#    y -0.010990 2.023910 -0.007210 
#    z -0.016740 -0.007210 2.046320 
# 
# From -- ./inp_files/33976.got.cif
#   From: 2010.05.17/outbox.cif.g08.bks.cpg/sg2_17_cif.got.tgz:33976.got - 2010.06.03 11:33:40.
