data_PCOD9064525
_publ_section_title
;
Structure prediction by ZEFSAII (Michael W. Deem and Ramdas Pophale) SiO2 
 PCOD9064525
Probable space group: P -1
;
_chemical_formula_sum "Si O2"
_cell_formula_units_Z 14
_cell_length_a 5.051480
_cell_length_b 9.037149
_cell_length_c 16.866622
_cell_angle_alpha 57.635232
_cell_angle_beta 114.616753
_cell_angle_gamma 117.955254
_cell_volume 560.148545
_symmetry_space_group_name_H-M "P -1"
_symmetry_group_IT_number 2
_symmetry_cell_setting 'triclinic'
loop_
_space_group_symop_operation_xyz
x,y,z
-x,-y,-z
loop_
_atom_site_type_symbol
_atom_site_label
_atom_site_fract_x
_atom_site_fract_y
_atom_site_fract_z
Si Si1 0.550588 0.669090 0.017438
Si Si2 0.167338 0.901627 0.946033
Si Si3 0.796597 0.187219 0.279453
Si Si4 0.665462 0.975828 0.606578
Si Si5 0.025521 0.356019 0.611561
Si Si6 0.045029 0.412585 0.783820
Si Si7 0.417561 0.128577 0.773577
O O1 0.655786 0.617961 0.131207
O O2 0.500000 0.500000 0.000000
O O3 0.245640 0.726638 0.969130
O O4 0.853538 0.830354 0.975923
O O5 0.164803 0.044962 0.834422
O O6 0.500000 0.000000 0.000000
O O7 0.561492 0.178741 0.323114
O O8 0.041177 0.084304 0.360279
O O9 0.971295 0.402291 0.228238
O O10 0.602424 0.056143 0.224143
O O11 0.500000 0.000000 0.500000
O O12 0.754890 0.166184 0.612754
O O13 0.035903 0.427336 0.682660
O O14 0.000000 0.500000 0.500000
O O15 0.317449 0.279683 0.666906
O O16 0.748161 0.238842 0.816820
#
# Coordination Sequence:
#
# PCOD9064525 Si02
#       7
#     2   2   2   2   2   2   2
#     4  12  28  47  77 116 150 194 252 310 377 452
#     4  12  25  47  76 105 150 195 246 308 378 449
#     4  11  26  44  69 101 142 189 238 300 366 435
#     4  11  24  46  68 101 141 188 243 305 365 426
#     4  11  26  46  74 107 147 196 253 308 363 443
#     4  12  26  46  76 106 151 198 248 309 372 443
#     4  11  26  47  72 106 148 198 249 306 376 443
#
# _framework density 24.993371
#
# number of rings (size 3 to 8) (size 9 to 14) (size 15 to 20)
#    0.000    0.571    2.857    3.857    6.000    4.000 
#    0.000    0.000    0.000    0.000    0.000    0.000 
#    0.000    0.000    0.000    0.000    0.000    0.000 
#
# Total GULP energy -78347.428912 kJ/mol
# GULP energy per Si atom -5596.244922 kJ/mol
# Density = 2.493649 g / cm^3
# Si number density = 24.993371 Si / 1000 Ang^3
#
#
#
# Elastic Constant Matrix: (Units=GPa)
#
#
# Indices 1 2 3 4 5 6 
#
# 1 62.1453 11.4912 12.0071 0.1118 7.0001 5.2603
# 2 11.4912 178.2692 24.2523 -4.0794 4.8010 0.3132
# 3 12.0071 24.2523 148.5363 2.6282 8.7453 1.4672
# 4 0.1118 -4.0794 2.6282 34.7808 -2.2522 5.3947
# 5 7.0001 4.8010 8.7453 -2.2522 37.4023 -4.9584
# 6 5.2603 0.3132 1.4672 5.3947 -4.9584 37.9604
#
#
#
# Elastic Compliance Matrix: (Units=1/GPa)
#
#
# Indices 1 2 3 4 5 6 
#
# 1 0.017042 -0.000865 -0.001023 0.000141 -0.003195 -0.002752
# 2 -0.000865 0.005810 -0.000871 0.000735 -0.000342 -0.000043
# 3 -0.001023 -0.000871 0.007055 -0.000691 -0.001416 -0.000210
# 4 0.000141 0.000735 -0.000691 0.029599 0.001288 -0.004037
# 5 -0.003195 -0.000342 -0.001416 0.001288 0.028319 0.004016
# 6 -0.002752 -0.000043 -0.000210 -0.004037 0.004016 0.027831
#
#
# Mechanical properties :
#
#
# Convention : Reuss Voigt Hill
#
# Bulk Modulus (GPa) = 41.00545 53.82801 47.41673
# Shear Modulus (GPa) = 38.66832 44.77538 41.72185
#
# Velocity S-wave (km/s) = 3.93764 4.23719 4.09016
# Velocity P-wave (km/s) = 6.09225 6.74700 6.42797
#
# Compressibility (1/GPa) = 0.02438700
#
# Stress axis : x y z
#
# Youngs Moduli (GPa) = 58.67962 172.12117 141.74366
#
# Poissons Ratio (x) = 0.14891 0.14507
# Poissons Ratio (y) = 0.05077 0.12348
# Poissons Ratio (z) = 0.06006 0.14994
#
# Static dielectric constant tensor:
#      x y z
#    x 1.994100 -0.039550 -0.027220 
#    y -0.039550 2.055830 -0.022560 
#    z -0.027220 -0.022560 1.982650 
# 
# From -- ./inp_files/107559.got.cif
#   From: 2010.05.17/outbox.cif.g08.bks.cpg/sg2_54_cif.got.tgz:107559.got - 2010.06.03 11:33:40.
