data_PCOD9064509
_publ_section_title
;
Structure prediction by ZEFSAII (Michael W. Deem and Ramdas Pophale) SiO2 
 PCOD9064509
Probable space group: P -1
;
_chemical_formula_sum "Si O2"
_cell_formula_units_Z 14
_cell_length_a 5.656513
_cell_length_b 8.116497
_cell_length_c 13.672599
_cell_angle_alpha 90.465316
_cell_angle_beta 103.095150
_cell_angle_gamma 114.627178
_cell_volume 552.046528
_symmetry_space_group_name_H-M "P -1"
_symmetry_group_IT_number 2
_symmetry_cell_setting 'triclinic'
loop_
_space_group_symop_operation_xyz
x,y,z
-x,-y,-z
loop_
_atom_site_type_symbol
_atom_site_label
_atom_site_fract_x
_atom_site_fract_y
_atom_site_fract_z
Si Si1 0.261032 0.060574 0.449434
Si Si2 0.933177 0.377006 0.256879
Si Si3 0.133682 0.021543 0.759030
Si Si4 0.290244 0.575693 0.576536
Si Si5 0.551916 0.454477 0.113412
Si Si6 0.703477 0.906114 0.010687
Si Si7 0.482628 0.648680 0.295501
O O1 0.442969 0.280434 0.452851
O O2 0.500000 0.000000 0.500000
O O3 0.000000 0.000000 0.500000
O O4 0.113113 0.984558 0.330386
O O5 0.725390 0.317433 0.326423
O O6 0.851041 0.487204 0.168342
O O7 0.205422 0.537027 0.322591
O O8 0.939937 0.189189 0.225714
O O9 0.230896 0.130883 0.871152
O O10 0.394144 0.139260 0.716250
O O11 0.312554 0.401044 0.623949
O O12 0.000000 0.500000 0.500000
O O13 0.440312 0.535473 0.188801
O O14 0.500000 0.500000 0.000000
O O15 0.421291 0.238316 0.088873
O O16 0.500000 0.000000 0.000000
O O17 0.000000 0.000000 0.000000
#
# Coordination Sequence:
#
# PCOD9064509 Si02
#       7
#     2   2   2   2   2   2   2
#     4  12  28  49  80 115 153 205 263 324 396 478
#     4  11  25  47  75 105 155 202 261 323 395 474
#     4  12  25  49  77 113 154 207 265 324 398 472
#     4  11  26  49  74 108 156 197 256 336 396 472
#     4  11  24  46  66 109 155 198 262 317 384 467
#     4  12  27  46  78 111 156 208 261 320 392 465
#     4  11  25  46  74 108 148 206 255 323 393 467
#
# _framework density 25.360181999999998
#
# number of rings (size 3 to 8) (size 9 to 14) (size 15 to 20)
#    0.000    0.571    4.286    2.571    4.000    3.429 
#    5.143    0.000    0.000    0.000    0.000    0.000 
#    0.000    0.000    0.000    0.000    0.000    0.000 
#
# Total GULP energy -78028.423791 kJ/mol
# GULP energy per Si atom -5573.458842 kJ/mol
# Density = 2.530246 g / cm^3
# Si number density = 25.360182 Si / 1000 Ang^3
#
#
#
# Elastic Constant Matrix: (Units=GPa)
#
#
# Indices 1 2 3 4 5 6 
#
# 1 126.2293 29.4234 56.6075 -14.4803 8.4854 21.2306
# 2 29.4234 99.1649 7.2579 -9.3739 -2.2085 28.5627
# 3 56.6075 7.2579 172.2047 -2.2987 10.0866 -5.8109
# 4 -14.4803 -9.3739 -2.2987 42.7980 -0.8884 -0.1348
# 5 8.4854 -2.2085 10.0866 -0.8884 47.7438 -1.5699
# 6 21.2306 28.5627 -5.8109 -0.1348 -1.5699 34.1398
#
#
#
# Elastic Compliance Matrix: (Units=1/GPa)
#
#
# Indices 1 2 3 4 5 6 
#
# 1 0.011558 -0.000754 -0.003882 0.003484 -0.001443 -0.007270
# 2 -0.000754 0.013859 -0.000714 0.002719 0.000608 -0.011209
# 3 -0.003882 -0.000714 0.007286 -0.001081 -0.000764 0.004212
# 4 0.003484 0.002719 -0.001081 0.025069 0.000053 -0.004524
# 5 -0.001443 0.000608 -0.000764 0.000053 0.021433 0.001245
# 6 -0.007270 -0.011209 0.004212 -0.004524 0.001245 0.043947
#
#
# Mechanical properties :
#
#
# Convention : Reuss Voigt Hill
#
# Bulk Modulus (GPa) = 45.44707 64.90849 55.17778
# Shear Modulus (GPa) = 35.41427 45.22367 40.31897
#
# Velocity S-wave (km/s) = 3.74097 4.22744 3.99162
# Velocity P-wave (km/s) = 6.05139 7.03410 6.56117
#
# Compressibility (1/GPa) = 0.02200362
#
# Stress axis : x y z
#
# Youngs Moduli (GPa) = 86.51881 72.15306 137.25616
#
# Poissons Ratio (x) = 0.05441 0.53282
# Poissons Ratio (y) = 0.06524 0.09797
# Poissons Ratio (z) = 0.33586 0.05150
#
# Static dielectric constant tensor:
#      x y z
#    x 2.072770 -0.132410 -0.001550 
#    y -0.132410 2.161410 -0.213250 
#    z -0.001550 -0.213250 1.943020 
# 
# From -- ./inp_files/480592.got.cif
#   From: 2010.05.17/outbox.cif.g08.bks.cpg/sg2_241_cif.got.tgz:480592.got - 2010.06.03 11:33:40.
