data_PCOD9064614
_publ_section_title
;
Structure prediction by ZEFSAII (Michael W. Deem and Ramdas Pophale) SiO2 
 PCOD9064614
Probable space group: P -1
;
_chemical_formula_sum "Si O2"
_cell_formula_units_Z 16
_cell_length_a 12.313118
_cell_length_b 10.818455
_cell_length_c 5.656656
_cell_angle_alpha 79.960883
_cell_angle_beta 110.868868
_cell_angle_gamma 90.879398
_cell_volume 692.409101
_symmetry_space_group_name_H-M "P -1"
_symmetry_group_IT_number 2
_symmetry_cell_setting 'triclinic'
loop_
_space_group_symop_operation_xyz
x,y,z
-x,-y,-z
loop_
_atom_site_type_symbol
_atom_site_label
_atom_site_fract_x
_atom_site_fract_y
_atom_site_fract_z
Si Si1 0.034097 0.620704 0.341719
Si Si2 0.457444 0.600030 0.740818
Si Si3 0.372932 0.202071 0.208047
Si Si4 0.703431 0.264357 0.073411
Si Si5 0.478473 0.133403 0.810062
Si Si6 0.259762 0.517971 0.310768
Si Si7 0.041126 0.854275 0.607776
Si Si8 0.140674 0.281197 0.178285
O O1 0.164041 0.598805 0.360062
O O2 0.000000 0.500000 0.500000
O O3 0.023669 0.756974 0.411163
O O4 0.941394 0.622944 0.062095
O O5 0.571170 0.667180 0.727482
O O6 0.367703 0.706470 0.750045
O O7 0.384628 0.532199 0.514137
O O8 0.500000 0.500000 0.000000
O O9 0.422652 0.122922 0.506316
O O10 0.234844 0.202984 0.122654
O O11 0.403175 0.194179 0.951925
O O12 0.822023 0.176136 0.209589
O O13 0.601801 0.201372 0.861902
O O14 0.737332 0.401528 0.957440
O O15 0.500000 0.000000 0.000000
O O16 0.217607 0.376812 0.350615
O O17 0.948921 0.804557 0.738456
O O18 0.000000 0.000000 0.500000
#
# Coordination Sequence:
#
# PCOD9064614 Si02
#       8
#     2   2   2   2   2   2   2   2
#     4  12  25  46  73 104 143 199 252 313 383 455
#     4  11  25  42  71 108 146 189 243 315 387 451
#     4  11  27  46  70 111 148 193 251 311 386 456
#     4  11  24  46  70 104 144 192 249 315 380 449
#     4  11  26  49  75 103 148 202 255 309 381 458
#     4  12  23  44  74 103 146 185 253 313 387 452
#     4  12  28  48  72 107 146 199 253 311 384 456
#     4  12  28  43  72 106 150 192 246 315 384 461
#
# _framework density 23.107724000000001
#
# number of rings (size 3 to 8) (size 9 to 14) (size 15 to 20)
#    0.000    0.500    5.000    2.250    8.750    1.500 
#    2.250    0.000    0.000    0.000    0.000    0.000 
#    0.000    0.000    0.000    0.000    0.000    0.000 
#
# Total GULP energy -89234.444652 kJ/mol
# GULP energy per Si atom -5577.152791 kJ/mol
# Density = 2.305513 g / cm^3
# Si number density = 23.107724 Si / 1000 Ang^3
#
#
#
# Elastic Constant Matrix: (Units=GPa)
#
#
# Indices 1 2 3 4 5 6 
#
# 1 173.0697 20.9710 27.3146 -6.0757 4.5894 -12.5070
# 2 20.9710 73.5557 11.7226 -20.4842 -6.4208 -10.9720
# 3 27.3146 11.7226 72.0876 -25.1780 -1.7659 -0.8343
# 4 -6.0757 -20.4842 -25.1780 35.6613 5.7418 -7.7725
# 5 4.5894 -6.4208 -1.7659 5.7418 35.0841 -5.3143
# 6 -12.5070 -10.9720 -0.8343 -7.7725 -5.3143 26.8764
#
#
#
# Elastic Compliance Matrix: (Units=1/GPa)
#
#
# Indices 1 2 3 4 5 6 
#
# 1 0.006488 -0.001528 -0.002578 -0.001060 -0.000805 0.001849
# 2 -0.001528 0.020120 0.003009 0.015662 0.003409 0.012799
# 3 -0.002578 0.003009 0.020301 0.016827 -0.000007 0.005524
# 4 -0.001060 0.015662 0.016827 0.053720 -0.001663 0.021629
# 5 -0.000805 0.003409 -0.000007 -0.001663 0.030499 0.006567
# 6 0.001849 0.012799 0.005524 0.021629 0.006567 0.051018
#
#
# Mechanical properties :
#
#
# Convention : Reuss Voigt Hill
#
# Bulk Modulus (GPa) = 22.36499 48.74770 35.55634
# Shear Modulus (GPa) = 25.09485 36.77136 30.93310
#
# Velocity S-wave (km/s) = 3.29902 3.99344 3.66272
# Velocity P-wave (km/s) = 4.92046 6.51192 5.77131
#
# Compressibility (1/GPa) = 0.04471274
#
# Stress axis : x y z
#
# Youngs Moduli (GPa) = 154.13245 49.70249 49.25961
#
# Poissons Ratio (x) = 0.07597 0.12701
# Poissons Ratio (y) = 0.23559 -0.14823
# Poissons Ratio (z) = 0.39743 -0.14956
#
# Static dielectric constant tensor:
#      x y z
#    x 1.915250 -0.132680 -0.047710 
#    y -0.132680 2.192440 0.026990 
#    z -0.047710 0.026990 1.946170 
# 
# From -- ./inp_files/69350.got.cif
#   From: 2010.05.17/outbox.cif.g08.bks.cpg/sg2_35_cif.got.tgz:69350.got - 2010.06.03 11:33:40.
