data_PCOD9064497
_publ_section_title
;
Structure prediction by ZEFSAII (Michael W. Deem and Ramdas Pophale) SiO2 
 PCOD9064497
Probable space group: P -1
;
_chemical_formula_sum "Si O2"
_cell_formula_units_Z 13
_cell_length_a 7.364261
_cell_length_b 11.657833
_cell_length_c 12.804146
_cell_angle_alpha 52.216518
_cell_angle_beta 101.946293
_cell_angle_gamma 60.071882
_cell_volume 499.304540
_symmetry_space_group_name_H-M "P -1"
_symmetry_group_IT_number 2
_symmetry_cell_setting 'triclinic'
loop_
_space_group_symop_operation_xyz
x,y,z
-x,-y,-z
loop_
_atom_site_type_symbol
_atom_site_label
_atom_site_fract_x
_atom_site_fract_y
_atom_site_fract_z
Si Si1 0.497982 0.551028 0.851736
Si Si2 0.488377 0.837308 0.562837
Si Si3 0.500000 0.500000 0.500000
Si Si4 0.190491 0.005865 0.212893
Si Si5 0.651692 0.957055 0.192653
Si Si6 0.910568 0.599821 0.259353
Si Si7 0.131326 0.694669 0.541708
O O1 0.466216 0.741456 0.710951
O O2 0.203912 0.672372 0.682852
O O3 0.500000 0.500000 0.000000
O O4 0.830527 0.279771 0.997479
O O5 0.238553 0.977164 0.360875
O O6 0.812963 0.583636 0.687553
O O7 0.500000 0.000000 0.500000
O O8 0.304803 0.780515 0.307545
O O9 0.425943 0.553668 0.586818
O O10 0.429835 0.974613 0.208874
O O11 0.922392 0.722448 0.276319
O O12 0.819391 0.949090 0.303659
O O13 0.418701 0.186174 0.959397
O O14 0.923139 0.441029 0.408695
#
# Coordination Sequence:
#
# PCOD9064497 Si02
#       7
#     2   2   1   2   2   2   2
#     4  12  32  54  76 117 163 216 271 329 400 469
#     4  12  28  51  82 111 157 216 275 322 385 483
#     4  12  26  46  78 124 158 196 248 342 420 462
#     4  12  26  51  80 114 159 204 264 328 406 482
#     4  11  24  46  83 115 156 197 261 330 401 485
#     4  11  24  45  79 122 148 204 262 324 400 479
#     4  12  26  45  78 117 161 196 258 332 402 466
#
# _framework density 26.036214000000001
#
# number of rings (size 3 to 8) (size 9 to 14) (size 15 to 20)
#    0.000    0.308    6.154    1.385    4.308    4.308 
#    0.000    0.000    0.000    0.000    0.000    0.000 
#    0.000    0.000    0.000    0.000    0.000    0.000 
#
# Total GULP energy -72575.456155 kJ/mol
# GULP energy per Si atom -5582.727397 kJ/mol
# Density = 2.597695 g / cm^3
# Si number density = 26.036214 Si / 1000 Ang^3
#
#
#
# Elastic Constant Matrix: (Units=GPa)
#
#
# Indices 1 2 3 4 5 6 
#
# 1 71.2870 19.1643 0.3542 -7.6468 -9.9887 5.9970
# 2 19.1643 120.0337 32.7155 6.7781 13.5288 0.1037
# 3 0.3542 32.7155 110.4239 13.9911 10.9330 13.4008
# 4 -7.6468 6.7781 13.9911 58.0260 -1.2491 -5.8138
# 5 -9.9887 13.5288 10.9330 -1.2491 45.0135 7.9397
# 6 5.9970 0.1037 13.4008 -5.8138 7.9397 46.4045
#
#
#
# Elastic Compliance Matrix: (Units=1/GPa)
#
#
# Indices 1 2 3 4 5 6 
#
# 1 0.016120 -0.003405 0.000518 0.002224 0.005032 -0.002807
# 2 -0.003405 0.010051 -0.002720 -0.000872 -0.003437 0.001682
# 3 0.000518 -0.002720 0.010694 -0.002545 -0.001159 -0.003270
# 4 0.002224 -0.000872 -0.002545 0.018526 0.001443 0.002524
# 5 0.005032 -0.003437 -0.001159 0.001443 0.025478 -0.004486
# 6 -0.002807 0.001682 -0.003270 0.002524 -0.004486 0.023937
#
#
# Mechanical properties :
#
#
# Convention : Reuss Voigt Hill
#
# Bulk Modulus (GPa) = 38.98520 45.13472 42.05996
# Shear Modulus (GPa) = 40.13728 46.52284 43.33006
#
# Velocity S-wave (km/s) = 3.93057 4.23170 4.08391
# Velocity P-wave (km/s) = 5.96701 6.42257 6.19897
#
# Compressibility (1/GPa) = 0.02565076
#
# Stress axis : x y z
#
# Youngs Moduli (GPa) = 62.03283 99.49030 93.50757
#
# Poissons Ratio (x) = 0.33878 -0.04842
# Poissons Ratio (y) = 0.21123 0.25437
# Poissons Ratio (z) = -0.03212 0.27064
#
# Static dielectric constant tensor:
#      x y z
#    x 2.182120 -0.079350 0.007300 
#    y -0.079350 2.038010 -0.047420 
#    z 0.007300 -0.047420 1.994650 
# 
# From -- ./inp_files/389435.got.cif
#   From: 2010.05.17/outbox.cif.g08.bks.cpg/sg2_195_cif.got.tgz:389435.got - 2010.06.03 11:33:40.
