data_PCOD9064785
_publ_section_title
;
Structure prediction by ZEFSAII (Michael W. Deem and Ramdas Pophale) SiO2 
 PCOD9064785
Probable space group: P -1
;
_chemical_formula_sum "Si O2"
_cell_formula_units_Z 14
_cell_length_a 10.457939
_cell_length_b 12.505387
_cell_length_c 7.704505
_cell_angle_alpha 142.553986
_cell_angle_beta 60.079969
_cell_angle_gamma 107.362385
_cell_volume 521.799733
_symmetry_space_group_name_H-M "P -1"
_symmetry_group_IT_number 2
_symmetry_cell_setting 'triclinic'
loop_
_space_group_symop_operation_xyz
x,y,z
-x,-y,-z
loop_
_atom_site_type_symbol
_atom_site_label
_atom_site_fract_x
_atom_site_fract_y
_atom_site_fract_z
Si Si1 0.563842 0.895670 0.598224
Si Si2 0.135545 0.041740 0.337701
Si Si3 0.024205 0.342462 0.528994
Si Si4 0.467790 0.541478 0.275305
Si Si5 0.256162 0.728453 0.204129
Si Si6 0.840686 0.327112 0.192875
Si Si7 0.288773 0.099044 0.839903
O O1 0.513894 0.733871 0.526910
O O2 0.414024 0.038485 0.828175
O O3 0.702121 0.959722 0.685911
O O4 0.631442 0.819394 0.268329
O O5 0.090934 0.232518 0.517149
O O6 0.140582 0.869543 0.985940
O O7 0.000000 0.000000 0.500000
O O8 0.039272 0.545174 0.739234
O O9 0.848156 0.351247 0.690435
O O10 0.132943 0.218749 0.159683
O O11 0.301399 0.553799 0.468509
O O12 0.500000 0.500000 0.000000
O O13 0.579320 0.381584 0.079597
O O14 0.259198 0.918660 0.533698
O O15 0.194215 0.712671 0.033644
#
# Coordination Sequence:
#
# PCOD9064785 Si02
#       7
#     2   2   2   2   2   2   2
#     4  11  24  46  73 104 148 191 245 302 368 427
#     4  12  26  47  75 110 146 188 250 304 362 439
#     4  12  27  48  76 108 151 197 239 307 374 428
#     4  12  26  46  72 111 145 189 253 305 357 445
#     4  12  25  48  73 106 151 192 244 303 371 436
#     4  12  27  48  74 108 147 196 247 302 363 439
#     4  11  24  47  74 106 150 192 245 299 374 436
#
# _framework density 26.830217000000001
#
# number of rings (size 3 to 8) (size 9 to 14) (size 15 to 20)
#    0.000    0.286    4.286    3.857    4.000    3.429 
#    0.000    1.429    0.000    0.000    0.000    0.000 
#    0.000    0.000    0.000    0.000    0.000    0.000 
#
# Total GULP energy -78297.683809 kJ/mol
# GULP energy per Si atom -5592.691701 kJ/mol
# Density = 2.676915 g / cm^3
# Si number density = 26.830217 Si / 1000 Ang^3
#
#
#
# Elastic Constant Matrix: (Units=GPa)
#
#
# Indices 1 2 3 4 5 6 
#
# 1 92.7328 22.1746 24.6883 1.9185 20.6143 2.4732
# 2 22.1746 122.4461 11.3785 7.9859 25.7193 38.3334
# 3 24.6883 11.3785 87.7874 -13.1679 -2.8944 -2.7039
# 4 1.9185 7.9859 -13.1679 51.6505 11.9590 1.1307
# 5 20.6143 25.7193 -2.8944 11.9590 18.8855 1.7690
# 6 2.4732 38.3334 -2.7039 1.1307 1.7690 46.1702
#
#
#
# Elastic Compliance Matrix: (Units=1/GPa)
#
#
# Indices 1 2 3 4 5 6 
#
# 1 0.017553 0.004108 -0.005943 0.003680 -0.027647 -0.003730
# 2 0.004108 0.019110 -0.004638 0.003447 -0.031978 -0.015217
# 3 -0.005943 -0.004638 0.014456 0.001341 0.013752 0.004456
# 4 0.003680 0.003447 0.001341 0.024612 -0.023842 -0.002670
# 5 -0.027647 -0.031978 0.013752 -0.023842 0.141635 0.023993
# 6 -0.003730 -0.015217 0.004456 -0.002670 0.023993 0.033900
#
#
# Mechanical properties :
#
#
# Convention : Reuss Voigt Hill
#
# Bulk Modulus (GPa) = 26.19723 46.60545 36.40134
# Shear Modulus (GPa) = 18.05479 39.65622 28.85551
#
# Velocity S-wave (km/s) = 2.59690 3.84870 3.28302
# Velocity P-wave (km/s) = 4.33326 6.09576 5.28845
#
# Compressibility (1/GPa) = 0.03817197
#
# Stress axis : x y z
#
# Youngs Moduli (GPa) = 56.97146 52.32944 69.17733
#
# Poissons Ratio (x) = -0.21499 0.41113
# Poissons Ratio (y) = -0.23406 0.32086
# Poissons Ratio (z) = 0.33859 0.24271
#
# Static dielectric constant tensor:
#      x y z
#    x 2.377480 -0.184580 -0.171560 
#    y -0.184580 2.245860 0.148950 
#    z -0.171560 0.148950 2.249530 
# 
# From -- ./inp_files/274799.got.cif
#   From: 2010.05.17/outbox.cif.g08.bks.cpg/sg2_138_cif.got.tgz:274799.got - 2010.06.03 11:33:40.
