data_PCOD9064230
_publ_section_title
;
Structure prediction by ZEFSAII (Michael W. Deem and Ramdas Pophale) SiO2 
 PCOD9064230
Probable space group: P -1
;
_chemical_formula_sum "Si O2"
_cell_formula_units_Z 14
_cell_length_a 11.788823
_cell_length_b 8.351896
_cell_length_c 6.221525
_cell_angle_alpha 87.240620
_cell_angle_beta 101.747216
_cell_angle_gamma 107.564834
_cell_volume 571.715259
_symmetry_space_group_name_H-M "P -1"
_symmetry_group_IT_number 2
_symmetry_cell_setting 'triclinic'
loop_
_space_group_symop_operation_xyz
x,y,z
-x,-y,-z
loop_
_atom_site_type_symbol
_atom_site_label
_atom_site_fract_x
_atom_site_fract_y
_atom_site_fract_z
Si Si1 0.145599 0.693041 0.037120
Si Si2 0.429128 0.134743 0.443072
Si Si3 0.609367 0.649888 0.932131
Si Si4 0.153135 0.969913 0.358948
Si Si5 0.226737 0.472134 0.731001
Si Si6 0.974145 0.745586 0.646324
Si Si7 0.352396 0.594761 0.370703
O O1 0.202460 0.611193 0.867919
O O2 0.010915 0.654799 0.874582
O O3 0.148848 0.872310 0.136851
O O4 0.235936 0.649130 0.251362
O O5 0.422859 0.191759 0.187588
O O6 0.513323 0.280788 0.616471
O O7 0.500000 0.000000 0.500000
O O8 0.292078 0.056950 0.468532
O O9 0.650762 0.574845 0.736261
O O10 0.500000 0.500000 0.000000
O O11 0.727148 0.669779 0.123955
O O12 0.087574 0.842127 0.531972
O O13 0.086932 0.114045 0.311762
O O14 0.337025 0.568316 0.617275
O O15 0.114386 0.384696 0.540883
#
# Coordination Sequence:
#
# PCOD9064230 Si02
#       7
#     2   2   2   2   2   2   2
#     4  11  24  45  72 107 143 196 247 304 362 439
#     4  12  25  47  76 107 151 191 240 314 369 439
#     4  11  25  44  75 107 145 199 250 299 372 441
#     4  11  26  47  69 106 153 193 241 303 380 433
#     4  11  25  46  74 108 142 196 249 300 363 439
#     4  11  26  46  73 102 152 195 244 303 365 447
#     4  11  24  46  73 108 151 190 248 308 368 439
#
# _framework density 24.487715000000001
#
# number of rings (size 3 to 8) (size 9 to 14) (size 15 to 20)
#    0.000    0.857    2.857    3.000    2.000    6.857 
#    0.000    2.143    0.000    0.000    0.000    0.000 
#    0.000    0.000    0.000    0.000    0.000    0.000 
#
# Total GULP energy -78052.384054 kJ/mol
# GULP energy per Si atom -5575.170290 kJ/mol
# Density = 2.443198 g / cm^3
# Si number density = 24.487715 Si / 1000 Ang^3
#
#
#
# Elastic Constant Matrix: (Units=GPa)
#
#
# Indices 1 2 3 4 5 6 
#
# 1 138.6124 54.6411 56.3112 -18.7545 24.1196 3.8957
# 2 54.6411 77.9431 64.1356 -7.1490 3.1050 -11.2350
# 3 56.3112 64.1356 123.1706 9.5313 26.3302 -15.9002
# 4 -18.7545 -7.1490 9.5313 32.6058 -11.4106 12.0406
# 5 24.1196 3.1050 26.3302 -11.4106 53.6550 7.2005
# 6 3.8957 -11.2350 -15.9002 12.0406 7.2005 48.0701
#
#
#
# Elastic Compliance Matrix: (Units=1/GPa)
#
#
# Indices 1 2 3 4 5 6 
#
# 1 0.012591 -0.004966 -0.004674 0.009718 -0.000189 -0.006133
# 2 -0.004966 0.033016 -0.019957 0.017073 0.014406 -0.004916
# 3 -0.004674 -0.019957 0.028682 -0.027472 -0.018658 0.014878
# 4 0.009718 0.017073 -0.027472 0.066894 0.025910 -0.026521
# 5 -0.000189 0.014406 -0.018658 0.025910 0.034494 -0.014446
# 6 -0.006133 -0.004916 0.014878 -0.026521 -0.014446 0.033879
#
#
# Mechanical properties :
#
#
# Convention : Reuss Voigt Hill
#
# Bulk Modulus (GPa) = 66.24143 76.65576 71.44859
# Shear Modulus (GPa) = 18.26286 37.84206 28.05246
#
# Velocity S-wave (km/s) = 2.73389 3.93536 3.38830
# Velocity P-wave (km/s) = 6.08894 7.21257 6.67444
#
# Compressibility (1/GPa) = 0.01509629
#
# Stress axis : x y z
#
# Youngs Moduli (GPa) = 79.42321 30.28840 34.86516
#
# Poissons Ratio (x) = 0.15041 0.16294
# Poissons Ratio (y) = 0.39442 0.69579
# Poissons Ratio (z) = 0.37119 0.60445
#
# Static dielectric constant tensor:
#      x y z
#    x 1.955640 0.023880 0.011810 
#    y 0.023880 2.031780 -0.063370 
#    z 0.011810 -0.063370 1.976740 
# 
# From -- ./inp_files/61081.got.cif
#   From: 2010.05.17/outbox.cif.g08.bks.cpg/sg2_31_cif.got.tgz:61081.got - 2010.06.03 11:33:40.
