data_PCOD9064805
_publ_section_title
;
Structure prediction by ZEFSAII (Michael W. Deem and Ramdas Pophale) SiO2 
 PCOD9064805
Probable space group: P -1
;
_chemical_formula_sum "Si O2"
_cell_formula_units_Z 16
_cell_length_a 11.049301
_cell_length_b 14.188613
_cell_length_c 9.858816
_cell_angle_alpha 111.897693
_cell_angle_beta 112.713606
_cell_angle_gamma 126.299288
_cell_volume 675.210178
_symmetry_space_group_name_H-M "P -1"
_symmetry_group_IT_number 2
_symmetry_cell_setting 'triclinic'
loop_
_space_group_symop_operation_xyz
x,y,z
-x,-y,-z
loop_
_atom_site_type_symbol
_atom_site_label
_atom_site_fract_x
_atom_site_fract_y
_atom_site_fract_z
Si Si1 0.848177 0.054174 0.213832
Si Si2 0.230024 0.829135 0.217485
Si Si3 0.732451 0.562892 0.987721
Si Si4 0.990306 0.530995 0.734727
Si Si5 0.372410 0.330487 0.448455
Si Si6 0.596636 0.876652 0.734801
Si Si7 0.620528 0.712751 0.059880
Si Si8 0.880320 0.575156 0.441818
O O1 0.103450 0.191428 0.316262
O O2 0.916159 0.204480 0.396160
O O3 0.781500 0.920331 0.215801
O O4 0.632012 0.925434 0.935794
O O5 0.000823 0.686564 0.149730
O O6 0.500000 0.000000 0.500000
O O7 0.238990 0.937014 0.185742
O O8 0.161888 0.690854 0.013757
O O9 0.773616 0.709812 0.115399
O O10 0.574419 0.446941 0.718878
O O11 0.545719 0.398136 0.935299
O O12 0.701476 0.311330 0.536425
O O13 0.947476 0.587720 0.629958
O O14 0.109700 0.515663 0.698889
O O15 0.500000 0.500000 0.500000
O O16 0.328254 0.191043 0.287214
O O17 0.402984 0.567012 0.770218
#
# Coordination Sequence:
#
# PCOD9064805 Si02
#       8
#     2   2   2   2   2   2   2   2
#     4  12  23  43  77 112 141 195 247 299 381 439
#     4  12  28  50  76 108 150 201 251 306 380 451
#     4  11  25  49  72 105 153 193 245 310 379 441
#     4  11  25  47  74 107 150 193 247 312 368 437
#     4  12  23  43  78 108 153 188 238 314 376 446
#     4  12  24  43  74 111 143 188 252 303 368 455
#     4  11  25  47  73 108 148 195 246 312 374 443
#     4  11  24  46  73 109 150 192 249 311 363 443
#
# _framework density 23.696327
#
# number of rings (size 3 to 8) (size 9 to 14) (size 15 to 20)
#    0.000    0.500    5.000    3.375    1.750    3.500 
#    2.250    0.000    0.000    0.000    0.000    0.000 
#    0.000    0.000    0.000    0.000    0.000    0.000 
#
# Total GULP energy -89708.769453 kJ/mol
# GULP energy per Si atom -5606.798091 kJ/mol
# Density = 2.364239 g / cm^3
# Si number density = 23.696327 Si / 1000 Ang^3
#
#
#
# Elastic Constant Matrix: (Units=GPa)
#
#
# Indices 1 2 3 4 5 6 
#
# 1 87.1628 29.1139 50.3342 -1.0174 -11.8048 6.0462
# 2 29.1139 119.1311 15.0553 15.7154 -21.4262 -9.7650
# 3 50.3342 15.0553 125.1308 8.5551 0.4866 10.1056
# 4 -1.0174 15.7154 8.5551 32.3198 -9.9740 -4.9534
# 5 -11.8048 -21.4262 0.4866 -9.9740 29.5480 2.9650
# 6 6.0462 -9.7650 10.1056 -4.9534 2.9650 30.4381
#
#
#
# Elastic Compliance Matrix: (Units=1/GPa)
#
#
# Indices 1 2 3 4 5 6 
#
# 1 0.017730 -0.003090 -0.007031 0.005823 0.007117 -0.001925
# 2 -0.003090 0.010772 -0.000099 -0.003241 0.005176 0.003071
# 3 -0.007031 -0.000099 0.011418 -0.005007 -0.004478 -0.002805
# 4 0.005823 -0.003241 -0.005007 0.038619 0.012641 0.004519
# 5 0.007117 0.005176 -0.004478 0.012641 0.044839 -0.000577
# 6 -0.001925 0.003071 -0.002805 0.004519 -0.000577 0.035944
#
#
# Mechanical properties :
#
#
# Convention : Reuss Voigt Hill
#
# Bulk Modulus (GPa) = 51.33648 57.82571 54.58110
# Shear Modulus (GPa) = 26.84465 34.25592 30.55029
#
# Velocity S-wave (km/s) = 3.36945 3.80626 3.59450
# Velocity P-wave (km/s) = 6.07033 6.61609 6.34908
#
# Compressibility (1/GPa) = 0.01947932
#
# Stress axis : x y z
#
# Youngs Moduli (GPa) = 56.40010 92.83195 87.58121
#
# Poissons Ratio (x) = 0.28690 0.61575
# Poissons Ratio (y) = 0.17430 0.00871
# Poissons Ratio (z) = 0.39653 0.00924
#
# Static dielectric constant tensor:
#      x y z
#    x 1.897760 -0.015410 -0.004910 
#    y -0.015410 1.913870 -0.020270 
#    z -0.004910 -0.020270 1.901800 
# 
# From -- ./inp_files/273853.got.cif
#   From: 2010.05.17/outbox.cif.g08.bks.cpg/sg2_137_cif.got.tgz:273853.got - 2010.06.03 11:33:40.
