data_PCOD9064714
_publ_section_title
;
Structure prediction by ZEFSAII (Michael W. Deem and Ramdas Pophale) SiO2 
 PCOD9064714
Probable space group: P -1
;
_chemical_formula_sum "Si O2"
_cell_formula_units_Z 15
_cell_length_a 10.086729
_cell_length_b 8.248089
_cell_length_c 21.320498
_cell_angle_alpha 31.898487
_cell_angle_beta 138.385949
_cell_angle_gamma 122.741751
_cell_volume 599.780736
_symmetry_space_group_name_H-M "P -1"
_symmetry_group_IT_number 2
_symmetry_cell_setting 'triclinic'
loop_
_space_group_symop_operation_xyz
x,y,z
-x,-y,-z
loop_
_atom_site_type_symbol
_atom_site_label
_atom_site_fract_x
_atom_site_fract_y
_atom_site_fract_z
Si Si1 0.361053 0.813219 0.975973
Si Si2 0.697465 0.208143 0.672523
Si Si3 0.031659 0.686503 0.368670
Si Si4 0.830150 0.833724 0.967111
Si Si5 0.500000 0.500000 0.000000
Si Si6 0.586036 0.630682 0.755008
Si Si7 0.103894 0.899045 0.503052
Si Si8 0.164100 0.222540 0.301393
O O1 0.194960 0.070749 0.792095
O O2 0.468196 0.544856 0.051310
O O3 0.284287 0.651600 0.062480
O O4 0.500000 0.000000 0.000000
O O5 0.500000 0.500000 0.500000
O O6 0.887877 0.307727 0.675826
O O7 0.735107 0.062980 0.801699
O O8 0.650758 0.931191 0.705486
O O9 0.025889 0.329375 0.498756
O O10 0.169304 0.863731 0.399766
O O11 0.646776 0.756486 0.968230
O O12 0.971283 0.476766 0.117691
O O13 0.000000 0.000000 0.000000
O O14 0.342132 0.690736 0.660527
O O15 0.644608 0.649405 0.696335
O O16 0.114950 0.197464 0.365479
O O17 0.000000 0.000000 0.500000
#
# Coordination Sequence:
#
# PCOD9064714 Si02
#       8
#     2   2   2   2   1   2   2   2
#     4  12  25  47  79 113 150 207 266 333 406 488
#     4  11  25  48  72 109 152 202 258 328 406 478
#     4  11  24  47  76 103 149 202 258 328 405 479
#     4  12  29  46  79 115 156 211 266 341 409 483
#     4  12  28  50  76 122 164 200 278 340 402 488
#     4  11  24  46  72 103 149 201 256 323 401 476
#     4  12  27  43  74 110 151 200 263 329 407 490
#     4  11  26  49  70 105 152 198 264 324 404 490
#
# _framework density 25.009138
#
# number of rings (size 3 to 8) (size 9 to 14) (size 15 to 20)
#    0.000    0.533    4.000    2.400    9.333    3.200 
#    4.800    0.000    0.000    0.000    0.000    0.000 
#    0.000    0.000    0.000    0.000    0.000    0.000 
#
# Total GULP energy -83558.735865 kJ/mol
# GULP energy per Si atom -5570.582391 kJ/mol
# Density = 2.495222 g / cm^3
# Si number density = 25.009138 Si / 1000 Ang^3
#
#
#
# Elastic Constant Matrix: (Units=GPa)
#
#
# Indices 1 2 3 4 5 6 
#
# 1 150.7430 23.6332 40.3724 -4.3423 -45.6170 15.8918
# 2 23.6332 102.2959 0.0709 -10.5979 -10.4323 4.6832
# 3 40.3724 0.0709 108.2062 -2.0348 -24.4442 3.0387
# 4 -4.3423 -10.5979 -2.0348 38.1980 7.7967 -5.3227
# 5 -45.6170 -10.4323 -24.4442 7.7967 37.5697 -4.8988
# 6 15.8918 4.6832 3.0387 -5.3227 -4.8988 36.4802
#
#
#
# Elastic Compliance Matrix: (Units=1/GPa)
#
#
# Indices 1 2 3 4 5 6 
#
# 1 0.011256 -0.001408 -0.001340 -0.002174 0.012430 -0.003259
# 2 -0.001408 0.010495 0.000844 0.002514 0.001196 -0.000277
# 3 -0.001340 0.000844 0.011068 -0.000504 0.005949 0.000279
# 4 -0.002174 0.002514 -0.000504 0.028713 -0.007730 0.003817
# 5 0.012430 0.001196 0.005949 -0.007730 0.047409 -0.000825
# 6 -0.003259 -0.000277 0.000279 0.003817 -0.000825 0.029290
#
#
# Mechanical properties :
#
#
# Convention : Reuss Voigt Hill
#
# Bulk Modulus (GPa) = 34.47034 54.37756 44.42395
# Shear Modulus (GPa) = 32.95759 42.26081 37.60920
#
# Velocity S-wave (km/s) = 3.63412 4.11520 3.88212
# Velocity P-wave (km/s) = 5.60554 6.66109 6.15598
#
# Compressibility (1/GPa) = 0.02901045
#
# Stress axis : x y z
#
# Youngs Moduli (GPa) = 88.84178 95.28044 90.35315
#
# Poissons Ratio (x) = 0.13414 0.12108
# Poissons Ratio (y) = 0.12508 -0.07622
# Poissons Ratio (z) = 0.11905 -0.08038
#
# Static dielectric constant tensor:
#      x y z
#    x 2.163500 -0.035730 0.014830 
#    y -0.035730 2.025720 0.001520 
#    z 0.014830 0.001520 2.024300 
# 
# From -- ./inp_files/587731.got.cif
#   From: 2010.05.17/outbox.cif.g08.bks.cpg/sg2_294_cif.got.tgz:587731.got - 2010.06.03 11:33:40.
