data_PCOD9064810
_publ_section_title
;
Structure prediction by ZEFSAII (Michael W. Deem and Ramdas Pophale) SiO2 
 PCOD9064810
Probable space group: P -1
;
_chemical_formula_sum "Si O2"
_cell_formula_units_Z 16
_cell_length_a 18.771225
_cell_length_b 11.398561
_cell_length_c 9.144591
_cell_angle_alpha 105.029602
_cell_angle_beta 133.083665
_cell_angle_gamma 38.047814
_cell_volume 691.784281
_symmetry_space_group_name_H-M "P -1"
_symmetry_group_IT_number 2
_symmetry_cell_setting 'triclinic'
loop_
_space_group_symop_operation_xyz
x,y,z
-x,-y,-z
loop_
_atom_site_type_symbol
_atom_site_label
_atom_site_fract_x
_atom_site_fract_y
_atom_site_fract_z
Si Si1 0.575945 0.782537 0.563887
Si Si2 0.795679 0.719745 0.369561
Si Si3 0.071236 0.528700 0.219390
Si Si4 0.705625 0.084107 0.968808
Si Si5 0.368331 0.834488 0.770487
Si Si6 0.284423 0.751749 0.208340
Si Si7 0.681691 0.622800 0.987889
Si Si8 0.038036 0.110866 0.215680
O O1 0.784910 0.548050 0.704043
O O2 0.441206 0.834218 0.309257
O O3 0.500000 0.000000 0.500000
O O4 0.582550 0.751732 0.734803
O O5 0.822744 0.648442 0.551572
O O6 0.675838 0.745493 0.123539
O O7 0.000000 0.500000 0.500000
O O8 0.710629 0.946037 0.311600
O O9 0.000000 0.500000 0.000000
O O10 0.905276 0.792579 0.141829
O O11 0.713163 0.205134 0.939528
O O12 0.632389 0.173057 0.059558
O O13 0.214373 0.903109 0.512106
O O14 0.580378 0.616843 0.923113
O O15 0.500000 0.500000 0.500000
O O16 0.167072 0.982894 0.209410
O O17 0.134298 0.801171 0.025866
O O18 0.907000 0.359024 0.176489
#
# Coordination Sequence:
#
# PCOD9064810 Si02
#       8
#     2   2   2   2   2   2   2   2
#     4  12  23  37  62  96 133 177 221 268 325 395
#     4  12  22  42  64  98 148 181 221 267 333 406
#     4  12  24  40  64  98 137 176 222 273 324 399
#     4  12  25  43  66 100 135 173 227 276 335 401
#     4  12  25  42  68 101 139 185 218 273 340 403
#     4  11  26  49  72  99 129 172 230 293 340 394
#     4  12  24  43  68  98 138 183 224 273 337 403
#     4  11  24  46  73  96 126 173 230 280 348 395
#
# _framework density 23.128596999999999
#
# number of rings (size 3 to 8) (size 9 to 14) (size 15 to 20)
#    0.000    0.250    3.750    6.375    1.750    1.500 
#    0.000    2.500    0.000    0.000    0.000    0.000 
#    0.000    0.000    0.000    0.000    0.000    0.000 
#
# Total GULP energy -89486.540571 kJ/mol
# GULP energy per Si atom -5592.908786 kJ/mol
# Density = 2.307595 g / cm^3
# Si number density = 23.128597 Si / 1000 Ang^3
#
#
#
# Elastic Constant Matrix: (Units=GPa)
#
#
# Indices 1 2 3 4 5 6 
#
# 1 135.0680 32.6101 57.3844 -0.9444 -21.1939 -33.4583
# 2 32.6101 83.6331 20.0128 -11.4517 -2.5371 -23.9072
# 3 57.3844 20.0128 124.3381 17.2617 0.8233 -22.7541
# 4 -0.9444 -11.4517 17.2617 39.8777 -11.0396 -0.2172
# 5 -21.1939 -2.5371 0.8233 -11.0396 54.1274 8.8187
# 6 -33.4583 -23.9072 -22.7541 -0.2172 8.8187 40.5431
#
#
#
# Elastic Compliance Matrix: (Units=1/GPa)
#
#
# Indices 1 2 3 4 5 6 
#
# 1 0.011762 -0.001374 -0.004702 0.003164 0.004391 0.005319
# 2 -0.001374 0.015586 -0.001219 0.005019 0.000030 0.007393
# 3 -0.004702 -0.001219 0.011890 -0.006675 -0.003911 0.002889
# 4 0.003164 0.005019 -0.006675 0.031698 0.007999 0.000254
# 5 0.004391 0.000030 -0.003911 0.007999 0.022439 -0.003391
# 6 0.005319 0.007393 0.002889 0.000254 -0.003391 0.035775
#
#
# Mechanical properties :
#
#
# Convention : Reuss Voigt Hill
#
# Bulk Modulus (GPa) = 40.57030 62.56154 51.56592
# Shear Modulus (GPa) = 32.90422 42.44509 37.67465
#
# Velocity S-wave (km/s) = 3.77591 4.28855 4.04037
# Velocity P-wave (km/s) = 6.04891 7.18542 6.64152
#
# Compressibility (1/GPa) = 0.02464858
#
# Stress axis : x y z
#
# Youngs Moduli (GPa) = 85.01998 64.16033 84.10321
#
# Poissons Ratio (x) = 0.08816 0.39546
# Poissons Ratio (y) = 0.11682 0.10249
# Poissons Ratio (z) = 0.39977 0.07818
#
# Static dielectric constant tensor:
#      x y z
#    x 1.849780 0.002220 0.065680 
#    y 0.002220 1.928520 -0.025540 
#    z 0.065680 -0.025540 1.905340 
# 
# From -- ./inp_files/333423.got.cif
#   From: 2010.05.17/outbox.cif.g08.bks.cpg/sg2_167_cif.got.tgz:333423.got - 2010.06.03 11:33:40.
