data_PCOD9064600
_publ_section_title
;
Structure prediction by ZEFSAII (Michael W. Deem and Ramdas Pophale) SiO2 
 PCOD9064600
Probable space group: P -1
;
_chemical_formula_sum "Si O2"
_cell_formula_units_Z 16
_cell_length_a 9.581976
_cell_length_b 9.082650
_cell_length_c 18.353753
_cell_angle_alpha 43.101362
_cell_angle_beta 94.639505
_cell_angle_gamma 123.163991
_cell_volume 758.869465
_symmetry_space_group_name_H-M "P -1"
_symmetry_group_IT_number 2
_symmetry_cell_setting 'triclinic'
loop_
_space_group_symop_operation_xyz
x,y,z
-x,-y,-z
loop_
_atom_site_type_symbol
_atom_site_label
_atom_site_fract_x
_atom_site_fract_y
_atom_site_fract_z
Si Si1 0.463109 0.867200 0.126860
Si Si2 0.365085 0.141238 0.120508
Si Si3 0.013992 0.684576 0.694296
Si Si4 0.729407 0.697885 0.424102
Si Si5 0.973336 0.780955 0.135706
Si Si6 0.232997 0.769479 0.396843
Si Si7 0.342061 0.015698 0.469995
Si Si8 0.327600 0.309283 0.740294
O O1 0.623474 0.861095 0.156774
O O2 0.225367 0.539476 0.240590
O O3 0.485809 0.085054 0.106186
O O4 0.500000 0.000000 0.000000
O O5 0.293770 0.971227 0.256223
O O6 0.500000 0.500000 0.000000
O O7 0.171397 0.977330 0.122332
O O8 0.052910 0.488325 0.801387
O O9 0.127499 0.775466 0.588408
O O10 0.121878 0.995432 0.630629
O O11 0.500000 0.500000 0.500000
O O12 0.722361 0.434550 0.533150
O O13 0.773549 0.800560 0.303725
O O14 0.794646 0.664490 0.222227
O O15 0.000000 0.000000 0.000000
O O16 0.323809 0.983732 0.394334
O O17 0.000000 0.500000 0.500000
O O18 0.500000 0.000000 0.500000
O O19 0.451812 0.347344 0.383919
#
# Coordination Sequence:
#
# PCOD9064600 Si02
#       8
#     2   2   2   2   2   2   2   2
#     4  11  27  47  67 100 143 188 232 281 352 424
#     4  11  27  48  71 102 141 187 238 290 352 419
#     4  11  24  46  70 103 140 179 233 288 357 413
#     4  12  24  42  67 105 138 175 225 298 348 410
#     4  11  25  47  72  97 136 190 234 280 345 427
#     4  12  26  44  68 103 140 178 231 290 351 419
#     4  12  23  42  72 101 136 179 227 290 355 411
#     4  12  24  43  69 101 138 176 236 282 349 416
#
# _framework density 21.083995999999999
#
# number of rings (size 3 to 8) (size 9 to 14) (size 15 to 20)
#    0.000    0.500    3.750    4.500    5.250    2.500 
#    0.000    1.875    0.000    0.000    0.000    0.000 
#    0.000    0.000    0.000    0.000    0.000    0.000 
#
# Total GULP energy -89407.001444 kJ/mol
# GULP energy per Si atom -5587.937590 kJ/mol
# Density = 2.103601 g / cm^3
# Si number density = 21.083996 Si / 1000 Ang^3
#
#
#
# Elastic Constant Matrix: (Units=GPa)
#
#
# Indices 1 2 3 4 5 6 
#
# 1 87.8217 1.6686 15.0115 -2.8728 4.9053 2.0584
# 2 1.6686 112.5900 40.0403 0.8662 9.5719 -12.6999
# 3 15.0115 40.0403 116.0979 19.0187 10.2816 -5.6333
# 4 -2.8728 0.8662 19.0187 44.9673 2.1372 1.6316
# 5 4.9053 9.5719 10.2816 2.1372 39.7477 2.8250
# 6 2.0584 -12.6999 -5.6333 1.6316 2.8250 21.3805
#
#
#
# Elastic Compliance Matrix: (Units=1/GPa)
#
#
# Indices 1 2 3 4 5 6 
#
# 1 0.011854 0.000431 -0.001927 0.001665 -0.001060 -0.001380
# 2 0.000431 0.010971 -0.003562 0.001221 -0.002248 0.005741
# 3 -0.001927 -0.003562 0.011085 -0.004722 -0.001629 0.001566
# 4 0.001665 0.001221 -0.004722 0.024428 -0.000415 -0.002488
# 5 -0.001060 -0.002248 -0.001629 -0.000415 0.026640 -0.005151
# 6 -0.001380 0.005741 0.001566 -0.002488 -0.005151 0.051597
#
#
# Mechanical properties :
#
#
# Convention : Reuss Voigt Hill
#
# Bulk Modulus (GPa) = 42.02701 47.77227 44.89964
# Shear Modulus (GPa) = 32.33651 38.53838 35.43745
#
# Velocity S-wave (km/s) = 3.92050 4.27997 4.10417
# Velocity P-wave (km/s) = 6.36161 6.86524 6.61822
#
# Compressibility (1/GPa) = 0.02379422
#
# Stress axis : x y z
#
# Youngs Moduli (GPa) = 84.36027 91.14608 90.21226
#
# Poissons Ratio (x) = -0.03932 0.17386
# Poissons Ratio (y) = -0.03639 0.32135
# Poissons Ratio (z) = 0.16259 0.32467
#
# Static dielectric constant tensor:
#      x y z
#    x 1.753870 0.010810 0.031770 
#    y 0.010810 1.749160 0.016100 
#    z 0.031770 0.016100 1.829750 
# 
# From -- ./inp_files/556793.got.cif
#   From: 2010.05.17/outbox.cif.g08.bks.cpg/sg2_279_cif.got.tgz:556793.got - 2010.06.03 11:33:40.
