data_PCOD9064610
_publ_section_title
;
Structure prediction by ZEFSAII (Michael W. Deem and Ramdas Pophale) SiO2 
 PCOD9064610
Probable space group: P -1
;
_chemical_formula_sum "Si O2"
_cell_formula_units_Z 16
_cell_length_a 9.463261
_cell_length_b 9.019460
_cell_length_c 12.645695
_cell_angle_alpha 76.073555
_cell_angle_beta 132.533623
_cell_angle_gamma 98.299361
_cell_volume 771.722069
_symmetry_space_group_name_H-M "P -1"
_symmetry_group_IT_number 2
_symmetry_cell_setting 'triclinic'
loop_
_space_group_symop_operation_xyz
x,y,z
-x,-y,-z
loop_
_atom_site_type_symbol
_atom_site_label
_atom_site_fract_x
_atom_site_fract_y
_atom_site_fract_z
Si Si1 0.950632 0.946050 0.868041
Si Si2 0.111289 0.344448 0.615354
Si Si3 0.484416 0.559306 0.101171
Si Si4 0.663893 0.886435 0.382793
Si Si5 0.444479 0.341685 0.449604
Si Si6 0.814009 0.607864 0.874039
Si Si7 0.219789 0.857997 0.437625
Si Si8 0.381851 0.901828 0.039338
O O1 0.869206 0.781906 0.882121
O O2 0.809269 0.038197 0.700647
O O3 0.159000 0.947082 0.918565
O O4 0.000000 0.000000 0.000000
O O5 0.303006 0.406910 0.755165
O O6 0.181344 0.223254 0.581289
O O7 0.000000 0.500000 0.500000
O O8 0.968041 0.244057 0.629274
O O9 0.357010 0.447232 0.127121
O O10 0.385942 0.725994 0.035380
O O11 0.500000 0.500000 0.000000
O O12 0.587752 0.779988 0.454977
O O13 0.493140 0.918714 0.205436
O O14 0.745193 0.034051 0.460298
O O15 0.500000 0.500000 0.500000
O O16 0.257818 0.391910 0.281923
O O17 0.601402 0.259945 0.467056
O O18 0.000000 0.500000 0.000000
O O19 0.500000 0.000000 0.000000
#
# Coordination Sequence:
#
# PCOD9064610 Si02
#       8
#     2   2   2   2   2   2   2   2
#     4  12  27  44  73 106 143 187 240 301 357 428
#     4  11  25  46  69 103 141 188 236 293 355 425
#     4  11  26  46  68 101 140 185 235 289 359 427
#     4  11  24  46  70 103 146 185 245 293 357 431
#     4  12  26  46  73 103 146 188 236 301 360 429
#     4  12  27  48  72 105 143 188 244 294 363 431
#     4  12  26  47  73 108 140 193 244 291 369 431
#     4  11  25  46  69 103 146 189 234 299 357 420
#
# _framework density 20.732855000000001
#
# number of rings (size 3 to 8) (size 9 to 14) (size 15 to 20)
#    0.000    0.500    2.500    6.000    7.000    3.000 
#    0.000    0.000    0.000    0.000    0.000    0.000 
#    0.000    0.000    0.000    0.000    0.000    0.000 
#
# Total GULP energy -89365.351999 kJ/mol
# GULP energy per Si atom -5585.334500 kJ/mol
# Density = 2.068567 g / cm^3
# Si number density = 20.732855 Si / 1000 Ang^3
#
#
#
# Elastic Constant Matrix: (Units=GPa)
#
#
# Indices 1 2 3 4 5 6 
#
# 1 66.6121 31.9848 17.4561 -6.7722 -3.6253 24.2785
# 2 31.9848 148.5323 60.3860 14.2572 -3.2851 17.6996
# 3 17.4561 60.3860 130.8750 3.3103 -7.1327 -8.5496
# 4 -6.7722 14.2572 3.3103 41.6104 -6.3173 -0.1475
# 5 -3.6253 -3.2851 -7.1327 -6.3173 33.3141 -5.5897
# 6 24.2785 17.6996 -8.5496 -0.1475 -5.5897 55.1358
#
#
#
# Elastic Compliance Matrix: (Units=1/GPa)
#
#
# Indices 1 2 3 4 5 6 
#
# 1 0.020527 -0.003089 -0.001913 0.004678 0.001026 -0.008227
# 2 -0.003089 0.009757 -0.004242 -0.003734 -0.001424 -0.002584
# 3 -0.001913 -0.004242 0.010228 0.000703 0.002373 0.004032
# 4 0.004678 -0.003734 0.000703 0.026830 0.005356 -0.000137
# 5 0.001026 -0.001424 0.002373 0.005356 0.032124 0.003644
# 6 -0.008227 -0.002584 0.004032 -0.000137 0.003644 0.023584
#
#
# Mechanical properties :
#
#
# Convention : Reuss Voigt Hill
#
# Bulk Modulus (GPa) = 45.40170 62.85259 54.12714
# Shear Modulus (GPa) = 33.58470 41.75822 37.67146
#
# Velocity S-wave (km/s) = 4.02914 4.49275 4.26724
# Velocity P-wave (km/s) = 6.60237 7.56930 7.10231
#
# Compressibility (1/GPa) = 0.02202561
#
# Stress axis : x y z
#
# Youngs Moduli (GPa) = 48.71744 102.49019 97.76863
#
# Poissons Ratio (x) = 0.31654 0.18700
# Poissons Ratio (y) = 0.15046 0.41473
# Poissons Ratio (z) = 0.09318 0.43476
#
# Static dielectric constant tensor:
#      x y z
#    x 1.718120 0.049050 0.056540 
#    y 0.049050 1.678150 0.008930 
#    z 0.056540 0.008930 1.795690 
# 
# From -- ./inp_files/336638.got.cif
#   From: 2010.05.17/outbox.cif.g08.bks.cpg/sg2_169_cif.got.tgz:336638.got - 2010.06.03 11:33:40.
