data_PCOD9064970
_publ_section_title
;
Structure prediction by ZEFSAII (Michael W. Deem and Ramdas Pophale) SiO2 
 PCOD9064970
Probable space group: P -1
;
_chemical_formula_sum "Si O2"
_cell_formula_units_Z 12
_cell_length_a 14.276687
_cell_length_b 8.002339
_cell_length_c 10.771581
_cell_angle_alpha 92.024475
_cell_angle_beta 29.140514
_cell_angle_gamma 109.536209
_cell_volume 468.098913
_symmetry_space_group_name_H-M "P -1"
_symmetry_group_IT_number 2
_symmetry_cell_setting 'triclinic'
loop_
_space_group_symop_operation_xyz
x,y,z
-x,-y,-z
loop_
_atom_site_type_symbol
_atom_site_label
_atom_site_fract_x
_atom_site_fract_y
_atom_site_fract_z
Si Si1 0.034549 0.659916 0.103724
Si Si2 0.399223 0.788749 0.288179
Si Si3 0.527327 0.817696 0.652807
Si Si4 0.084321 0.035661 0.202240
Si Si5 0.216069 0.287691 0.814381
Si Si6 0.541909 0.704425 0.894918
O O1 0.823398 0.433050 0.401021
O O2 0.948031 0.667456 0.067824
O O3 0.047927 0.838760 0.170520
O O4 0.301409 0.725997 0.818952
O O5 0.414084 0.977482 0.339242
O O6 0.385599 0.755938 0.154727
O O7 0.659500 0.841244 0.019879
O O8 0.744802 0.856643 0.320659
O O9 0.469157 0.664722 0.832408
O O10 0.829358 0.915686 0.567264
O O11 0.122230 0.194658 0.056875
O O12 0.500000 0.500000 0.500000
O O13 0.500000 0.500000 0.000000
#
# Coordination Sequence:
#
# PCOD9064970 Si02
#       6
#     2   2   2   2   2   2
#     4  11  24  49  73 110 150 193 246 302 371 443
#     4  11  24  48  72 113 149 194 249 303 371 432
#     4  11  28  47  75 112 148 194 246 313 365 440
#     4  11  24  46  78 107 146 196 248 301 366 438
#     4  12  25  50  77 108 152 197 246 302 376 441
#     4  12  24  49  80 104 151 200 248 303 369 442
#
# _framework density 25.635605999999999
#
# number of rings (size 3 to 8) (size 9 to 14) (size 15 to 20)
#    0.000    0.667    5.000    1.500    0.000    5.333 
#    3.000    0.000    0.000    0.000    0.000    0.000 
#    0.000    0.000    0.000    0.000    0.000    0.000 
#
# Total GULP energy -67304.346749 kJ/mol
# GULP energy per Si atom -5608.695562 kJ/mol
# Density = 2.557726 g / cm^3
# Si number density = 25.635606 Si / 1000 Ang^3
#
#
#
# Elastic Constant Matrix: (Units=GPa)
#
#
# Indices 1 2 3 4 5 6 
#
# 1 128.6642 37.8849 67.9916 9.6860 -5.1489 -19.5793
# 2 37.8849 107.0030 53.6856 -5.0255 11.0024 -0.2446
# 3 67.9916 53.6856 175.3701 4.3139 14.4310 -19.6438
# 4 9.6860 -5.0255 4.3139 49.1098 -2.7210 3.0095
# 5 -5.1489 11.0024 14.4310 -2.7210 57.0325 0.8548
# 6 -19.5793 -0.2446 -19.6438 3.0095 0.8548 47.2136
#
#
#
# Elastic Compliance Matrix: (Units=1/GPa)
#
#
# Indices 1 2 3 4 5 6 
#
# 1 0.010996 -0.002597 -0.003220 -0.002235 0.002152 0.003311
# 2 -0.002597 0.011942 -0.002815 0.002028 -0.001695 -0.002285
# 3 -0.003220 -0.002815 0.008223 -0.000612 -0.001890 0.002145
# 4 -0.002235 0.002028 -0.000612 0.021254 0.000614 -0.002537
# 5 0.002152 -0.001695 -0.001890 0.000614 0.018567 -0.000278
# 6 0.003311 -0.002285 0.002145 -0.002537 -0.000278 0.023600
#
#
# Mechanical properties :
#
#
# Convention : Reuss Voigt Hill
#
# Bulk Modulus (GPa) = 71.95329 81.12903 76.54116
# Shear Modulus (GPa) = 42.92649 47.43620 45.18134
#
# Velocity S-wave (km/s) = 4.09649 4.30630 4.20270
# Velocity P-wave (km/s) = 7.10659 7.51274 7.31249
#
# Compressibility (1/GPa) = 0.01389791
#
# Stress axis : x y z
#
# Youngs Moduli (GPa) = 90.93923 83.74063 121.60823
#
# Poissons Ratio (x) = 0.21744 0.39154
# Poissons Ratio (y) = 0.23613 0.34236
# Poissons Ratio (z) = 0.29280 0.23575
#
# Static dielectric constant tensor:
#      x y z
#    x 2.048900 0.028420 -0.024730 
#    y 0.028420 2.087800 -0.022570 
#    z -0.024730 -0.022570 1.945230 
# 
# From -- ./inp_files/442878.got.cif
#   From: 2010.05.17/outbox.cif.g08.bks.cpg/sg2_222_cif.got.tgz:442878.got - 2010.06.03 11:33:40.
