data_PCOD9064795
_publ_section_title
;
Structure prediction by ZEFSAII (Michael W. Deem and Ramdas Pophale) SiO2 
 PCOD9064795
Probable space group: P -1
;
_chemical_formula_sum "Si O2"
_cell_formula_units_Z 15
_cell_length_a 13.743203
_cell_length_b 6.312367
_cell_length_c 11.260921
_cell_angle_alpha 99.703216
_cell_angle_beta 44.414898
_cell_angle_gamma 107.973988
_cell_volume 648.345084
_symmetry_space_group_name_H-M "P -1"
_symmetry_group_IT_number 2
_symmetry_cell_setting 'triclinic'
loop_
_space_group_symop_operation_xyz
x,y,z
-x,-y,-z
loop_
_atom_site_type_symbol
_atom_site_label
_atom_site_fract_x
_atom_site_fract_y
_atom_site_fract_z
Si Si1 0.029063 0.380144 0.814650
Si Si2 0.875853 0.854293 0.511346
Si Si3 0.488273 0.677523 0.667251
Si Si4 0.656591 0.099714 0.661924
Si Si5 0.331321 0.484282 0.159361
Si Si6 0.000000 0.000000 0.000000
Si Si7 0.212285 0.381835 0.992052
Si Si8 0.332918 0.648501 0.567798
O O1 0.059632 0.282969 0.652452
O O2 0.163104 0.602119 0.736981
O O3 0.880885 0.446036 0.941869
O O4 0.040435 0.214015 0.893562
O O5 0.752728 0.685427 0.681787
O O6 0.801946 0.021909 0.524114
O O7 0.000000 0.000000 0.500000
O O8 0.427529 0.758387 0.607891
O O9 0.625427 0.586039 0.507479
O O10 0.528325 0.870997 0.748299
O O11 0.364916 0.466561 0.800570
O O12 0.668628 0.267656 0.775676
O O13 0.637573 0.223100 0.568963
O O14 0.248410 0.402114 0.101855
O O15 0.500000 0.500000 0.000000
O O16 0.879043 0.858273 0.994893
#
# Coordination Sequence:
#
# PCOD9064795 Si02
#       8
#     2   2   2   2   2   1   2   2
#     4  12  26  47  73 109 145 186 245 300 363 441
#     4  12  27  46  73 109 144 193 251 300 368 440
#     4  11  25  47  71 112 145 188 243 301 367 445
#     4  12  24  45  78 100 145 196 237 301 368 432
#     4  12  28  50  73 109 152 193 251 309 364 440
#     4  12  28  48  74 106 154 192 234 310 378 426
#     4  12  28  47  75 107 150 192 246 301 369 436
#     4  11  24  46  73 107 145 183 245 299 357 443
#
# _framework density 23.135828
#
# number of rings (size 3 to 8) (size 9 to 14) (size 15 to 20)
#    0.000    0.267    4.000    4.000    3.733    6.400 
#    0.000    0.000    0.000    0.000    0.000    0.000 
#    0.000    0.000    0.000    0.000    0.000    0.000 
#
# Total GULP energy -83772.216647 kJ/mol
# GULP energy per Si atom -5584.814443 kJ/mol
# Density = 2.308317 g / cm^3
# Si number density = 23.135828 Si / 1000 Ang^3
#
#
#
# Elastic Constant Matrix: (Units=GPa)
#
#
# Indices 1 2 3 4 5 6 
#
# 1 138.6253 35.5501 15.6449 6.0897 15.2460 28.2385
# 2 35.5501 78.7819 16.1245 -3.9354 1.0936 41.4215
# 3 15.6449 16.1245 77.4713 1.1180 6.4407 7.0010
# 4 6.0897 -3.9354 1.1180 17.4173 2.4895 5.9888
# 5 15.2460 1.0936 6.4407 2.4895 40.5079 2.5136
# 6 28.2385 41.4215 7.0010 5.9888 2.5136 50.1843
#
#
#
# Elastic Compliance Matrix: (Units=1/GPa)
#
#
# Indices 1 2 3 4 5 6 
#
# 1 0.008881 -0.002841 -0.000737 -0.002569 -0.002860 -0.002099
# 2 -0.002841 0.026935 -0.003369 0.014662 0.001341 -0.021980
# 3 -0.000737 -0.003369 0.013792 -0.001666 -0.001819 0.001562
# 4 -0.002569 0.014662 -0.001666 0.068402 -0.002221 -0.018475
# 5 -0.002860 0.001341 -0.001819 -0.002221 0.026171 -0.000289
# 6 -0.002099 -0.021980 0.001562 -0.018475 -0.000289 0.041251
#
#
# Mechanical properties :
#
#
# Convention : Reuss Voigt Hill
#
# Bulk Modulus (GPa) = 28.00149 47.72416 37.86283
# Shear Modulus (GPa) = 23.67062 36.79250 30.23156
#
# Velocity S-wave (km/s) = 3.20209 3.99216 3.61875
# Velocity P-wave (km/s) = 5.07942 6.47475 5.81906
#
# Compressibility (1/GPa) = 0.03571238
#
# Stress axis : x y z
#
# Youngs Moduli (GPa) = 112.60484 37.12595 72.50422
#
# Poissons Ratio (x) = 0.10549 0.05347
# Poissons Ratio (y) = 0.31995 0.24428
# Poissons Ratio (z) = 0.08304 0.12508
#
# Static dielectric constant tensor:
#      x y z
#    x 1.817450 0.008260 -0.019090 
#    y 0.008260 1.864740 0.029050 
#    z -0.019090 0.029050 1.827070 
# 
# From -- ./inp_files/442043.got.cif
#   From: 2010.05.17/outbox.cif.g08.bks.cpg/sg2_222_cif.got.tgz:442043.got - 2010.06.03 11:33:40.
