data_PCOD9064931
_publ_section_title
;
Structure prediction by ZEFSAII (Michael W. Deem and Ramdas Pophale) SiO2 
 PCOD9064931
Probable space group: P -1
;
_chemical_formula_sum "Si O2"
_cell_formula_units_Z 14
_cell_length_a 5.247126
_cell_length_b 19.314230
_cell_length_c 6.226231
_cell_angle_alpha 96.838973
_cell_angle_beta 97.170339
_cell_angle_gamma 70.003769
_cell_volume 586.337612
_symmetry_space_group_name_H-M "P -1"
_symmetry_group_IT_number 2
_symmetry_cell_setting 'triclinic'
loop_
_space_group_symop_operation_xyz
x,y,z
-x,-y,-z
loop_
_atom_site_type_symbol
_atom_site_label
_atom_site_fract_x
_atom_site_fract_y
_atom_site_fract_z
Si Si1 0.373516 0.951524 0.102083
Si Si2 0.792754 0.226981 0.540071
Si Si3 0.395458 0.580479 0.126982
Si Si4 0.989278 0.060208 0.344206
Si Si5 0.019518 0.694575 0.795716
Si Si6 0.932113 0.580623 0.417198
Si Si7 0.664409 0.781599 0.172056
O O1 0.293352 0.015332 0.297217
O O2 0.544470 0.870498 0.170794
O O3 0.161674 0.936092 0.901311
O O4 0.500000 0.000000 0.000000
O O5 0.813849 0.266779 0.328102
O O6 0.544693 0.239985 0.693726
O O7 0.882450 0.140612 0.460064
O O8 0.044438 0.240004 0.691817
O O9 0.656117 0.595166 0.260090
O O10 0.180219 0.579918 0.288691
O O11 0.500000 0.500000 0.000000
O O12 0.238994 0.640653 0.958490
O O13 0.000000 0.000000 0.500000
O O14 0.907021 0.641928 0.617516
O O15 0.764289 0.747026 0.930944
O O16 0.000000 0.500000 0.500000
#
# Coordination Sequence:
#
# PCOD9064931 Si02
#       7
#     2   2   2   2   2   2   2
#     4  11  25  44  77 110 149 210 269 335 401 464
#     4  12  30  52  78 119 162 218 269 328 415 477
#     4  12  28  54  86 122 158 207 273 334 401 490
#     4  11  24  46  76 107 151 206 269 332 385 474
#     4  12  31  53  83 118 176 211 267 345 407 485
#     4  12  28  54  86 123 156 213 270 329 412 484
#     4  12  30  52  77 118 166 209 273 329 408 491
#
# _framework density 23.877029
#
# number of rings (size 3 to 8) (size 9 to 14) (size 15 to 20)
#    0.000    0.286    2.857    3.429    8.000    8.000 
#    0.000    0.000    0.000    0.000    0.000    0.000 
#    0.000    0.000    0.000    0.000    0.000    0.000 
#
# Total GULP energy -78033.560088 kJ/mol
# GULP energy per Si atom -5573.825721 kJ/mol
# Density = 2.382268 g / cm^3
# Si number density = 23.877029 Si / 1000 Ang^3
#
#
#
# Elastic Constant Matrix: (Units=GPa)
#
#
# Indices 1 2 3 4 5 6 
#
# 1 273.3365 28.3788 78.1969 -53.1385 -9.1671 40.5856
# 2 28.3788 151.4370 9.9490 4.5509 -9.9538 0.3630
# 3 78.1969 9.9490 63.3972 -12.6070 3.7507 1.3762
# 4 -53.1385 4.5509 -12.6070 102.2673 -8.6418 -40.3076
# 5 -9.1671 -9.9538 3.7507 -8.6418 70.0242 5.3755
# 6 40.5856 0.3630 1.3762 -40.3076 5.3755 54.8992
#
#
#
# Elastic Compliance Matrix: (Units=1/GPa)
#
#
# Indices 1 2 3 4 5 6 
#
# 1 0.007041 -0.000677 -0.008371 0.001083 0.001743 -0.004366
# 2 -0.000677 0.006833 -0.000420 -0.000684 0.000830 -0.000117
# 3 -0.008371 -0.000420 0.026463 0.001373 -0.002927 0.006823
# 4 0.001083 -0.000684 0.001373 0.014438 0.001010 0.009671
# 5 0.001743 0.000830 -0.002927 0.001010 0.015058 -0.001953
# 6 -0.004366 -0.000117 0.006823 0.009671 -0.001953 0.028565
#
#
# Mechanical properties :
#
#
# Convention : Reuss Voigt Hill
#
# Bulk Modulus (GPa) = 46.72685 80.13559 63.43122
# Shear Modulus (GPa) = 40.17080 70.21454 55.19267
#
# Velocity S-wave (km/s) = 4.10616 5.42868 4.81306
# Velocity P-wave (km/s) = 6.48791 8.53983 7.58359
#
# Compressibility (1/GPa) = 0.02140097
#
# Stress axis : x y z
#
# Youngs Moduli (GPa) = 142.02442 146.34366 37.78824
#
# Poissons Ratio (x) = 0.09908 0.31634
# Poissons Ratio (y) = 0.09615 0.01586
# Poissons Ratio (z) = 1.18895 0.06144
#
# Static dielectric constant tensor:
#      x y z
#    x 1.909370 -0.055250 0.034080 
#    y -0.055250 1.914150 -0.003820 
#    z 0.034080 -0.003820 1.919570 
# 
# From -- ./inp_files/11462.got.cif
#   From: 2010.05.17/outbox.cif.g08.bks.cpg/sg2_6_cif.got.tgz:11462.got - 2010.06.03 11:33:40.
