data_PCOD9064234
_publ_section_title
;
Structure prediction by ZEFSAII (Michael W. Deem and Ramdas Pophale) SiO2 
 PCOD9064234
Probable space group: P -1
;
_chemical_formula_sum "Si O2"
_cell_formula_units_Z 16
_cell_length_a 11.171279
_cell_length_b 14.535502
_cell_length_c 6.786386
_cell_angle_alpha 45.083540
_cell_angle_beta 95.918475
_cell_angle_gamma 77.100459
_cell_volume 704.300381
_symmetry_space_group_name_H-M "P -1"
_symmetry_group_IT_number 2
_symmetry_cell_setting 'triclinic'
loop_
_space_group_symop_operation_xyz
x,y,z
-x,-y,-z
loop_
_atom_site_type_symbol
_atom_site_label
_atom_site_fract_x
_atom_site_fract_y
_atom_site_fract_z
Si Si1 0.316359 0.233581 0.085330
Si Si2 0.131772 0.978917 0.668843
Si Si3 0.824374 0.253589 0.639159
Si Si4 0.805589 0.783751 0.512950
Si Si5 0.394820 0.007749 0.132485
Si Si6 0.056755 0.353645 0.611045
Si Si7 0.679882 0.213154 0.336028
Si Si8 0.563594 0.537573 0.264621
O O1 0.293821 0.231442 0.319093
O O2 0.409427 0.091462 0.199890
O O3 0.176107 0.263607 0.914569
O O4 0.365900 0.354621 0.856347
O O5 0.259722 0.888519 0.689509
O O6 0.120044 0.136070 0.480129
O O7 0.151981 0.880153 0.013595
O O8 0.000000 0.000000 0.500000
O O9 0.805240 0.216154 0.468315
O O10 0.683092 0.388783 0.446898
O O11 0.943648 0.297934 0.639273
O O12 0.887055 0.644776 0.603572
O O13 0.736169 0.897099 0.156317
O O14 0.386766 0.864290 0.417859
O O15 0.500000 0.000000 0.000000
O O16 0.000000 0.500000 0.500000
O O17 0.565360 0.368675 0.031199
O O18 0.500000 0.500000 0.500000
#
# Coordination Sequence:
#
# PCOD9064234 Si02
#       8
#     2   2   2   2   2   2   2   2
#     4  11  25  48  75 108 147 193 250 308 372 445
#     4  12  25  44  76 110 147 191 244 310 374 441
#     4  12  26  49  73 107 152 198 247 309 373 451
#     4  11  24  45  72 108 142 186 244 306 374 434
#     4  11  25  42  73 107 144 188 242 304 370 438
#     4  11  25  49  73 106 146 194 251 310 368 441
#     4  12  26  46  74 108 150 196 246 309 378 442
#     4  12  27  49  73 104 152 201 249 302 370 449
#
# _framework density 22.717579000000001
#
# number of rings (size 3 to 8) (size 9 to 14) (size 15 to 20)
#    0.000    0.500    5.000    2.625    5.250    2.500 
#    6.750    0.000    0.000    0.000    0.000    0.000 
#    0.000    0.000    0.000    0.000    0.000    0.000 
#
# Total GULP energy -89359.191672 kJ/mol
# GULP energy per Si atom -5584.949480 kJ/mol
# Density = 2.266587 g / cm^3
# Si number density = 22.717579 Si / 1000 Ang^3
#
#
#
# Elastic Constant Matrix: (Units=GPa)
#
#
# Indices 1 2 3 4 5 6 
#
# 1 86.6349 37.8798 43.1380 10.9666 -15.3589 -0.6874
# 2 37.8798 124.2976 35.1054 19.8211 -9.2474 4.0830
# 3 43.1380 35.1054 131.8129 12.0312 -11.3528 -6.8763
# 4 10.9666 19.8211 12.0312 27.7749 -2.2088 -4.7018
# 5 -15.3589 -9.2474 -11.3528 -2.2088 40.5963 -7.4820
# 6 -0.6874 4.0830 -6.8763 -4.7018 -7.4820 30.2679
#
#
#
# Elastic Compliance Matrix: (Units=1/GPa)
#
#
# Indices 1 2 3 4 5 6 
#
# 1 0.015787 -0.003155 -0.003753 -0.001905 0.004226 0.000680
# 2 -0.003155 0.010444 -0.001338 -0.006093 -0.000025 -0.002737
# 3 -0.003753 -0.001338 0.009517 -0.001175 0.001315 0.002400
# 4 -0.001905 -0.006093 -0.001175 0.042986 0.001285 0.007507
# 5 0.004226 -0.000025 0.001315 0.001285 0.028052 0.007532
# 6 0.000680 -0.002737 0.002400 0.007507 0.007532 0.036996
#
#
# Mechanical properties :
#
#
# Convention : Reuss Voigt Hill
#
# Bulk Modulus (GPa) = 51.93178 63.88798 57.90988
# Shear Modulus (GPa) = 29.99541 34.83598 32.41569
#
# Velocity S-wave (km/s) = 3.63762 3.92016 3.78153
# Velocity P-wave (km/s) = 6.36808 6.97667 6.67931
#
# Compressibility (1/GPa) = 0.01925603
#
# Stress axis : x y z
#
# Youngs Moduli (GPa) = 63.34474 95.74520 105.07888
#
# Poissons Ratio (x) = 0.30211 0.39434
# Poissons Ratio (y) = 0.19987 0.14057
# Poissons Ratio (z) = 0.23772 0.12808
#
# Static dielectric constant tensor:
#      x y z
#    x 1.807730 0.008850 -0.038520 
#    y 0.008850 1.887660 0.076660 
#    z -0.038520 0.076660 1.686910 
# 
# From -- ./inp_files/76977.got.cif
#   From: 2010.05.17/outbox.cif.g08.bks.cpg/sg2_39_cif.got.tgz:76977.got - 2010.06.03 11:33:40.
