data_PCOD9064750
_publ_section_title
;
Structure prediction by ZEFSAII (Michael W. Deem and Ramdas Pophale) SiO2 
 PCOD9064750
Probable space group: P -1
;
_chemical_formula_sum "Si O2"
_cell_formula_units_Z 14
_cell_length_a 5.432262
_cell_length_b 30.737648
_cell_length_c 12.385948
_cell_angle_alpha 20.491544
_cell_angle_beta 123.219739
_cell_angle_gamma 122.429408
_cell_volume 603.792040
_symmetry_space_group_name_H-M "P -1"
_symmetry_group_IT_number 2
_symmetry_cell_setting 'triclinic'
loop_
_space_group_symop_operation_xyz
x,y,z
-x,-y,-z
loop_
_atom_site_type_symbol
_atom_site_label
_atom_site_fract_x
_atom_site_fract_y
_atom_site_fract_z
Si Si1 0.791713 0.576660 0.347223
Si Si2 0.946887 0.352741 0.343773
Si Si3 0.555489 0.107299 0.349266
Si Si4 0.013279 0.251218 0.824431
Si Si5 0.461202 0.966230 0.862006
Si Si6 0.274014 0.242624 0.474454
Si Si7 0.846317 0.791099 0.715413
O O1 0.500000 0.500000 0.500000
O O2 0.991890 0.632222 0.367024
O O3 0.000000 0.500000 0.500000
O O4 0.671831 0.684470 0.990835
O O5 0.096028 0.302587 0.605094
O O6 0.083337 0.291428 0.413382
O O7 0.598599 0.315135 0.367548
O O8 0.000000 0.500000 0.000000
O O9 0.834366 0.198561 0.176323
O O10 0.500000 0.000000 0.500000
O O11 0.627224 0.040942 0.632094
O O12 0.262379 0.176864 0.113874
O O13 0.742384 0.147358 0.979180
O O14 0.278785 0.073262 0.621655
O O15 0.659717 0.898447 0.150898
O O16 0.126589 0.248138 0.310157
#
# Coordination Sequence:
#
# PCOD9064750 Si02
#       7
#     2   2   2   2   2   2   2
#     4  12  29  47  72 107 147 195 242 305 365 432
#     4  11  27  50  77 103 145 208 250 304 358 448
#     4  12  22  41  75 107 151 190 244 302 376 443
#     4  11  24  48  75 110 146 192 258 307 371 442
#     4  11  24  46  72 112 144 196 245 310 376 442
#     4  11  28  46  75 112 151 189 252 306 376 437
#     4  12  27  46  75 111 152 195 243 311 377 447
#
# _framework density 23.186792000000001
#
# number of rings (size 3 to 8) (size 9 to 14) (size 15 to 20)
#    0.000    0.571    2.857    3.857    8.000    4.000 
#    0.000    0.000    0.000    0.000    0.000    0.000 
#    0.000    0.000    0.000    0.000    0.000    0.000 
#
# Total GULP energy -78307.514707 kJ/mol
# GULP energy per Si atom -5593.393908 kJ/mol
# Density = 2.313402 g / cm^3
# Si number density = 23.186792 Si / 1000 Ang^3
#
#
#
# Elastic Constant Matrix: (Units=GPa)
#
#
# Indices 1 2 3 4 5 6 
#
# 1 109.0803 42.8406 30.1855 -16.1322 -18.3288 -22.1366
# 2 42.8406 112.5385 42.1950 -5.7074 -9.4496 -40.8161
# 3 30.1855 42.1950 95.1408 -3.9808 -28.0067 3.0045
# 4 -16.1322 -5.7074 -3.9808 31.4869 -9.9646 2.3047
# 5 -18.3288 -9.4496 -28.0067 -9.9646 42.7090 -3.0003
# 6 -22.1366 -40.8161 3.0045 2.3047 -3.0003 42.5010
#
#
#
# Elastic Compliance Matrix: (Units=1/GPa)
#
#
# Indices 1 2 3 4 5 6 
#
# 1 0.013777 -0.001596 -0.001443 0.008370 0.006972 0.005783
# 2 -0.001596 0.019470 -0.009014 -0.000099 -0.001016 0.018438
# 3 -0.001443 -0.009014 0.018235 0.003682 0.009485 -0.010228
# 4 0.008370 -0.000099 0.003682 0.041291 0.015821 0.002882
# 5 0.006972 -0.001016 0.009485 0.015821 0.036352 0.003693
# 6 0.005783 0.018438 -0.010228 0.002882 0.003693 0.045075
#
#
# Mechanical properties :
#
#
# Convention : Reuss Voigt Hill
#
# Bulk Modulus (GPa) = 36.52885 60.80019 48.66452
# Shear Modulus (GPa) = 24.10432 36.77528 30.43980
#
# Velocity S-wave (km/s) = 3.22774 3.98684 3.62720
# Velocity P-wave (km/s) = 5.44788 6.88999 6.21093
#
# Compressibility (1/GPa) = 0.02737562
#
# Stress axis : x y z
#
# Youngs Moduli (GPa) = 72.58629 51.36165 54.83811
#
# Poissons Ratio (x) = 0.08197 0.07915
# Poissons Ratio (y) = 0.11584 0.49431
# Poissons Ratio (z) = 0.10476 0.46297
#
# Static dielectric constant tensor:
#      x y z
#    x 1.894820 -0.013810 -0.000130 
#    y -0.013810 1.855130 0.001430 
#    z -0.000130 0.001430 1.862840 
# 
# From -- ./inp_files/67460.got.cif
#   From: 2010.05.17/outbox.cif.g08.bks.cpg/sg2_34_cif.got.tgz:67460.got - 2010.06.03 11:33:40.
