data_PCOD9064798
_publ_section_title
;
Structure prediction by ZEFSAII (Michael W. Deem and Ramdas Pophale) SiO2 
 PCOD9064798
Probable space group: P -1
;
_chemical_formula_sum "Si O2"
_cell_formula_units_Z 16
_cell_length_a 7.192699
_cell_length_b 10.775723
_cell_length_c 17.431522
_cell_angle_alpha 43.813965
_cell_angle_beta 74.856506
_cell_angle_gamma 105.120159
_cell_volume 668.301233
_symmetry_space_group_name_H-M "P -1"
_symmetry_group_IT_number 2
_symmetry_cell_setting 'triclinic'
loop_
_space_group_symop_operation_xyz
x,y,z
-x,-y,-z
loop_
_atom_site_type_symbol
_atom_site_label
_atom_site_fract_x
_atom_site_fract_y
_atom_site_fract_z
Si Si1 0.969499 0.065297 0.648739
Si Si2 0.908404 0.322918 0.990391
Si Si3 0.295605 0.709117 0.583058
Si Si4 0.430454 0.076808 0.899870
Si Si5 0.900878 0.668716 0.755715
Si Si6 0.406876 0.831759 0.761039
Si Si7 0.960832 0.337259 0.646398
Si Si8 0.610922 0.585238 0.677599
O O1 0.002229 0.876914 0.712218
O O2 0.667539 0.918175 0.732343
O O3 0.036503 0.191796 0.667414
O O4 0.146505 0.269928 0.472930
O O5 0.785516 0.432031 0.921808
O O6 0.206272 0.559051 0.870667
O O7 0.763361 0.184019 0.146283
O O8 0.843927 0.142194 0.011607
O O9 0.127810 0.502081 0.628166
O O10 0.450953 0.657473 0.636798
O O11 0.484307 0.964643 0.405096
O O12 0.889633 0.294527 0.338999
O O13 0.459059 0.303765 0.812566
O O14 0.659498 0.163609 0.778269
O O15 0.500000 0.000000 0.000000
O O16 0.719489 0.658995 0.719200
O O17 0.000000 0.500000 0.500000
#
# Coordination Sequence:
#
# PCOD9064798 Si02
#       8
#     2   2   2   2   2   2   2   2
#     4  12  25  44  78 110 148 196 254 311 375 436
#     4  11  25  45  73 107 156 198 240 307 380 441
#     4  12  26  49  82 111 147 194 256 323 362 441
#     4  12  22  48  76 106 153 197 246 307 368 454
#     4  12  26  50  75 113 149 197 251 312 375 441
#     4  11  24  46  73 107 152 196 247 307 375 445
#     4  12  21  48  77 107 149 198 246 314 375 433
#     4  12  26  45  81 115 142 197 258 305 382 441
#
# _framework density 23.941300999999999
#
# number of rings (size 3 to 8) (size 9 to 14) (size 15 to 20)
#    0.000    0.250    7.500    1.125    1.750    2.000 
#    4.500    2.500    0.000    0.000    0.000    0.000 
#    0.000    0.000    0.000    0.000    0.000    0.000 
#
# Total GULP energy -89638.802731 kJ/mol
# GULP energy per Si atom -5602.425171 kJ/mol
# Density = 2.388681 g / cm^3
# Si number density = 23.941301 Si / 1000 Ang^3
#
#
#
# Elastic Constant Matrix: (Units=GPa)
#
#
# Indices 1 2 3 4 5 6 
#
# 1 112.1018 51.5682 41.3647 8.2851 -2.4429 3.1337
# 2 51.5682 170.5713 47.3578 -15.0896 -5.2670 -12.9487
# 3 41.3647 47.3578 111.1086 -5.1851 15.2368 -2.7027
# 4 8.2851 -15.0896 -5.1851 47.0046 10.0638 2.1061
# 5 -2.4429 -5.2670 15.2368 10.0638 31.2874 -9.0080
# 6 3.1337 -12.9487 -2.7027 2.1061 -9.0080 45.5240
#
#
#
# Elastic Compliance Matrix: (Units=1/GPa)
#
#
# Indices 1 2 3 4 5 6 
#
# 1 0.012140 -0.002910 -0.003974 -0.004206 0.003452 -0.001022
# 2 -0.002910 0.007884 -0.002436 0.002150 0.002362 0.002666
# 3 -0.003974 -0.002436 0.012782 0.003192 -0.008395 -0.001469
# 4 -0.004206 0.002150 0.003192 0.025355 -0.010286 -0.002118
# 5 0.003452 0.002362 -0.008395 -0.010286 0.042570 0.008835
# 6 -0.001022 0.002666 -0.001469 -0.002118 0.008835 0.024554
#
#
# Mechanical properties :
#
#
# Convention : Reuss Voigt Hill
#
# Bulk Modulus (GPa) = 70.58551 74.92923 72.75737
# Shear Modulus (GPa) = 33.63663 41.66261 37.64962
#
# Velocity S-wave (km/s) = 3.75235 4.17609 3.96988
# Velocity P-wave (km/s) = 6.95128 7.39040 7.17420
#
# Compressibility (1/GPa) = 0.01416721
#
# Stress axis : x y z
#
# Youngs Moduli (GPa) = 82.37247 126.83446 78.23314
#
# Poissons Ratio (x) = 0.36909 0.31088
# Poissons Ratio (y) = 0.23970 0.19057
# Poissons Ratio (z) = 0.32733 0.30896
#
# Static dielectric constant tensor:
#      x y z
#    x 1.900020 0.000480 -0.010750 
#    y 0.000480 1.942290 -0.017950 
#    z -0.010750 -0.017950 1.953910 
# 
# From -- ./inp_files/424911.got.cif
#   From: 2010.05.17/outbox.cif.g08.bks.cpg/sg2_213_cif.got.tgz:424911.got - 2010.06.03 11:33:40.
