data_PCOD9064287
_publ_section_title
;
Structure prediction by ZEFSAII (Michael W. Deem and Ramdas Pophale) SiO2 
 PCOD9064287
Probable space group: P -1
;
_chemical_formula_sum "Si O2"
_cell_formula_units_Z 14
_cell_length_a 8.805819
_cell_length_b 9.740507
_cell_length_c 17.307590
_cell_angle_alpha 59.191599
_cell_angle_beta 26.948572
_cell_angle_gamma 60.818805
_cell_volume 575.997055
_symmetry_space_group_name_H-M "P -1"
_symmetry_group_IT_number 2
_symmetry_cell_setting 'triclinic'
loop_
_space_group_symop_operation_xyz
x,y,z
-x,-y,-z
loop_
_atom_site_type_symbol
_atom_site_label
_atom_site_fract_x
_atom_site_fract_y
_atom_site_fract_z
Si Si1 0.122420 0.320583 0.418472
Si Si2 0.448086 0.511517 0.610310
Si Si3 0.345399 0.411425 0.899408
Si Si4 0.532632 0.095227 0.189504
Si Si5 0.385525 0.849649 0.046276
Si Si6 0.782365 0.768359 0.134523
Si Si7 0.300578 0.172770 0.545198
O O1 0.386859 0.457045 0.261709
O O2 0.225209 0.196006 0.339309
O O3 0.154200 0.226482 0.512155
O O4 0.772345 0.418783 0.530718
O O5 0.500000 0.500000 0.500000
O O6 0.159145 0.398921 0.798288
O O7 0.445783 0.693546 0.585819
O O8 0.387744 0.312150 0.987310
O O9 0.389896 0.270335 0.856301
O O10 0.000000 0.500000 0.000000
O O11 0.556744 0.903854 0.244169
O O12 0.576347 0.121806 0.070396
O O13 0.863968 0.158673 0.060506
O O14 0.005165 0.825314 0.254984
O O15 0.500000 0.000000 0.000000
O O16 0.500000 0.000000 0.500000
#
# Coordination Sequence:
#
# PCOD9064287 Si02
#       7
#     2   2   2   2   2   2   2
#     4  12  27  50  78 109 149 197 252 312 373 450
#     4  12  27  49  74 109 153 199 249 314 373 442
#     4  12  24  46  77 107 146 199 249 302 380 445
#     4  11  27  46  76 109 150 192 250 304 367 445
#     4  12  27  48  74 108 150 194 250 307 368 447
#     4  11  24  45  73 104 153 196 239 301 377 438
#     4  12  29  49  77 110 151 197 253 308 376 447
#
# _framework density 24.305681
#
# number of rings (size 3 to 8) (size 9 to 14) (size 15 to 20)
#    0.000    0.286    5.714    2.143    8.000    3.429 
#    0.000    0.000    0.000    0.000    0.000    0.000 
#    0.000    0.000    0.000    0.000    0.000    0.000 
#
# Total GULP energy -78425.153847 kJ/mol
# GULP energy per Si atom -5601.796703 kJ/mol
# Density = 2.425036 g / cm^3
# Si number density = 24.305681 Si / 1000 Ang^3
#
#
#
# Elastic Constant Matrix: (Units=GPa)
#
#
# Indices 1 2 3 4 5 6 
#
# 1 104.6486 35.1121 13.8927 -6.1139 22.8417 -8.7693
# 2 35.1121 193.0795 33.4624 -5.9882 -2.1005 1.9763
# 3 13.8927 33.4624 63.9836 -8.3918 0.9255 1.0584
# 4 -6.1139 -5.9882 -8.3918 37.9238 -1.1189 2.3261
# 5 22.8417 -2.1005 0.9255 -1.1189 46.7490 1.9775
# 6 -8.7693 1.9763 1.0584 2.3261 1.9775 46.5596
#
#
#
# Elastic Compliance Matrix: (Units=1/GPa)
#
#
# Indices 1 2 3 4 5 6 
#
# 1 0.011997 -0.002003 -0.001385 0.000976 -0.006010 0.002583
# 2 -0.002003 0.006039 -0.002718 0.000107 0.001333 -0.000634
# 3 -0.001385 -0.002718 0.017797 0.003340 0.000313 -0.000730
# 4 0.000976 0.000107 0.003340 0.027365 0.000171 -0.001271
# 5 -0.006010 0.001333 0.000313 0.000171 0.024480 -0.002244
# 6 0.002583 -0.000634 -0.000730 -0.001271 -0.002244 0.022167
#
#
# Mechanical properties :
#
#
# Convention : Reuss Voigt Hill
#
# Bulk Modulus (GPa) = 42.33682 58.51624 50.42653
# Shear Modulus (GPa) = 38.48210 44.86276 41.67243
#
# Velocity S-wave (km/s) = 3.98333 4.30091 4.14516
# Velocity P-wave (km/s) = 6.21387 6.98506 6.61072
#
# Compressibility (1/GPa) = 0.02362010
#
# Stress axis : x y z
#
# Youngs Moduli (GPa) = 83.35354 165.59352 56.18992
#
# Poissons Ratio (x) = 0.33172 0.07783
# Poissons Ratio (y) = 0.16698 0.15272
# Poissons Ratio (z) = 0.11545 0.45008
#
# Static dielectric constant tensor:
#      x y z
#    x 1.910030 0.017930 0.032730 
#    y 0.017930 1.963210 0.017400 
#    z 0.032730 0.017400 2.052560 
# 
# From -- ./inp_files/158993.got.cif
#   From: 2010.05.17/outbox.cif.g08.bks.cpg/sg2_80_cif.got.tgz:158993.got - 2010.06.03 11:33:40.
