data_PCOD9064506
_publ_section_title
;
Structure prediction by ZEFSAII (Michael W. Deem and Ramdas Pophale) SiO2 
 PCOD9064506
Probable space group: P -1
;
_chemical_formula_sum "Si O2"
_cell_formula_units_Z 16
_cell_length_a 9.299639
_cell_length_b 7.657263
_cell_length_c 10.509923
_cell_angle_alpha 116.505676
_cell_angle_beta 114.451072
_cell_angle_gamma 71.091462
_cell_volume 600.694191
_symmetry_space_group_name_H-M "P -1"
_symmetry_group_IT_number 2
_symmetry_cell_setting 'triclinic'
loop_
_space_group_symop_operation_xyz
x,y,z
-x,-y,-z
loop_
_atom_site_type_symbol
_atom_site_label
_atom_site_fract_x
_atom_site_fract_y
_atom_site_fract_z
Si Si1 0.347551 0.367544 0.695902
Si Si2 0.815927 0.583636 0.080815
Si Si3 0.869408 0.309761 0.662221
Si Si4 0.236955 0.069863 0.372943
Si Si5 0.610922 0.595371 0.778873
Si Si6 0.097557 0.747305 0.629990
Si Si7 0.356369 0.911128 0.857886
Si Si8 0.819952 0.124118 0.956793
O O1 0.298610 0.338447 0.815103
O O2 0.343945 0.185953 0.538607
O O3 0.517527 0.441219 0.769408
O O4 0.213919 0.551454 0.657590
O O5 0.989793 0.634412 0.181961
O O6 0.729950 0.671152 0.948945
O O7 0.832734 0.347542 0.996816
O O8 0.717548 0.487653 0.671330
O O9 0.938999 0.280896 0.538498
O O10 0.807066 0.116166 0.626008
O O11 0.066585 0.216693 0.342479
O O12 0.274613 0.985648 0.218025
O O13 0.463438 0.764623 0.747960
O O14 0.186298 0.940696 0.732053
O O15 0.280271 0.846447 0.940940
O O16 0.500000 0.000000 0.000000
O O17 0.000000 0.000000 0.000000
#
# Coordination Sequence:
#
# PCOD9064506 Si02
#       8
#     2   2   2   2   2   2   2   2
#     4  11  25  45  74  95 139 189 229 292 354 415
#     4  12  24  46  72  99 140 190 231 288 349 416
#     4  12  28  41  73 103 142 188 230 295 349 411
#     4  12  25  44  71 109 135 179 245 289 345 415
#     4  11  26  46  66 102 140 182 234 283 358 418
#     4  11  24  46  66 103 140 183 236 286 353 415
#     4  11  27  44  71 104 140 188 226 297 349 413
#     4  12  25  44  74 105 135 182 241 283 347 420
#
# _framework density 26.635850999999999
#
# number of rings (size 3 to 8) (size 9 to 14) (size 15 to 20)
#    0.000    0.500    6.250    1.500    5.250    3.500 
#    0.000    0.000    0.000    0.000    0.000    0.000 
#    0.000    0.000    0.000    0.000    0.000    0.000 
#
# Total GULP energy -89517.012449 kJ/mol
# GULP energy per Si atom -5594.813278 kJ/mol
# Density = 2.657523 g / cm^3
# Si number density = 26.635851 Si / 1000 Ang^3
#
#
#
# Elastic Constant Matrix: (Units=GPa)
#
#
# Indices 1 2 3 4 5 6 
#
# 1 89.0058 -0.1945 17.6755 16.2480 -1.1650 -4.5800
# 2 -0.1945 52.4672 -9.6317 6.1886 -11.6030 -19.5567
# 3 17.6755 -9.6317 145.7913 24.2183 -3.2774 3.2071
# 4 16.2480 6.1886 24.2183 33.1743 0.6773 -1.7559
# 5 -1.1650 -11.6030 -3.2774 0.6773 51.1509 8.3042
# 6 -4.5800 -19.5567 3.2071 -1.7559 8.3042 31.5833
#
#
#
# Elastic Compliance Matrix: (Units=1/GPa)
#
#
# Indices 1 2 3 4 5 6 
#
# 1 0.012558 0.001663 -0.000464 -0.005997 0.000310 0.002483
# 2 0.001663 0.026872 0.002475 -0.006908 0.003913 0.015216
# 3 -0.000464 0.002475 0.008134 -0.006197 0.001156 -0.000009
# 4 -0.005997 -0.006908 -0.006197 0.038849 -0.002332 -0.001745
# 5 0.000310 0.003913 0.001156 -0.002332 0.021089 -0.003324
# 6 0.002483 0.015216 -0.000009 -0.001745 -0.003324 0.042222
#
#
# Mechanical properties :
#
#
# Convention : Reuss Voigt Hill
#
# Bulk Modulus (GPa) = 18.21169 33.66253 25.93711
# Shear Modulus (GPa) = 31.11751 41.80937 36.46344
#
# Velocity S-wave (km/s) = 3.42168 3.96620 3.70396
# Velocity P-wave (km/s) = 4.73948 5.79998 5.29634
#
# Compressibility (1/GPa) = 0.05490980
#
# Stress axis : x y z
#
# Youngs Moduli (GPa) = 79.63355 37.21368 122.93400
#
# Poissons Ratio (x) = -0.06187 0.05706
# Poissons Ratio (y) = -0.13240 -0.30420
# Poissons Ratio (z) = 0.03696 -0.09209
#
# Static dielectric constant tensor:
#      x y z
#    x 1.977420 -0.005650 0.077550 
#    y -0.005650 2.278780 0.075140 
#    z 0.077550 0.075140 1.948280 
# 
# From -- ./inp_files/279800.got.cif
#   From: 2010.05.17/outbox.cif.g08.bks.cpg/sg2_140_cif.got.tgz:279800.got - 2010.06.03 11:33:40.
