data_PCOD9064532
_publ_section_title
;
Structure prediction by ZEFSAII (Michael W. Deem and Ramdas Pophale) SiO2 
 PCOD9064532
Probable space group: P -1
;
_chemical_formula_sum "Si O2"
_cell_formula_units_Z 14
_cell_length_a 10.353557
_cell_length_b 7.146231
_cell_length_c 11.804371
_cell_angle_alpha 106.511116
_cell_angle_beta 132.759851
_cell_angle_gamma 69.457090
_cell_volume 599.129360
_symmetry_space_group_name_H-M "P -1"
_symmetry_group_IT_number 2
_symmetry_cell_setting 'triclinic'
loop_
_space_group_symop_operation_xyz
x,y,z
-x,-y,-z
loop_
_atom_site_type_symbol
_atom_site_label
_atom_site_fract_x
_atom_site_fract_y
_atom_site_fract_z
Si Si1 0.706171 0.894646 0.582250
Si Si2 0.443926 0.881718 0.795793
Si Si3 0.848016 0.225716 0.844414
Si Si4 0.366406 0.389480 0.333570
Si Si5 0.159533 0.239550 0.606594
Si Si6 0.213337 0.953386 0.986850
Si Si7 0.197140 0.674391 0.725381
O O1 0.747778 0.713966 0.665787
O O2 0.743847 0.802386 0.465343
O O3 0.500000 0.000000 0.500000
O O4 0.801599 0.074092 0.696643
O O5 0.508218 0.781954 0.696300
O O6 0.392001 0.016009 0.058497
O O7 0.391052 0.705374 0.806126
O O8 0.260881 0.054597 0.710020
O O9 0.762246 0.448392 0.793537
O O10 0.764639 0.169712 0.903453
O O11 0.064266 0.154357 0.963472
O O12 0.500000 0.500000 0.500000
O O13 0.191001 0.447179 0.709069
O O14 0.949544 0.264182 0.453303
O O15 0.150255 0.815724 0.830669
#
# Coordination Sequence:
#
# PCOD9064532 Si02
#       7
#     2   2   2   2   2   2   2
#     4  12  20  42  72 101 133 169 226 292 344 393
#     4  12  25  44  68 103 138 181 234 278 340 414
#     4  11  24  46  68 103 141 173 229 287 348 408
#     4  12  24  39  74 107 130 177 228 290 346 401
#     4  11  24  47  72 100 137 180 233 291 338 399
#     4  11  25  49  70  97 146 188 219 288 346 414
#     4  11  26  46  69 100 136 186 234 278 344 406
#
# _framework density 23.367241
#
# number of rings (size 3 to 8) (size 9 to 14) (size 15 to 20)
#    0.000    0.571    5.714    1.714    2.000    1.143 
#    7.714    0.000    0.000    0.000    0.000    0.000 
#    0.000    0.000    0.000    0.000    0.000    0.000 
#
# Total GULP energy -78335.071062 kJ/mol
# GULP energy per Si atom -5595.362219 kJ/mol
# Density = 2.331406 g / cm^3
# Si number density = 23.367241 Si / 1000 Ang^3
#
#
#
# Elastic Constant Matrix: (Units=GPa)
#
#
# Indices 1 2 3 4 5 6 
#
# 1 68.0615 20.0019 -5.5477 5.4219 3.6314 6.6722
# 2 20.0019 127.5788 40.8049 2.7269 20.7340 13.7862
# 3 -5.5477 40.8049 61.8727 17.2599 -0.6463 -0.5180
# 4 5.4219 2.7269 17.2599 56.5669 -2.7418 -2.0853
# 5 3.6314 20.7340 -0.6463 -2.7418 26.7995 3.5321
# 6 6.6722 13.7862 -0.5180 -2.0853 3.5321 17.6737
#
#
#
# Elastic Compliance Matrix: (Units=1/GPa)
#
#
# Indices 1 2 3 4 5 6 
#
# 1 0.016785 -0.003902 0.004895 -0.003001 0.001045 -0.003713
# 2 -0.003902 0.014087 -0.010396 0.002128 -0.009389 -0.007692
# 3 0.004895 -0.010396 0.025598 -0.007280 0.006616 0.004831
# 4 -0.003001 0.002128 -0.007280 0.020163 0.000443 0.001550
# 5 0.001045 -0.009389 0.006616 0.000443 0.044878 -0.001793
# 6 -0.003713 -0.007692 0.004831 0.001550 -0.001793 0.064666
#
#
# Mechanical properties :
#
#
# Convention : Reuss Voigt Hill
#
# Bulk Modulus (GPa) = 26.55039 40.89236 33.72137
# Shear Modulus (GPa) = 22.98455 33.69161 28.33808
#
# Velocity S-wave (km/s) = 3.13968 3.80126 3.48620
# Velocity P-wave (km/s) = 4.95281 6.06663 5.53779
#
# Compressibility (1/GPa) = 0.03766424
#
# Stress axis : x y z
#
# Youngs Moduli (GPa) = 59.57527 70.98851 39.06600
#
# Poissons Ratio (x) = 0.27698 -0.19123
# Poissons Ratio (y) = 0.23245 0.40614
# Poissons Ratio (z) = -0.29163 0.73801
#
# Static dielectric constant tensor:
#      x y z
#    x 1.881730 0.008320 0.039970 
#    y 0.008320 1.842040 -0.034810 
#    z 0.039970 -0.034810 1.937330 
# 
# From -- ./inp_files/391173.got.cif
#   From: 2010.05.17/outbox.cif.g08.bks.cpg/sg2_196_cif.got.tgz:391173.got - 2010.06.03 11:33:40.
