data_PCOD9064154
_publ_section_title
;
Structure prediction by ZEFSAII (Michael W. Deem and Ramdas Pophale) SiO2 
 PCOD9064154
Probable space group: P -1
;
_chemical_formula_sum "Si O2"
_cell_formula_units_Z 16
_cell_length_a 9.218865
_cell_length_b 17.095050
_cell_length_c 11.389543
_cell_angle_alpha 147.473883
_cell_angle_beta 125.236408
_cell_angle_gamma 65.929048
_cell_volume 775.565392
_symmetry_space_group_name_H-M "P -1"
_symmetry_group_IT_number 2
_symmetry_cell_setting 'triclinic'
loop_
_space_group_symop_operation_xyz
x,y,z
-x,-y,-z
loop_
_atom_site_type_symbol
_atom_site_label
_atom_site_fract_x
_atom_site_fract_y
_atom_site_fract_z
Si Si1 0.048593 0.094994 0.025229
Si Si2 0.340637 0.570582 0.462244
Si Si3 0.022712 0.606003 0.533066
Si Si4 0.695576 0.460874 0.031538
Si Si5 0.475627 0.144734 0.244834
Si Si6 0.230713 0.093495 0.509848
Si Si7 0.838213 0.591575 0.033267
Si Si8 0.575846 0.131892 0.548338
O O1 0.260847 0.139581 0.152900
O O2 0.973040 0.239081 0.207291
O O3 0.000000 0.000000 0.000000
O O4 0.941564 0.008248 0.757760
O O5 0.500000 0.500000 0.500000
O O6 0.202891 0.608856 0.544455
O O7 0.421182 0.711970 0.597221
O O8 0.231834 0.437454 0.166128
O O9 0.000000 0.500000 0.500000
O O10 0.851675 0.560610 0.307278
O O11 0.715381 0.493567 0.945392
O O12 0.500000 0.500000 0.000000
O O13 0.693969 0.289342 0.839813
O O14 0.548374 0.135049 0.399559
O O15 0.500000 0.000000 0.000000
O O16 0.165033 0.240427 0.715094
O O17 0.384901 0.125699 0.520228
O O18 0.326610 0.002034 0.534229
O O19 0.000000 0.500000 0.000000
#
# Coordination Sequence:
#
# PCOD9064154 Si02
#       8
#     2   2   2   2   2   2   2   2
#     4  12  24  45  74 105 144 191 243 294 360 435
#     4  12  29  47  74 108 147 191 244 307 368 432
#     4  12  27  47  74 105 142 187 244 302 362 438
#     4  12  23  44  74 106 138 190 245 294 362 437
#     4  12  27  46  71 105 148 194 237 298 372 432
#     4  11  26  44  72 109 146 191 242 300 362 428
#     4  12  26  47  74 102 147 190 244 299 368 437
#     4  11  24  45  71 108 145 188 244 302 358 437
#
# _framework density 20.630109000000001
#
# number of rings (size 3 to 8) (size 9 to 14) (size 15 to 20)
#    0.000    0.250    5.000    3.750    5.250    1.000 
#    0.000    1.250    0.000    0.000    0.000    0.000 
#    0.000    0.000    0.000    0.000    0.000    0.000 
#
# Total GULP energy -89321.345540 kJ/mol
# GULP energy per Si atom -5582.584096 kJ/mol
# Density = 2.058315 g / cm^3
# Si number density = 20.630109 Si / 1000 Ang^3
#
#
#
# Elastic Constant Matrix: (Units=GPa)
#
#
# Indices 1 2 3 4 5 6 
#
# 1 172.9693 64.0225 56.0844 12.1593 -17.6989 -13.5985
# 2 64.0225 143.8975 67.2823 13.9172 -15.9622 -6.7820
# 3 56.0844 67.2823 135.1021 14.7996 -22.1256 -13.5734
# 4 12.1593 13.9172 14.7996 45.2956 -3.6744 5.0540
# 5 -17.6989 -15.9622 -22.1256 -3.6744 33.8409 4.2866
# 6 -13.5985 -6.7820 -13.5734 5.0540 4.2866 40.9155
#
#
#
# Elastic Compliance Matrix: (Units=1/GPa)
#
#
# Indices 1 2 3 4 5 6 
#
# 1 0.007446 -0.002312 -0.001430 -0.000867 0.001577 0.001559
# 2 -0.002312 0.009922 -0.003739 -0.001092 0.000949 -0.000329
# 3 -0.001430 -0.003739 0.010994 -0.001985 0.004162 0.002361
# 4 -0.000867 -0.001092 -0.001985 0.023827 0.000847 -0.004160
# 5 0.001577 0.000949 0.004162 0.000847 0.033837 -0.001587
# 6 0.001559 -0.000329 0.002361 -0.004160 -0.001587 0.026368
#
#
# Mechanical properties :
#
#
# Convention : Reuss Voigt Hill
#
# Bulk Modulus (GPa) = 74.62973 91.86081 83.24527
# Shear Modulus (GPa) = 37.93019 41.64904 39.78961
#
# Velocity S-wave (km/s) = 4.29252 4.49803 4.39648
# Velocity P-wave (km/s) = 7.79880 8.46171 8.13701
#
# Compressibility (1/GPa) = 0.01339949
#
# Stress axis : x y z
#
# Youngs Moduli (GPa) = 134.30835 100.78735 90.96053
#
# Poissons Ratio (x) = 0.23301 0.13003
# Poissons Ratio (y) = 0.31051 0.34014
# Poissons Ratio (z) = 0.19200 0.37688
#
# Static dielectric constant tensor:
#      x y z
#    x 1.694180 0.003700 0.040510 
#    y 0.003700 1.695860 -0.006770 
#    z 0.040510 -0.006770 1.726190 
# 
# From -- ./inp_files/403655.got.cif
#   From: 2010.05.17/outbox.cif.g08.bks.cpg/sg2_202_cif.got.tgz:403655.got - 2010.06.03 11:33:40.
