data_PCOD9064441
_publ_section_title
;
Structure prediction by ZEFSAII (Michael W. Deem and Ramdas Pophale) SiO2 
 PCOD9064441
Probable space group: P -1
;
_chemical_formula_sum "Si O2"
_cell_formula_units_Z 14
_cell_length_a 10.318141
_cell_length_b 15.225885
_cell_length_c 9.252558
_cell_angle_alpha 111.139421
_cell_angle_beta 71.578458
_cell_angle_gamma 156.278539
_cell_volume 545.030521
_symmetry_space_group_name_H-M "P -1"
_symmetry_group_IT_number 2
_symmetry_cell_setting 'triclinic'
loop_
_space_group_symop_operation_xyz
x,y,z
-x,-y,-z
loop_
_atom_site_type_symbol
_atom_site_label
_atom_site_fract_x
_atom_site_fract_y
_atom_site_fract_z
Si Si1 0.020496 0.375636 0.436954
Si Si2 0.911956 0.630246 0.142395
Si Si3 0.354131 0.198011 0.683177
Si Si4 0.780893 0.776467 0.998375
Si Si5 0.238288 0.692396 0.229174
Si Si6 0.885731 0.743302 0.492132
Si Si7 0.205684 0.857811 0.876468
O O1 0.397573 0.630697 0.432968
O O2 0.979154 0.243779 0.428041
O O3 0.846693 0.328377 0.589859
O O4 0.870584 0.282299 0.275584
O O5 0.975344 0.746712 0.313964
O O6 0.924083 0.532669 0.154322
O O7 0.557695 0.428045 0.085035
O O8 0.160073 0.799245 0.023254
O O9 0.248500 0.226219 0.819599
O O10 0.562372 0.276884 0.784944
O O11 0.059880 0.950469 0.585286
O O12 0.941343 0.776596 0.910001
O O13 0.000000 0.000000 0.000000
O O14 0.488548 0.907796 0.172460
O O15 0.500000 0.500000 0.500000
#
# Coordination Sequence:
#
# PCOD9064441 Si02
#       7
#     2   2   2   2   2   2   2
#     4  11  24  45  76 101 143 195 242 287 363 436
#     4  11  26  44  73 109 142 185 245 302 355 422
#     4  12  25  46  76 105 144 197 238 289 368 437
#     4  12  24  46  73 103 147 191 233 302 366 423
#     4  11  25  48  70 106 148 192 236 300 359 431
#     4  11  25  47  71 107 148 186 241 299 354 431
#     4  12  23  46  75 104 145 193 240 295 368 425
#
# _framework density 25.686634999999999
#
# number of rings (size 3 to 8) (size 9 to 14) (size 15 to 20)
#    0.000    0.571    4.286    3.429    4.000    1.143 
#    5.143    0.000    0.000    0.000    0.000    0.000 
#    0.000    0.000    0.000    0.000    0.000    0.000 
#
# Total GULP energy -78289.920382 kJ/mol
# GULP energy per Si atom -5592.137170 kJ/mol
# Density = 2.562817 g / cm^3
# Si number density = 25.686635 Si / 1000 Ang^3
#
#
#
# Elastic Constant Matrix: (Units=GPa)
#
#
# Indices 1 2 3 4 5 6 
#
# 1 71.2671 1.8663 43.6812 1.2567 0.8115 2.3770
# 2 1.8663 111.6406 38.9810 -19.3090 4.1965 -7.3141
# 3 43.6812 38.9810 190.9048 -28.4138 -9.6194 4.3780
# 4 1.2567 -19.3090 -28.4138 45.0156 0.1963 -4.2988
# 5 0.8115 4.1965 -9.6194 0.1963 40.5845 -7.7129
# 6 2.3770 -7.3141 4.3780 -4.2988 -7.7129 31.1076
#
#
#
# Elastic Compliance Matrix: (Units=1/GPa)
#
#
# Indices 1 2 3 4 5 6 
#
# 1 0.016919 0.000738 -0.004547 -0.003147 -0.001732 -0.001344
# 2 0.000738 0.010448 -0.001891 0.003549 -0.001008 0.002907
# 3 -0.004547 -0.001891 0.007354 0.003940 0.001993 -0.000094
# 4 -0.003147 0.003549 0.003940 0.026740 0.001366 0.004554
# 5 -0.001732 -0.001008 0.001993 0.001366 0.026454 0.006363
# 6 -0.001344 0.002907 -0.000094 0.004554 0.006363 0.035153
#
#
# Mechanical properties :
#
#
# Convention : Reuss Voigt Hill
#
# Bulk Modulus (GPa) = 42.88258 60.31883 51.60070
# Shear Modulus (GPa) = 35.15157 42.62715 38.88936
#
# Velocity S-wave (km/s) = 3.70331 4.07812 3.89523
# Velocity P-wave (km/s) = 5.91749 6.76080 6.35315
#
# Compressibility (1/GPa) = 0.02331949
#
# Stress axis : x y z
#
# Youngs Moduli (GPa) = 59.10439 95.71668 135.98662
#
# Poissons Ratio (x) = -0.07060 0.61829
# Poissons Ratio (y) = -0.04359 0.25719
# Poissons Ratio (z) = 0.26873 0.18103
#
# Static dielectric constant tensor:
#      x y z
#    x 2.056410 0.027450 0.033450 
#    y 0.027450 2.047880 0.012670 
#    z 0.033450 0.012670 2.007260 
# 
# From -- ./inp_files/279608.got.cif
#   From: 2010.05.17/outbox.cif.g08.bks.cpg/sg2_140_cif.got.tgz:279608.got - 2010.06.03 11:33:40.
