data_PCOD9064084
_publ_section_title
;
Structure prediction by ZEFSAII (Michael W. Deem and Ramdas Pophale) SiO2 
 PCOD9064084
Probable space group: P -1
;
_chemical_formula_sum "Si O2"
_cell_formula_units_Z 14
_cell_length_a 7.505188
_cell_length_b 13.153871
_cell_length_c 19.089472
_cell_angle_alpha 154.696154
_cell_angle_beta 56.125283
_cell_angle_gamma 133.391199
_cell_volume 572.900535
_symmetry_space_group_name_H-M "P -1"
_symmetry_group_IT_number 2
_symmetry_cell_setting 'triclinic'
loop_
_space_group_symop_operation_xyz
x,y,z
-x,-y,-z
loop_
_atom_site_type_symbol
_atom_site_label
_atom_site_fract_x
_atom_site_fract_y
_atom_site_fract_z
Si Si1 0.037194 0.025684 0.247187
Si Si2 0.601374 0.126189 0.849728
Si Si3 0.854648 0.477481 0.880690
Si Si4 0.727357 0.939087 0.001927
Si Si5 0.371164 0.627965 0.489713
Si Si6 0.682313 0.413914 0.241316
Si Si7 0.602717 0.995258 0.399005
O O1 0.903461 0.786819 0.068772
O O2 0.158306 0.330316 0.377959
O O3 0.850994 0.984085 0.325140
O O4 0.252267 0.977903 0.199307
O O5 0.407412 0.864436 0.682664
O O6 0.787873 0.356772 0.898400
O O7 0.455876 0.215803 0.989442
O O8 0.618267 0.270984 0.757813
O O9 0.263489 0.771378 0.833196
O O10 0.092880 0.477516 0.795828
O O11 0.578405 0.769818 0.859360
O O12 0.000000 0.000000 0.000000
O O13 0.630955 0.626273 0.426499
O O14 0.339562 0.728898 0.484017
O O15 0.500000 0.000000 0.500000
#
# Coordination Sequence:
#
# PCOD9064084 Si02
#       7
#     2   2   2   2   2   2   2
#     4  12  23  47  74 102 150 188 247 299 364 445
#     4  11  25  46  75 107 142 196 240 303 376 436
#     4  11  26  46  73 103 150 192 244 304 370 438
#     4  11  25  46  73 106 147 195 251 303 369 441
#     4  11  26  46  73 103 150 192 244 304 370 438
#     4  11  24  45  70 110 148 192 244 312 364 440
#     4  11  29  46  71 113 145 193 247 309 369 435
#
# _framework density 24.437051
#
# number of rings (size 3 to 8) (size 9 to 14) (size 15 to 20)
#    0.000    0.857    2.857    2.571    4.000    9.143 
#    0.000    0.714    0.000    0.000    0.000    0.000 
#    0.000    0.000    0.000    0.000    0.000    0.000 
#
# Total GULP energy -78448.536587 kJ/mol
# GULP energy per Si atom -5603.466899 kJ/mol
# Density = 2.438143 g / cm^3
# Si number density = 24.437051 Si / 1000 Ang^3
#
#
#
# Elastic Constant Matrix: (Units=GPa)
#
#
# Indices 1 2 3 4 5 6 
#
# 1 122.5541 43.1211 12.3667 -7.0557 -0.6940 13.5408
# 2 43.1211 160.2963 36.5415 -13.2406 8.6226 13.4739
# 3 12.3667 36.5415 69.2297 -3.7571 1.3772 -0.5785
# 4 -7.0557 -13.2406 -3.7571 51.4929 -0.1105 -12.5211
# 5 -0.6940 8.6226 1.3772 -0.1105 29.5034 -12.0328
# 6 13.5408 13.4739 -0.5785 -12.5211 -12.0328 43.6271
#
#
#
# Elastic Compliance Matrix: (Units=1/GPa)
#
#
# Indices 1 2 3 4 5 6 
#
# 1 0.009222 -0.002171 -0.000512 0.000143 -0.000005 -0.002159
# 2 -0.002171 0.008160 -0.003827 0.000895 -0.003293 -0.002549
# 3 -0.000512 -0.003827 0.016586 0.000664 0.001182 0.002077
# 4 0.000143 0.000895 0.000664 0.021297 0.002430 0.006470
# 5 -0.000005 -0.003293 0.001182 0.002430 0.040019 0.012769
# 6 -0.002159 -0.002549 0.002077 0.006470 0.012769 0.029785
#
#
# Mechanical properties :
#
#
# Convention : Reuss Voigt Hill
#
# Bulk Modulus (GPa) = 47.73349 59.57096 53.65222
# Shear Modulus (GPa) = 34.46638 42.26140 38.36389
#
# Velocity S-wave (km/s) = 3.75962 4.16312 3.96650
# Velocity P-wave (km/s) = 6.19855 6.89485 6.55595
#
# Compressibility (1/GPa) = 0.02094965
#
# Stress axis : x y z
#
# Youngs Moduli (GPa) = 108.43918 122.54980 60.29279
#
# Poissons Ratio (x) = 0.26599 0.03086
# Poissons Ratio (y) = 0.23537 0.23071
# Poissons Ratio (z) = 0.05550 0.46894
#
# Static dielectric constant tensor:
#      x y z
#    x 1.932650 0.003870 0.003690 
#    y 0.003870 1.947770 -0.010120 
#    z 0.003690 -0.010120 1.976730 
# 
# From -- ./inp_files/560573.got.cif
#   From: 2010.05.17/outbox.cif.g08.bks.cpg/sg2_281_cif.got.tgz:560573.got - 2010.06.03 11:33:40.
