data_PCOD9064671
_publ_section_title
;
Structure prediction by ZEFSAII (Michael W. Deem and Ramdas Pophale) SiO2 
 PCOD9064671
Probable space group: P -1
;
_chemical_formula_sum "Si O2"
_cell_formula_units_Z 15
_cell_length_a 5.876986
_cell_length_b 21.078450
_cell_length_c 7.488210
_cell_angle_alpha 47.019604
_cell_angle_beta 65.454756
_cell_angle_gamma 61.056484
_cell_volume 588.555500
_symmetry_space_group_name_H-M "P -1"
_symmetry_group_IT_number 2
_symmetry_cell_setting 'triclinic'
loop_
_space_group_symop_operation_xyz
x,y,z
-x,-y,-z
loop_
_atom_site_type_symbol
_atom_site_label
_atom_site_fract_x
_atom_site_fract_y
_atom_site_fract_z
Si Si1 0.263889 0.472814 0.350110
Si Si2 0.242793 0.096908 0.741002
Si Si3 0.230951 0.913933 0.526304
Si Si4 0.747315 0.092947 0.082229
Si Si5 0.505779 0.368263 0.998820
Si Si6 0.974968 0.240876 0.264612
Si Si7 0.562065 0.717809 0.172225
Si Si8 0.000000 0.500000 0.000000
O O1 0.443912 0.534307 0.233445
O O2 0.399526 0.367804 0.549020
O O3 0.174203 0.492007 0.140074
O O4 0.000000 0.500000 0.500000
O O5 0.549412 0.083582 0.693470
O O6 0.046338 0.096717 0.967277
O O7 0.115158 0.192209 0.493498
O O8 0.247327 0.004980 0.805338
O O9 0.092000 0.842955 0.645710
O O10 0.379945 0.891415 0.709993
O O11 0.000000 0.000000 0.500000
O O12 0.582467 0.187355 0.864743
O O13 0.576719 0.307546 0.912433
O O14 0.694968 0.318553 0.192228
O O15 0.194923 0.396962 0.075669
O O16 0.165121 0.274855 0.007947
#
# Coordination Sequence:
#
# PCOD9064671 Si02
#       8
#     2   2   2   2   2   2   2   1
#     4  12  26  49  75 107 149 197 253 318 383 460
#     4  11  25  46  68 108 157 188 259 312 371 466
#     4  12  23  44  72 101 145 199 244 309 382 445
#     4  11  24  46  71 106 150 199 244 317 376 448
#     4  12  25  48  74 105 149 197 256 311 384 451
#     4  12  23  44  72 104 141 196 251 308 374 455
#     4  12  25  47  75 106 144 204 260 310 385 461
#     4  12  28  48  72 110 154 192 250 322 382 452
#
# _framework density 25.486122999999999
#
# number of rings (size 3 to 8) (size 9 to 14) (size 15 to 20)
#    0.000    0.267    6.667    2.000    1.867    0.533 
#    4.800    0.000    0.000    0.000    0.000    0.000 
#    0.000    0.000    0.000    0.000    0.000    0.000 
#
# Total GULP energy -83640.542441 kJ/mol
# GULP energy per Si atom -5576.036163 kJ/mol
# Density = 2.542812 g / cm^3
# Si number density = 25.486123 Si / 1000 Ang^3
#
#
#
# Elastic Constant Matrix: (Units=GPa)
#
#
# Indices 1 2 3 4 5 6 
#
# 1 76.2746 16.3202 43.7184 -8.4705 6.4817 -11.3720
# 2 16.3202 96.7769 46.6736 -11.2205 2.2529 -23.6056
# 3 43.7184 46.6736 109.4799 -29.4716 -6.6980 -7.8092
# 4 -8.4705 -11.2205 -29.4716 55.4622 -10.5285 13.9742
# 5 6.4817 2.2529 -6.6980 -10.5285 45.7244 -18.1995
# 6 -11.3720 -23.6056 -7.8092 13.9742 -18.1995 48.1599
#
#
#
# Elastic Compliance Matrix: (Units=1/GPa)
#
#
# Indices 1 2 3 4 5 6 
#
# 1 0.018222 0.001701 -0.008776 -0.003006 -0.003319 0.003332
# 2 0.001701 0.015031 -0.007151 -0.002295 0.000398 0.007426
# 3 -0.008776 -0.007151 0.018060 0.008568 0.004909 -0.003280
# 4 -0.003006 -0.002295 0.008568 0.024015 0.005147 -0.005468
# 5 -0.003319 0.000398 0.004909 0.005147 0.027912 0.009262
# 6 0.003332 0.007426 -0.003280 -0.005468 0.009262 0.029745
#
#
# Mechanical properties :
#
#
# Convention : Reuss Voigt Hill
#
# Bulk Modulus (GPa) = 43.74318 55.10620 49.42469
# Shear Modulus (GPa) = 29.57574 41.59058 35.58316
#
# Velocity S-wave (km/s) = 3.41025 4.04405 3.74060
# Velocity P-wave (km/s) = 5.71902 6.59354 6.17179
#
# Compressibility (1/GPa) = 0.02286071
#
# Stress axis : x y z
#
# Youngs Moduli (GPa) = 54.87950 66.52957 55.37028
#
# Poissons Ratio (x) = -0.11317 0.48594
# Poissons Ratio (y) = -0.09336 0.39595
# Poissons Ratio (z) = 0.48163 0.47575
#
# Static dielectric constant tensor:
#      x y z
#    x 2.088340 -0.044700 0.072940 
#    y -0.044700 2.009360 -0.022330 
#    z 0.072940 -0.022330 2.088360 
# 
# From -- ./inp_files/142135.got.cif
#   From: 2010.05.17/outbox.cif.g08.bks.cpg/sg2_72_cif.got.tgz:142135.got - 2010.06.03 11:33:40.
