data_PCOD9064590
_publ_section_title
;
Structure prediction by ZEFSAII (Michael W. Deem and Ramdas Pophale) SiO2 
 PCOD9064590
Probable space group: P -1
;
_chemical_formula_sum "Si O2"
_cell_formula_units_Z 14
_cell_length_a 9.055181
_cell_length_b 9.409829
_cell_length_c 18.191196
_cell_angle_alpha 53.390193
_cell_angle_beta 151.095397
_cell_angle_gamma 130.115072
_cell_volume 570.768626
_symmetry_space_group_name_H-M "P -1"
_symmetry_group_IT_number 2
_symmetry_cell_setting 'triclinic'
loop_
_space_group_symop_operation_xyz
x,y,z
-x,-y,-z
loop_
_atom_site_type_symbol
_atom_site_label
_atom_site_fract_x
_atom_site_fract_y
_atom_site_fract_z
Si Si1 0.302181 0.880024 0.046614
Si Si2 0.594211 0.506963 0.623802
Si Si3 0.210260 0.205563 0.804065
Si Si4 0.225673 0.528785 0.822620
Si Si5 0.615404 0.835105 0.790355
Si Si6 0.739948 0.302290 0.472345
Si Si7 0.339312 0.082130 0.666299
O O1 0.447163 0.742872 0.105737
O O2 0.575117 0.974222 0.197251
O O3 0.954355 0.797128 0.958762
O O4 0.224203 0.030390 0.912342
O O5 0.500000 0.500000 0.500000
O O6 0.489387 0.653523 0.580159
O O7 0.412781 0.302587 0.638689
O O8 0.968285 0.543579 0.765637
O O9 0.145964 0.360541 0.780814
O O10 0.934939 0.175132 0.631900
O O11 0.354843 0.709883 0.772225
O O12 0.500000 0.500000 0.000000
O O13 0.471592 0.785510 0.662619
O O14 0.612860 0.041209 0.746825
O O15 0.000000 0.500000 0.500000
O O16 0.000000 0.000000 0.500000
#
# Coordination Sequence:
#
# PCOD9064590 Si02
#       7
#     2   2   2   2   2   2   2
#     4  11  26  46  71 109 143 193 238 309 362 434
#     4  12  25  46  73 107 146 189 242 296 364 433
#     4  11  24  46  70 100 155 185 247 298 365 431
#     4  12  25  43  71 105 147 191 241 301 359 434
#     4  12  26  45  75 107 145 190 246 296 366 424
#     4  12  24  47  74 107 147 191 244 298 359 436
#     4  12  25  47  75 104 146 188 241 299 369 434
#
# _framework density 24.528328999999999
#
# number of rings (size 3 to 8) (size 9 to 14) (size 15 to 20)
#    0.000    0.286    2.857    6.429    2.000    1.143 
#    2.571    0.000    0.000    0.000    0.000    0.000 
#    0.000    0.000    0.000    0.000    0.000    0.000 
#
# Total GULP energy -78334.593747 kJ/mol
# GULP energy per Si atom -5595.328125 kJ/mol
# Density = 2.447250 g / cm^3
# Si number density = 24.528329 Si / 1000 Ang^3
#
#
#
# Elastic Constant Matrix: (Units=GPa)
#
#
# Indices 1 2 3 4 5 6 
#
# 1 123.5299 24.5017 64.1534 -2.5745 20.0192 -27.3301
# 2 24.5017 48.7115 19.9643 -8.7569 -1.6566 -10.7639
# 3 64.1534 19.9643 189.2733 -2.1819 -4.8732 -3.4464
# 4 -2.5745 -8.7569 -2.1819 30.7820 -5.2258 1.7566
# 5 20.0192 -1.6566 -4.8732 -5.2258 64.3589 -5.9119
# 6 -27.3301 -10.7639 -3.4464 1.7566 -5.9119 41.3732
#
#
#
# Elastic Compliance Matrix: (Units=1/GPa)
#
#
# Indices 1 2 3 4 5 6 
#
# 1 0.013046 -0.003789 -0.004015 -0.001328 -0.003944 0.006790
# 2 -0.003789 0.025140 -0.001145 0.006978 0.002676 0.004028
# 3 -0.004015 -0.001145 0.006768 0.000205 0.001549 -0.002174
# 4 -0.001328 0.006978 0.000205 0.034962 0.003444 -0.000037
# 5 -0.003944 0.002676 0.001549 0.003444 0.017280 0.000543
# 6 0.006790 0.004028 -0.002174 -0.000037 0.000543 0.029602
#
#
# Mechanical properties :
#
#
# Convention : Reuss Voigt Hill
#
# Bulk Modulus (GPa) = 36.96140 64.30594 50.63367
# Shear Modulus (GPa) = 32.52806 44.16251 38.34529
#
# Velocity S-wave (km/s) = 3.64557 4.24780 3.95816
# Velocity P-wave (km/s) = 5.72904 7.09453 6.44803
#
# Compressibility (1/GPa) = 0.02705525
#
# Stress axis : x y z
#
# Youngs Moduli (GPa) = 76.65326 39.77796 147.75897
#
# Poissons Ratio (x) = 0.15071 0.59331
# Poissons Ratio (y) = 0.29042 0.16916
# Poissons Ratio (z) = 0.30779 0.04554
#
# Static dielectric constant tensor:
#      x y z
#    x 1.923880 0.100480 -0.019730 
#    y 0.100480 1.878170 -0.074890 
#    z -0.019730 -0.074890 1.895790 
# 
# From -- ./inp_files/157898.got.cif
#   From: 2010.05.17/outbox.cif.g08.bks.cpg/sg2_79_cif.got.tgz:157898.got - 2010.06.03 11:33:40.
