data_PCOD9064417
_publ_section_title
;
Structure prediction by ZEFSAII (Michael W. Deem and Ramdas Pophale) SiO2 
 PCOD9064417
Probable space group: P -1
;
_chemical_formula_sum "Si O2"
_cell_formula_units_Z 14
_cell_length_a 5.452620
_cell_length_b 15.815822
_cell_length_c 8.917792
_cell_angle_alpha 118.467388
_cell_angle_beta 90.787025
_cell_angle_gamma 60.050684
_cell_volume 559.829510
_symmetry_space_group_name_H-M "P -1"
_symmetry_group_IT_number 2
_symmetry_cell_setting 'triclinic'
loop_
_space_group_symop_operation_xyz
x,y,z
-x,-y,-z
loop_
_atom_site_type_symbol
_atom_site_label
_atom_site_fract_x
_atom_site_fract_y
_atom_site_fract_z
Si Si1 0.809131 0.282041 0.015814
Si Si2 0.266044 0.635882 0.584275
Si Si3 0.705474 0.161226 0.281959
Si Si4 0.775587 0.752828 0.441558
Si Si5 0.367981 0.953863 0.082922
Si Si6 0.195286 0.369111 0.945622
Si Si7 0.243100 0.106962 0.684360
O O1 0.863552 0.295235 0.201538
O O2 0.460557 0.348261 0.035287
O O3 0.968932 0.339234 0.986509
O O4 0.962787 0.153275 0.833176
O O5 0.500000 0.500000 0.500000
O O6 0.396339 0.707110 0.582171
O O7 0.011468 0.662944 0.487687
O O8 0.506200 0.146065 0.383742
O O9 0.647345 0.138957 0.094511
O O10 0.050708 0.065596 0.222279
O O11 0.672711 0.704088 0.268793
O O12 0.914838 0.804736 0.382402
O O13 0.555069 0.892975 0.180476
O O14 0.500000 0.000000 0.000000
O O15 0.000000 0.500000 0.000000
O O16 0.500000 0.000000 0.500000
#
# Coordination Sequence:
#
# PCOD9064417 Si02
#       7
#     2   2   2   2   2   2   2
#     4  11  27  47  74 111 150 203 256 320 391 470
#     4  12  28  48  76 107 153 207 269 324 387 467
#     4  11  25  43  76 103 153 196 260 317 390 468
#     4  11  27  44  70 110 145 197 258 318 385 462
#     4  11  24  47  73 112 148 203 249 322 391 474
#     4  11  26  48  76 105 152 197 255 324 392 456
#     4  11  24  45  75 105 156 195 255 317 400 463
#
# _framework density 25.007612000000002
#
# number of rings (size 3 to 8) (size 9 to 14) (size 15 to 20)
#    0.000    0.857    0.000    5.571   14.000    2.286 
#    0.000    0.000    0.000    0.000    0.000    0.000 
#    0.000    0.000    0.000    0.000    0.000    0.000 
#
# Total GULP energy -78105.496959 kJ/mol
# GULP energy per Si atom -5578.964068 kJ/mol
# Density = 2.495069 g / cm^3
# Si number density = 25.007612 Si / 1000 Ang^3
#
#
#
# Elastic Constant Matrix: (Units=GPa)
#
#
# Indices 1 2 3 4 5 6 
#
# 1 105.6541 34.2701 10.5607 -16.3981 -0.5674 -6.5797
# 2 34.2701 118.5194 19.2917 -15.3023 9.2030 -16.7228
# 3 10.5607 19.2917 113.0927 -29.1412 -13.3563 7.4328
# 4 -16.3981 -15.3023 -29.1412 47.9871 0.1254 6.7675
# 5 -0.5674 9.2030 -13.3563 0.1254 41.4895 -4.6849
# 6 -6.5797 -16.7228 7.4328 6.7675 -4.6849 39.7571
#
#
#
# Elastic Compliance Matrix: (Units=1/GPa)
#
#
# Indices 1 2 3 4 5 6 
#
# 1 0.010832 -0.002855 0.000340 0.002977 0.000896 0.000127
# 2 -0.002855 0.010393 -0.001887 0.000657 -0.002520 0.003843
# 3 0.000340 -0.001887 0.011644 0.007095 0.003734 -0.003682
# 4 0.002977 0.000657 0.007095 0.027073 0.001534 -0.004985
# 5 0.000896 -0.002520 0.003734 0.001534 0.026006 0.001194
# 6 0.000127 0.003843 -0.003682 -0.004985 0.001194 0.028468
#
#
# Mechanical properties :
#
#
# Convention : Reuss Voigt Hill
#
# Bulk Modulus (GPa) = 41.55409 51.72346 46.63878
# Shear Modulus (GPa) = 38.09819 44.05632 41.07725
#
# Velocity S-wave (km/s) = 3.90739 4.20183 4.05728
# Velocity P-wave (km/s) = 6.08355 6.65346 6.37488
#
# Compressibility (1/GPa) = 0.02406502
#
# Stress axis : x y z
#
# Youngs Moduli (GPa) = 92.32247 96.22070 85.88395
#
# Poissons Ratio (x) = 0.27467 -0.02921
# Poissons Ratio (y) = 0.26354 0.16207
# Poissons Ratio (z) = -0.03140 0.18157
#
# Static dielectric constant tensor:
#      x y z
#    x 2.080920 0.088720 0.035580 
#    y 0.088720 2.056370 0.037170 
#    z 0.035580 0.037170 2.046390 
# 
# From -- ./inp_files/139376.got.cif
#   From: 2010.05.17/outbox.cif.g08.bks.cpg/sg2_70_cif.got.tgz:139376.got - 2010.06.03 11:33:40.
