data_PCOD9064500
_publ_section_title
;
Structure prediction by ZEFSAII (Michael W. Deem and Ramdas Pophale) SiO2 
 PCOD9064500
Probable space group: P -1
;
_chemical_formula_sum "Si O2"
_cell_formula_units_Z 12
_cell_length_a 11.715959
_cell_length_b 5.102364
_cell_length_c 7.573180
_cell_angle_alpha 75.793483
_cell_angle_beta 82.893022
_cell_angle_gamma 85.816253
_cell_volume 435.073541
_symmetry_space_group_name_H-M "P -1"
_symmetry_group_IT_number 2
_symmetry_cell_setting 'triclinic'
loop_
_space_group_symop_operation_xyz
x,y,z
-x,-y,-z
loop_
_atom_site_type_symbol
_atom_site_label
_atom_site_fract_x
_atom_site_fract_y
_atom_site_fract_z
Si Si1 0.135379 0.486276 0.430941
Si Si2 0.163041 0.909271 0.162330
Si Si3 0.953149 0.226368 0.128326
Si Si4 0.397402 0.205706 0.048244
Si Si5 0.535492 0.376967 0.321394
Si Si6 0.760930 0.098382 0.423847
O O1 0.196672 0.212415 0.528064
O O2 0.000000 0.500000 0.500000
O O3 0.155004 0.578797 0.210890
O O4 0.208732 0.758899 0.419513
O O5 0.282371 0.049866 0.105624
O O6 0.050671 0.061275 0.252932
O O7 0.108024 0.971763 0.964177
O O8 0.844257 0.285178 0.266620
O O9 0.000000 0.500000 0.000000
O O10 0.431160 0.304209 0.223069
O O11 0.396913 0.429392 0.857479
O O12 0.500000 0.000000 0.000000
O O13 0.500000 0.500000 0.500000
O O14 0.371053 0.863884 0.612308
#
# Coordination Sequence:
#
# PCOD9064500 Si02
#       6
#     2   2   2   2   2   2
#     4  12  27  50  78 121 162 213 273 348 430 517
#     4  11  26  46  78 117 161 216 278 347 430 515
#     4  11  24  45  80 113 163 215 269 353 432 513
#     4  11  27  54  85 122 169 227 296 353 429 521
#     4  11  29  56  84 122 172 228 292 361 432 507
#     4  12  28  50  81 116 166 213 280 350 432 513
#
# _framework density 27.581548999999999
#
# number of rings (size 3 to 8) (size 9 to 14) (size 15 to 20)
#    0.000    0.667    1.667    3.500   11.667    3.333 
#    0.000    0.833    0.000    0.000    0.000    0.000 
#    0.000    0.000    0.000    0.000    0.000    0.000 
#
# Total GULP energy -67090.353436 kJ/mol
# GULP energy per Si atom -5590.862786 kJ/mol
# Density = 2.751877 g / cm^3
# Si number density = 27.581549 Si / 1000 Ang^3
#
#
#
# Elastic Constant Matrix: (Units=GPa)
#
#
# Indices 1 2 3 4 5 6 
#
# 1 240.1891 90.0802 90.5464 -22.9676 1.9892 14.8713
# 2 90.0802 126.0935 68.7084 -26.0435 9.6628 7.9152
# 3 90.5464 68.7084 162.5385 -28.2389 -10.9100 18.7114
# 4 -22.9676 -26.0435 -28.2389 54.7978 -1.9450 8.8207
# 5 1.9892 9.6628 -10.9100 -1.9450 41.3721 -15.2987
# 6 14.8713 7.9152 18.7114 8.8207 -15.2987 62.8945
#
#
#
# Elastic Compliance Matrix: (Units=1/GPa)
#
#
# Indices 1 2 3 4 5 6 
#
# 1 0.006184 -0.003250 -0.002013 0.000086 -0.000261 -0.000530
# 2 -0.003250 0.013118 -0.003290 0.003250 -0.004127 -0.001363
# 3 -0.002013 -0.003290 0.009550 0.002883 0.002910 -0.001648
# 4 0.000086 0.003250 0.002883 0.022022 -0.000644 -0.004532
# 5 -0.000261 -0.004127 0.002910 -0.000644 0.028364 0.006705
# 6 -0.000530 -0.001363 -0.001648 -0.004532 0.006705 0.018953
#
#
# Mechanical properties :
#
#
# Convention : Reuss Voigt Hill
#
# Bulk Modulus (GPa) = 85.13056 114.16565 99.64810
# Shear Modulus (GPa) = 41.94148 50.44530 46.19339
#
# Velocity S-wave (km/s) = 3.90376 4.28126 4.09686
# Velocity P-wave (km/s) = 7.15899 8.11917 7.65415
#
# Compressibility (1/GPa) = 0.01174666
#
# Stress axis : x y z
#
# Youngs Moduli (GPa) = 161.69919 76.22856 104.70835
#
# Poissons Ratio (x) = 0.24776 0.21075
# Poissons Ratio (y) = 0.52556 0.34452
# Poissons Ratio (z) = 0.32546 0.25081
#
# Static dielectric constant tensor:
#      x y z
#    x 2.561990 -0.532080 -0.298790 
#    y -0.532080 4.499280 1.787860 
#    z -0.298790 1.787860 3.697470 
# 
# From -- ./inp_files/229450.got.cif
#   From: 2010.05.17/outbox.cif.g08.bks.cpg/sg2_115_cif.got.tgz:229450.got - 2010.06.03 11:33:40.
