data_PCOD9064274
_publ_section_title
;
Structure prediction by ZEFSAII (Michael W. Deem and Ramdas Pophale) SiO2 
 PCOD9064274
Probable space group: P -1
;
_chemical_formula_sum "Si O2"
_cell_formula_units_Z 14
_cell_length_a 9.433127
_cell_length_b 14.172092
_cell_length_c 11.408875
_cell_angle_alpha 63.557702
_cell_angle_beta 61.290060
_cell_angle_gamma 116.972373
_cell_volume 631.063420
_symmetry_space_group_name_H-M "P -1"
_symmetry_group_IT_number 2
_symmetry_cell_setting 'triclinic'
loop_
_space_group_symop_operation_xyz
x,y,z
-x,-y,-z
loop_
_atom_site_type_symbol
_atom_site_label
_atom_site_fract_x
_atom_site_fract_y
_atom_site_fract_z
Si Si1 0.742146 0.643427 0.097710
Si Si2 0.691853 0.137229 0.650623
Si Si3 0.753755 0.478989 0.355694
Si Si4 0.797101 0.506953 0.598978
Si Si5 0.602216 0.252129 0.026672
Si Si6 0.713405 0.520739 0.942830
Si Si7 0.794946 0.961303 0.188687
O O1 0.736351 0.587534 0.258397
O O2 0.415988 0.513032 0.273293
O O3 0.803681 0.592411 0.001605
O O4 0.992558 0.873376 0.885561
O O5 0.397275 0.048157 0.789412
O O6 0.857424 0.268600 0.630705
O O7 0.967604 0.307095 0.352758
O O8 0.607512 0.967058 0.779736
O O9 0.737072 0.455660 0.514950
O O10 0.472243 0.260836 0.533467
O O11 0.081805 0.615452 0.116926
O O12 0.683174 0.349240 0.814566
O O13 0.523430 0.309115 0.106817
O O14 0.500000 0.500000 0.000000
O O15 0.000000 0.000000 0.000000
#
# Coordination Sequence:
#
# PCOD9064274 Si02
#       7
#     2   2   2   2   2   2   2
#     4  12  26  45  72 106 143 186 235 296 355 417
#     4  11  25  47  75 106 139 191 240 288 354 421
#     4  12  25  45  69 105 146 186 231 296 361 410
#     4  11  24  45  73 103 146 183 238 295 345 430
#     4  11  24  45  75 103 140 188 236 291 355 414
#     4  11  24  50  72 102 144 184 247 292 340 425
#     4  12  26  45  71 108 146 182 235 292 361 424
#
# _framework density 22.184775999999999
#
# number of rings (size 3 to 8) (size 9 to 14) (size 15 to 20)
#    0.000    0.571    8.571    0.857    0.000    5.714 
#    0.000    0.000    0.000    0.000    0.000    0.000 
#    0.000    0.000    0.000    0.000    0.000    0.000 
#
# Total GULP energy -78187.559973 kJ/mol
# GULP energy per Si atom -5584.825712 kJ/mol
# Density = 2.213428 g / cm^3
# Si number density = 22.184776 Si / 1000 Ang^3
#
#
#
# Elastic Constant Matrix: (Units=GPa)
#
#
# Indices 1 2 3 4 5 6 
#
# 1 102.0875 12.3342 27.2184 8.5636 -20.7327 -14.2953
# 2 12.3342 124.9340 27.0109 -3.0181 -2.0323 -13.0717
# 3 27.2184 27.0109 49.7207 -21.6363 4.9904 -3.4364
# 4 8.5636 -3.0181 -21.6363 29.4680 -4.6802 2.2736
# 5 -20.7327 -2.0323 4.9904 -4.6802 29.3802 -7.2975
# 6 -14.2953 -13.0717 -3.4364 2.2736 -7.2975 36.3897
#
#
#
# Elastic Compliance Matrix: (Units=1/GPa)
#
#
# Indices 1 2 3 4 5 6 
#
# 1 0.026807 0.005435 -0.030797 -0.027248 0.024189 0.016128
# 2 0.005435 0.010953 -0.013374 -0.009689 0.007014 0.006818
# 3 -0.030797 -0.013374 0.070222 0.055809 -0.030639 -0.019902
# 4 -0.027248 -0.009689 0.055809 0.079877 -0.021162 -0.018149
# 5 0.024189 0.007014 -0.030639 -0.021162 0.058956 0.022274
# 6 0.016128 0.006818 -0.019902 -0.018149 0.022274 0.039986
#
#
# Mechanical properties :
#
#
# Convention : Reuss Voigt Hill
#
# Bulk Modulus (GPa) = 32.77888 45.54101 39.15995
# Shear Modulus (GPa) = 13.35314 33.05951 23.20632
#
# Velocity S-wave (km/s) = 2.45604 3.86448 3.23777
# Velocity P-wave (km/s) = 4.78020 6.36278 5.62740
#
# Compressibility (1/GPa) = 0.03050745
#
# Stress axis : x y z
#
# Youngs Moduli (GPa) = 37.30435 91.30224 14.24052
#
# Poissons Ratio (x) = -0.49619 0.43857
# Poissons Ratio (y) = -0.20273 0.19046
# Poissons Ratio (z) = 1.14887 1.22109
#
# Static dielectric constant tensor:
#      x y z
#    x 1.837120 -0.017380 -0.004560 
#    y -0.017380 1.870210 0.029280 
#    z -0.004560 0.029280 1.811570 
# 
# From -- ./inp_files/398768.got.cif
#   From: 2010.05.17/outbox.cif.g08.bks.cpg/sg2_200_cif.got.tgz:398768.got - 2010.06.03 11:33:40.
