data_PCOD9064166
_publ_section_title
;
Structure prediction by ZEFSAII (Michael W. Deem and Ramdas Pophale) SiO2 
 PCOD9064166
Probable space group: P -1
;
_chemical_formula_sum "Si O2"
_cell_formula_units_Z 16
_cell_length_a 9.165593
_cell_length_b 24.499447
_cell_length_c 9.285644
_cell_angle_alpha 37.755083
_cell_angle_beta 81.943702
_cell_angle_gamma 53.858643
_cell_volume 774.907985
_symmetry_space_group_name_H-M "P -1"
_symmetry_group_IT_number 2
_symmetry_cell_setting 'triclinic'
loop_
_space_group_symop_operation_xyz
x,y,z
-x,-y,-z
loop_
_atom_site_type_symbol
_atom_site_label
_atom_site_fract_x
_atom_site_fract_y
_atom_site_fract_z
Si Si1 0.158139 0.647781 0.349192
Si Si2 0.759114 0.111658 0.712101
Si Si3 0.704037 0.621978 0.619897
Si Si4 0.454933 0.381428 0.656822
Si Si5 0.742102 0.112623 0.381041
Si Si6 0.008329 0.637020 0.666934
Si Si7 0.288114 0.062792 0.809291
Si Si8 0.396338 0.029469 0.297587
O O1 0.260558 0.539469 0.429806
O O2 0.315210 0.663164 0.310772
O O3 0.188300 0.576773 0.639528
O O4 0.873244 0.804022 0.043395
O O5 0.547382 0.266205 0.495291
O O6 0.776476 0.127895 0.509044
O O7 0.719468 0.027529 0.924764
O O8 0.000000 0.000000 0.000000
O O9 0.652221 0.617010 0.473027
O O10 0.807692 0.671530 0.540034
O O11 0.889996 0.469231 0.994469
O O12 0.551972 0.261896 0.005997
O O13 0.643193 0.058727 0.522603
O O14 0.000000 0.000000 0.500000
O O15 0.929620 0.767909 0.476322
O O16 0.395727 0.023724 0.717617
O O17 0.500000 0.000000 0.000000
O O18 0.500000 0.000000 0.500000
#
# Coordination Sequence:
#
# PCOD9064166 Si02
#       8
#     2   2   2   2   2   2   2   2
#     4  11  24  48  64  98 138 182 218 287 332 406
#     4  12  26  44  73 101 137 179 228 282 338 405
#     4  11  25  45  68 102 130 183 227 281 338 403
#     4  11  27  44  69  97 142 177 229 271 346 405
#     4  12  24  45  68 102 138 176 224 281 339 403
#     4  11  24  45  71  95 141 172 233 280 336 399
#     4  12  23  46  69 101 132 179 227 280 339 398
#     4  12  27  43  72 102 138 176 227 281 344 402
#
# _framework density 20.647611999999999
#
# number of rings (size 3 to 8) (size 9 to 14) (size 15 to 20)
#    0.000    0.500    5.000    1.500    8.750    2.000 
#    2.250    0.000    0.000    0.000    0.000    0.000 
#    0.000    0.000    0.000    0.000    0.000    0.000 
#
# Total GULP energy -89180.520646 kJ/mol
# GULP energy per Si atom -5573.782540 kJ/mol
# Density = 2.060062 g / cm^3
# Si number density = 20.647612 Si / 1000 Ang^3
#
#
#
# Elastic Constant Matrix: (Units=GPa)
#
#
# Indices 1 2 3 4 5 6 
#
# 1 42.6314 15.2446 23.5397 12.9912 12.5871 1.0307
# 2 15.2446 140.7536 36.4616 28.0194 8.9785 9.3097
# 3 23.5397 36.4616 81.6025 21.0528 -0.9394 17.0693
# 4 12.9912 28.0194 21.0528 45.6209 4.0858 3.6461
# 5 12.5871 8.9785 -0.9394 4.0858 28.8564 9.4027
# 6 1.0307 9.3097 17.0693 3.6461 9.4027 29.2460
#
#
#
# Elastic Compliance Matrix: (Units=1/GPa)
#
#
# Indices 1 2 3 4 5 6 
#
# 1 0.037504 0.000595 -0.012998 -0.004254 -0.020684 0.013255
# 2 0.000595 0.008789 -0.003213 -0.003876 -0.002681 0.000402
# 3 -0.012998 -0.003213 0.021813 -0.004355 0.012829 -0.014832
# 4 -0.004254 -0.003876 -0.004355 0.027564 -0.001276 0.000900
# 5 -0.020684 -0.002681 0.012829 -0.001276 0.052479 -0.022618
# 6 0.013255 0.000402 -0.014832 0.000900 -0.022618 0.049414
#
#
# Mechanical properties :
#
#
# Convention : Reuss Voigt Hill
#
# Bulk Modulus (GPa) = 27.12001 46.16436 36.64219
# Shear Modulus (GPa) = 20.73936 33.39412 27.06674
#
# Velocity S-wave (km/s) = 3.17273 4.02597 3.62455
# Velocity P-wave (km/s) = 5.15605 6.63461 5.94150
#
# Compressibility (1/GPa) = 0.03687315
#
# Stress axis : x y z
#
# Youngs Moduli (GPa) = 26.66374 113.78285 45.84319
#
# Poissons Ratio (x) = -0.06765 0.59586
# Poissons Ratio (y) = -0.01585 0.14731
# Poissons Ratio (z) = 0.34657 0.36562
#
# Static dielectric constant tensor:
#      x y z
#    x 1.752370 -0.043490 -0.038740 
#    y -0.043490 1.740490 -0.002570 
#    z -0.038740 -0.002570 1.748410 
# 
# From -- ./inp_files/190773.got.cif
#   From: 2010.05.17/outbox.cif.g08.bks.cpg/sg2_96_cif.got.tgz:190773.got - 2010.06.03 11:33:40.
