data_PCOD9064063
_publ_section_title
;
Structure prediction by ZEFSAII (Michael W. Deem and Ramdas Pophale) SiO2 
 PCOD9064063
Probable space group: P -1
;
_chemical_formula_sum "Si O2"
_cell_formula_units_Z 12
_cell_length_a 9.044811
_cell_length_b 14.706153
_cell_length_c 16.362379
_cell_angle_alpha 152.173493
_cell_angle_beta 28.852588
_cell_angle_gamma 142.086680
_cell_volume 489.257304
_symmetry_space_group_name_H-M "P -1"
_symmetry_group_IT_number 2
_symmetry_cell_setting 'triclinic'
loop_
_space_group_symop_operation_xyz
x,y,z
-x,-y,-z
loop_
_atom_site_type_symbol
_atom_site_label
_atom_site_fract_x
_atom_site_fract_y
_atom_site_fract_z
Si Si1 0.289554 0.581411 0.553907
Si Si2 0.270200 0.468961 0.012082
Si Si3 0.645458 0.421962 0.107816
Si Si4 0.161485 0.252987 0.489770
Si Si5 0.117285 0.149608 0.131506
Si Si6 0.860974 0.972889 0.285115
O O1 0.513356 0.477698 0.302458
O O2 0.169916 0.426065 0.555432
O O3 0.504169 0.743130 0.627885
O O4 0.043649 0.663324 0.677651
O O5 0.452175 0.464257 0.835452
O O6 0.094598 0.256480 0.933612
O O7 0.500000 0.500000 0.000000
O O8 0.073879 0.661266 0.262883
O O9 0.481712 0.206705 0.002597
O O10 0.000000 0.500000 0.000000
O O11 0.041022 0.061556 0.347446
O O12 0.984044 0.083798 0.231874
O O13 0.000000 0.000000 0.000000
O O14 0.500000 0.000000 0.500000
#
# Coordination Sequence:
#
# PCOD9064063 Si02
#       6
#     2   2   2   2   2   2
#     4  11  24  47  72  99 147 188 236 301 357 430
#     4  12  24  44  71 104 146 187 238 296 362 429
#     4  12  25  47  72 107 142 189 241 296 363 426
#     4  11  24  45  70 105 142 190 239 293 365 420
#     4  12  27  47  73 107 144 190 243 297 361 431
#     4  12  25  43  73 108 143 190 243 296 360 434
#
# _framework density 24.526971
#
# number of rings (size 3 to 8) (size 9 to 14) (size 15 to 20)
#    0.000    0.333    5.000    4.500    0.000    1.333 
#    0.000    5.833    0.000    0.000    0.000    0.000 
#    0.000    0.000    0.000    0.000    0.000    0.000 
#
# Total GULP energy -67067.985635 kJ/mol
# GULP energy per Si atom -5588.998803 kJ/mol
# Density = 2.447115 g / cm^3
# Si number density = 24.526971 Si / 1000 Ang^3
#
#
#
# Elastic Constant Matrix: (Units=GPa)
#
#
# Indices 1 2 3 4 5 6 
#
# 1 127.1298 58.8518 28.8909 11.7635 23.0136 27.6431
# 2 58.8518 154.4820 39.2223 -5.2947 9.8203 31.7007
# 3 28.8909 39.2223 64.5103 -0.3668 11.9616 21.2468
# 4 11.7635 -5.2947 -0.3668 46.0622 7.0046 16.6445
# 5 23.0136 9.8203 11.9616 7.0046 39.8322 9.5012
# 6 27.6431 31.7007 21.2468 16.6445 9.5012 61.9187
#
#
#
# Elastic Compliance Matrix: (Units=1/GPa)
#
#
# Indices 1 2 3 4 5 6 
#
# 1 0.011063 -0.003278 -0.001677 -0.002019 -0.004374 -0.001471
# 2 -0.003278 0.009219 -0.003280 0.002836 0.000828 -0.003021
# 3 -0.001677 -0.003280 0.020494 0.002475 -0.003690 -0.004704
# 4 -0.002019 0.002836 0.002475 0.025875 -0.002941 -0.007904
# 5 -0.004374 0.000828 -0.003690 -0.002941 0.029270 -0.000906
# 6 -0.001471 -0.003021 -0.004704 -0.007904 -0.000906 0.022231
#
#
# Mechanical properties :
#
#
# Convention : Reuss Voigt Hill
#
# Bulk Modulus (GPa) = 41.14166 66.67244 53.90705
# Shear Modulus (GPa) = 35.03256 44.17309 39.60282
#
# Velocity S-wave (km/s) = 3.78342 4.24842 4.02265
# Velocity P-wave (km/s) = 5.99134 7.16295 6.60318
#
# Compressibility (1/GPa) = 0.02430626
#
# Stress axis : x y z
#
# Youngs Moduli (GPa) = 90.38991 108.46965 48.79443
#
# Poissons Ratio (x) = 0.35556 0.08185
# Poissons Ratio (y) = 0.29629 0.16003
# Poissons Ratio (z) = 0.15163 0.35575
#
# Static dielectric constant tensor:
#      x y z
#    x 1.840910 0.032630 -0.046080 
#    y 0.032630 1.969360 0.035100 
#    z -0.046080 0.035100 2.011790 
# 
# From -- ./inp_files/147244.got.cif
#   From: 2010.05.17/outbox.cif.g08.bks.cpg/sg2_74_cif.got.tgz:147244.got - 2010.06.03 11:33:40.
