data_PCOD9064842
_publ_section_title
;
Structure prediction by ZEFSAII (Michael W. Deem and Ramdas Pophale) SiO2 
 PCOD9064842
Probable space group: P -1
;
_chemical_formula_sum "Si O2"
_cell_formula_units_Z 13
_cell_length_a 8.279087
_cell_length_b 10.036237
_cell_length_c 12.041112
_cell_angle_alpha 68.594429
_cell_angle_beta 142.561841
_cell_angle_gamma 105.680570
_cell_volume 565.921758
_symmetry_space_group_name_H-M "P -1"
_symmetry_group_IT_number 2
_symmetry_cell_setting 'triclinic'
loop_
_space_group_symop_operation_xyz
x,y,z
-x,-y,-z
loop_
_atom_site_type_symbol
_atom_site_label
_atom_site_fract_x
_atom_site_fract_y
_atom_site_fract_z
Si Si1 0.464369 0.556106 0.087494
Si Si2 0.000000 0.000000 0.500000
Si Si3 0.405478 0.881458 0.570610
Si Si4 0.330421 0.579985 0.545798
Si Si5 0.883932 0.462390 0.783714
Si Si6 0.981799 0.850071 0.969285
Si Si7 0.693391 0.128451 0.086571
O O1 0.660420 0.487306 0.306795
O O2 0.500000 0.500000 0.000000
O O3 0.481160 0.725627 0.050047
O O4 0.157440 0.522282 0.959393
O O5 0.205207 0.947642 0.529847
O O6 0.156573 0.894725 0.709053
O O7 0.282200 0.749124 0.479940
O O8 0.671153 0.821205 0.795137
O O9 0.500000 0.000000 0.500000
O O10 0.626459 0.544223 0.669198
O O11 0.136575 0.518484 0.366424
O O12 0.879071 0.291940 0.857817
O O13 0.109852 0.866997 0.912628
O O14 0.000000 0.000000 0.000000
O O15 0.500000 0.000000 0.000000
#
# Coordination Sequence:
#
# PCOD9064842 Si02
#       7
#     2   1   2   2   2   2   2
#     4  12  26  46  72 103 148 190 238 306 365 434
#     4  12  28  46  70 112 146 186 252 304 364 450
#     4  12  24  45  74 107 149 193 243 304 377 432
#     4  11  24  46  74 107 138 190 243 298 363 444
#     4  11  25  45  76 106 141 186 249 292 369 447
#     4  12  24  46  75 106 148 198 241 306 373 442
#     4  12  28  47  72 108 151 193 247 309 365 443
#
# _framework density 22.971371999999999
#
# number of rings (size 3 to 8) (size 9 to 14) (size 15 to 20)
#    0.000    0.308    4.615    4.154    2.154    1.846 
#    0.000    0.000    0.000    0.000    0.000    0.000 
#    0.000    0.000    0.000    0.000    0.000    0.000 
#
# Total GULP energy -72574.316431 kJ/mol
# GULP energy per Si atom -5582.639725 kJ/mol
# Density = 2.291909 g / cm^3
# Si number density = 22.971372 Si / 1000 Ang^3
#
#
#
# Elastic Constant Matrix: (Units=GPa)
#
#
# Indices 1 2 3 4 5 6 
#
# 1 130.2495 46.4112 27.4561 -17.6257 -17.7826 -38.4721
# 2 46.4112 116.4152 12.5219 -19.8940 -14.1416 -7.1567
# 3 27.4561 12.5219 89.2955 -8.2802 -33.9107 2.4590
# 4 -17.6257 -19.8940 -8.2802 37.2127 1.6871 -0.5147
# 5 -17.7826 -14.1416 -33.9107 1.6871 54.2087 1.6822
# 6 -38.4721 -7.1567 2.4590 -0.5147 1.6822 28.8984
#
#
#
# Elastic Compliance Matrix: (Units=1/GPa)
#
#
# Indices 1 2 3 4 5 6 
#
# 1 0.017863 -0.004138 -0.004676 0.005485 0.000965 0.023195
# 2 -0.004138 0.010876 0.000975 0.003938 0.002059 -0.002948
# 3 -0.004676 0.000975 0.016313 0.001414 0.009126 -0.007878
# 4 0.005485 0.003938 0.001414 0.031898 0.002452 0.008583
# 5 0.000965 0.002059 0.009126 0.002452 0.024945 -0.000391
# 6 0.023195 -0.002948 -0.007878 0.008583 -0.000391 0.065600
#
#
# Mechanical properties :
#
#
# Convention : Reuss Voigt Hill
#
# Bulk Modulus (GPa) = 34.04154 56.52650 45.28402
# Shear Modulus (GPa) = 25.91145 40.70203 33.30674
#
# Velocity S-wave (km/s) = 3.36220 4.21391 3.81192
# Velocity P-wave (km/s) = 5.47026 6.95247 6.25542
#
# Compressibility (1/GPa) = 0.02937587
#
# Stress axis : x y z
#
# Youngs Moduli (GPa) = 55.98173 91.94145 61.29912
#
# Poissons Ratio (x) = 0.38045 0.28663
# Poissons Ratio (y) = 0.23165 -0.05979
# Poissons Ratio (z) = 0.26177 -0.08968
#
# Static dielectric constant tensor:
#      x y z
#    x 1.849890 0.016570 -0.009960 
#    y 0.016570 1.864540 -0.013500 
#    z -0.009960 -0.013500 1.870340 
# 
# From -- ./inp_files/175633.got.cif
#   From: 2010.05.17/outbox.cif.g08.bks.cpg/sg2_88_cif.got.tgz:175633.got - 2010.06.03 11:33:40.
