data_PCOD9064870
_publ_section_title
;
Structure prediction by ZEFSAII (Michael W. Deem and Ramdas Pophale) SiO2 
 PCOD9064870
Probable space group: P -1
;
_chemical_formula_sum "Si O2"
_cell_formula_units_Z 14
_cell_length_a 8.425136
_cell_length_b 11.282807
_cell_length_c 13.420758
_cell_angle_alpha 146.109544
_cell_angle_beta 122.997137
_cell_angle_gamma 68.465065
_cell_volume 586.690937
_symmetry_space_group_name_H-M "P -1"
_symmetry_group_IT_number 2
_symmetry_cell_setting 'triclinic'
loop_
_space_group_symop_operation_xyz
x,y,z
-x,-y,-z
loop_
_atom_site_type_symbol
_atom_site_label
_atom_site_fract_x
_atom_site_fract_y
_atom_site_fract_z
Si Si1 0.689580 0.684056 0.626254
Si Si2 0.217164 0.866752 0.379554
Si Si3 0.538630 0.273531 0.809594
Si Si4 0.172554 0.128057 0.860907
Si Si5 0.922279 0.249145 0.280427
Si Si6 0.292348 0.534237 0.321314
Si Si7 0.588390 0.111574 0.920456
O O1 0.526176 0.571561 0.415847
O O2 0.738717 0.519172 0.610273
O O3 0.885024 0.818688 0.744460
O O4 0.586189 0.860674 0.767609
O O5 0.322092 0.728419 0.239446
O O6 0.224320 0.744309 0.401271
O O7 0.003884 0.871036 0.272908
O O8 0.343687 0.107010 0.597400
O O9 0.631066 0.160440 0.853431
O O10 0.500000 0.500000 0.000000
O O11 0.379026 0.162878 0.903703
O O12 0.143280 0.905892 0.757917
O O13 0.185801 0.326643 0.080918
O O14 0.000000 0.500000 0.500000
O O15 0.751919 0.233579 0.132466
#
# Coordination Sequence:
#
# PCOD9064870 Si02
#       7
#     2   2   2   2   2   2   2
#     4  11  25  46  75 105 138 187 238 303 356 429
#     4  11  26  49  74 106 150 194 240 301 362 435
#     4  11  26  47  75 107 146 192 247 298 360 430
#     4  12  27  45  72 106 145 191 234 298 367 433
#     4  12  28  44  73 107 143 187 243 297 367 430
#     4  11  24  46  75 101 145 184 240 296 364 425
#     4  12  25  49  72 105 144 186 244 297 359 436
#
# _framework density 23.862649000000001
#
# number of rings (size 3 to 8) (size 9 to 14) (size 15 to 20)
#    0.000    0.571    2.857    3.857   10.000    0.571 
#    2.571    0.000    0.000    0.000    0.000    0.000 
#    0.000    0.000    0.000    0.000    0.000    0.000 
#
# Total GULP energy -78399.500638 kJ/mol
# GULP energy per Si atom -5599.964331 kJ/mol
# Density = 2.380834 g / cm^3
# Si number density = 23.862649 Si / 1000 Ang^3
#
#
#
# Elastic Constant Matrix: (Units=GPa)
#
#
# Indices 1 2 3 4 5 6 
#
# 1 63.3011 40.8919 23.6545 -6.0530 9.0341 -15.0556
# 2 40.8919 114.2525 57.4533 -43.6038 26.0934 -7.0417
# 3 23.6545 57.4533 149.4934 -5.8738 10.3125 -20.8815
# 4 -6.0530 -43.6038 -5.8738 45.1057 -8.9686 6.9102
# 5 9.0341 26.0934 10.3125 -8.9686 24.8578 1.8218
# 6 -15.0556 -7.0417 -20.8815 6.9102 1.8218 37.2753
#
#
#
# Elastic Compliance Matrix: (Units=1/GPa)
#
#
# Indices 1 2 3 4 5 6 
#
# 1 0.025575 -0.014010 0.002500 -0.011643 -0.000652 0.011274
# 2 -0.014010 0.030083 -0.008680 0.024770 -0.013305 -0.008780
# 3 0.002500 -0.008680 0.010177 -0.007561 0.000781 0.006435
# 4 -0.011643 0.024770 -0.007561 0.045217 -0.001398 -0.012573
# 5 -0.000652 -0.013305 0.000781 -0.001398 0.053949 -0.004717
# 6 0.011274 -0.008780 0.006435 -0.012573 -0.004717 0.035888
#
#
# Mechanical properties :
#
#
# Convention : Reuss Voigt Hill
#
# Bulk Modulus (GPa) = 39.28576 63.44961 51.36768
# Shear Modulus (GPa) = 20.01965 35.11757 27.56861
#
# Velocity S-wave (km/s) = 2.89961 3.84038 3.40266
# Velocity P-wave (km/s) = 5.26397 6.80528 6.08364
#
# Compressibility (1/GPa) = 0.02545452
#
# Stress axis : x y z
#
# Youngs Moduli (GPa) = 39.10067 33.24179 98.25690
#
# Poissons Ratio (x) = 0.46573 -0.24564
# Poissons Ratio (y) = 0.54782 0.85285
# Poissons Ratio (z) = -0.09775 0.28853
#
# Static dielectric constant tensor:
#      x y z
#    x 2.120500 -0.058290 -0.013940 
#    y -0.058290 1.879130 0.012680 
#    z -0.013940 0.012680 1.928990 
# 
# From -- ./inp_files/224109.got.cif
#   From: 2010.05.17/outbox.cif.g08.bks.cpg/sg2_113_cif.got.tgz:224109.got - 2010.06.03 11:33:40.
