data_PCOD9064186
_publ_section_title
;
Structure prediction by ZEFSAII (Michael W. Deem and Ramdas Pophale) SiO2 
 PCOD9064186
Probable space group: P -1
;
_chemical_formula_sum "Si O2"
_cell_formula_units_Z 16
_cell_length_a 11.612269
_cell_length_b 8.731217
_cell_length_c 13.949872
_cell_angle_alpha 72.032736
_cell_angle_beta 136.460130
_cell_angle_gamma 130.199440
_cell_volume 709.195465
_symmetry_space_group_name_H-M "P -1"
_symmetry_group_IT_number 2
_symmetry_cell_setting 'triclinic'
loop_
_space_group_symop_operation_xyz
x,y,z
-x,-y,-z
loop_
_atom_site_type_symbol
_atom_site_label
_atom_site_fract_x
_atom_site_fract_y
_atom_site_fract_z
Si Si1 0.700836 0.842582 0.602356
Si Si2 0.804900 0.997409 0.851982
Si Si3 0.081486 0.122084 0.627962
Si Si4 0.259212 0.494105 0.360555
Si Si5 0.872437 0.521042 0.510358
Si Si6 0.636314 0.184653 0.291431
Si Si7 0.532196 0.879393 0.122720
Si Si8 0.058882 0.484059 0.932353
O O1 0.469847 0.739765 0.432338
O O2 0.702308 0.648128 0.642513
O O3 0.727647 0.916149 0.712497
O O4 0.892815 0.008775 0.614846
O O5 0.921226 0.241722 0.874246
O O6 0.596512 0.867944 0.824051
O O7 0.000000 0.000000 0.000000
O O8 0.150144 0.348686 0.605752
O O9 0.266531 0.114033 0.776579
O O10 0.000000 0.000000 0.500000
O O11 0.229189 0.459458 0.462148
O O12 0.036243 0.432874 0.204952
O O13 0.737785 0.281545 0.440361
O O14 0.128805 0.635201 0.655813
O O15 0.567039 0.984260 0.227984
O O16 0.315957 0.636429 0.043689
O O17 0.500000 0.000000 0.000000
O O18 0.000000 0.500000 0.000000
#
# Coordination Sequence:
#
# PCOD9064186 Si02
#       8
#     2   2   2   2   2   2   2   2
#     4  11  25  44  73 103 144 183 237 302 358 428
#     4  12  28  47  71 107 150 190 238 301 367 433
#     4  12  25  44  74 106 141 190 245 294 357 427
#     4  11  24  46  72 104 140 188 244 295 362 437
#     4  11  24  46  76 106 140 187 243 301 363 427
#     4  11  24  45  72 101 145 186 234 307 357 419
#     4  12  27  48  75 105 149 193 242 300 364 433
#     4  12  27  45  73 102 140 195 245 290 367 437
#
# _framework density 22.560777000000002
#
# number of rings (size 3 to 8) (size 9 to 14) (size 15 to 20)
#    0.000    0.500    5.000    2.250    7.000    3.500 
#    0.000    1.250    0.000    0.000    0.000    0.000 
#    0.000    0.000    0.000    0.000    0.000    0.000 
#
# Total GULP energy -89274.189827 kJ/mol
# GULP energy per Si atom -5579.636864 kJ/mol
# Density = 2.250943 g / cm^3
# Si number density = 22.560777 Si / 1000 Ang^3
#
#
#
# Elastic Constant Matrix: (Units=GPa)
#
#
# Indices 1 2 3 4 5 6 
#
# 1 140.7216 41.8425 34.4984 13.9703 10.5741 1.7249
# 2 41.8425 77.8996 42.4992 14.7258 -2.4741 -7.5450
# 3 34.4984 42.4992 86.4064 17.4786 18.9358 3.4594
# 4 13.9703 14.7258 17.4786 38.0593 -0.1447 -3.3024
# 5 10.5741 -2.4741 18.9358 -0.1447 51.8954 16.3109
# 6 1.7249 -7.5450 3.4594 -3.3024 16.3109 45.1899
#
#
#
# Elastic Compliance Matrix: (Units=1/GPa)
#
#
# Indices 1 2 3 4 5 6 
#
# 1 0.008786 -0.004089 -0.000886 -0.001285 -0.001508 -0.000500
# 2 -0.004089 0.020885 -0.009287 -0.002071 0.004389 0.002619
# 3 -0.000886 -0.009287 0.019052 -0.004929 -0.006970 -0.000820
# 4 -0.001285 -0.002071 -0.004929 0.029967 0.001502 0.001728
# 5 -0.001508 0.004389 -0.006970 0.001502 0.024683 -0.007475
# 6 -0.000500 0.002619 -0.000820 0.001728 -0.007475 0.025472
#
#
# Mechanical properties :
#
#
# Convention : Reuss Voigt Hill
#
# Bulk Modulus (GPa) = 49.51033 60.30086 54.90560
# Shear Modulus (GPa) = 30.46836 39.44142 34.95489
#
# Velocity S-wave (km/s) = 3.67890 4.18572 3.94047
# Velocity P-wave (km/s) = 6.32762 7.08142 6.71511
#
# Compressibility (1/GPa) = 0.02019780
#
# Stress axis : x y z
#
# Youngs Moduli (GPa) = 113.81110 47.88142 52.48694
#
# Poissons Ratio (x) = 0.19581 0.04651
# Poissons Ratio (y) = 0.46543 0.48747
# Poissons Ratio (z) = 0.10085 0.44469
#
# Static dielectric constant tensor:
#      x y z
#    x 1.770200 -0.003740 0.025630 
#    y -0.003740 1.904960 -0.019910 
#    z 0.025630 -0.019910 1.903220 
# 
# From -- ./inp_files/515443.got.cif
#   From: 2010.05.17/outbox.cif.g08.bks.cpg/sg2_258_cif.got.tgz:515443.got - 2010.06.03 11:33:40.
