data_PCOD9064882
_publ_section_title
;
Structure prediction by ZEFSAII (Michael W. Deem and Ramdas Pophale) SiO2 
 PCOD9064882
Probable space group: P -1
;
_chemical_formula_sum "Si O2"
_cell_formula_units_Z 16
_cell_length_a 14.154563
_cell_length_b 8.105794
_cell_length_c 8.560601
_cell_angle_alpha 50.873753
_cell_angle_beta 91.772526
_cell_angle_gamma 109.723920
_cell_volume 694.597203
_symmetry_space_group_name_H-M "P -1"
_symmetry_group_IT_number 2
_symmetry_cell_setting 'triclinic'
loop_
_space_group_symop_operation_xyz
x,y,z
-x,-y,-z
loop_
_atom_site_type_symbol
_atom_site_label
_atom_site_fract_x
_atom_site_fract_y
_atom_site_fract_z
Si Si1 0.732197 0.195396 0.549586
Si Si2 0.947151 0.012558 0.325543
Si Si3 0.926527 0.222090 0.683895
Si Si4 0.832391 0.224093 0.014100
Si Si5 0.460028 0.466390 0.345607
Si Si6 0.462216 0.239187 0.085935
Si Si7 0.239904 0.459833 0.365423
Si Si8 0.633339 0.063935 0.304334
O O1 0.840788 0.173300 0.573355
O O2 0.744159 0.390873 0.563194
O O3 0.695712 0.224945 0.357209
O O4 0.645329 0.954950 0.750892
O O5 0.833972 0.802899 0.447082
O O6 0.011465 0.935887 0.248150
O O7 0.000000 0.000000 0.500000
O O8 0.920688 0.225853 0.138244
O O9 0.867725 0.161568 0.884282
O O10 0.000000 0.500000 0.500000
O O11 0.816946 0.454451 0.822526
O O12 0.719681 0.073577 0.176259
O O13 0.500000 0.500000 0.500000
O O14 0.351599 0.485070 0.303372
O O15 0.433259 0.194859 0.473800
O O16 0.544002 0.692615 0.132376
O O17 0.550696 0.148532 0.177750
O O18 0.500000 0.500000 0.000000
#
# Coordination Sequence:
#
# PCOD9064882 Si02
#       8
#     2   2   2   2   2   2   2   2
#     4  11  25  46  74 102 149 188 243 299 359 434
#     4  12  25  47  78 105 145 192 245 302 364 429
#     4  11  24  49  73 102 147 190 242 302 358 423
#     4  11  24  46  75 105 144 189 243 293 367 427
#     4  12  27  44  75 105 147 192 239 295 364 437
#     4  12  27  46  72 110 146 190 240 297 368 432
#     4  11  25  48  70 107 148 188 239 300 364 435
#     4  12  25  48  73 108 145 191 241 299 363 442
#
# _framework density 23.034932999999999
#
# number of rings (size 3 to 8) (size 9 to 14) (size 15 to 20)
#    0.000    0.500    6.250    2.250    5.250    1.500 
#    2.250    0.000    0.000    0.000    0.000    0.000 
#    0.000    0.000    0.000    0.000    0.000    0.000 
#
# Total GULP energy -89334.562026 kJ/mol
# GULP energy per Si atom -5583.410127 kJ/mol
# Density = 2.298250 g / cm^3
# Si number density = 23.034933 Si / 1000 Ang^3
#
#
#
# Elastic Constant Matrix: (Units=GPa)
#
#
# Indices 1 2 3 4 5 6 
#
# 1 86.5175 20.9284 44.4595 -16.8762 5.9854 4.4073
# 2 20.9284 73.8637 35.9405 1.3855 5.0412 17.8942
# 3 44.4595 35.9405 114.4931 13.4854 14.9548 2.5623
# 4 -16.8762 1.3855 13.4854 29.7850 -0.9765 7.4307
# 5 5.9854 5.0412 14.9548 -0.9765 56.2782 -2.9121
# 6 4.4073 17.8942 2.5623 7.4307 -2.9121 30.8848
#
#
#
# Elastic Compliance Matrix: (Units=1/GPa)
#
#
# Indices 1 2 3 4 5 6 
#
# 1 0.020374 0.000298 -0.010000 0.017685 0.000436 -0.006464
# 2 0.000298 0.019491 -0.006500 0.005205 -0.000586 -0.012104
# 3 -0.010000 -0.006500 0.016580 -0.014731 -0.002647 0.007112
# 4 0.017685 0.005205 -0.014731 0.054378 0.001619 -0.017248
# 5 0.000436 -0.000586 -0.002647 0.001619 0.018603 0.001862
# 6 -0.006464 -0.012104 0.007112 -0.017248 0.001862 0.044049
#
#
# Mechanical properties :
#
#
# Convention : Reuss Voigt Hill
#
# Bulk Modulus (GPa) = 41.59702 53.05901 47.32801
# Shear Modulus (GPa) = 23.37624 34.95932 29.16778
#
# Velocity S-wave (km/s) = 3.18908 3.89995 3.56229
# Velocity P-wave (km/s) = 5.62652 6.58511 6.12459
#
# Compressibility (1/GPa) = 0.02404018
#
# Stress axis : x y z
#
# Youngs Moduli (GPa) = 49.08233 51.30457 60.31542
#
# Poissons Ratio (x) = -0.01527 0.60317
# Poissons Ratio (y) = -0.01461 0.39203
# Poissons Ratio (z) = 0.49084 0.33347
#
# Static dielectric constant tensor:
#      x y z
#    x 1.917850 -0.144080 -0.159060 
#    y -0.144080 2.030310 0.229020 
#    z -0.159060 0.229020 2.132970 
# 
# From -- ./inp_files/297304.got.cif
#   From: 2010.05.17/outbox.cif.g08.bks.cpg/sg2_149_cif.got.tgz:297304.got - 2010.06.03 11:33:40.
