data_PCOD9064949
_publ_section_title
;
Structure prediction by ZEFSAII (Michael W. Deem and Ramdas Pophale) SiO2 
 PCOD9064949
Probable space group: P -1
;
_chemical_formula_sum "Si O2"
_cell_formula_units_Z 13
_cell_length_a 15.347729
_cell_length_b 11.745215
_cell_length_c 9.251698
_cell_angle_alpha 88.850177
_cell_angle_beta 109.613692
_cell_angle_gamma 151.623579
_cell_volume 588.796762
_symmetry_space_group_name_H-M "P -1"
_symmetry_group_IT_number 2
_symmetry_cell_setting 'triclinic'
loop_
_space_group_symop_operation_xyz
x,y,z
-x,-y,-z
loop_
_atom_site_type_symbol
_atom_site_label
_atom_site_fract_x
_atom_site_fract_y
_atom_site_fract_z
Si Si1 0.139349 0.533999 0.967966
Si Si2 0.365002 0.929821 0.317411
Si Si3 0.859595 0.087783 0.086436
Si Si4 0.719501 0.690417 0.906226
Si Si5 0.354211 0.586602 0.890148
Si Si6 0.253504 0.434283 0.515110
Si Si7 0.500000 0.500000 0.500000
O O1 0.237573 0.564646 0.898072
O O2 0.917750 0.362072 0.795695
O O3 0.347008 0.844313 0.156607
O O4 0.018901 0.319452 0.036296
O O5 0.500000 0.000000 0.500000
O O6 0.511461 0.214671 0.387489
O O7 0.032495 0.239347 0.306631
O O8 0.705419 0.802992 0.952216
O O9 0.648242 0.933067 0.021814
O O10 0.547464 0.482586 0.677058
O O11 0.677023 0.550534 0.008914
O O12 0.000000 0.000000 0.000000
O O13 0.220472 0.401774 0.670282
O O14 0.322728 0.390302 0.492744
#
# Coordination Sequence:
#
# PCOD9064949 Si02
#       7
#     2   2   2   2   2   2   1
#     4  11  24  47  75  98 143 188 232 298 353 410
#     4  11  24  46  77 103 138 193 236 286 357 421
#     4  12  24  47  68 103 148 185 234 294 353 425
#     4  12  24  44  71 101 145 187 234 290 356 415
#     4  12  27  45  70 109 142 183 241 297 349 423
#     4  12  26  44  73 108 143 187 241 289 358 421
#     4  12  24  44  76  98 140 190 230 286 354 424
#
# _framework density 22.078925000000002
#
# number of rings (size 3 to 8) (size 9 to 14) (size 15 to 20)
#    0.000    0.308    7.692    0.462    0.000    3.692 
#    0.000    1.538    0.000    0.000    0.000    0.000 
#    0.000    0.000    0.000    0.000    0.000    0.000 
#
# Total GULP energy -72476.191586 kJ/mol
# GULP energy per Si atom -5575.091660 kJ/mol
# Density = 2.202867 g / cm^3
# Si number density = 22.078925 Si / 1000 Ang^3
#
#
#
# Elastic Constant Matrix: (Units=GPa)
#
#
# Indices 1 2 3 4 5 6 
#
# 1 149.5410 22.2459 52.1603 -22.4628 4.9874 34.3083
# 2 22.2459 55.9365 26.2849 -15.1500 3.9522 13.5537
# 3 52.1603 26.2849 158.0090 -34.9513 20.6925 23.0361
# 4 -22.4628 -15.1500 -34.9513 28.6319 -8.4614 -6.6835
# 5 4.9874 3.9522 20.6925 -8.4614 34.7771 -8.2199
# 6 34.3083 13.5537 23.0361 -6.6835 -8.2199 34.0373
#
#
#
# Elastic Compliance Matrix: (Units=1/GPa)
#
#
# Indices 1 2 3 4 5 6 
#
# 1 0.009670 -0.000127 -0.000723 0.003928 -0.002100 -0.008943
# 2 -0.000127 0.022443 -0.000402 0.009082 -0.001782 -0.007184
# 3 -0.000723 -0.000402 0.009987 0.008700 -0.004941 -0.005355
# 4 0.003928 0.009082 0.008700 0.055052 0.006357 -0.001119
# 5 -0.002100 -0.001782 -0.004941 0.006357 0.037648 0.016511
# 6 -0.008943 -0.007184 -0.005355 -0.001119 0.016511 0.048646
#
#
# Mechanical properties :
#
#
# Convention : Reuss Voigt Hill
#
# Bulk Modulus (GPa) = 25.25529 62.76320 44.00924
# Shear Modulus (GPa) = 25.10701 37.00896 31.05799
#
# Velocity S-wave (km/s) = 3.37582 4.09860 3.75464
# Velocity P-wave (km/s) = 5.16317 7.13348 6.22675
#
# Compressibility (1/GPa) = 0.03959567
#
# Stress axis : x y z
#
# Youngs Moduli (GPa) = 103.41117 44.55724 100.13311
#
# Poissons Ratio (x) = 0.00564 0.07244
# Poissons Ratio (y) = 0.01309 0.04026
# Poissons Ratio (z) = 0.07481 0.01792
#
# Static dielectric constant tensor:
#      x y z
#    x 1.823500 -0.014220 -0.011090 
#    y -0.014220 1.858530 0.016160 
#    z -0.011090 0.016160 1.826720 
# 
# From -- ./inp_files/305244.got.cif
#   From: 2010.05.17/outbox.cif.g08.bks.cpg/sg2_153_cif.got.tgz:305244.got - 2010.06.03 11:33:40.
