data_PCOD9064146
_publ_section_title
;
Structure prediction by ZEFSAII (Michael W. Deem and Ramdas Pophale) SiO2 
 PCOD9064146
Probable space group: P -1
;
_chemical_formula_sum "Si O2"
_cell_formula_units_Z 14
_cell_length_a 20.294675
_cell_length_b 4.871753
_cell_length_c 12.439884
_cell_angle_alpha 116.939709
_cell_angle_beta 33.756322
_cell_angle_gamma 101.571297
_cell_volume 569.475647
_symmetry_space_group_name_H-M "P -1"
_symmetry_group_IT_number 2
_symmetry_cell_setting 'triclinic'
loop_
_space_group_symop_operation_xyz
x,y,z
-x,-y,-z
loop_
_atom_site_type_symbol
_atom_site_label
_atom_site_fract_x
_atom_site_fract_y
_atom_site_fract_z
Si Si1 0.452089 0.064092 0.315485
Si Si2 0.901082 0.302566 0.337272
Si Si3 0.416763 0.793243 0.534997
Si Si4 0.183514 0.275675 0.669611
Si Si5 0.840272 0.183889 0.020803
Si Si6 0.263673 0.283919 0.178818
Si Si7 0.856529 0.244415 0.760936
O O1 0.474185 0.395344 0.385039
O O2 0.332261 0.170982 0.417251
O O3 0.397502 0.906921 0.458127
O O4 0.586314 0.810447 0.051894
O O5 0.799597 0.464507 0.596072
O O6 0.859846 0.020622 0.288821
O O7 0.765614 0.044748 0.817065
O O8 0.036503 0.133504 0.178630
O O9 0.288512 0.881071 0.791293
O O10 0.500000 0.000000 0.500000
O O11 0.161721 0.538891 0.840494
O O12 0.103564 0.435040 0.700694
O O13 0.841090 0.304178 0.919561
O O14 0.811608 0.559158 0.800428
O O15 0.000000 0.000000 0.500000
#
# Coordination Sequence:
#
# PCOD9064146 Si02
#       7
#     2   2   2   2   2   2   2
#     4  11  25  46  69 104 146 188 244 294 357 428
#     4  12  26  46  73 104 145 190 245 295 356 425
#     4  11  24  45  71 106 145 192 239 294 362 431
#     4  11  26  46  70 106 141 192 244 296 355 420
#     4  11  26  46  77 106 146 186 239 305 361 427
#     4  12  27  47  73 108 145 191 238 296 363 435
#     4  12  26  47  72 107 148 184 236 293 370 439
#
# _framework density 24.584021
#
# number of rings (size 3 to 8) (size 9 to 14) (size 15 to 20)
#    0.000    0.571    1.429    6.000    0.000   10.286 
#    0.000    0.000    0.000    0.000    0.000    0.000 
#    0.000    0.000    0.000    0.000    0.000    0.000 
#
# Total GULP energy -78555.403573 kJ/mol
# GULP energy per Si atom -5611.100255 kJ/mol
# Density = 2.452807 g / cm^3
# Si number density = 24.584021 Si / 1000 Ang^3
#
#
#
# Elastic Constant Matrix: (Units=GPa)
#
#
# Indices 1 2 3 4 5 6 
#
# 1 69.3938 6.6044 42.8530 -6.6432 -12.0423 3.8787
# 2 6.6044 92.2040 23.8403 -9.3839 -1.0250 -1.1865
# 3 42.8530 23.8403 159.4817 -10.4107 -21.0798 -7.3397
# 4 -6.6432 -9.3839 -10.4107 31.0635 -1.0044 -6.7491
# 5 -12.0423 -1.0250 -21.0798 -1.0044 47.4688 -6.5532
# 6 3.8787 -1.1865 -7.3397 -6.7491 -6.5532 34.9837
#
#
#
# Elastic Compliance Matrix: (Units=1/GPa)
#
#
# Indices 1 2 3 4 5 6 
#
# 1 0.017874 0.000076 -0.004480 0.001960 0.002297 -0.002111
# 2 0.000076 0.011563 -0.001554 0.003112 -0.000271 0.000607
# 3 -0.004480 -0.001554 0.008399 0.002181 0.003047 0.003198
# 4 0.001960 0.003112 0.002181 0.036119 0.003394 0.007950
# 5 0.002297 -0.000271 0.003047 0.003394 0.023827 0.005494
# 6 -0.002111 0.000607 0.003198 0.007950 0.005494 0.032073
#
#
# Mechanical properties :
#
#
# Convention : Reuss Voigt Hill
#
# Bulk Modulus (GPa) = 38.57951 51.96388 45.27170
# Shear Modulus (GPa) = 33.24253 39.22196 36.23224
#
# Velocity S-wave (km/s) = 3.68122 3.99861 3.84319
# Velocity P-wave (km/s) = 5.81339 6.51933 6.17645
#
# Compressibility (1/GPa) = 0.02592049
#
# Stress axis : x y z
#
# Youngs Moduli (GPa) = 55.94778 86.48036 119.06833
#
# Poissons Ratio (x) = -0.00656 0.53339
# Poissons Ratio (y) = -0.00424 0.18500
# Poissons Ratio (z) = 0.25063 0.13437
#
# Static dielectric constant tensor:
#      x y z
#    x 2.028850 -0.007160 -0.027060 
#    y -0.007160 1.904190 0.037530 
#    z -0.027060 0.037530 1.926180 
# 
# From -- ./inp_files/468222.got.cif
#   From: 2010.05.17/outbox.cif.g08.bks.cpg/sg2_235_cif.got.tgz:468222.got - 2010.06.03 11:33:40.
