data_PCOD9064996
_publ_section_title
;
Structure prediction by ZEFSAII (Michael W. Deem and Ramdas Pophale) SiO2 
 PCOD9064996
Probable space group: P -1
;
_chemical_formula_sum "Si O2"
_cell_formula_units_Z 12
_cell_length_a 11.805855
_cell_length_b 6.660786
_cell_length_c 13.172772
_cell_angle_alpha 120.135036
_cell_angle_beta 39.410468
_cell_angle_gamma 133.117065
_cell_volume 479.289386
_symmetry_space_group_name_H-M "P -1"
_symmetry_group_IT_number 2
_symmetry_cell_setting 'triclinic'
loop_
_space_group_symop_operation_xyz
x,y,z
-x,-y,-z
loop_
_atom_site_type_symbol
_atom_site_label
_atom_site_fract_x
_atom_site_fract_y
_atom_site_fract_z
Si Si1 0.505109 0.059308 0.676027
Si Si2 0.049863 0.171001 0.820958
Si Si3 0.969905 0.121540 0.653290
Si Si4 0.468427 0.413080 0.116720
Si Si5 0.137960 0.738327 0.690003
Si Si6 0.319756 0.704559 0.893648
O O1 0.514664 0.337120 0.767919
O O2 0.692932 0.137978 0.487800
O O3 0.283612 0.840350 0.716750
O O4 0.508566 0.925410 0.746575
O O5 0.130334 0.203660 0.657784
O O6 0.222568 0.411100 0.832833
O O7 0.854514 0.213757 0.967393
O O8 0.005644 0.883092 0.818647
O O9 0.995051 0.412487 0.689928
O O10 0.759446 0.862847 0.780091
O O11 0.000000 0.000000 0.500000
O O12 0.616850 0.327541 0.046512
O O13 0.500000 0.500000 0.000000
#
# Coordination Sequence:
#
# PCOD9064996 Si02
#       6
#     2   2   2   2   2   2
#     4  11  24  46  81 116 152 209 263 318 388 474
#     4  11  26  47  79 117 156 205 263 319 387 473
#     4  12  27  49  75 119 158 204 257 330 399 453
#     4  12  28  52  79 115 160 205 263 332 398 462
#     4  11  25  47  80 118 157 203 265 320 388 468
#     4  11  26  50  81 112 156 211 263 317 393 474
#
# _framework density 25.037064999999998
#
# number of rings (size 3 to 8) (size 9 to 14) (size 15 to 20)
#    0.000    0.667    5.000    1.000    2.333    8.667 
#    0.000    0.833    0.000    0.000    0.000    0.000 
#    0.000    0.000    0.000    0.000    0.000    0.000 
#
# Total GULP energy -67229.400347 kJ/mol
# GULP energy per Si atom -5602.450029 kJ/mol
# Density = 2.498008 g / cm^3
# Si number density = 25.037065 Si / 1000 Ang^3
#
#
#
# Elastic Constant Matrix: (Units=GPa)
#
#
# Indices 1 2 3 4 5 6 
#
# 1 126.9654 61.8520 65.1406 -1.2790 22.3479 -20.8074
# 2 61.8520 237.9479 62.5686 15.9245 9.1249 -6.8564
# 3 65.1406 62.5686 119.3603 -3.6258 30.6294 -3.9328
# 4 -1.2790 15.9245 -3.6258 50.1774 -2.2405 12.3584
# 5 22.3479 9.1249 30.6294 -2.2405 30.3803 2.5290
# 6 -20.8074 -6.8564 -3.9328 12.3584 2.5290 44.1609
#
#
#
# Elastic Compliance Matrix: (Units=1/GPa)
#
#
# Indices 1 2 3 4 5 6 
#
# 1 0.012980 -0.001670 -0.004820 -0.001187 -0.004777 0.006033
# 2 -0.001670 0.005334 -0.002424 -0.001885 0.001911 0.000243
# 3 -0.004820 -0.002424 0.015027 0.001534 -0.010669 -0.001127
# 4 -0.001187 -0.001885 0.001534 0.022458 0.002142 -0.007123
# 5 -0.004777 0.001911 -0.010669 0.002142 0.047288 -0.006212
# 6 0.006033 0.000243 -0.001127 -0.007123 -0.006212 0.027773
#
#
# Mechanical properties :
#
#
# Convention : Reuss Voigt Hill
#
# Bulk Modulus (GPa) = 64.46596 95.93288 80.19942
# Shear Modulus (GPa) = 32.49716 44.59122 38.54419
#
# Velocity S-wave (km/s) = 3.60663 4.22478 3.92788
# Velocity P-wave (km/s) = 6.56870 7.88656 7.25761
#
# Compressibility (1/GPa) = 0.01551206
#
# Stress axis : x y z
#
# Youngs Moduli (GPa) = 77.04004 187.47180 66.54904
#
# Poissons Ratio (x) = 0.31313 0.32075
# Poissons Ratio (y) = 0.12868 0.16134
# Poissons Ratio (z) = 0.37132 0.45450
#
# Static dielectric constant tensor:
#      x y z
#    x 2.061820 0.021970 -0.008140 
#    y 0.021970 1.953040 -0.017570 
#    z -0.008140 -0.017570 2.000940 
# 
# From -- ./inp_files/17675.got.cif
#   From: 2010.05.17/outbox.cif.g08.bks.cpg/sg2_9_cif.got.tgz:17675.got - 2010.06.03 11:33:40.
