data_PCOD9064416
_publ_section_title
;
Structure prediction by ZEFSAII (Michael W. Deem and Ramdas Pophale) SiO2 
 PCOD9064416
Probable space group: P -1
;
_chemical_formula_sum "Si O2"
_cell_formula_units_Z 12
_cell_length_a 12.004929
_cell_length_b 14.152278
_cell_length_c 5.795507
_cell_angle_alpha 128.372567
_cell_angle_beta 73.007904
_cell_angle_gamma 138.190940
_cell_volume 486.477881
_symmetry_space_group_name_H-M "P -1"
_symmetry_group_IT_number 2
_symmetry_cell_setting 'triclinic'
loop_
_space_group_symop_operation_xyz
x,y,z
-x,-y,-z
loop_
_atom_site_type_symbol
_atom_site_label
_atom_site_fract_x
_atom_site_fract_y
_atom_site_fract_z
Si Si1 0.739835 0.654937 0.689610
Si Si2 0.549656 0.981771 0.191630
Si Si3 0.566184 0.737007 0.677122
Si Si4 0.893605 0.369882 0.582424
Si Si5 0.937757 0.077435 0.767955
Si Si6 0.138175 0.424140 0.874600
O O1 0.661970 0.724479 0.785502
O O2 0.595550 0.466871 0.637857
O O3 0.749311 0.588713 0.342973
O O4 0.933822 0.811326 0.917686
O O5 0.500000 0.000000 0.500000
O O6 0.760153 0.157021 0.315086
O O7 0.490848 0.798178 0.932748
O O8 0.500000 0.000000 0.000000
O O9 0.728100 0.902255 0.666068
O O10 0.000000 0.500000 0.500000
O O11 0.037444 0.426534 0.751484
O O12 0.781308 0.403002 0.766298
O O13 0.994620 0.236572 0.822931
O O14 0.000000 0.000000 0.500000
#
# Coordination Sequence:
#
# PCOD9064416 Si02
#       6
#     2   2   2   2   2   2
#     4  11  25  48  71 105 148 191 247 314 378 457
#     4  12  30  49  76 111 155 202 255 320 382 462
#     4  11  26  48  73 107 148 197 253 310 385 451
#     4  11  26  46  76 104 146 200 254 311 385 454
#     4  12  26  45  75 109 148 194 246 317 383 460
#     4  11  24  45  75 105 146 192 250 314 381 456
#
# _framework density 24.667104999999999
#
# number of rings (size 3 to 8) (size 9 to 14) (size 15 to 20)
#    0.000    0.667    1.667    4.500   14.000    0.667 
#    0.000    0.000    0.000    0.000    0.000    0.000 
#    0.000    0.000    0.000    0.000    0.000    0.000 
#
# Total GULP energy -67047.849829 kJ/mol
# GULP energy per Si atom -5587.320819 kJ/mol
# Density = 2.461096 g / cm^3
# Si number density = 24.667105 Si / 1000 Ang^3
#
#
#
# Elastic Constant Matrix: (Units=GPa)
#
#
# Indices 1 2 3 4 5 6 
#
# 1 97.1705 5.6254 16.6625 -20.8636 -21.0547 -25.2652
# 2 5.6254 114.4228 4.4146 11.0799 -5.7120 -10.7874
# 3 16.6625 4.4146 66.6013 -5.9230 -26.8495 -4.3185
# 4 -20.8636 11.0799 -5.9230 38.8544 0.2970 -2.0409
# 5 -21.0547 -5.7120 -26.8495 0.2970 41.5964 9.5690
# 6 -25.2652 -10.7874 -4.3185 -2.0409 9.5690 50.8990
#
#
#
# Elastic Compliance Matrix: (Units=1/GPa)
#
#
# Indices 1 2 3 4 5 6 
#
# 1 0.015220 -0.000657 -0.000185 0.008635 0.005906 0.006636
# 2 -0.000657 0.009229 -0.000496 -0.002988 0.000312 0.001409
# 3 -0.000185 -0.000496 0.020701 0.003052 0.013370 -0.000832
# 4 0.008635 -0.002988 0.003052 0.031881 0.004713 0.004304
# 5 0.005906 0.000312 0.013370 0.004713 0.036243 -0.002493
# 6 0.006636 0.001409 -0.000832 0.004304 -0.002493 0.023810
#
#
# Mechanical properties :
#
#
# Convention : Reuss Voigt Hill
#
# Bulk Modulus (GPa) = 23.54376 36.84441 30.19408
# Shear Modulus (GPa) = 32.48472 43.03610 37.76041
#
# Velocity S-wave (km/s) = 3.63288 4.18146 3.91679
# Velocity P-wave (km/s) = 5.21176 6.18724 5.72033
#
# Compressibility (1/GPa) = 0.04247410
#
# Stress axis : x y z
#
# Youngs Moduli (GPa) = 65.70238 108.35702 48.30599
#
# Poissons Ratio (x) = 0.07118 0.00894
# Poissons Ratio (y) = 0.04316 0.02396
# Poissons Ratio (z) = 0.01216 0.05376
#
# Static dielectric constant tensor:
#      x y z
#    x 1.920550 0.030830 -0.009270 
#    y 0.030830 2.014340 -0.057170 
#    z -0.009270 -0.057170 2.187770 
# 
# From -- ./inp_files/28012.got.cif
#   From: 2010.05.17/outbox.cif.g08.bks.cpg/sg2_15_cif.got.tgz:28012.got - 2010.06.03 11:33:40.
