data_PCOD9064175
_publ_section_title
;
Structure prediction by ZEFSAII (Michael W. Deem and Ramdas Pophale) SiO2 
 PCOD9064175
Probable space group: P -1
;
_chemical_formula_sum "Si O2"
_cell_formula_units_Z 16
_cell_length_a 6.901145
_cell_length_b 8.906558
_cell_length_c 21.918644
_cell_angle_alpha 135.742775
_cell_angle_beta 122.716970
_cell_angle_gamma 54.413995
_cell_volume 746.236406
_symmetry_space_group_name_H-M "P -1"
_symmetry_group_IT_number 2
_symmetry_cell_setting 'triclinic'
loop_
_space_group_symop_operation_xyz
x,y,z
-x,-y,-z
loop_
_atom_site_type_symbol
_atom_site_label
_atom_site_fract_x
_atom_site_fract_y
_atom_site_fract_z
Si Si1 0.151748 0.696208 0.188359
Si Si2 0.886347 0.498722 0.413942
Si Si3 0.784412 0.898646 0.423954
Si Si4 0.029652 0.431098 0.755506
Si Si5 0.604431 0.295385 0.101791
Si Si6 0.303556 0.105571 0.906933
Si Si7 0.497494 0.770998 0.730143
Si Si8 0.651563 0.879390 0.660216
O O1 0.381482 0.467836 0.152526
O O2 0.020900 0.694888 0.229997
O O3 0.955382 0.723817 0.109393
O O4 0.246808 0.910303 0.263516
O O5 0.772343 0.744122 0.434599
O O6 0.690787 0.368311 0.343480
O O7 0.000000 0.500000 0.500000
O O8 0.118144 0.349862 0.370245
O O9 0.851397 0.734830 0.328428
O O10 0.531030 0.091609 0.419488
O O11 0.000000 0.000000 0.500000
O O12 0.205405 0.576406 0.842966
O O13 0.766865 0.600478 0.740007
O O14 0.725154 0.071614 0.098382
O O15 0.483401 0.224244 0.001433
O O16 0.419312 0.957509 0.824274
O O17 0.507277 0.880361 0.698010
#
# Coordination Sequence:
#
# PCOD9064175 Si02
#       8
#     2   2   2   2   2   2   2   2
#     4  12  24  45  70 101 134 181 228 277 338 397
#     4  12  28  47  71 103 138 177 228 278 336 406
#     4  12  27  46  71 104 137 177 228 280 335 404
#     4  12  25  45  71  98 140 178 225 281 336 401
#     4  11  25  47  66 102 139 176 227 281 334 403
#     4  11  24  45  71  99 138 179 225 279 339 399
#     4  12  24  47  71 100 137 183 223 278 340 398
#     4  12  26  46  75  97 139 182 223 281 338 399
#
# _framework density 21.440925
#
# number of rings (size 3 to 8) (size 9 to 14) (size 15 to 20)
#    0.000    0.250    5.000    4.125    3.500    2.500 
#    2.250    0.000    0.000    0.000    0.000    0.000 
#    0.000    0.000    0.000    0.000    0.000    0.000 
#
# Total GULP energy -89634.203474 kJ/mol
# GULP energy per Si atom -5602.137717 kJ/mol
# Density = 2.139212 g / cm^3
# Si number density = 21.440925 Si / 1000 Ang^3
#
#
#
# Elastic Constant Matrix: (Units=GPa)
#
#
# Indices 1 2 3 4 5 6 
#
# 1 101.8833 19.5487 28.4435 -13.7599 16.1292 17.3473
# 2 19.5487 86.5255 -2.4977 -30.6495 11.7412 8.5762
# 3 28.4435 -2.4977 79.3706 -14.2953 17.7356 18.9414
# 4 -13.7599 -30.6495 -14.2953 33.7683 -1.9017 -2.1946
# 5 16.1292 11.7412 17.7356 -1.9017 30.1603 -2.9420
# 6 17.3473 8.5762 18.9414 -2.1946 -2.9420 41.7425
#
#
#
# Elastic Compliance Matrix: (Units=1/GPa)
#
#
# Indices 1 2 3 4 5 6 
#
# 1 0.012498 -0.000311 -0.001373 0.003584 -0.005992 -0.004741
# 2 -0.000311 0.023430 0.010702 0.024242 -0.014626 -0.009297
# 3 -0.001373 0.010702 0.023411 0.017272 -0.017335 -0.012565
# 4 0.003584 0.024242 0.017272 0.058499 -0.019048 -0.012574
# 5 -0.005992 -0.014626 -0.017335 -0.019048 0.052615 0.016068
# 6 -0.004741 -0.009297 -0.012565 -0.012574 0.016068 0.034010
#
#
# Mechanical properties :
#
#
# Convention : Reuss Voigt Hill
#
# Bulk Modulus (GPa) = 12.92407 39.86317 26.39362
# Shear Modulus (GPa) = 23.56084 35.95321 29.75702
#
# Velocity S-wave (km/s) = 3.31852 4.09938 3.72944
# Velocity P-wave (km/s) = 4.55239 6.40617 5.55712
#
# Compressibility (1/GPa) = 0.07737498
#
# Stress axis : x y z
#
# Youngs Moduli (GPa) = 80.01372 42.68088 42.71526
#
# Poissons Ratio (x) = 0.01326 0.05864
# Poissons Ratio (y) = 0.02487 -0.45713
# Poissons Ratio (z) = 0.10984 -0.45676
#
# Static dielectric constant tensor:
#      x y z
#    x 1.742760 -0.019320 -0.022690 
#    y -0.019320 1.790810 -0.008490 
#    z -0.022690 -0.008490 1.746750 
# 
# From -- ./inp_files/46511.got.cif
#   From: 2010.05.17/outbox.cif.g08.bks.cpg/sg2_24_cif.got.tgz:46511.got - 2010.06.03 11:33:40.
