data_PCOD9064650
_publ_section_title
;
Structure prediction by ZEFSAII (Michael W. Deem and Ramdas Pophale) SiO2 
 PCOD9064650
Probable space group: P -1
;
_chemical_formula_sum "Si O2"
_cell_formula_units_Z 12
_cell_length_a 13.477346
_cell_length_b 12.606860
_cell_length_c 8.176982
_cell_angle_alpha 85.132008
_cell_angle_beta 111.977588
_cell_angle_gamma 33.580443
_cell_volume 451.800936
_symmetry_space_group_name_H-M "P -1"
_symmetry_group_IT_number 2
_symmetry_cell_setting 'triclinic'
loop_
_space_group_symop_operation_xyz
x,y,z
-x,-y,-z
loop_
_atom_site_type_symbol
_atom_site_label
_atom_site_fract_x
_atom_site_fract_y
_atom_site_fract_z
Si Si1 0.234854 0.381347 0.027667
Si Si2 0.371051 0.946498 0.386184
Si Si3 0.278572 0.749278 0.076432
Si Si4 0.670820 0.097187 0.123071
Si Si5 0.045508 0.535172 0.370001
Si Si6 0.206608 0.893551 0.469679
O O1 0.967491 0.699191 0.901051
O O2 0.503375 0.116840 0.358961
O O3 0.645537 0.659410 0.044454
O O4 0.102529 0.395639 0.876702
O O5 0.416356 0.593713 0.636634
O O6 0.608768 0.758838 0.421359
O O7 0.352739 0.839840 0.436976
O O8 0.135881 0.815015 0.828775
O O9 0.335882 0.814893 0.041779
O O10 0.000000 0.000000 0.000000
O O11 0.878736 0.801999 0.256366
O O12 0.783356 0.058157 0.356143
O O13 0.000000 0.500000 0.500000
#
# Coordination Sequence:
#
# PCOD9064650 Si02
#       6
#     2   2   2   2   2   2
#     4  11  25  47  71 102 143 193 236 287 348 413
#     4  11  25  48  74 103 143 189 236 289 350 417
#     4  12  26  46  73 105 139 182 233 291 352 417
#     4  11  26  46  72 107 144 186 235 292 351 419
#     4  12  26  45  72 108 144 186 238 293 349 417
#     4  11  24  46  71 103 140 184 230 286 353 419
#
# _framework density 26.560368
#
# number of rings (size 3 to 8) (size 9 to 14) (size 15 to 20)
#    0.000    0.667    0.000    8.000    0.000    8.000 
#    0.000    1.667    0.000    0.000    0.000    0.000 
#    0.000    0.000    0.000    0.000    0.000    0.000 
#
# Total GULP energy -67468.498502 kJ/mol
# GULP energy per Si atom -5622.374875 kJ/mol
# Density = 2.649992 g / cm^3
# Si number density = 26.560368 Si / 1000 Ang^3
#
#
#
# Elastic Constant Matrix: (Units=GPa)
#
#
# Indices 1 2 3 4 5 6 
#
# 1 240.0245 79.2646 9.2972 -10.0088 -20.9640 -10.4668
# 2 79.2646 113.8167 -2.7380 -6.7034 -11.6890 4.1397
# 3 9.2972 -2.7380 68.3111 -8.9215 3.9785 7.7937
# 4 -10.0088 -6.7034 -8.9215 32.6738 0.2836 4.4629
# 5 -20.9640 -11.6890 3.9785 0.2836 45.5969 -5.4949
# 6 -10.4668 4.1397 7.7937 4.4629 -5.4949 55.3713
#
#
#
# Elastic Compliance Matrix: (Units=1/GPa)
#
#
# Indices 1 2 3 4 5 6 
#
# 1 0.005754 -0.003874 -0.001196 0.000391 0.001960 0.001709
# 2 -0.003874 0.011786 0.001406 0.001864 0.000880 -0.001874
# 3 -0.001196 0.001406 0.015951 0.004726 -0.001991 -0.003155
# 4 0.000391 0.001864 0.004726 0.032868 -0.000371 -0.003417
# 5 0.001960 0.000880 -0.001991 -0.000371 0.023590 0.002956
# 6 0.001709 -0.001874 -0.003155 -0.003417 0.002956 0.019536
#
#
# Mechanical properties :
#
#
# Convention : Reuss Voigt Hill
#
# Bulk Modulus (GPa) = 38.22385 65.97776 52.10080
# Shear Modulus (GPa) = 39.82960 49.15031 44.48995
#
# Velocity S-wave (km/s) = 3.87665 4.30643 4.09718
# Velocity P-wave (km/s) = 5.87030 7.04427 6.48391
#
# Compressibility (1/GPa) = 0.02616168
#
# Stress axis : x y z
#
# Youngs Moduli (GPa) = 173.79704 84.84685 62.69141
#
# Poissons Ratio (x) = 0.32867 0.07501
# Poissons Ratio (y) = 0.67324 -0.08812
# Poissons Ratio (z) = 0.20794 -0.11926
#
# Static dielectric constant tensor:
#      x y z
#    x 2.042340 -0.022700 -0.033160 
#    y -0.022700 2.039410 0.100870 
#    z -0.033160 0.100870 2.121440 
# 
# From -- ./inp_files/248991.got.cif
#   From: 2010.05.17/outbox.cif.g08.bks.cpg/sg2_125_cif.got.tgz:248991.got - 2010.06.03 11:33:40.
