data_PCOD9064446
_publ_section_title
;
Structure prediction by ZEFSAII (Michael W. Deem and Ramdas Pophale) SiO2 
 PCOD9064446
Probable space group: P -1
;
_chemical_formula_sum "Si O2"
_cell_formula_units_Z 12
_cell_length_a 8.288938
_cell_length_b 8.934555
_cell_length_c 11.546846
_cell_angle_alpha 128.251390
_cell_angle_beta 51.738915
_cell_angle_gamma 96.172625
_cell_volume 471.581114
_symmetry_space_group_name_H-M "P -1"
_symmetry_group_IT_number 2
_symmetry_cell_setting 'triclinic'
loop_
_space_group_symop_operation_xyz
x,y,z
-x,-y,-z
loop_
_atom_site_type_symbol
_atom_site_label
_atom_site_fract_x
_atom_site_fract_y
_atom_site_fract_z
Si Si1 0.193498 0.341257 0.424461
Si Si2 0.391061 0.849839 0.526496
Si Si3 0.934007 0.698614 0.886036
Si Si4 0.691472 0.154007 0.161296
Si Si5 0.234279 0.488686 0.945917
Si Si6 0.079143 0.964131 0.314912
O O1 0.094709 0.472230 0.649766
O O2 0.454721 0.296985 0.272452
O O3 0.000000 0.500000 0.500000
O O4 0.208921 0.108065 0.309939
O O5 0.367444 0.838937 0.670481
O O6 0.559953 0.626569 0.288489
O O7 0.500000 0.000000 0.500000
O O8 0.142618 0.935633 0.621042
O O9 0.112355 0.768076 0.903818
O O10 0.745875 0.664340 0.027580
O O11 0.800517 0.903464 0.961723
O O12 0.206220 0.714915 0.110193
O O13 0.000000 0.500000 0.000000
O O14 0.000000 0.000000 0.500000
#
# Coordination Sequence:
#
# PCOD9064446 Si02
#       6
#     2   2   2   2   2   2
#     4  12  27  47  71 106 154 196 244 312 381 434
#     4  12  23  44  77 108 143 195 249 298 363 441
#     4  11  24  45  76 106 144 196 251 302 369 445
#     4  11  25  48  76 108 147 194 255 306 365 452
#     4  12  24  43  77 110 143 192 249 300 363 443
#     4  12  26  45  72 111 154 190 243 310 374 432
#
# _framework density 25.44631
#
# number of rings (size 3 to 8) (size 9 to 14) (size 15 to 20)
#    0.000    0.333    5.000    3.500    0.000    5.333 
#    0.000    0.000    0.000    0.000    0.000    0.000 
#    0.000    0.000    0.000    0.000    0.000    0.000 
#
# Total GULP energy -67277.137797 kJ/mol
# GULP energy per Si atom -5606.428150 kJ/mol
# Density = 2.538839 g / cm^3
# Si number density = 25.446310 Si / 1000 Ang^3
#
#
#
# Elastic Constant Matrix: (Units=GPa)
#
#
# Indices 1 2 3 4 5 6 
#
# 1 86.2457 44.3875 28.5339 5.6438 -12.9926 0.6338
# 2 44.3875 174.6145 70.0207 19.4213 10.8146 32.3098
# 3 28.5339 70.0207 168.9098 25.6563 10.2788 16.6716
# 4 5.6438 19.4213 25.6563 43.4740 5.0770 4.7547
# 5 -12.9926 10.8146 10.2788 5.0770 46.1144 6.8004
# 6 0.6338 32.3098 16.6716 4.7547 6.8004 40.6667
#
#
#
# Elastic Compliance Matrix: (Units=1/GPa)
#
#
# Indices 1 2 3 4 5 6 
#
# 1 0.014879 -0.004016 -0.001394 -0.000203 0.005068 0.002706
# 2 -0.004016 0.008922 -0.002143 -0.001372 -0.001755 -0.005693
# 3 -0.001394 -0.002143 0.007679 -0.003168 -0.001125 -0.000865
# 4 -0.000203 -0.001372 -0.003168 0.025758 -0.001819 -0.000316
# 5 0.005068 -0.001755 -0.001125 -0.001819 0.024281 -0.002071
# 6 0.002706 -0.005693 -0.000865 -0.000316 -0.002071 0.029809
#
#
# Mechanical properties :
#
#
# Convention : Reuss Voigt Hill
#
# Bulk Modulus (GPa) = 61.06480 79.51714 70.29097
# Shear Modulus (GPa) = 37.91002 45.17288 41.54145
#
# Velocity S-wave (km/s) = 3.86399 4.21791 4.04482
# Velocity P-wave (km/s) = 6.62999 7.41875 7.03543
#
# Compressibility (1/GPa) = 0.01637605
#
# Stress axis : x y z
#
# Youngs Moduli (GPa) = 67.20724 112.08516 130.22346
#
# Poissons Ratio (x) = 0.45008 0.18148
# Poissons Ratio (y) = 0.26987 0.27907
# Poissons Ratio (z) = 0.09366 0.24020
#
# Static dielectric constant tensor:
#      x y z
#    x 2.021370 -0.072730 0.066400 
#    y -0.072730 2.217670 -0.080670 
#    z 0.066400 -0.080670 2.017740 
# 
# From -- ./inp_files/149794.got.cif
#   From: 2010.05.17/outbox.cif.g08.bks.cpg/sg2_75_cif.got.tgz:149794.got - 2010.06.03 11:33:40.
