data_PCOD9064697
_publ_section_title
;
Structure prediction by ZEFSAII (Michael W. Deem and Ramdas Pophale) SiO2 
 PCOD9064697
Probable space group: P -1
;
_chemical_formula_sum "Si O2"
_cell_formula_units_Z 14
_cell_length_a 8.388283
_cell_length_b 14.570287
_cell_length_c 15.098457
_cell_angle_alpha 27.425904
_cell_angle_beta 96.385360
_cell_angle_gamma 112.730685
_cell_volume 657.016774
_symmetry_space_group_name_H-M "P -1"
_symmetry_group_IT_number 2
_symmetry_cell_setting 'triclinic'
loop_
_space_group_symop_operation_xyz
x,y,z
-x,-y,-z
loop_
_atom_site_type_symbol
_atom_site_label
_atom_site_fract_x
_atom_site_fract_y
_atom_site_fract_z
Si Si1 0.002786 0.201654 0.708718
Si Si2 0.158492 0.495762 0.294556
Si Si3 0.436908 0.126051 0.116425
Si Si4 0.646373 0.557592 0.040645
Si Si5 0.903911 0.668055 0.194715
Si Si6 0.050789 0.029667 0.581768
Si Si7 0.504673 0.206850 0.479670
O O1 0.161743 0.396999 0.476415
O O2 0.055041 0.316379 0.711494
O O3 0.777928 0.099911 0.749590
O O4 0.983081 0.946822 0.931124
O O5 0.046720 0.247292 0.437374
O O6 0.027622 0.594230 0.213578
O O7 0.379757 0.714552 0.079176
O O8 0.400628 0.308684 0.004568
O O9 0.493949 0.013115 0.292913
O O10 0.500000 0.500000 0.000000
O O11 0.594668 0.311154 0.297211
O O12 0.879220 0.761842 0.848167
O O13 0.663400 0.449616 0.345289
O O14 0.276325 0.118085 0.538667
O O15 0.000000 0.000000 0.500000
#
# Coordination Sequence:
#
# PCOD9064697 Si02
#       7
#     2   2   2   2   2   2   2
#     4  11  24  47  69  99 146 176 235 283 340 401
#     4  12  24  44  71  99 141 182 227 284 339 406
#     4  12  26  42  68 104 137 184 225 282 339 408
#     4  12  24  48  70  95 139 179 225 290 342 399
#     4  11  24  46  72 101 136 188 225 287 343 400
#     4  12  24  47  72 100 134 180 227 284 342 405
#     4  12  25  44  69 100 138 174 232 276 344 407
#
# _framework density 21.308434999999999
#
# number of rings (size 3 to 8) (size 9 to 14) (size 15 to 20)
#    0.000    0.286    7.143    0.429    4.000    1.143 
#    2.571    3.571    0.000    0.000    0.000    0.000 
#    0.000    0.000    0.000    0.000    0.000    0.000 
#
# Total GULP energy -78361.843577 kJ/mol
# GULP energy per Si atom -5597.274541 kJ/mol
# Density = 2.125994 g / cm^3
# Si number density = 21.308435 Si / 1000 Ang^3
#
#
#
# Elastic Constant Matrix: (Units=GPa)
#
#
# Indices 1 2 3 4 5 6 
#
# 1 94.0737 47.5894 44.6454 18.1675 -12.5540 4.8754
# 2 47.5894 117.1691 22.6443 25.0273 -7.5287 14.8982
# 3 44.6454 22.6443 142.1890 44.5853 -23.0532 3.8544
# 4 18.1675 25.0273 44.5853 35.4764 -0.1805 1.1701
# 5 -12.5540 -7.5287 -23.0532 -0.1805 46.3357 -1.7526
# 6 4.8754 14.8982 3.8544 1.1701 -1.7526 32.0086
#
#
#
# Elastic Compliance Matrix: (Units=1/GPa)
#
#
# Indices 1 2 3 4 5 6 
#
# 1 0.015376 -0.005779 -0.004196 0.001453 0.001178 0.000864
# 2 -0.005779 0.013275 0.003522 -0.010649 0.002105 -0.005218
# 3 -0.004196 0.003522 0.014848 -0.018905 0.006684 -0.001731
# 4 0.001453 -0.010649 -0.018905 0.058521 -0.010352 0.004306
# 5 0.001178 0.002105 0.006684 -0.010352 0.025521 -0.000188
# 6 0.000864 -0.005218 -0.001731 0.004306 -0.000188 0.033579
#
#
# Mechanical properties :
#
#
# Convention : Reuss Voigt Hill
#
# Bulk Modulus (GPa) = 32.68594 64.79889 48.74242
# Shear Modulus (GPa) = 27.14104 38.66765 32.90435
#
# Velocity S-wave (km/s) = 3.57280 4.26451 3.93389
# Velocity P-wave (km/s) = 5.69145 7.39757 6.59987
#
# Compressibility (1/GPa) = 0.03059420
#
# Stress axis : x y z
#
# Youngs Moduli (GPa) = 65.03477 75.33239 67.34926
#
# Poissons Ratio (x) = 0.43535 0.28258
# Poissons Ratio (y) = 0.37584 -0.23723
# Poissons Ratio (z) = 0.27287 -0.26535
#
# Static dielectric constant tensor:
#      x y z
#    x 1.750600 0.002600 0.022730 
#    y 0.002600 1.758550 -0.000200 
#    z 0.022730 -0.000200 1.806490 
# 
# From -- ./inp_files/503663.got.cif
#   From: 2010.05.17/outbox.cif.g08.bks.cpg/sg2_252_cif.got.tgz:503663.got - 2010.06.03 11:33:40.
