data_PCOD9064321
_publ_section_title
;
Structure prediction by ZEFSAII (Michael W. Deem and Ramdas Pophale) SiO2 
 PCOD9064321
Probable space group: P -1
;
_chemical_formula_sum "Si O2"
_cell_formula_units_Z 16
_cell_length_a 12.194047
_cell_length_b 11.537986
_cell_length_c 12.169885
_cell_angle_alpha 141.419852
_cell_angle_beta 79.927376
_cell_angle_gamma 73.056389
_cell_volume 753.535148
_symmetry_space_group_name_H-M "P -1"
_symmetry_group_IT_number 2
_symmetry_cell_setting 'triclinic'
loop_
_space_group_symop_operation_xyz
x,y,z
-x,-y,-z
loop_
_atom_site_type_symbol
_atom_site_label
_atom_site_fract_x
_atom_site_fract_y
_atom_site_fract_z
Si Si1 0.168797 0.454215 0.512418
Si Si2 0.072264 0.211301 0.759712
Si Si3 0.649335 0.462948 0.331242
Si Si4 0.783500 0.314366 0.965726
Si Si5 0.217009 0.085881 0.407057
Si Si6 0.456234 0.175463 0.744004
Si Si7 0.690365 0.000163 0.252578
Si Si8 0.183343 0.114827 0.090051
O O1 0.285023 0.485809 0.543926
O O2 0.217740 0.263582 0.261899
O O3 0.993552 0.731562 0.732679
O O4 0.161503 0.324851 0.522889
O O5 0.945072 0.213284 0.823929
O O6 0.118331 0.147621 0.577444
O O7 0.221566 0.026129 0.675310
O O8 0.000000 0.500000 0.000000
O O9 0.466204 0.703948 0.526883
O O10 0.731743 0.440906 0.188944
O O11 0.701756 0.189816 0.132528
O O12 0.786274 0.090168 0.799120
O O13 0.654005 0.534313 0.065503
O O14 0.389439 0.930785 0.304595
O O15 0.500000 0.000000 0.500000
O O16 0.363860 0.145571 0.818255
O O17 0.801255 0.871135 0.032387
#
# Coordination Sequence:
#
# PCOD9064321 Si02
#       8
#     2   2   2   2   2   2   2   2
#     4  11  24  45  73  95 136 183 226 288 338 400
#     4  12  23  41  68  99 135 177 227 276 338 405
#     4  12  23  46  70  98 139 182 226 279 345 401
#     4  12  24  40  68 102 139 176 224 278 340 407
#     4  12  23  43  65 102 141 172 226 277 342 406
#     4  12  21  42  67  97 134 180 218 270 346 408
#     4  12  24  42  71 100 136 179 230 279 337 409
#     4  11  26  46  67 101 134 178 239 277 335 408
#
# _framework density 21.233249000000001
#
# number of rings (size 3 to 8) (size 9 to 14) (size 15 to 20)
#    0.000    0.250    6.250    3.750    0.000    0.500 
#    0.000    0.000    0.000    0.000    0.000    0.000 
#    0.000    0.000    0.000    0.000    0.000    0.000 
#
# Total GULP energy -89552.441202 kJ/mol
# GULP energy per Si atom -5597.027575 kJ/mol
# Density = 2.118492 g / cm^3
# Si number density = 21.233249 Si / 1000 Ang^3
#
#
#
# Elastic Constant Matrix: (Units=GPa)
#
#
# Indices 1 2 3 4 5 6 
#
# 1 60.5220 -12.7298 9.7651 7.3064 4.8108 -14.2748
# 2 -12.7298 52.7213 14.6373 -2.2179 3.2784 -2.9034
# 3 9.7651 14.6373 66.6388 10.2662 12.9210 -7.6098
# 4 7.3064 -2.2179 10.2662 37.2739 -2.1558 -5.4164
# 5 4.8108 3.2784 12.9210 -2.1558 31.2062 -2.5905
# 6 -14.2748 -2.9034 -7.6098 -5.4164 -2.5905 34.7708
#
#
#
# Elastic Compliance Matrix: (Units=1/GPa)
#
#
# Indices 1 2 3 4 5 6 
#
# 1 0.020535 0.006217 -0.002769 -0.001870 -0.002146 0.007892
# 2 0.006217 0.022352 -0.005651 0.002142 -0.000530 0.003476
# 3 -0.002769 -0.005651 0.018977 -0.005257 -0.007101 0.001197
# 4 -0.001870 0.002142 -0.005257 0.029497 0.004543 0.003194
# 5 -0.002146 -0.000530 -0.007101 0.004543 0.035759 0.000892
# 6 0.007892 0.003476 0.001197 0.003194 0.000892 0.033116
#
#
# Mechanical properties :
#
#
# Convention : Reuss Voigt Hill
#
# Bulk Modulus (GPa) = 17.40442 22.58083 19.99262
# Shear Modulus (GPa) = 27.20411 31.86414 29.53412
#
# Velocity S-wave (km/s) = 3.58327 3.87805 3.73357
# Velocity P-wave (km/s) = 5.03333 5.54167 5.29360
#
# Compressibility (1/GPa) = 0.05745668
#
# Stress axis : x y z
#
# Youngs Moduli (GPa) = 48.69711 44.73853 52.69662
#
# Poissons Ratio (x) = -0.27812 0.14593
# Poissons Ratio (y) = -0.30273 0.29778
# Poissons Ratio (z) = 0.13485 0.25281
#
# Static dielectric constant tensor:
#      x y z
#    x 1.729430 0.002210 -0.009220 
#    y 0.002210 1.814250 -0.043830 
#    z -0.009220 -0.043830 1.797960 
# 
# From -- ./inp_files/258125.got.cif
#   From: 2010.05.17/outbox.cif.g08.bks.cpg/sg2_130_cif.got.tgz:258125.got - 2010.06.03 11:33:40.
