data_PCOD9064329
_publ_section_title
;
Structure prediction by ZEFSAII (Michael W. Deem and Ramdas Pophale) SiO2 
 PCOD9064329
Probable space group: P -1
;
_chemical_formula_sum "Si O2"
_cell_formula_units_Z 16
_cell_length_a 12.079936
_cell_length_b 8.725307
_cell_length_c 9.014610
_cell_angle_alpha 107.730734
_cell_angle_beta 100.545977
_cell_angle_gamma 57.604108
_cell_volume 763.932424
_symmetry_space_group_name_H-M "P -1"
_symmetry_group_IT_number 2
_symmetry_cell_setting 'triclinic'
loop_
_space_group_symop_operation_xyz
x,y,z
-x,-y,-z
loop_
_atom_site_type_symbol
_atom_site_label
_atom_site_fract_x
_atom_site_fract_y
_atom_site_fract_z
Si Si1 0.220832 0.967627 0.232308
Si Si2 0.367386 0.655272 0.938397
Si Si3 0.470555 0.193495 0.124127
Si Si4 0.832504 0.488296 0.873480
Si Si5 0.139367 0.826465 0.436070
Si Si6 0.999448 0.655161 0.828961
Si Si7 0.224755 0.537768 0.635552
Si Si8 0.604008 0.857732 0.598797
O O1 0.316372 0.051100 0.285920
O O2 0.084326 0.127618 0.174810
O O3 0.210178 0.912833 0.382535
O O4 0.275743 0.790412 0.085492
O O5 0.415396 0.769302 0.884446
O O6 0.304498 0.562949 0.795908
O O7 0.500000 0.500000 0.000000
O O8 0.322973 0.364847 0.099164
O O9 0.468365 0.176279 0.294438
O O10 0.500000 0.000000 0.000000
O O11 0.863818 0.315254 0.725346
O O12 0.896519 0.592750 0.832799
O O13 0.906835 0.405475 0.022258
O O14 0.199786 0.698897 0.558688
O O15 0.000000 0.000000 0.500000
O O16 0.092993 0.560446 0.682204
O O17 0.302116 0.338633 0.515918
O O18 0.500000 0.000000 0.500000
#
# Coordination Sequence:
#
# PCOD9064329 Si02
#       8
#     2   2   2   2   2   2   2   2
#     4  12  25  48  69 103 141 185 234 289 346 428
#     4  12  27  46  73  99 139 188 236 286 341 415
#     4  12  24  49  72 100 138 185 241 284 346 419
#     4  11  25  46  71 103 140 187 230 293 347 426
#     4  12  26  43  68 104 145 179 226 287 358 413
#     4  11  24  45  74 100 140 183 235 280 357 423
#     4  12  27  46  72 106 141 185 228 296 354 415
#     4  12  28  47  72 103 139 186 235 291 352 416
#
# _framework density 20.944261000000001
#
# number of rings (size 3 to 8) (size 9 to 14) (size 15 to 20)
#    0.000    0.250    5.000    3.000    7.000    2.500 
#    0.000    0.000    0.000    0.000    0.000    0.000 
#    0.000    0.000    0.000    0.000    0.000    0.000 
#
# Total GULP energy -89487.255983 kJ/mol
# GULP energy per Si atom -5592.953499 kJ/mol
# Density = 2.089659 g / cm^3
# Si number density = 20.944261 Si / 1000 Ang^3
#
#
#
# Elastic Constant Matrix: (Units=GPa)
#
#
# Indices 1 2 3 4 5 6 
#
# 1 53.4487 -12.5960 12.5139 -1.5320 -21.1262 8.7381
# 2 -12.5960 116.8614 38.3405 0.1146 -5.5716 -18.8652
# 3 12.5139 38.3405 103.0870 4.4894 -22.4934 -6.4637
# 4 -1.5320 0.1146 4.4894 59.3785 4.1985 -4.2223
# 5 -21.1262 -5.5716 -22.4934 4.1985 44.2014 0.1701
# 6 8.7381 -18.8652 -6.4637 -4.2223 0.1701 31.4229
#
#
#
# Elastic Compliance Matrix: (Units=1/GPa)
#
#
# Indices 1 2 3 4 5 6 
#
# 1 0.025395 0.003020 -0.002031 -0.000425 0.011547 -0.005786
# 2 0.003020 0.011056 -0.004039 0.000672 0.000699 0.005054
# 3 -0.002031 -0.004039 0.012649 -0.001322 0.005081 0.000537
# 4 -0.000425 0.000672 -0.001322 0.017285 -0.002443 0.002585
# 5 0.011547 0.000699 0.005081 -0.002443 0.031057 -0.002243
# 6 -0.005786 0.005054 0.000537 0.002585 -0.002243 0.036937
#
#
# Mechanical properties :
#
#
# Convention : Reuss Voigt Hill
#
# Bulk Modulus (GPa) = 23.25474 38.87931 31.06703
# Shear Modulus (GPa) = 32.29745 42.67648 37.48697
#
# Velocity S-wave (km/s) = 3.93118 4.51890 4.23524
# Velocity P-wave (km/s) = 5.63319 6.76984 6.22750
#
# Compressibility (1/GPa) = 0.04300198
#
# Stress axis : x y z
#
# Youngs Moduli (GPa) = 39.37827 90.44712 79.05799
#
# Poissons Ratio (x) = -0.27319 0.16054
# Poissons Ratio (y) = -0.11894 0.31929
# Poissons Ratio (z) = 0.07997 0.36528
#
# Static dielectric constant tensor:
#      x y z
#    x 1.747490 0.039580 -0.007720 
#    y 0.039580 1.786420 -0.003330 
#    z -0.007720 -0.003330 1.750950 
# 
# From -- ./inp_files/244569.got.cif
#   From: 2010.05.17/outbox.cif.g08.bks.cpg/sg2_123_cif.got.tgz:244569.got - 2010.06.03 11:33:40.
