data_PCOD9064178
_publ_section_title
;
Structure prediction by ZEFSAII (Michael W. Deem and Ramdas Pophale) SiO2 
 PCOD9064178
Probable space group: P -1
;
_chemical_formula_sum "Si O2"
_cell_formula_units_Z 14
_cell_length_a 28.868440
_cell_length_b 23.800051
_cell_length_c 14.590966
_cell_angle_alpha 20.332259
_cell_angle_beta 160.210484
_cell_angle_gamma 169.334758
_cell_volume 614.473560
_symmetry_space_group_name_H-M "P -1"
_symmetry_group_IT_number 2
_symmetry_cell_setting 'triclinic'
loop_
_space_group_symop_operation_xyz
x,y,z
-x,-y,-z
loop_
_atom_site_type_symbol
_atom_site_label
_atom_site_fract_x
_atom_site_fract_y
_atom_site_fract_z
Si Si1 0.281000 0.580744 0.094481
Si Si2 0.309030 0.104087 0.324009
Si Si3 0.300305 0.802107 0.627514
Si Si4 0.184425 0.849964 0.682807
Si Si5 0.817158 0.222125 0.882489
Si Si6 0.232648 0.204108 0.509293
Si Si7 0.886871 0.825134 0.278068
O O1 0.238538 0.345846 0.382670
O O2 0.518383 0.878955 0.144229
O O3 0.353180 0.697245 0.947577
O O4 0.014292 0.410338 0.876091
O O5 0.597817 0.472128 0.305702
O O6 0.338930 0.989559 0.481974
O O7 0.204061 0.941939 0.475434
O O8 0.130225 0.057390 0.012596
O O9 0.000000 0.500000 0.500000
O O10 0.537939 0.030164 0.648117
O O11 0.993729 0.501662 0.856459
O O12 0.059419 0.853361 0.514823
O O13 0.789259 0.004644 0.185328
O O14 0.500000 0.500000 0.500000
O O15 0.008713 0.016109 0.305827
#
# Coordination Sequence:
#
# PCOD9064178 Si02
#       7
#     2   2   2   2   2   2   2
#     4  12  26  46  72 104 140 179 231 288 342 409
#     4  11  25  44  69 102 137 183 230 281 341 410
#     4  12  26  45  68  97 144 183 229 278 344 414
#     4  12  24  45  75 106 135 176 234 288 340 411
#     4  12  26  44  72 105 136 182 229 287 348 399
#     4  12  24  45  70 103 139 186 226 284 343 406
#     4  11  24  45  71  99 142 181 228 282 344 405
#
# _framework density 22.783731
#
# number of rings (size 3 to 8) (size 9 to 14) (size 15 to 20)
#    0.000    0.286    5.714    3.000    2.000    1.714 
#    0.000    0.000    0.000    0.000    0.000    0.000 
#    0.000    0.000    0.000    0.000    0.000    0.000 
#
# Total GULP energy -78273.700953 kJ/mol
# GULP energy per Si atom -5590.978639 kJ/mol
# Density = 2.273187 g / cm^3
# Si number density = 22.783731 Si / 1000 Ang^3
#
#
#
# Elastic Constant Matrix: (Units=GPa)
#
#
# Indices 1 2 3 4 5 6 
#
# 1 48.9702 1.3100 -0.3471 6.2211 30.0193 3.8669
# 2 1.3100 116.1228 28.4128 4.4422 17.0894 -19.9050
# 3 -0.3471 28.4128 61.3876 -12.9101 15.5036 -6.9153
# 4 6.2211 4.4422 -12.9101 40.5650 2.1465 7.3941
# 5 30.0193 17.0894 15.5036 2.1465 37.7330 4.2979
# 6 3.8669 -19.9050 -6.9153 7.3941 4.2979 38.6113
#
#
#
# Elastic Compliance Matrix: (Units=1/GPa)
#
#
# Indices 1 2 3 4 5 6 
#
# 1 0.047210 0.004664 0.008959 -0.003464 -0.043703 0.004809
# 2 0.004664 0.011923 -0.003483 -0.003919 -0.008222 0.006722
# 3 0.008959 -0.003483 0.023666 0.007021 -0.015898 0.001971
# 4 -0.003464 -0.003919 0.007021 0.028909 0.000688 -0.006029
# 5 -0.043703 -0.008222 -0.015898 0.000688 0.072733 -0.010937
# 6 0.004809 0.006722 0.001971 -0.006029 -0.010937 0.031608
#
#
# Mechanical properties :
#
#
# Convention : Reuss Voigt Hill
#
# Bulk Modulus (GPa) = 9.70129 31.69245 20.69687
# Shear Modulus (GPa) = 21.72686 36.52217 29.12452
#
# Velocity S-wave (km/s) = 3.09141 4.00808 3.57922
# Velocity P-wave (km/s) = 4.12428 5.94642 5.11711
#
# Compressibility (1/GPa) = 0.10307906
#
# Stress axis : x y z
#
# Youngs Moduli (GPa) = 21.18199 83.86963 42.25419
#
# Poissons Ratio (x) = -0.39115 -0.37855
# Poissons Ratio (y) = -0.09879 0.14716
# Poissons Ratio (z) = -0.18977 0.29210
#
# Static dielectric constant tensor:
#      x y z
#    x 1.868910 -0.001240 0.002050 
#    y -0.001240 1.856890 -0.030620 
#    z 0.002050 -0.030620 1.879900 
# 
# From -- ./inp_files/392249.got.cif
#   From: 2010.05.17/outbox.cif.g08.bks.cpg/sg2_197_cif.got.tgz:392249.got - 2010.06.03 11:33:40.
