data_PCOD9064217
_publ_section_title
;
Structure prediction by ZEFSAII (Michael W. Deem and Ramdas Pophale) SiO2 
 PCOD9064217
Probable space group: P -1
;
_chemical_formula_sum "Si O2"
_cell_formula_units_Z 16
_cell_length_a 18.759332
_cell_length_b 12.025462
_cell_length_c 8.987970
_cell_angle_alpha 127.837719
_cell_angle_beta 81.784496
_cell_angle_gamma 140.640539
_cell_volume 761.430335
_symmetry_space_group_name_H-M "P -1"
_symmetry_group_IT_number 2
_symmetry_cell_setting 'triclinic'
loop_
_space_group_symop_operation_xyz
x,y,z
-x,-y,-z
loop_
_atom_site_type_symbol
_atom_site_label
_atom_site_fract_x
_atom_site_fract_y
_atom_site_fract_z
Si Si1 0.848997 0.748060 0.932912
Si Si2 0.909261 0.223201 0.720252
Si Si3 0.418479 0.745522 0.915322
Si Si4 0.162410 0.726438 0.500177
Si Si5 0.109522 0.297608 0.785363
Si Si6 0.650957 0.676453 0.552982
Si Si7 0.612186 0.122358 0.449388
Si Si8 0.159440 0.957924 0.905031
O O1 0.722001 0.439711 0.634002
O O2 0.868838 0.707001 0.052554
O O3 0.814981 0.856172 0.045706
O O4 0.000000 0.000000 0.000000
O O5 0.887297 0.239385 0.573046
O O6 0.020863 0.286814 0.769682
O O7 0.747986 0.915010 0.588565
O O8 0.000000 0.500000 0.000000
O O9 0.266353 0.552736 0.864758
O O10 0.386575 0.545852 0.673540
O O11 0.500000 0.000000 0.000000
O O12 0.522240 0.904469 0.159520
O O13 0.285403 0.830623 0.484392
O O14 0.219530 0.916668 0.779079
O O15 0.017154 0.382334 0.301599
O O16 0.000000 0.000000 0.500000
O O17 0.500000 0.500000 0.500000
O O18 0.762228 0.873562 0.823482
O O19 0.500000 0.000000 0.500000
#
# Coordination Sequence:
#
# PCOD9064217 Si02
#       8
#     2   2   2   2   2   2   2   2
#     4  12  24  45  75 105 143 190 241 305 360 434
#     4  12  25  45  77 102 145 192 239 304 359 436
#     4  12  29  47  74 108 148 197 242 309 369 432
#     4  11  25  45  72 110 141 188 243 293 367 430
#     4  12  26  47  73 109 143 189 254 295 365 441
#     4  12  27  49  68 107 149 194 246 296 374 434
#     4  12  26  47  72 105 150 186 245 301 367 437
#     4  11  24  45  72 105 143 188 242 301 356 433
#
# _framework density 21.013083000000002
#
# number of rings (size 3 to 8) (size 9 to 14) (size 15 to 20)
#    0.000    0.250    5.000    3.750    3.500    3.000 
#    0.000    1.875    0.000    0.000    0.000    0.000 
#    0.000    0.000    0.000    0.000    0.000    0.000 
#
# Total GULP energy -89444.928579 kJ/mol
# GULP energy per Si atom -5590.308036 kJ/mol
# Density = 2.096526 g / cm^3
# Si number density = 21.013083 Si / 1000 Ang^3
#
#
#
# Elastic Constant Matrix: (Units=GPa)
#
#
# Indices 1 2 3 4 5 6 
#
# 1 148.4862 51.6016 40.2756 6.3397 -22.3614 8.6303
# 2 51.6016 121.4725 30.3401 18.6173 -7.2943 11.0350
# 3 40.2756 30.3401 145.8422 1.1506 -30.5834 -1.9492
# 4 6.3397 18.6173 1.1506 41.6986 -1.8561 3.0271
# 5 -22.3614 -7.2943 -30.5834 -1.8561 41.3283 0.2999
# 6 8.6303 11.0350 -1.9492 3.0271 0.2999 39.5744
#
#
#
# Elastic Compliance Matrix: (Units=1/GPa)
#
#
# Indices 1 2 3 4 5 6 
#
# 1 0.008682 -0.003178 -0.001044 0.000359 0.003388 -0.001112
# 2 -0.003178 0.010736 -0.001598 -0.004170 -0.001179 -0.002051
# 3 -0.001044 -0.001598 0.008656 0.000810 0.005588 0.000995
# 4 0.000359 -0.004170 0.000810 0.025884 0.001226 -0.000865
# 5 0.003388 -0.001179 0.005588 0.001226 0.030015 -0.000456
# 6 -0.001112 -0.002051 0.000995 -0.000865 -0.000456 0.026202
#
#
# Mechanical properties :
#
#
# Convention : Reuss Voigt Hill
#
# Bulk Modulus (GPa) = 60.84428 73.35951 67.10190
# Shear Modulus (GPa) = 39.27999 44.09248 41.68624
#
# Velocity S-wave (km/s) = 4.32824 4.58573 4.45884
# Velocity P-wave (km/s) = 7.34823 7.93887 7.64926
#
# Compressibility (1/GPa) = 0.01643540
#
# Stress axis : x y z
#
# Youngs Moduli (GPa) = 115.18579 93.14508 115.52658
#
# Poissons Ratio (x) = 0.29601 0.12055
# Poissons Ratio (y) = 0.36605 0.18457
# Poissons Ratio (z) = 0.12020 0.14881
#
# Static dielectric constant tensor:
#      x y z
#    x 1.730320 0.018440 -0.002950 
#    y 0.018440 1.755840 -0.031260 
#    z -0.002950 -0.031260 1.742700 
# 
# From -- ./inp_files/333766.got.cif
#   From: 2010.05.17/outbox.cif.g08.bks.cpg/sg2_167_cif.got.tgz:333766.got - 2010.06.03 11:33:40.
