data_PCOD9064343
_publ_section_title
;
Structure prediction by ZEFSAII (Michael W. Deem and Ramdas Pophale) SiO2 
 PCOD9064343
Probable space group: P -1
;
_chemical_formula_sum "Si O2"
_cell_formula_units_Z 16
_cell_length_a 9.794850
_cell_length_b 10.453674
_cell_length_c 9.439367
_cell_angle_alpha 101.148316
_cell_angle_beta 127.965053
_cell_angle_gamma 76.133559
_cell_volume 738.449890
_symmetry_space_group_name_H-M "P -1"
_symmetry_group_IT_number 2
_symmetry_cell_setting 'triclinic'
loop_
_space_group_symop_operation_xyz
x,y,z
-x,-y,-z
loop_
_atom_site_type_symbol
_atom_site_label
_atom_site_fract_x
_atom_site_fract_y
_atom_site_fract_z
Si Si1 0.319971 0.471678 0.445513
Si Si2 0.131613 0.966352 0.447652
Si Si3 0.996858 0.307782 0.693519
Si Si4 0.789945 0.704474 0.899875
Si Si5 0.698123 0.605246 0.267926
Si Si6 0.997373 0.873558 0.872940
Si Si7 0.318118 0.692055 0.904779
Si Si8 0.445695 0.893740 0.828417
O O1 0.500000 0.500000 0.500000
O O2 0.180764 0.596011 0.429360
O O3 0.245144 0.411382 0.247241
O O4 0.334879 0.387492 0.582312
O O5 0.070824 0.827985 0.336079
O O6 0.326830 0.956611 0.634899
O O7 0.000000 0.000000 0.500000
O O8 0.088103 0.071228 0.317659
O O9 0.141075 0.320821 0.664972
O O10 0.096827 0.347508 0.904067
O O11 0.618499 0.799556 0.866835
O O12 0.882653 0.790302 0.871371
O O13 0.731586 0.449965 0.204650
O O14 0.514316 0.664326 0.088835
O O15 0.178968 0.776557 0.937889
O O16 0.000000 0.000000 0.000000
O O17 0.330005 0.794325 0.806635
O O18 0.500000 0.000000 0.000000
#
# Coordination Sequence:
#
# PCOD9064343 Si02
#       8
#     2   2   2   2   2   2   2   2
#     4  12  28  43  70 108 147 179 235 301 360 416
#     4  12  26  44  76 102 140 187 238 289 353 424
#     4  12  25  48  72 102 143 190 241 284 358 434
#     4  12  26  45  71 103 144 185 233 297 364 412
#     4  11  26  45  75 105 138 197 239 293 353 426
#     4  12  26  46  70 110 144 186 235 303 361 415
#     4  11  24  45  74 102 148 185 245 289 354 429
#     4  12  25  48  73 105 143 190 238 291 347 437
#
# _framework density 21.667007999999999
#
# number of rings (size 3 to 8) (size 9 to 14) (size 15 to 20)
#    0.000    0.250    3.750    5.250    5.250    1.500 
#    0.000    0.000    0.000    0.000    0.000    0.000 
#    0.000    0.000    0.000    0.000    0.000    0.000 
#
# Total GULP energy -89399.272455 kJ/mol
# GULP energy per Si atom -5587.454528 kJ/mol
# Density = 2.161769 g / cm^3
# Si number density = 21.667008 Si / 1000 Ang^3
#
#
#
# Elastic Constant Matrix: (Units=GPa)
#
#
# Indices 1 2 3 4 5 6 
#
# 1 188.4906 40.7823 38.1763 -22.6564 12.6117 -9.0547
# 2 40.7823 64.1901 18.5704 -9.9820 12.2449 -15.0372
# 3 38.1763 18.5704 101.3638 -15.7188 -7.8340 -7.0834
# 4 -22.6564 -9.9820 -15.7188 42.1475 1.5584 -0.5243
# 5 12.6117 12.2449 -7.8340 1.5584 40.8144 -6.1916
# 6 -9.0547 -15.0372 -7.0834 -0.5243 -6.1916 46.4490
#
#
#
# Elastic Compliance Matrix: (Units=1/GPa)
#
#
# Indices 1 2 3 4 5 6 
#
# 1 0.006707 -0.003144 -0.001730 0.002271 -0.001572 -0.000158
# 2 -0.003144 0.020799 -0.002245 0.002648 -0.005021 0.005139
# 3 -0.001730 -0.002245 0.011721 0.002794 0.003537 0.001227
# 4 0.002271 0.002648 0.002794 0.026702 -0.001706 0.001800
# 5 -0.001572 -0.005021 0.003537 -0.001706 0.027581 0.002265
# 6 -0.000158 0.005139 0.001227 0.001800 0.002265 0.023671
#
#
# Mechanical properties :
#
#
# Convention : Reuss Voigt Hill
#
# Bulk Modulus (GPa) = 40.01874 61.01138 50.51506
# Shear Modulus (GPa) = 35.77870 42.98320 39.38095
#
# Velocity S-wave (km/s) = 4.06803 4.45883 4.26790
# Velocity P-wave (km/s) = 6.36986 7.39784 6.90301
#
# Compressibility (1/GPa) = 0.02498829
#
# Stress axis : x y z
#
# Youngs Moduli (GPa) = 149.10588 48.07855 85.31963
#
# Poissons Ratio (x) = 0.15118 0.14761
# Poissons Ratio (y) = 0.46886 0.19150
# Poissons Ratio (z) = 0.25797 0.10791
#
# Static dielectric constant tensor:
#      x y z
#    x 1.786870 0.014940 0.045690 
#    y 0.014940 1.039620 -0.038550 
#    z 0.045690 -0.038550 1.840530 
# 
# From -- ./inp_files/185713.got.cif
#   From: 2010.05.17/outbox.cif.g08.bks.cpg/sg2_93_cif.got.tgz:185713.got - 2010.06.03 11:33:40.
