data_PCOD9064861
_publ_section_title
;
Structure prediction by ZEFSAII (Michael W. Deem and Ramdas Pophale) SiO2 
 PCOD9064861
Probable space group: P -1
;
_chemical_formula_sum "Si O2"
_cell_formula_units_Z 15
_cell_length_a 18.706409
_cell_length_b 11.429300
_cell_length_c 12.770954
_cell_angle_alpha 139.439972
_cell_angle_beta 150.752086
_cell_angle_gamma 30.326358
_cell_volume 673.361919
_symmetry_space_group_name_H-M "P -1"
_symmetry_group_IT_number 2
_symmetry_cell_setting 'triclinic'
loop_
_space_group_symop_operation_xyz
x,y,z
-x,-y,-z
loop_
_atom_site_type_symbol
_atom_site_label
_atom_site_fract_x
_atom_site_fract_y
_atom_site_fract_z
Si Si1 0.361840 0.784752 0.389168
Si Si2 0.985415 0.672595 0.679656
Si Si3 0.017510 0.820835 0.323948
Si Si4 0.351571 0.606511 0.039665
Si Si5 0.500000 0.000000 0.500000
Si Si6 0.386237 0.852340 0.063697
Si Si7 0.071203 0.415092 0.225769
Si Si8 0.750815 0.428398 0.736839
O O1 0.411606 0.695387 0.271259
O O2 0.558170 0.672807 0.621707
O O3 0.285906 0.667339 0.274334
O O4 0.203461 0.059593 0.381385
O O5 0.003873 0.560367 0.737827
O O6 0.000000 0.500000 0.500000
O O7 0.156462 0.675169 0.876197
O O8 0.095752 0.596415 0.339881
O O9 0.166162 0.751768 0.375401
O O10 0.000000 0.000000 0.500000
O O11 0.811211 0.929722 0.089123
O O12 0.329248 0.739891 0.997045
O O13 0.493676 0.337119 0.004491
O O14 0.512696 0.888861 0.320620
O O15 0.725639 0.831682 0.686415
O O16 0.915680 0.441116 0.973843
#
# Coordination Sequence:
#
# PCOD9064861 Si02
#       8
#     2   2   2   2   1   2   2   2
#     4  11  25  47  79 103 149 192 244 301 375 438
#     4  12  27  46  72 107 150 193 243 306 364 447
#     4  12  28  47  73 107 151 192 246 310 363 441
#     4  11  24  46  74 112 142 193 248 304 368 435
#     4  12  26  46  72 110 144 192 242 310 360 436
#     4  11  26  44  77 107 149 190 246 306 367 434
#     4  12  28  46  74 106 147 194 248 297 377 433
#     4  11  25  49  74 108 142 197 239 304 371 442
#
# _framework density 22.276281999999998
#
# number of rings (size 3 to 8) (size 9 to 14) (size 15 to 20)
#    0.000    0.533    2.667    4.000   11.200    1.067 
#    0.000    1.333    0.000    0.000    0.000    0.000 
#    0.000    0.000    0.000    0.000    0.000    0.000 
#
# Total GULP energy -83708.093710 kJ/mol
# GULP energy per Si atom -5580.539581 kJ/mol
# Density = 2.222558 g / cm^3
# Si number density = 22.276282 Si / 1000 Ang^3
#
#
#
# Elastic Constant Matrix: (Units=GPa)
#
#
# Indices 1 2 3 4 5 6 
#
# 1 106.1596 40.7127 7.1028 -9.5925 -9.8204 -14.4627
# 2 40.7127 100.2251 32.8318 -11.9070 -17.3597 -23.4504
# 3 7.1028 32.8318 92.9502 -9.5829 -5.9734 -10.3280
# 4 -9.5925 -11.9070 -9.5829 32.0756 -15.1925 -2.9909
# 5 -9.8204 -17.3597 -5.9734 -15.1925 35.6046 2.2356
# 6 -14.4627 -23.4504 -10.3280 -2.9909 2.2356 34.5533
#
#
#
# Elastic Compliance Matrix: (Units=1/GPa)
#
#
# Indices 1 2 3 4 5 6 
#
# 1 0.011806 -0.003238 0.001348 0.004818 0.003751 0.003321
# 2 -0.003238 0.018005 -0.003090 0.011188 0.011503 0.010165
# 3 0.001348 -0.003090 0.012676 0.004600 0.002799 0.002473
# 4 0.004818 0.011188 0.004600 0.053382 0.029474 0.013698
# 5 0.003751 0.011503 0.002799 0.029474 0.047166 0.009713
# 6 0.003321 0.010165 0.002473 0.013698 0.009713 0.038526
#
#
# Mechanical properties :
#
#
# Convention : Reuss Voigt Hill
#
# Bulk Modulus (GPa) = 30.74371 51.18104 40.96238
# Shear Modulus (GPa) = 24.70804 35.02587 29.86695
#
# Velocity S-wave (km/s) = 3.33402 3.96958 3.66560
# Velocity P-wave (km/s) = 5.35276 6.63592 6.02858
#
# Compressibility (1/GPa) = 0.03252698
#
# Stress axis : x y z
#
# Youngs Moduli (GPa) = 84.70055 55.53944 78.89041
#
# Poissons Ratio (x) = 0.17986 -0.10638
# Poissons Ratio (y) = 0.27430 0.24378
# Poissons Ratio (z) = -0.11422 0.17163
#
# Static dielectric constant tensor:
#      x y z
#    x 1.922130 0.018050 0.007310 
#    y 0.018050 1.838490 0.077080 
#    z 0.007310 0.077080 1.878110 
# 
# From -- ./inp_files/403343.got.cif
#   From: 2010.05.17/outbox.cif.g08.bks.cpg/sg2_202_cif.got.tgz:403343.got - 2010.06.03 11:33:40.
