data_PCOD9064720
_publ_section_title
;
Structure prediction by ZEFSAII (Michael W. Deem and Ramdas Pophale) SiO2 
 PCOD9064720
Probable space group: P -1
;
_chemical_formula_sum "Si O2"
_cell_formula_units_Z 16
_cell_length_a 9.115782
_cell_length_b 8.105511
_cell_length_c 14.730279
_cell_angle_alpha 95.955912
_cell_angle_beta 141.900416
_cell_angle_gamma 89.761980
_cell_volume 662.597935
_symmetry_space_group_name_H-M "P -1"
_symmetry_group_IT_number 2
_symmetry_cell_setting 'triclinic'
loop_
_space_group_symop_operation_xyz
x,y,z
-x,-y,-z
loop_
_atom_site_type_symbol
_atom_site_label
_atom_site_fract_x
_atom_site_fract_y
_atom_site_fract_z
Si Si1 0.344658 0.319883 0.426885
Si Si2 0.684402 0.878058 0.771832
Si Si3 0.019619 0.760603 0.069274
Si Si4 0.806778 0.366926 0.192134
Si Si5 0.500254 0.651556 0.299616
Si Si6 0.729345 0.314522 0.360873
Si Si7 0.723271 0.738237 0.109509
Si Si8 0.124506 0.154077 0.629004
O O1 0.500000 0.500000 0.500000
O O2 0.411072 0.197689 0.374132
O O3 0.405361 0.266618 0.554698
O O4 0.062751 0.331223 0.278537
O O5 0.461096 0.850391 0.729735
O O6 0.811179 0.062827 0.831121
O O7 0.875686 0.773588 0.907201
O O8 0.213574 0.631499 0.155720
O O9 0.842512 0.747310 0.068532
O O10 0.816291 0.337168 0.302498
O O11 0.765800 0.556097 0.158381
O O12 0.562073 0.257227 0.033565
O O13 0.597496 0.473214 0.330786
O O14 0.622251 0.765321 0.284652
O O15 0.947080 0.293592 0.531873
O O16 0.845772 0.869983 0.250561
O O17 0.000000 0.000000 0.500000
#
# Coordination Sequence:
#
# PCOD9064720 Si02
#       8
#     2   2   2   2   2   2   2   2
#     4  12  25  43  70 106 137 183 233 292 353 418
#     4  11  27  47  70 100 147 192 227 298 355 424
#     4  11  27  48  68 105 146 185 239 286 364 420
#     4  11  24  46  72 105 139 182 246 293 349 410
#     4  12  25  43  71 104 138 187 239 294 347 424
#     4  12  23  48  71 103 143 187 243 291 347 419
#     4  11  25  44  73 104 140 189 234 298 344 424
#     4  12  27  45  70 108 147 186 230 292 364 423
#
# _framework density 24.147373999999999
#
# number of rings (size 3 to 8) (size 9 to 14) (size 15 to 20)
#    0.000    0.500    5.000    2.625    5.250    1.000 
#    0.000    1.250    0.000    0.000    0.000    0.000 
#    0.000    0.000    0.000    0.000    0.000    0.000 
#
# Total GULP energy -89634.416670 kJ/mol
# GULP energy per Si atom -5602.151042 kJ/mol
# Density = 2.409241 g / cm^3
# Si number density = 24.147374 Si / 1000 Ang^3
#
#
#
# Elastic Constant Matrix: (Units=GPa)
#
#
# Indices 1 2 3 4 5 6 
#
# 1 96.4562 15.9990 22.6846 -7.2588 9.4114 15.8231
# 2 15.9990 60.0749 11.0924 7.4119 6.3729 2.9912
# 3 22.6846 11.0924 103.2841 -13.2793 11.8067 -5.4069
# 4 -7.2588 7.4119 -13.2793 38.4896 -0.2536 6.3421
# 5 9.4114 6.3729 11.8067 -0.2536 51.5859 3.3979
# 6 15.8231 2.9912 -5.4069 6.3421 3.3979 30.8775
#
#
#
# Elastic Compliance Matrix: (Units=1/GPa)
#
#
# Indices 1 2 3 4 5 6 
#
# 1 0.012977 -0.002971 -0.002369 0.003410 -0.000956 -0.007372
# 2 -0.002971 0.018479 -0.001763 -0.004830 -0.001398 0.000569
# 3 -0.002369 -0.001763 0.011203 0.003265 -0.002089 0.002906
# 4 0.003410 -0.004830 0.003265 0.029802 -0.000178 -0.006810
# 5 -0.000956 -0.001398 -0.002089 -0.000178 0.020338 -0.001942
# 6 -0.007372 0.000569 0.002906 -0.006810 -0.001942 0.038230
#
#
# Mechanical properties :
#
#
# Convention : Reuss Voigt Hill
#
# Bulk Modulus (GPa) = 35.14817 39.92968 37.53893
# Shear Modulus (GPa) = 32.31702 38.19322 35.25512
#
# Velocity S-wave (km/s) = 3.66228 3.98134 3.82514
# Velocity P-wave (km/s) = 5.69828 6.14056 5.92355
#
# Compressibility (1/GPa) = 0.02845098
#
# Stress axis : x y z
#
# Youngs Moduli (GPa) = 77.06161 54.11679 89.26558
#
# Poissons Ratio (x) = 0.16077 0.21149
# Poissons Ratio (y) = 0.22893 0.15741
# Poissons Ratio (z) = 0.18258 0.09543
#
# Static dielectric constant tensor:
#      x y z
#    x 1.922650 -0.020830 0.023310 
#    y -0.020830 1.977710 0.016520 
#    z 0.023310 0.016520 1.906070 
# 
# From -- ./inp_files/217673.got.cif
#   From: 2010.05.17/outbox.cif.g08.bks.cpg/sg2_109_cif.got.tgz:217673.got - 2010.06.03 11:33:40.
