data_PCOD9064563
_publ_section_title
;
Structure prediction by ZEFSAII (Michael W. Deem and Ramdas Pophale) SiO2 
 PCOD9064563
Probable space group: P -1
;
_chemical_formula_sum "Si O2"
_cell_formula_units_Z 11
_cell_length_a 5.640971
_cell_length_b 14.648025
_cell_length_c 6.662178
_cell_angle_alpha 92.055358
_cell_angle_beta 70.938628
_cell_angle_gamma 121.429109
_cell_volume 437.759010
_symmetry_space_group_name_H-M "P -1"
_symmetry_group_IT_number 2
_symmetry_cell_setting 'triclinic'
loop_
_space_group_symop_operation_xyz
x,y,z
-x,-y,-z
loop_
_atom_site_type_symbol
_atom_site_label
_atom_site_fract_x
_atom_site_fract_y
_atom_site_fract_z
Si Si1 0.360184 0.252852 0.152276
Si Si2 0.251978 0.356178 0.811828
Si Si3 0.354557 0.062385 0.949488
Si Si4 0.836283 0.222148 0.563166
Si Si5 0.000000 0.500000 0.000000
Si Si6 0.241399 0.599260 0.608457
O O1 0.643925 0.360879 0.184383
O O2 0.079012 0.212123 0.372346
O O3 0.299126 0.288787 0.961774
O O4 0.414324 0.157666 0.094054
O O5 0.513882 0.406674 0.579644
O O6 0.975750 0.271105 0.744533
O O7 0.193903 0.440497 0.937097
O O8 0.524809 0.114457 0.695826
O O9 0.500000 0.000000 0.000000
O O10 0.000000 0.000000 0.000000
O O11 0.796343 0.308508 0.461701
O O12 0.964791 0.486836 0.748464
#
# Coordination Sequence:
#
# PCOD9064563 Si02
#       6
#     2   2   2   2   1   2
#     4  11  25  48  75  97 148 193 233 298 381 421
#     4  11  24  46  69 104 142 194 237 296 355 434
#     4  12  28  47  76 112 144 186 250 309 361 449
#     4  11  25  48  74 100 145 194 234 293 378 427
#     4  12  24  42  70 106 142 186 248 294 350 422
#     4  11  25  44  71 102 140 193 236 294 357 437
#
# _framework density 25.127980999999998
#
# number of rings (size 3 to 8) (size 9 to 14) (size 15 to 20)
#    0.000    0.727    3.636    2.727    5.091    2.909 
#    0.000    0.000    0.000    0.000    0.000    0.000 
#    0.000    0.000    0.000    0.000    0.000    0.000 
#
# Total GULP energy -61501.898411 kJ/mol
# GULP energy per Si atom -5591.081674 kJ/mol
# Density = 2.507079 g / cm^3
# Si number density = 25.127981 Si / 1000 Ang^3
#
#
#
# Elastic Constant Matrix: (Units=GPa)
#
#
# Indices 1 2 3 4 5 6 
#
# 1 163.8106 76.4997 76.7502 -18.4936 -22.6008 -22.7413
# 2 76.4997 109.5243 52.6245 -18.0982 -16.1567 -24.2177
# 3 76.7502 52.6245 121.1486 -26.1228 -40.1738 1.4941
# 4 -18.4936 -18.0982 -26.1228 38.9353 -10.6799 -5.8808
# 5 -22.6008 -16.1567 -40.1738 -10.6799 84.7953 -0.1168
# 6 -22.7413 -24.2177 1.4941 -5.8808 -0.1168 66.1254
#
#
#
# Elastic Compliance Matrix: (Units=1/GPa)
#
#
# Indices 1 2 3 4 5 6 
#
# 1 0.010937 -0.004866 -0.005036 -0.000250 -0.000427 0.002070
# 2 -0.004866 0.015553 -0.002480 0.004209 0.001028 0.004455
# 3 -0.005036 -0.002480 0.017130 0.009685 0.007518 -0.002152
# 4 -0.000250 0.004209 0.009685 0.037469 0.010049 0.004587
# 5 -0.000427 0.001028 0.007518 0.010049 0.016704 0.000983
# 6 0.002070 0.004455 -0.002152 0.004587 0.000983 0.017924
#
#
# Mechanical properties :
#
#
# Convention : Reuss Voigt Hill
#
# Bulk Modulus (GPa) = 53.03272 89.58138 71.30705
# Shear Modulus (GPa) = 34.06811 50.54514 42.30662
#
# Velocity S-wave (km/s) = 3.68609 4.48985 4.10768
# Velocity P-wave (km/s) = 6.26636 7.91238 7.13698
#
# Compressibility (1/GPa) = 0.01885628
#
# Stress axis : x y z
#
# Youngs Moduli (GPa) = 91.43484 64.29749 58.37820
#
# Poissons Ratio (x) = 0.31287 0.29399
# Poissons Ratio (y) = 0.44491 0.14475
# Poissons Ratio (z) = 0.46047 0.15943
#
# Static dielectric constant tensor:
#      x y z
#    x 2.103000 0.254260 0.019040 
#    y 0.254260 2.489770 -0.215010 
#    z 0.019040 -0.215010 2.206980 
# 
# From -- ./inp_files/3169.got.cif
#   From: 2010.05.17/outbox.cif.g08.bks.cpg/sg2_2_cif.got.tgz:3169.got - 2010.06.03 11:33:40.
