data_PCOD9064541
_publ_section_title
;
Structure prediction by ZEFSAII (Michael W. Deem and Ramdas Pophale) SiO2 
 PCOD9064541
Probable space group: P -1
;
_chemical_formula_sum "Si O2"
_cell_formula_units_Z 16
_cell_length_a 16.655389
_cell_length_b 10.232759
_cell_length_c 5.341019
_cell_angle_alpha 79.569338
_cell_angle_beta 61.236667
_cell_angle_gamma 53.692228
_cell_volume 636.042967
_symmetry_space_group_name_H-M "P -1"
_symmetry_group_IT_number 2
_symmetry_cell_setting 'triclinic'
loop_
_space_group_symop_operation_xyz
x,y,z
-x,-y,-z
loop_
_atom_site_type_symbol
_atom_site_label
_atom_site_fract_x
_atom_site_fract_y
_atom_site_fract_z
Si Si1 0.450419 0.434198 0.788643
Si Si2 0.959875 0.257897 0.533279
Si Si3 0.095954 0.905770 0.683070
Si Si4 0.631942 0.907245 0.782375
Si Si5 0.285520 0.022081 0.853786
Si Si6 0.334036 0.742375 0.190393
Si Si7 0.906766 0.645918 0.923631
Si Si8 0.252751 0.428785 0.045082
O O1 0.500000 0.500000 0.500000
O O2 0.558993 0.284403 0.820454
O O3 0.377195 0.567301 0.070816
O O4 0.366370 0.403717 0.791332
O O5 0.914680 0.236398 0.348438
O O6 0.843987 0.381046 0.813347
O O7 0.025972 0.340332 0.407021
O O8 0.050120 0.067343 0.527606
O O9 0.229891 0.817452 0.511378
O O10 0.000000 0.000000 0.000000
O O11 0.644969 0.974109 0.478699
O O12 0.700603 0.707711 0.753627
O O13 0.684204 0.939251 0.933841
O O14 0.500000 0.000000 0.000000
O O15 0.158312 0.173125 0.922508
O O16 0.299399 0.857140 0.958793
O O17 0.812210 0.617955 0.019211
O O18 0.000000 0.500000 0.000000
#
# Coordination Sequence:
#
# PCOD9064541 Si02
#       8
#     2   2   2   2   2   2   2   2
#     4  11  27  47  78 110 154 209 263 331 399 480
#     4  11  24  46  68 110 146 193 259 317 397 466
#     4  11  26  45  76 108 151 203 259 325 393 473
#     4  11  25  46  73 111 150 206 262 327 390 478
#     4  11  25  46  74 108 150 200 262 322 395 473
#     4  11  25  49  75 112 154 206 268 331 399 478
#     4  11  25  45  76 108 149 204 253 327 399 473
#     4  11  25  48  73 111 156 201 266 323 405 477
#
# _framework density 25.155535
#
# number of rings (size 3 to 8) (size 9 to 14) (size 15 to 20)
#    0.000    1.000    2.500    2.250    7.000    2.000 
#    6.750    0.000    0.000    0.000    0.000    0.000 
#    0.000    0.000    0.000    0.000    0.000    0.000 
#
# Total GULP energy -89378.863122 kJ/mol
# GULP energy per Si atom -5586.178945 kJ/mol
# Density = 2.509828 g / cm^3
# Si number density = 25.155535 Si / 1000 Ang^3
#
#
#
# Elastic Constant Matrix: (Units=GPa)
#
#
# Indices 1 2 3 4 5 6 
#
# 1 113.6806 42.4621 43.9770 -2.3706 -38.0891 -9.3543
# 2 42.4621 131.6825 26.5404 14.2308 -11.7406 -21.6229
# 3 43.9770 26.5404 135.8730 0.3066 -27.1940 -12.8912
# 4 -2.3706 14.2308 0.3066 41.6960 -4.6982 -9.4570
# 5 -38.0891 -11.7406 -27.1940 -4.6982 43.5051 8.5371
# 6 -9.3543 -21.6229 -12.8912 -9.4570 8.5371 38.2183
#
#
#
# Elastic Compliance Matrix: (Units=1/GPa)
#
#
# Indices 1 2 3 4 5 6 
#
# 1 0.014702 -0.003868 -0.001857 0.003223 0.011196 -0.000920
# 2 -0.003868 0.009771 -0.000722 -0.002871 -0.002324 0.004147
# 3 -0.001857 -0.000722 0.008962 0.000833 0.003563 0.001570
# 4 0.003223 -0.002871 0.000833 0.026795 0.004464 0.005078
# 5 0.011196 -0.002324 0.003563 0.004464 0.035703 -0.004243
# 6 -0.000920 0.004147 0.001570 0.005078 -0.004243 0.031021
#
#
# Mechanical properties :
#
#
# Convention : Reuss Voigt Hill
#
# Bulk Modulus (GPa) = 48.68077 67.46611 58.07344
# Shear Modulus (GPa) = 34.08463 42.56767 38.32615
#
# Velocity S-wave (km/s) = 3.68497 4.11807 3.90752
# Velocity P-wave (km/s) = 6.12366 7.03485 6.59501
#
# Compressibility (1/GPa) = 0.02054199
#
# Stress axis : x y z
#
# Youngs Moduli (GPa) = 68.01628 102.34787 111.58130
#
# Poissons Ratio (x) = 0.39585 0.20719
# Poissons Ratio (y) = 0.26307 0.08056
# Poissons Ratio (z) = 0.12629 0.07390
#
# Static dielectric constant tensor:
#      x y z
#    x 2.064340 0.045160 0.108920 
#    y 0.045160 2.063410 -0.069650 
#    z 0.108920 -0.069650 1.982130 
# 
# From -- ./inp_files/109630.got.cif
#   From: 2010.05.17/outbox.cif.g08.bks.cpg/sg2_55_cif.got.tgz:109630.got - 2010.06.03 11:33:40.
