data_PCOD9064407
_publ_section_title
;
Structure prediction by ZEFSAII (Michael W. Deem and Ramdas Pophale) SiO2 
 PCOD9064407
Probable space group: P -1
;
_chemical_formula_sum "Si O2"
_cell_formula_units_Z 16
_cell_length_a 7.525821
_cell_length_b 10.651151
_cell_length_c 14.696090
_cell_angle_alpha 138.979975
_cell_angle_beta 113.753031
_cell_angle_gamma 47.518982
_cell_volume 556.169741
_symmetry_space_group_name_H-M "P -1"
_symmetry_group_IT_number 2
_symmetry_cell_setting 'triclinic'
loop_
_space_group_symop_operation_xyz
x,y,z
-x,-y,-z
loop_
_atom_site_type_symbol
_atom_site_label
_atom_site_fract_x
_atom_site_fract_y
_atom_site_fract_z
Si Si1 0.336064 0.366491 0.086483
Si Si2 0.802943 0.945398 0.435415
Si Si3 0.125577 0.640625 0.493857
Si Si4 0.603324 0.599430 0.292117
Si Si5 0.599395 0.125413 0.313309
Si Si6 0.795477 0.920403 0.039239
Si Si7 0.409918 0.333216 0.885654
Si Si8 0.925373 0.871831 0.775726
O O1 0.251648 0.424499 0.996602
O O2 0.158314 0.335243 0.091589
O O3 0.408906 0.537102 0.221475
O O4 0.597463 0.102243 0.022185
O O5 0.535769 0.175360 0.543658
O O6 0.748480 0.911470 0.302612
O O7 0.000000 0.000000 0.500000
O O8 0.930345 0.741325 0.427820
O O9 0.308531 0.350281 0.378716
O O10 0.288036 0.732107 0.561614
O O11 0.997962 0.761380 0.628969
O O12 0.615334 0.668280 0.229545
O O13 0.871340 0.359857 0.247457
O O14 0.681858 0.030202 0.176067
O O15 0.012182 0.940890 0.089406
O O16 0.500000 0.500000 0.000000
O O17 0.631680 0.058420 0.814690
#
# Coordination Sequence:
#
# PCOD9064407 Si02
#       8
#     2   2   2   2   2   2   2   2
#     4   9  20  36  54  77 112 150 176 223 268 322
#     4  10  18  27  50  83 112 131 171 229 274 311
#     4   9  16  27  49  80 107 132 170 223 275 309
#     4  10  19  33  55  84 110 139 184 224 268 321
#     4   9  17  29  50  79 107 136 169 224 273 315
#     4   9  19  35  56  80 112 142 181 220 272 328
#     4  10  21  36  55  78 109 146 187 224 264 314
#     4  10  18  33  59  81 108 140 180 229 269 316
#
# _framework density 28.768196
#
# number of rings (size 3 to 8) (size 9 to 14) (size 15 to 20)
#    0.000    2.500    2.500    0.000    5.250    4.500 
#    0.000    2.500    0.000    4.500    0.000    0.000 
#    0.000    0.000    0.000    0.000    0.000    0.000 
#
# Total GULP energy -89563.238539 kJ/mol
# GULP energy per Si atom -5597.702409 kJ/mol
# Density = 2.870272 g / cm^3
# Si number density = 28.768196 Si / 1000 Ang^3
#
#
#
# Elastic Constant Matrix: (Units=GPa)
#
#
# Indices 1 2 3 4 5 6 
#
# 1 63.5488 33.6807 9.6439 -1.9499 6.3038 -7.6676
# 2 33.6807 215.0197 74.1747 -32.0892 -4.5488 -3.9589
# 3 9.6439 74.1747 94.5821 -22.8774 -1.1425 -14.2775
# 4 -1.9499 -32.0892 -22.8774 65.3690 -1.4750 8.2875
# 5 6.3038 -4.5488 -1.1425 -1.4750 43.6717 0.3591
# 6 -7.6676 -3.9589 -14.2775 8.2875 0.3591 61.9763
#
#
#
# Elastic Compliance Matrix: (Units=1/GPa)
#
#
# Indices 1 2 3 4 5 6 
#
# 1 0.017889 -0.003261 0.000772 -0.001163 -0.002960 0.002355
# 2 -0.003261 0.007176 -0.005037 0.001862 0.001161 -0.001361
# 3 0.000772 -0.005037 0.015524 0.002599 -0.000167 0.003003
# 4 -0.001163 0.001862 0.002599 0.017332 0.001029 -0.001750
# 5 -0.002960 0.001161 -0.000167 0.001029 0.023482 -0.000604
# 6 0.002355 -0.001361 0.003003 -0.001750 -0.000604 0.017269
#
#
# Mechanical properties :
#
#
# Convention : Reuss Voigt Hill
#
# Bulk Modulus (GPa) = 39.15675 67.57213 53.36444
# Shear Modulus (GPa) = 40.90438 51.24684 46.07561
#
# Velocity S-wave (km/s) = 3.77485 4.22521 4.00636
# Velocity P-wave (km/s) = 5.71314 6.88060 6.32387
#
# Compressibility (1/GPa) = 0.02553838
#
# Stress axis : x y z
#
# Youngs Moduli (GPa) = 55.89890 139.34635 64.41647
#
# Poissons Ratio (x) = 0.45446 -0.04974
# Poissons Ratio (y) = 0.18231 0.32444
# Poissons Ratio (z) = -0.04317 0.70183
#
# Static dielectric constant tensor:
#      x y z
#    x 2.420960 0.035330 0.127970 
#    y 0.035330 2.139010 0.048420 
#    z 0.127970 0.048420 2.177560 
# 
# From -- ./inp_files/517086.got.cif
#   From: 2010.05.17/outbox.cif.g08.bks.cpg/sg2_259_cif.got.tgz:517086.got - 2010.06.03 11:33:40.
