data_PCOD9064988
_publ_section_title
;
Structure prediction by ZEFSAII (Michael W. Deem and Ramdas Pophale) SiO2 
 PCOD9064988
Probable space group: P -1
;
_chemical_formula_sum "Si O2"
_cell_formula_units_Z 12
_cell_length_a 7.942674
_cell_length_b 13.739277
_cell_length_c 14.817436
_cell_angle_alpha 29.530346
_cell_angle_beta 144.439127
_cell_angle_gamma 130.849885
_cell_volume 455.280417
_symmetry_space_group_name_H-M "P -1"
_symmetry_group_IT_number 2
_symmetry_cell_setting 'triclinic'
loop_
_space_group_symop_operation_xyz
x,y,z
-x,-y,-z
loop_
_atom_site_type_symbol
_atom_site_label
_atom_site_fract_x
_atom_site_fract_y
_atom_site_fract_z
Si Si1 0.080732 0.907864 0.370675
Si Si2 0.636665 0.558815 0.916522
Si Si3 0.287558 0.522419 0.184344
Si Si4 0.904972 0.868641 0.983663
Si Si5 0.257810 0.065984 0.504962
Si Si6 0.739379 0.562588 0.488373
O O1 0.391581 0.749976 0.623621
O O2 0.981852 0.039166 0.133094
O O3 0.143132 0.041175 0.373865
O O4 0.852067 0.760836 0.407484
O O5 0.698257 0.425683 0.957987
O O6 0.500000 0.500000 0.000000
O O7 0.319551 0.280204 0.392056
O O8 0.564352 0.591505 0.294862
O O9 0.978971 0.585056 0.054644
O O10 0.558752 0.912103 0.777977
O O11 0.000000 0.000000 0.000000
O O12 0.008435 0.635701 0.241415
O O13 0.000000 0.000000 0.500000
O O14 0.500000 0.500000 0.500000
#
# Coordination Sequence:
#
# PCOD9064988 Si02
#       6
#     2   2   2   2   2   2
#     4  12  29  50  81 116 153 209 265 319 399 467
#     4  11  24  46  79 111 156 207 262 325 389 466
#     4  11  26  49  75 117 159 204 268 326 389 478
#     4  12  28  53  80 113 161 204 257 327 396 467
#     4  12  26  50  77 114 157 203 264 324 389 472
#     4  12  28  52  78 115 161 205 263 327 398 471
#
# _framework density 26.357382999999999
#
# number of rings (size 3 to 8) (size 9 to 14) (size 15 to 20)
#    0.000    0.333    3.333    3.500    7.000    4.667 
#    3.000    0.000    0.000    0.000    0.000    0.000 
#    0.000    0.000    0.000    0.000    0.000    0.000 
#
# Total GULP energy -67200.333539 kJ/mol
# GULP energy per Si atom -5600.027795 kJ/mol
# Density = 2.629739 g / cm^3
# Si number density = 26.357383 Si / 1000 Ang^3
#
#
#
# Elastic Constant Matrix: (Units=GPa)
#
#
# Indices 1 2 3 4 5 6 
#
# 1 147.2709 32.3845 29.8508 5.2825 -14.5811 18.2142
# 2 32.3845 159.6973 25.9427 22.2239 -5.5323 14.0404
# 3 29.8508 25.9427 110.6690 21.7089 -9.4592 3.4787
# 4 5.2825 22.2239 21.7089 46.8103 -11.9292 -8.6744
# 5 -14.5811 -5.5323 -9.4592 -11.9292 42.7207 8.0498
# 6 18.2142 14.0404 3.4787 -8.6744 8.0498 46.0972
#
#
#
# Elastic Compliance Matrix: (Units=1/GPa)
#
#
# Indices 1 2 3 4 5 6 
#
# 1 0.008024 -0.001052 -0.001672 0.000546 0.002977 -0.003141
# 2 -0.001052 0.007277 -0.000670 -0.003492 -0.000089 -0.002392
# 3 -0.001672 -0.000670 0.010589 -0.004408 0.000621 -0.000873
# 4 0.000546 -0.003492 -0.004408 0.027375 0.005386 0.005391
# 5 0.002977 -0.000089 0.000621 0.005386 0.026976 -0.004893
# 6 -0.003141 -0.002392 -0.000873 0.005391 -0.004893 0.025598
#
#
# Mechanical properties :
#
#
# Convention : Reuss Voigt Hill
#
# Bulk Modulus (GPa) = 52.34767 65.99925 59.17346
# Shear Modulus (GPa) = 42.01942 49.08958 45.55450
#
# Velocity S-wave (km/s) = 3.99710 4.32030 4.16184
# Velocity P-wave (km/s) = 6.41921 7.06974 6.75231
#
# Compressibility (1/GPa) = 0.01910305
#
# Stress axis : x y z
#
# Youngs Moduli (GPa) = 124.62597 137.41775 94.43856
#
# Poissons Ratio (x) = 0.14461 0.15786
# Poissons Ratio (y) = 0.13115 0.06323
# Poissons Ratio (z) = 0.20832 0.09201
#
# Static dielectric constant tensor:
#      x y z
#    x 2.155310 -0.012710 -0.003950 
#    y -0.012710 2.077570 -0.012030 
#    z -0.003950 -0.012030 2.167130 
# 
# From -- ./inp_files/505192.got.cif
#   From: 2010.05.17/outbox.cif.g08.bks.cpg/sg2_253_cif.got.tgz:505192.got - 2010.06.03 11:33:40.
