data_PCOD9064375
_publ_section_title
;
Structure prediction by ZEFSAII (Michael W. Deem and Ramdas Pophale) SiO2 
 PCOD9064375
Probable space group: P -1
;
_chemical_formula_sum "Si O2"
_cell_formula_units_Z 12
_cell_length_a 11.867334
_cell_length_b 8.727914
_cell_length_c 11.183963
_cell_angle_alpha 51.716582
_cell_angle_beta 63.121002
_cell_angle_gamma 103.546678
_cell_volume 550.289802
_symmetry_space_group_name_H-M "P -1"
_symmetry_group_IT_number 2
_symmetry_cell_setting 'triclinic'
loop_
_space_group_symop_operation_xyz
x,y,z
-x,-y,-z
loop_
_atom_site_type_symbol
_atom_site_label
_atom_site_fract_x
_atom_site_fract_y
_atom_site_fract_z
Si Si1 0.444057 0.246636 0.224679
Si Si2 0.581235 0.129310 0.767527
Si Si3 0.326559 0.190742 0.795122
Si Si4 0.932044 0.558213 0.254604
Si Si5 0.963091 0.152070 0.365607
Si Si6 0.746730 0.545229 0.127810
O O1 0.574295 0.313673 0.234371
O O2 0.422098 0.063533 0.220258
O O3 0.250365 0.083637 0.454922
O O4 0.500000 0.500000 0.000000
O O5 0.427465 0.101614 0.806456
O O6 0.797073 0.444316 0.490007
O O7 0.500000 0.000000 0.000000
O O8 0.500000 0.500000 0.500000
O O9 0.285090 0.275686 0.889769
O O10 0.117884 0.902412 0.987414
O O11 0.991995 0.397358 0.296885
O O12 0.796443 0.460528 0.255482
O O13 0.000000 0.000000 0.500000
O O14 0.083614 0.273960 0.131338
#
# Coordination Sequence:
#
# PCOD9064375 Si02
#       6
#     2   2   2   2   2   2
#     4  11  24  45  74 107 143 189 245 295 365 435
#     4  11  26  47  74 108 149 192 241 304 373 438
#     4  12  27  47  72 105 148 194 247 302 370 437
#     4  11  27  49  71 110 146 194 251 301 370 436
#     4  11  25  45  72 105 147 190 240 302 367 432
#     4  12  25  45  74 104 146 193 244 306 360 434
#
# _framework density 21.806694
#
# number of rings (size 3 to 8) (size 9 to 14) (size 15 to 20)
#    0.000    0.667    3.333    3.000    4.667    4.667 
#    0.000    0.000    0.000    0.000    0.000    0.000 
#    0.000    0.000    0.000    0.000    0.000    0.000 
#
# Total GULP energy -66905.934222 kJ/mol
# GULP energy per Si atom -5575.494519 kJ/mol
# Density = 2.175706 g / cm^3
# Si number density = 21.806694 Si / 1000 Ang^3
#
#
#
# Elastic Constant Matrix: (Units=GPa)
#
#
# Indices 1 2 3 4 5 6 
#
# 1 97.0375 22.5638 70.7926 6.3854 -10.6360 -4.5162
# 2 22.5638 62.3218 44.3303 15.2504 -17.7862 -5.7218
# 3 70.7926 44.3303 176.3549 21.6420 -36.0415 14.8868
# 4 6.3854 15.2504 21.6420 46.7734 -8.9317 -9.2936
# 5 -10.6360 -17.7862 -36.0415 -8.9317 39.7467 6.5454
# 6 -4.5162 -5.7218 14.8868 -9.2936 6.5454 37.9209
#
#
#
# Elastic Compliance Matrix: (Units=1/GPa)
#
#
# Indices 1 2 3 4 5 6 
#
# 1 0.015841 -0.001459 -0.007506 0.002236 -0.003672 0.005795
# 2 -0.001459 0.021707 -0.003702 -0.003710 0.004665 0.002840
# 3 -0.007506 -0.003702 0.012489 -0.003696 0.008260 -0.008687
# 4 0.002236 -0.003710 -0.003696 0.025480 0.000096 0.007385
# 5 -0.003672 0.004665 0.008260 0.000096 0.035264 -0.009039
# 6 0.005795 0.002840 -0.008687 0.007385 -0.009039 0.034270
#
#
# Mechanical properties :
#
#
# Convention : Reuss Voigt Hill
#
# Bulk Modulus (GPa) = 40.48183 67.89861 54.19022
# Shear Modulus (GPa) = 27.99258 38.09003 33.04131
#
# Velocity S-wave (km/s) = 3.58672 4.18390 3.89677
# Velocity P-wave (km/s) = 5.97971 7.38541 6.71942
#
# Compressibility (1/GPa) = 0.02470244
#
# Stress axis : x y z
#
# Youngs Moduli (GPa) = 63.12899 46.06743 80.07180
#
# Poissons Ratio (x) = 0.06722 0.60102
# Poissons Ratio (y) = 0.09212 0.29641
# Poissons Ratio (z) = 0.47385 0.17053
#
# Static dielectric constant tensor:
#      x y z
#    x 1.770730 -0.013040 0.043530 
#    y -0.013040 1.765770 -0.081460 
#    z 0.043530 -0.081460 1.954370 
# 
# From -- ./inp_files/244537.got.cif
#   From: 2010.05.17/outbox.cif.g08.bks.cpg/sg2_123_cif.got.tgz:244537.got - 2010.06.03 11:33:40.
