data_PCOD9064036
_publ_section_title
;
Structure prediction by ZEFSAII (Michael W. Deem and Ramdas Pophale) SiO2 
 PCOD9064036
Probable space group: P -1
;
_chemical_formula_sum "Si O2"
_cell_formula_units_Z 14
_cell_length_a 8.504452
_cell_length_b 11.368957
_cell_length_c 9.720542
_cell_angle_alpha 52.894926
_cell_angle_beta 111.734808
_cell_angle_gamma 119.874037
_cell_volume 646.636770
_symmetry_space_group_name_H-M "P -1"
_symmetry_group_IT_number 2
_symmetry_cell_setting 'triclinic'
loop_
_space_group_symop_operation_xyz
x,y,z
-x,-y,-z
loop_
_atom_site_type_symbol
_atom_site_label
_atom_site_fract_x
_atom_site_fract_y
_atom_site_fract_z
Si Si1 0.150227 0.983253 0.661555
Si Si2 0.386281 0.395588 0.158469
Si Si3 0.514184 0.617097 0.291916
Si Si4 0.720215 0.198294 0.799389
Si Si5 0.176741 0.085449 0.901244
Si Si6 0.982572 0.339188 0.028394
Si Si7 0.520436 0.143143 0.508595
O O1 0.116566 0.046955 0.752036
O O2 0.347788 0.081023 0.598171
O O3 0.000000 0.000000 0.500000
O O4 0.138873 0.805643 0.812251
O O5 0.392407 0.503637 0.216012
O O6 0.486921 0.279132 0.315839
O O7 0.500000 0.500000 0.000000
O O8 0.176767 0.318901 0.101113
O O9 0.500000 0.500000 0.500000
O O10 0.431153 0.743575 0.227057
O O11 0.704792 0.725625 0.202007
O O12 0.697834 0.205755 0.621303
O O13 0.896796 0.307819 0.868762
O O14 0.699484 0.017647 0.949717
O O15 0.000000 0.000000 0.000000
O O16 0.000000 0.500000 0.000000
O O17 0.500000 0.000000 0.500000
#
# Coordination Sequence:
#
# PCOD9064036 Si02
#       7
#     2   2   2   2   2   2   2
#     4  11  24  45  70 100 147 192 243 293 366 436
#     4  12  28  46  71 108 147 188 243 305 370 438
#     4  12  24  48  76 104 148 200 245 303 372 442
#     4  11  25  46  73 107 143 197 246 299 370 443
#     4  11  27  44  73 110 149 194 245 305 371 443
#     4  11  25  43  71 105 142 185 239 300 368 428
#     4  12  28  48  73 107 149 194 248 300 367 443
#
# _framework density 21.650486000000001
#
# number of rings (size 3 to 8) (size 9 to 14) (size 15 to 20)
#    0.000    0.571    5.714    0.429   12.000    0.000 
#    0.000    2.857    0.000    0.000    0.000    0.000 
#    0.000    0.000    0.000    0.000    0.000    0.000 
#
# Total GULP energy -78142.212662 kJ/mol
# GULP energy per Si atom -5581.586619 kJ/mol
# Density = 2.160121 g / cm^3
# Si number density = 21.650486 Si / 1000 Ang^3
#
#
#
# Elastic Constant Matrix: (Units=GPa)
#
#
# Indices 1 2 3 4 5 6 
#
# 1 53.5300 23.9158 59.2354 7.5694 -3.7957 2.1007
# 2 23.9158 118.9643 63.6987 19.7244 12.4270 4.3673
# 3 59.2354 63.6987 167.7567 9.2203 5.9062 11.3862
# 4 7.5694 19.7244 9.2203 56.4398 5.3819 0.0984
# 5 -3.7957 12.4270 5.9062 5.3819 39.5128 -0.8610
# 6 2.1007 4.3673 11.3862 0.0984 -0.8610 36.0446
#
#
#
# Elastic Compliance Matrix: (Units=1/GPa)
#
#
# Indices 1 2 3 4 5 6 
#
# 1 0.032137 -0.000586 -0.011291 -0.002777 0.005379 0.001901
# 2 -0.000586 0.011360 -0.003835 -0.003012 -0.002650 -0.000186
# 3 -0.011291 -0.003835 0.011581 0.001141 -0.001821 -0.002582
# 4 -0.002777 -0.003012 0.001141 0.019157 -0.002098 0.000064
# 5 0.005379 -0.002650 -0.001821 -0.002098 0.027243 0.001239
# 6 0.001901 -0.000186 -0.002582 0.000064 0.001239 0.028500
#
#
# Mechanical properties :
#
#
# Convention : Reuss Voigt Hill
#
# Bulk Modulus (GPa) = 42.27729 70.43897 56.35813
# Shear Modulus (GPa) = 29.53580 39.29287 34.41433
#
# Velocity S-wave (km/s) = 3.69753 4.26475 3.99123
# Velocity P-wave (km/s) = 6.14805 7.54030 6.87948
#
# Compressibility (1/GPa) = 0.02365336
#
# Stress axis : x y z
#
# Youngs Moduli (GPa) = 31.11722 88.02631 86.35071
#
# Poissons Ratio (x) = 0.05161 0.97496
# Poissons Ratio (y) = 0.01824 0.33116
# Poissons Ratio (z) = 0.35133 0.33759
#
# Static dielectric constant tensor:
#      x y z
#    x 1.836780 0.025100 0.022920 
#    y 0.025100 1.842930 0.001460 
#    z 0.022920 0.001460 1.794080 
# 
# From -- ./inp_files/184458.got.cif
#   From: 2010.05.17/outbox.cif.g08.bks.cpg/sg2_93_cif.got.tgz:184458.got - 2010.06.03 11:33:40.
