data_PCOD9064879
_publ_section_title
;
Structure prediction by ZEFSAII (Michael W. Deem and Ramdas Pophale) SiO2 
 PCOD9064879
Probable space group: P -1
;
_chemical_formula_sum "Si O2"
_cell_formula_units_Z 13
_cell_length_a 11.491336
_cell_length_b 13.717397
_cell_length_c 9.582338
_cell_angle_alpha 49.066257
_cell_angle_beta 140.837504
_cell_angle_gamma 148.544763
_cell_volume 497.685982
_symmetry_space_group_name_H-M "P -1"
_symmetry_group_IT_number 2
_symmetry_cell_setting 'triclinic'
loop_
_space_group_symop_operation_xyz
x,y,z
-x,-y,-z
loop_
_atom_site_type_symbol
_atom_site_label
_atom_site_fract_x
_atom_site_fract_y
_atom_site_fract_z
Si Si1 0.115287 0.696796 0.647508
Si Si2 0.267017 0.190954 0.202770
Si Si3 0.746839 0.284593 0.629715
Si Si4 0.355192 0.444435 0.270577
Si Si5 0.500000 0.000000 0.500000
Si Si6 0.239366 0.783658 0.991754
Si Si7 0.771676 0.771148 0.181949
O O1 0.384251 0.872995 0.656831
O O2 0.158824 0.683574 0.862457
O O3 0.965725 0.504099 0.613221
O O4 0.929445 0.729902 0.433185
O O5 0.458384 0.159452 0.398785
O O6 0.389175 0.342067 0.293043
O O7 0.288502 0.268201 0.001066
O O8 0.979643 0.994824 0.166773
O O9 0.801116 0.181802 0.693639
O O10 0.680831 0.252807 0.761236
O O11 0.500000 0.500000 0.500000
O O12 0.499544 0.635381 0.144528
O O13 0.039683 0.295624 0.141831
O O14 0.500000 0.000000 0.000000
#
# Coordination Sequence:
#
# PCOD9064879 Si02
#       7
#     2   2   2   2   1   2   2
#     4  12  25  49  71 108 147 196 245 306 366 438
#     4  11  25  47  77 105 147 194 242 304 358 435
#     4  12  26  46  77 107 148 193 242 308 369 436
#     4  12  26  47  76 109 143 196 244 301 366 438
#     4  12  26  44  74 108 150 192 246 302 376 438
#     4  12  26  51  75 107 154 190 244 310 365 442
#     4  11  24  46  75 104 147 188 251 297 358 432
#
# _framework density 26.120887
#
# number of rings (size 3 to 8) (size 9 to 14) (size 15 to 20)
#    0.000    0.308    6.154    1.385    2.154    1.846 
#    5.538    0.000    0.000    0.000    0.000    0.000 
#    0.000    0.000    0.000    0.000    0.000    0.000 
#
# Total GULP energy -72624.290357 kJ/mol
# GULP energy per Si atom -5586.483874 kJ/mol
# Density = 2.606143 g / cm^3
# Si number density = 26.120887 Si / 1000 Ang^3
#
#
#
# Elastic Constant Matrix: (Units=GPa)
#
#
# Indices 1 2 3 4 5 6 
#
# 1 114.2974 36.4638 66.5742 0.1918 -29.2448 18.2540
# 2 36.4638 161.2443 36.1131 11.4465 -19.3119 18.6599
# 3 66.5742 36.1131 132.2808 0.5796 -31.5996 -0.0378
# 4 0.1918 11.4465 0.5796 36.3859 7.6046 -9.9486
# 5 -29.2448 -19.3119 -31.5996 7.6046 62.4793 14.6418
# 6 18.2540 18.6599 -0.0378 -9.9486 14.6418 55.7626
#
#
#
# Elastic Compliance Matrix: (Units=1/GPa)
#
#
# Indices 1 2 3 4 5 6 
#
# 1 0.014956 -0.000332 -0.006038 -0.002963 0.005808 -0.006842
# 2 -0.000332 0.007661 -0.001178 -0.004119 0.003054 -0.003992
# 3 -0.006038 -0.001178 0.011424 0.000292 0.002112 0.001876
# 4 -0.002963 -0.004119 0.000292 0.033635 -0.009124 0.010745
# 5 0.005808 0.003054 0.002112 -0.009124 0.024415 -0.010960
# 6 -0.006842 -0.003992 0.001876 0.010745 -0.010960 0.026305
#
#
# Mechanical properties :
#
#
# Convention : Reuss Voigt Hill
#
# Bulk Modulus (GPa) = 52.78459 76.23608 64.51034
# Shear Modulus (GPa) = 35.76374 48.83698 42.30036
#
# Velocity S-wave (km/s) = 3.70423 4.32864 4.02855
# Velocity P-wave (km/s) = 6.20861 7.36424 6.81098
#
# Compressibility (1/GPa) = 0.01894492
#
# Stress axis : x y z
#
# Youngs Moduli (GPa) = 66.86422 130.53366 87.53643
#
# Poissons Ratio (x) = 0.04334 0.52852
# Poissons Ratio (y) = 0.02220 0.10311
# Poissons Ratio (z) = 0.40371 0.15376
#
# Static dielectric constant tensor:
#      x y z
#    x 0.125930 0.884460 -0.267680 
#    y 0.884460 1.608970 0.191600 
#    z -0.267680 0.191600 2.131360 
# 
# From -- ./inp_files/261240.got.cif
#   From: 2010.05.17/outbox.cif.g08.bks.cpg/sg2_131_cif.got.tgz:261240.got - 2010.06.03 11:33:40.
