data_PCOD9064876
_publ_section_title
;
Structure prediction by ZEFSAII (Michael W. Deem and Ramdas Pophale) SiO2 
 PCOD9064876
Probable space group: P -1
;
_chemical_formula_sum "Si O2"
_cell_formula_units_Z 16
_cell_length_a 15.240188
_cell_length_b 6.601733
_cell_length_c 8.545633
_cell_angle_alpha 112.844172
_cell_angle_beta 117.294325
_cell_angle_gamma 64.559869
_cell_volume 670.096834
_symmetry_space_group_name_H-M "P -1"
_symmetry_group_IT_number 2
_symmetry_cell_setting 'triclinic'
loop_
_space_group_symop_operation_xyz
x,y,z
-x,-y,-z
loop_
_atom_site_type_symbol
_atom_site_label
_atom_site_fract_x
_atom_site_fract_y
_atom_site_fract_z
Si Si1 0.761311 0.459399 0.869639
Si Si2 0.207292 0.468958 0.423831
Si Si3 0.428121 0.711162 0.403148
Si Si4 0.921092 0.112021 0.106399
Si Si5 0.622051 0.876959 0.072798
Si Si6 0.585459 0.784177 0.346395
Si Si7 0.798334 0.067171 0.264992
Si Si8 0.920140 0.748689 0.534597
O O1 0.820111 0.479380 0.763527
O O2 0.687275 0.302665 0.719115
O O3 0.844513 0.346508 0.038356
O O4 0.680223 0.699104 0.933418
O O5 0.330348 0.349567 0.498827
O O6 0.185840 0.699897 0.580901
O O7 0.155221 0.290745 0.404094
O O8 0.500000 0.500000 0.500000
O O9 0.481879 0.721619 0.282007
O O10 0.430417 0.945346 0.560166
O O11 0.841166 0.015617 0.108585
O O12 0.005095 0.110144 0.307492
O O13 0.000000 0.000000 0.000000
O O14 0.633994 0.729680 0.198596
O O15 0.679795 0.071515 0.182910
O O16 0.500000 0.000000 0.000000
O O17 0.858170 0.859811 0.365337
O O18 0.000000 0.500000 0.500000
#
# Coordination Sequence:
#
# PCOD9064876 Si02
#       8
#     2   2   2   2   2   2   2   2
#     4  12  28  47  71 115 150 193 245 311 376 436
#     4  12  26  47  80 102 145 199 251 303 357 453
#     4  11  24  46  75 103 144 192 249 292 363 446
#     4  12  29  47  75 110 149 193 241 317 380 422
#     4  12  28  46  72 112 154 192 237 308 380 433
#     4  11  25  45  74 104 140 198 249 293 358 453
#     4  12  27  52  75 107 150 197 251 300 367 455
#     4  12  26  50  77 103 140 198 258 297 367 444
#
# _framework density 23.877147999999998
#
# number of rings (size 3 to 8) (size 9 to 14) (size 15 to 20)
#    0.000    0.250    3.750    4.125   10.500    1.000 
#    0.000    0.000    0.000    0.000    0.000    0.000 
#    0.000    0.000    0.000    0.000    0.000    0.000 
#
# Total GULP energy -89514.821069 kJ/mol
# GULP energy per Si atom -5594.676317 kJ/mol
# Density = 2.382280 g / cm^3
# Si number density = 23.877148 Si / 1000 Ang^3
#
#
#
# Elastic Constant Matrix: (Units=GPa)
#
#
# Indices 1 2 3 4 5 6 
#
# 1 129.5853 30.6031 27.6616 -15.7763 -19.2004 5.6718
# 2 30.6031 89.1307 14.5253 -9.4798 -1.9809 -7.4797
# 3 27.6616 14.5253 57.3956 -16.4732 -10.4747 1.5778
# 4 -15.7763 -9.4798 -16.4732 31.2311 -3.8762 -5.8258
# 5 -19.2004 -1.9809 -10.4747 -3.8762 44.5062 -8.5158
# 6 5.6718 -7.4797 1.5778 -5.8258 -8.5158 41.4438
#
#
#
# Elastic Compliance Matrix: (Units=1/GPa)
#
#
# Indices 1 2 3 4 5 6 
#
# 1 0.009822 -0.002585 -0.002449 0.003256 0.003735 -0.000492
# 2 -0.002585 0.012847 -0.001414 0.002406 -0.000084 0.003047
# 3 -0.002449 -0.001414 0.023328 0.011734 0.005781 0.002029
# 4 0.003256 0.002406 0.011734 0.043171 0.009480 0.007558
# 5 0.003735 -0.000084 0.005781 0.009480 0.027454 0.006227
# 6 -0.000492 0.003047 0.002029 0.007558 0.006227 0.027011
#
#
# Mechanical properties :
#
#
# Convention : Reuss Voigt Hill
#
# Bulk Modulus (GPa) = 30.21096 46.85463 38.53280
# Shear Modulus (GPa) = 29.83936 36.99099 33.41517
#
# Velocity S-wave (km/s) = 3.53895 3.94029 3.74500
# Velocity P-wave (km/s) = 5.42024 6.35350 5.90534
#
# Compressibility (1/GPa) = 0.03310057
#
# Stress axis : x y z
#
# Youngs Moduli (GPa) = 101.81524 77.83767 42.86606
#
# Poissons Ratio (x) = 0.20121 0.10500
# Poissons Ratio (y) = 0.26320 0.06061
# Poissons Ratio (z) = 0.24940 0.11005
#
# Static dielectric constant tensor:
#      x y z
#    x 1.913220 0.032820 0.023700 
#    y 0.032820 1.894670 0.007670 
#    z 0.023700 0.007670 1.867710 
# 
# From -- ./inp_files/324016.got.cif
#   From: 2010.05.17/outbox.cif.g08.bks.cpg/sg2_163_cif.got.tgz:324016.got - 2010.06.03 11:33:40.
