data_PCOD9064400
_publ_section_title
;
Structure prediction by ZEFSAII (Michael W. Deem and Ramdas Pophale) SiO2 
 PCOD9064400
Probable space group: P -1
;
_chemical_formula_sum "Si O2"
_cell_formula_units_Z 13
_cell_length_a 8.492246
_cell_length_b 12.878012
_cell_length_c 8.615052
_cell_angle_alpha 81.493493
_cell_angle_beta 123.664521
_cell_angle_gamma 135.040877
_cell_volume 504.011971
_symmetry_space_group_name_H-M "P -1"
_symmetry_group_IT_number 2
_symmetry_cell_setting 'triclinic'
loop_
_space_group_symop_operation_xyz
x,y,z
-x,-y,-z
loop_
_atom_site_type_symbol
_atom_site_label
_atom_site_fract_x
_atom_site_fract_y
_atom_site_fract_z
Si Si1 0.862306 0.451860 0.264287
Si Si2 0.369307 0.140434 0.540000
Si Si3 0.338090 0.114269 0.184180
Si Si4 0.685483 0.112673 0.924260
Si Si5 0.836596 0.611319 0.674438
Si Si6 0.500000 0.500000 0.000000
Si Si7 0.861157 0.770415 0.396867
O O1 0.546966 0.260304 0.143718
O O2 0.785228 0.539074 0.165564
O O3 0.000000 0.500000 0.500000
O O4 0.067687 0.469623 0.259081
O O5 0.455683 0.196816 0.398539
O O6 0.575890 0.170961 0.769059
O O7 0.262537 0.201192 0.548370
O O8 0.109383 0.945719 0.417862
O O9 0.346466 0.994089 0.190346
O O10 0.000000 0.000000 0.000000
O O11 0.015989 0.269205 0.126022
O O12 0.500000 0.000000 0.000000
O O13 0.500000 0.500000 0.500000
O O14 0.977596 0.722122 0.572285
O O15 0.629949 0.628744 0.182270
#
# Coordination Sequence:
#
# PCOD9064400 Si02
#       7
#     2   2   2   2   2   1   2
#     4  12  27  51  74 112 165 203 260 332 400 473
#     4  11  25  46  79 112 155 207 269 329 400 472
#     4  12  27  47  80 117 153 206 268 330 399 481
#     4  12  24  48  78 111 156 208 270 332 393 471
#     4  12  27  49  77 114 161 215 260 329 406 476
#     4  12  26  46  82 112 158 218 256 328 420 468
#     4  11  24  45  74 114 157 206 265 327 396 480
#
# _framework density 25.793037999999999
#
# number of rings (size 3 to 8) (size 9 to 14) (size 15 to 20)
#    0.000    0.308    4.615    3.231    6.462    1.231 
#    5.538    1.538    0.000    0.000    0.000    0.000 
#    0.000    0.000    0.000    0.000    0.000    0.000 
#
# Total GULP energy -72616.243837 kJ/mol
# GULP energy per Si atom -5585.864911 kJ/mol
# Density = 2.573433 g / cm^3
# Si number density = 25.793038 Si / 1000 Ang^3
#
#
#
# Elastic Constant Matrix: (Units=GPa)
#
#
# Indices 1 2 3 4 5 6 
#
# 1 126.8469 32.1485 26.3475 -0.9569 11.6220 -12.7838
# 2 32.1485 66.9943 17.4320 -1.1286 0.6926 3.6742
# 3 26.3475 17.4320 161.5479 15.2839 -0.9971 -0.4512
# 4 -0.9569 -1.1286 15.2839 50.2927 -14.8567 11.5345
# 5 11.6220 0.6926 -0.9971 -14.8567 52.4414 9.7865
# 6 -12.7838 3.6742 -0.4512 11.5345 9.7865 41.5789
#
#
#
# Elastic Compliance Matrix: (Units=1/GPa)
#
#
# Indices 1 2 3 4 5 6 
#
# 1 0.010130 -0.004872 -0.000963 -0.001817 -0.003627 0.004892
# 2 -0.004872 0.017869 -0.001357 0.002383 0.002294 -0.004293
# 3 -0.000963 -0.001357 0.006717 -0.002369 -0.000434 0.000656
# 4 -0.001817 0.002383 -0.002369 0.025774 0.009529 -0.010188
# 5 -0.003627 0.002294 -0.000434 0.009529 0.024343 -0.009696
# 6 0.004892 -0.004293 0.000656 -0.010188 -0.009696 0.031050
#
#
# Mechanical properties :
#
#
# Convention : Reuss Voigt Hill
#
# Bulk Modulus (GPa) = 49.18286 56.36056 52.77171
# Shear Modulus (GPa) = 36.48447 47.49334 41.98891
#
# Velocity S-wave (km/s) = 3.76508 4.29572 4.03912
# Velocity P-wave (km/s) = 6.16528 6.81930 6.50052
#
# Compressibility (1/GPa) = 0.02033229
#
# Stress axis : x y z
#
# Youngs Moduli (GPa) = 98.71679 55.96150 148.87843
#
# Poissons Ratio (x) = 0.27264 0.14340
# Poissons Ratio (y) = 0.48094 0.20201
# Poissons Ratio (z) = 0.09509 0.07593
#
# Static dielectric constant tensor:
#      x y z
#    x 2.024140 0.075050 0.080980 
#    y 0.075050 2.217600 -0.040710 
#    z 0.080980 -0.040710 1.927130 
# 
# From -- ./inp_files/187156.got.cif
#   From: 2010.05.17/outbox.cif.g08.bks.cpg/sg2_94_cif.got.tgz:187156.got - 2010.06.03 11:33:40.
