data_PCOD9064719
_publ_section_title
;
Structure prediction by ZEFSAII (Michael W. Deem and Ramdas Pophale) SiO2 
 PCOD9064719
Probable space group: P -1
;
_chemical_formula_sum "Si O2"
_cell_formula_units_Z 16
_cell_length_a 14.016959
_cell_length_b 10.322784
_cell_length_c 11.309298
_cell_angle_alpha 77.461608
_cell_angle_beta 141.152649
_cell_angle_gamma 128.195934
_cell_volume 680.722245
_symmetry_space_group_name_H-M "P -1"
_symmetry_group_IT_number 2
_symmetry_cell_setting 'triclinic'
loop_
_space_group_symop_operation_xyz
x,y,z
-x,-y,-z
loop_
_atom_site_type_symbol
_atom_site_label
_atom_site_fract_x
_atom_site_fract_y
_atom_site_fract_z
Si Si1 0.927861 0.355235 0.564168
Si Si2 0.883163 0.033023 0.964460
Si Si3 0.406184 0.601973 0.967277
Si Si4 0.334503 0.351788 0.474585
Si Si5 0.490394 0.617968 0.788453
Si Si6 0.655457 0.309617 0.788089
Si Si7 0.168237 0.719701 0.253278
Si Si8 0.588309 0.957234 0.193116
O O1 0.791448 0.289491 0.567891
O O2 0.000000 0.500000 0.500000
O O3 0.173816 0.487884 0.826681
O O4 0.815417 0.157921 0.429174
O O5 0.081228 0.192454 0.216660
O O6 0.812165 0.114342 0.801527
O O7 0.680127 0.831786 0.874839
O O8 0.000000 0.000000 0.000000
O O9 0.386570 0.618311 0.804823
O O10 0.424548 0.461526 0.049196
O O11 0.593515 0.818000 0.160156
O O12 0.500000 0.500000 0.500000
O O13 0.351787 0.465337 0.577428
O O14 0.452534 0.283772 0.622764
O O15 0.593686 0.158754 0.854022
O O16 0.329560 0.737738 0.320348
O O17 0.907553 0.522325 0.009176
O O18 0.500000 0.000000 0.000000
#
# Coordination Sequence:
#
# PCOD9064719 Si02
#       8
#     2   2   2   2   2   2   2   2
#     4  12  25  46  75 100 143 189 233 287 363 437
#     4  12  25  43  73 105 146 187 240 296 364 432
#     4  11  25  48  69 103 142 185 243 299 349 424
#     4  12  23  45  70 103 142 192 230 293 366 428
#     4  11  26  45  73 100 144 188 242 297 355 430
#     4  11  24  46  72 104 150 184 238 303 357 429
#     4  11  25  45  71 110 143 187 239 300 363 427
#     4  12  25  45  73 100 143 191 234 294 364 423
#
# _framework density 23.504448
#
# number of rings (size 3 to 8) (size 9 to 14) (size 15 to 20)
#    0.000    0.500    6.250    0.750    5.250    2.500 
#    0.000    2.500    0.000    0.000    0.000    0.000 
#    0.000    0.000    0.000    0.000    0.000    0.000 
#
# Total GULP energy -89296.201158 kJ/mol
# GULP energy per Si atom -5581.012572 kJ/mol
# Density = 2.345095 g / cm^3
# Si number density = 23.504448 Si / 1000 Ang^3
#
#
#
# Elastic Constant Matrix: (Units=GPa)
#
#
# Indices 1 2 3 4 5 6 
#
# 1 141.0518 53.5803 42.3561 3.2848 -40.7298 23.2140
# 2 53.5803 158.8886 42.4586 0.6876 -11.5344 29.4038
# 3 42.3561 42.4586 112.6419 15.7507 -23.7706 11.4101
# 4 3.2848 0.6876 15.7507 42.0216 7.8010 -6.2560
# 5 -40.7298 -11.5344 -23.7706 7.8010 36.9003 -11.2458
# 6 23.2140 29.4038 11.4101 -6.2560 -11.2458 29.1840
#
#
#
# Elastic Compliance Matrix: (Units=1/GPa)
#
#
# Indices 1 2 3 4 5 6 
#
# 1 0.012346 -0.002621 -0.000196 -0.003628 0.012517 -0.003058
# 2 -0.002621 0.008930 -0.002620 0.000723 -0.004180 -0.007344
# 3 -0.000196 -0.002620 0.012594 -0.006246 0.008318 -0.000262
# 4 -0.003628 0.000723 -0.006246 0.029598 -0.012150 0.006261
# 5 0.012517 -0.004180 0.008318 -0.012150 0.049855 0.007610
# 6 -0.003058 -0.007344 -0.000262 0.006261 0.007610 0.048474
#
#
# Mechanical properties :
#
#
# Convention : Reuss Voigt Hill
#
# Bulk Modulus (GPa) = 43.48479 76.59693 60.04086
# Shear Modulus (GPa) = 27.72587 39.90032 33.81309
#
# Velocity S-wave (km/s) = 3.43826 4.12462 3.79698
# Velocity P-wave (km/s) = 5.85687 7.43924 6.69497
#
# Compressibility (1/GPa) = 0.02299655
#
# Stress axis : x y z
#
# Youngs Moduli (GPa) = 80.99759 111.98081 79.40156
#
# Poissons Ratio (x) = 0.29347 0.01558
# Poissons Ratio (y) = 0.21227 0.20803
# Poissons Ratio (z) = 0.01589 0.29339
#
# Static dielectric constant tensor:
#      x y z
#    x 2.056930 -0.079520 -0.001190 
#    y -0.079520 1.997420 -0.125700 
#    z -0.001190 -0.125700 1.975440 
# 
# From -- ./inp_files/464548.got.cif
#   From: 2010.05.17/outbox.cif.g08.bks.cpg/sg2_233_cif.got.tgz:464548.got - 2010.06.03 11:33:40.
