data_PCOD9064518
_publ_section_title
;
Structure prediction by ZEFSAII (Michael W. Deem and Ramdas Pophale) SiO2 
 PCOD9064518
Probable space group: P -1
;
_chemical_formula_sum "Si O2"
_cell_formula_units_Z 14
_cell_length_a 15.080730
_cell_length_b 7.876619
_cell_length_c 13.931130
_cell_angle_alpha 146.048251
_cell_angle_beta 143.753890
_cell_angle_gamma 37.417209
_cell_volume 505.608465
_symmetry_space_group_name_H-M "P -1"
_symmetry_group_IT_number 2
_symmetry_cell_setting 'triclinic'
loop_
_space_group_symop_operation_xyz
x,y,z
-x,-y,-z
loop_
_atom_site_type_symbol
_atom_site_label
_atom_site_fract_x
_atom_site_fract_y
_atom_site_fract_z
Si Si1 0.308608 0.559912 0.865112
Si Si2 0.123252 0.350993 0.393825
Si Si3 0.793732 0.273829 0.930419
Si Si4 0.267144 0.083758 0.928502
Si Si5 0.579762 0.546450 0.359758
Si Si6 0.128661 0.095042 0.482197
Si Si7 0.648072 0.608027 0.662943
O O1 0.237997 0.697493 0.971106
O O2 0.215608 0.828947 0.828451
O O3 0.500000 0.500000 0.000000
O O4 0.278073 0.220811 0.679523
O O5 0.307080 0.328328 0.548861
O O6 0.074504 0.217437 0.385388
O O7 0.995181 0.724297 0.456389
O O8 0.106038 0.104906 0.185151
O O9 0.828950 0.567851 0.044690
O O10 0.610919 0.340497 0.762394
O O11 0.346451 0.192841 0.142857
O O12 0.358876 0.838677 0.804267
O O13 0.619894 0.683288 0.560156
O O14 0.185142 0.708650 0.346712
O O15 0.500000 0.500000 0.500000
#
# Coordination Sequence:
#
# PCOD9064518 Si02
#       7
#     2   2   2   2   2   2   2
#     4  12  24  42  73 102 139 183 233 297 359 416
#     4  11  24  46  68  93 140 195 226 291 354 419
#     4  12  24  44  72 103 142 181 239 294 353 418
#     4  12  24  42  68 109 135 178 235 289 355 405
#     4  12  24  44  72 103 142 181 239 294 353 418
#     4  11  24  46  67  96 142 185 235 286 358 423
#     4  12  24  42  73 102 139 183 233 297 359 416
#
# _framework density 27.689409000000001
#
# number of rings (size 3 to 8) (size 9 to 14) (size 15 to 20)
#    0.000    0.286    5.714    3.429    0.000    1.143 
#    0.000    2.857    0.000    0.000    0.000    0.000 
#    0.000    0.000    0.000    0.000    0.000    0.000 
#
# Total GULP energy -78071.478203 kJ/mol
# GULP energy per Si atom -5576.534157 kJ/mol
# Density = 2.762639 g / cm^3
# Si number density = 27.689409 Si / 1000 Ang^3
#
#
#
# Elastic Constant Matrix: (Units=GPa)
#
#
# Indices 1 2 3 4 5 6 
#
# 1 139.9218 28.6676 26.7084 1.5991 -14.1823 13.7749
# 2 28.6676 89.7285 11.0325 26.0068 -5.9460 10.3030
# 3 26.7084 11.0325 161.1711 10.0230 -29.5044 -9.1315
# 4 1.5991 26.0068 10.0230 42.3791 -1.7949 -8.0649
# 5 -14.1823 -5.9460 -29.5044 -1.7949 54.2343 -2.5604
# 6 13.7749 10.3030 -9.1315 -8.0649 -2.5604 38.1277
#
#
#
# Elastic Compliance Matrix: (Units=1/GPa)
#
#
# Indices 1 2 3 4 5 6 
#
# 1 0.008203 -0.002455 -0.001175 0.001092 0.001166 -0.002273
# 2 -0.002455 0.015678 -0.000273 -0.010520 0.000315 -0.005619
# 3 -0.001175 -0.000273 0.007283 -0.000917 0.003703 0.002297
# 4 0.001092 -0.010520 -0.000917 0.031944 0.000115 0.008993
# 5 0.001166 0.000315 0.003703 0.000115 0.020882 0.001807
# 6 -0.002273 -0.005619 0.002297 0.008993 0.001807 0.031141
#
#
# Mechanical properties :
#
#
# Convention : Reuss Voigt Hill
#
# Bulk Modulus (GPa) = 42.80871 58.18202 50.49536
# Shear Modulus (GPa) = 38.24927 48.57574 43.41251
#
# Velocity S-wave (km/s) = 3.72071 4.19299 3.96389
# Velocity P-wave (km/s) = 5.82684 6.67080 6.26305
#
# Compressibility (1/GPa) = 0.02335973
#
# Stress axis : x y z
#
# Youngs Moduli (GPa) = 121.90054 63.78524 137.30660
#
# Poissons Ratio (x) = 0.15657 0.16128
# Poissons Ratio (y) = 0.29923 0.03747
# Poissons Ratio (z) = 0.14318 0.01740
#
# Static dielectric constant tensor:
#      x y z
#    x 2.207080 -0.045760 -0.025560 
#    y -0.045760 2.393340 0.016970 
#    z -0.025560 0.016970 2.295110 
# 
# From -- ./inp_files/218202.got.cif
#   From: 2010.05.17/outbox.cif.g08.bks.cpg/sg2_110_cif.got.tgz:218202.got - 2010.06.03 11:33:40.
