data_PCOD9064836
_publ_section_title
;
Structure prediction by ZEFSAII (Michael W. Deem and Ramdas Pophale) SiO2 
 PCOD9064836
Probable space group: P -1
;
_chemical_formula_sum "Si O2"
_cell_formula_units_Z 12
_cell_length_a 17.819550
_cell_length_b 5.052558
_cell_length_c 7.961288
_cell_angle_alpha 64.459040
_cell_angle_beta 46.901967
_cell_angle_gamma 87.644083
_cell_volume 435.890776
_symmetry_space_group_name_H-M "P -1"
_symmetry_group_IT_number 2
_symmetry_cell_setting 'triclinic'
loop_
_space_group_symop_operation_xyz
x,y,z
-x,-y,-z
loop_
_atom_site_type_symbol
_atom_site_label
_atom_site_fract_x
_atom_site_fract_y
_atom_site_fract_z
Si Si1 0.616304 0.409025 0.004139
Si Si2 0.420360 0.385711 0.493441
Si Si3 0.895672 0.176066 0.222305
Si Si4 0.158297 0.987817 0.025925
Si Si5 0.341416 0.880684 0.310576
Si Si6 0.846434 0.673255 0.733781
O O1 0.654208 0.209884 0.866621
O O2 0.620848 0.742939 0.828929
O O3 0.711437 0.528797 0.967112
O O4 0.493236 0.244486 0.307740
O O5 0.500000 0.500000 0.500000
O O6 0.293412 0.143516 0.770304
O O7 0.409422 0.696193 0.343449
O O8 0.784601 0.252969 0.393813
O O9 0.885655 0.916800 0.452422
O O10 0.887106 0.029803 0.088916
O O11 0.000000 0.500000 0.000000
O O12 0.121161 0.169068 0.177497
O O13 0.122244 0.628921 0.243492
#
# Coordination Sequence:
#
# PCOD9064836 Si02
#       6
#     2   2   2   2   2   2
#     4  11  24  46  74 105 157 203 248 306 384 455
#     4  12  25  45  75 116 156 208 249 305 389 470
#     4  11  28  55  85 112 152 209 265 331 399 452
#     4  12  27  49  76 114 159 194 265 315 377 469
#     4  11  25  49  70 110 149 197 262 319 369 467
#     4  11  25  49  75 115 155 197 254 326 378 464
#
# _framework density 27.529831000000001
#
# number of rings (size 3 to 8) (size 9 to 14) (size 15 to 20)
#    0.000    0.667    1.667    6.000    0.000    6.000 
#    3.000   19.167    0.000    0.000    0.000    0.000 
#    0.000    0.000    0.000    0.000    0.000    0.000 
#
# Total GULP energy -67451.768394 kJ/mol
# GULP energy per Si atom -5620.980700 kJ/mol
# Density = 2.746717 g / cm^3
# Si number density = 27.529831 Si / 1000 Ang^3
#
#
#
# Elastic Constant Matrix: (Units=GPa)
#
#
# Indices 1 2 3 4 5 6 
#
# 1 147.3153 16.8068 39.1414 1.6269 -0.4581 34.2712
# 2 16.8068 113.0675 12.5477 -8.5517 -4.9895 29.1448
# 3 39.1414 12.5477 98.6948 -10.4105 -21.9721 6.6461
# 4 1.6269 -8.5517 -10.4105 51.1472 -9.4868 9.4907
# 5 -0.4581 -4.9895 -21.9721 -9.4868 57.1056 4.6548
# 6 34.2712 29.1448 6.6461 9.4907 4.6548 52.3381
#
#
#
# Elastic Compliance Matrix: (Units=1/GPa)
#
#
# Indices 1 2 3 4 5 6 
#
# 1 0.008940 0.000464 -0.003388 0.000011 -0.000731 -0.005619
# 2 0.000464 0.011020 -0.000280 0.003486 0.002026 -0.007217
# 3 -0.003388 -0.000280 0.013237 0.003917 0.005735 -0.000527
# 4 0.000011 0.003486 0.003917 0.023446 0.006298 -0.007257
# 5 -0.000731 0.002026 0.005735 0.006298 0.021295 -0.004413
# 6 -0.005619 -0.007217 -0.000527 -0.007257 -0.004413 0.028580
#
#
# Mechanical properties :
#
#
# Convention : Reuss Voigt Hill
#
# Bulk Modulus (GPa) = 37.32980 55.11883 46.22432
# Shear Modulus (GPa) = 41.03212 51.49029 46.26121
#
# Velocity S-wave (km/s) = 3.86484 4.32944 4.10372
# Velocity P-wave (km/s) = 5.78836 6.71245 6.26746
#
# Compressibility (1/GPa) = 0.02678825
#
# Stress axis : x y z
#
# Youngs Moduli (GPa) = 111.85392 90.74656 75.54677
#
# Poissons Ratio (x) = -0.04211 0.25595
# Poissons Ratio (y) = -0.05190 0.02118
# Poissons Ratio (z) = 0.37895 0.02544
#
# Static dielectric constant tensor:
#      x y z
#    x 2.136980 0.009420 0.005530 
#    y 0.009420 2.067210 0.010720 
#    z 0.005530 0.010720 2.192750 
# 
# From -- ./inp_files/321553.got.cif
#   From: 2010.05.17/outbox.cif.g08.bks.cpg/sg2_161_cif.got.tgz:321553.got - 2010.06.03 11:33:40.
