data_PCOD9064100
_publ_section_title
;
Structure prediction by ZEFSAII (Michael W. Deem and Ramdas Pophale) SiO2 
 PCOD9064100
Probable space group: P -1
;
_chemical_formula_sum "Si O2"
_cell_formula_units_Z 16
_cell_length_a 21.063111
_cell_length_b 17.463993
_cell_length_c 11.760476
_cell_angle_alpha 144.697790
_cell_angle_beta 43.551914
_cell_angle_gamma 161.092300
_cell_volume 783.802012
_symmetry_space_group_name_H-M "P -1"
_symmetry_group_IT_number 2
_symmetry_cell_setting 'triclinic'
loop_
_space_group_symop_operation_xyz
x,y,z
-x,-y,-z
loop_
_atom_site_type_symbol
_atom_site_label
_atom_site_fract_x
_atom_site_fract_y
_atom_site_fract_z
Si Si1 0.938465 0.359947 0.597998
Si Si2 0.032702 0.685189 0.238698
Si Si3 0.496127 0.284311 0.716801
Si Si4 0.158976 0.324150 0.668460
Si Si5 0.631277 0.703352 0.900546
Si Si6 0.715561 0.346668 0.624303
Si Si7 0.467312 0.370925 0.497124
Si Si8 0.085534 0.354801 0.037589
O O1 0.999056 0.374826 0.658411
O O2 0.938838 0.519019 0.797490
O O3 0.104106 0.519348 0.486463
O O4 0.710275 0.025612 0.453191
O O5 0.909446 0.643196 0.284299
O O6 0.261396 0.027662 0.343031
O O7 0.000000 0.500000 0.000000
O O8 0.598038 0.534371 0.819608
O O9 0.664274 0.388577 0.645803
O O10 0.426088 0.245675 0.885204
O O11 0.354006 0.506674 0.582192
O O12 0.187152 0.420256 0.874530
O O13 0.000000 0.000000 0.500000
O O14 0.484433 0.490148 0.726739
O O15 0.860104 0.008789 0.929392
O O16 0.787549 0.500766 0.836817
O O17 0.500000 0.000000 0.500000
O O18 0.500000 0.500000 0.500000
#
# Coordination Sequence:
#
# PCOD9064100 Si02
#       8
#     2   2   2   2   2   2   2   2
#     4  12  25  47  72 100 144 180 230 295 352 410
#     4  12  27  48  73 106 142 188 238 297 350 415
#     4  11  25  46  68 104 138 183 229 289 355 412
#     4  12  26  46  72 105 141 187 239 284 353 427
#     4  11  24  45  70  99 143 178 230 292 347 419
#     4  12  26  42  74 102 135 184 231 281 353 417
#     4  12  26  46  74 103 144 191 234 292 357 418
#     4  12  24  46  71 101 140 181 233 293 346 421
#
# _framework density 20.413318
#
# number of rings (size 3 to 8) (size 9 to 14) (size 15 to 20)
#    0.000    0.250    7.500    1.125    3.500    2.000 
#    0.000    0.000    0.000    0.000    0.000    0.000 
#    0.000    0.000    0.000    0.000    0.000    0.000 
#
# Total GULP energy -89488.751912 kJ/mol
# GULP energy per Si atom -5593.046994 kJ/mol
# Density = 2.036686 g / cm^3
# Si number density = 20.413318 Si / 1000 Ang^3
#
#
#
# Elastic Constant Matrix: (Units=GPa)
#
#
# Indices 1 2 3 4 5 6 
#
# 1 111.1780 4.5614 37.5021 0.9354 1.3809 2.7936
# 2 4.5614 53.5788 18.7940 15.3787 -0.5735 0.5309
# 3 37.5021 18.7940 117.4262 7.8761 15.9017 -1.2814
# 4 0.9354 15.3787 7.8761 38.7781 -5.5285 0.3915
# 5 1.3809 -0.5735 15.9017 -5.5285 36.7355 -3.1922
# 6 2.7936 0.5309 -1.2814 0.3915 -3.1922 32.5940
#
#
#
# Elastic Compliance Matrix: (Units=1/GPa)
#
#
# Indices 1 2 3 4 5 6 
#
# 1 0.010164 0.000220 -0.003481 0.000545 0.001131 -0.000907
# 2 0.000220 0.022061 -0.003126 -0.008052 0.000446 -0.000361
# 3 -0.003481 -0.003126 0.010894 -0.001583 -0.004844 0.000322
# 4 0.000545 -0.008052 -0.001583 0.030011 0.005069 0.000158
# 5 0.001131 0.000446 -0.004844 0.005069 0.030272 0.002609
# 6 -0.000907 -0.000361 0.000322 0.000158 0.002609 0.031030
#
#
# Mechanical properties :
#
#
# Convention : Reuss Voigt Hill
#
# Bulk Modulus (GPa) = 32.95255 44.87756 38.91506
# Shear Modulus (GPa) = 31.78240 36.37655 34.07947
#
# Velocity S-wave (km/s) = 3.95009 4.22595 4.09035
# Velocity P-wave (km/s) = 6.08129 6.77080 6.43529
#
# Compressibility (1/GPa) = 0.03034666
#
# Stress axis : x y z
#
# Youngs Moduli (GPa) = 98.38761 45.32820 91.79759
#
# Poissons Ratio (x) = -0.00999 0.31954
# Poissons Ratio (y) = -0.02169 0.28692
# Poissons Ratio (z) = 0.34248 0.14167
#
# Static dielectric constant tensor:
#      x y z
#    x 1.719960 -0.005330 0.000230 
#    y -0.005330 1.702120 -0.007060 
#    z 0.000230 -0.007060 1.729160 
# 
# From -- ./inp_files/398171.got.cif
#   From: 2010.05.17/outbox.cif.g08.bks.cpg/sg2_200_cif.got.tgz:398171.got - 2010.06.03 11:33:40.
