data_PCOD9064675
_publ_section_title
;
Structure prediction by ZEFSAII (Michael W. Deem and Ramdas Pophale) SiO2 
 PCOD9064675
Probable space group: P -1
;
_chemical_formula_sum "Si O2"
_cell_formula_units_Z 10
_cell_length_a 13.204767
_cell_length_b 7.728378
_cell_length_c 4.824953
_cell_angle_alpha 111.006024
_cell_angle_beta 108.274641
_cell_angle_gamma 58.719851
_cell_volume 387.807363
_symmetry_space_group_name_H-M "P -1"
_symmetry_group_IT_number 2
_symmetry_cell_setting 'triclinic'
loop_
_space_group_symop_operation_xyz
x,y,z
-x,-y,-z
loop_
_atom_site_type_symbol
_atom_site_label
_atom_site_fract_x
_atom_site_fract_y
_atom_site_fract_z
Si Si1 0.714026 0.490688 0.243719
Si Si2 0.534056 0.153113 0.789090
Si Si3 0.895898 0.137663 0.782287
Si Si4 0.932299 0.457298 0.666292
Si Si5 0.324975 0.833995 0.596327
O O1 0.591610 0.663586 0.111880
O O2 0.790733 0.581153 0.535971
O O3 0.676756 0.357706 0.347683
O O4 0.804259 0.338015 0.002472
O O5 0.596822 0.228545 0.650014
O O6 0.500000 0.000000 0.500000
O O7 0.622469 0.065323 0.075959
O O8 0.940225 0.232559 0.624268
O O9 0.812780 0.036490 0.543956
O O10 0.000000 0.000000 0.000000
O O11 0.000000 0.500000 0.500000
O O12 0.000000 0.500000 0.000000
#
# Coordination Sequence:
#
# PCOD9064675 Si02
#       5
#     2   2   2   2   2
#     4  11  25  47  76 104 149 195 247 302 374 441
#     4  12  27  47  73 111 144 188 252 310 374 436
#     4  11  26  48  76 114 148 200 255 297 367 456
#     4  11  24  46  71 107 149 194 240 306 369 430
#     4  11  25  48  76 104 147 197 243 308 367 444
#
# _framework density 25.785999
#
# number of rings (size 3 to 8) (size 9 to 14) (size 15 to 20)
#    0.000    0.800    4.000    1.800    5.600    4.800 
#    7.200    0.000    0.000    0.000    0.000    0.000 
#    0.000    0.000    0.000    0.000    0.000    0.000 
#
# Total GULP energy -55990.481805 kJ/mol
# GULP energy per Si atom -5599.048181 kJ/mol
# Density = 2.572731 g / cm^3
# Si number density = 25.785999 Si / 1000 Ang^3
#
#
#
# Elastic Constant Matrix: (Units=GPa)
#
#
# Indices 1 2 3 4 5 6 
#
# 1 171.2643 58.5914 67.7915 -18.5643 3.4127 -1.5606
# 2 58.5914 67.3626 34.7953 -11.1813 3.7767 -11.3803
# 3 67.7915 34.7953 234.1906 -28.6189 25.1006 -15.8622
# 4 -18.5643 -11.1813 -28.6189 36.1001 0.0043 -0.4382
# 5 3.4127 3.7767 25.1006 0.0043 71.4085 -8.3395
# 6 -1.5606 -11.3803 -15.8622 -0.4382 -8.3395 44.6009
#
#
#
# Elastic Compliance Matrix: (Units=1/GPa)
#
#
# Indices 1 2 3 4 5 6 
#
# 1 0.009025 -0.007207 -0.001567 0.001142 0.000265 -0.002020
# 2 -0.007207 0.022814 -0.000572 0.002972 -0.000032 0.005389
# 3 -0.001567 -0.000572 0.005501 0.003396 -0.001656 0.001480
# 4 0.001142 0.002972 0.003396 0.031927 -0.001162 0.002103
# 5 0.000265 -0.000032 -0.001656 -0.001162 0.014829 0.002173
# 6 -0.002020 0.005389 0.001480 0.002103 0.002173 0.024679
#
#
# Mechanical properties :
#
#
# Convention : Reuss Voigt Hill
#
# Bulk Modulus (GPa) = 53.62283 88.35265 70.98774
# Shear Modulus (GPa) = 37.40184 51.19788 44.29986
#
# Velocity S-wave (km/s) = 3.81264 4.46072 4.14935
# Velocity P-wave (km/s) = 6.34209 7.80185 7.10953
#
# Compressibility (1/GPa) = 0.01864877
#
# Stress axis : x y z
#
# Youngs Moduli (GPa) = 110.80431 43.83208 181.77002
#
# Poissons Ratio (x) = 0.31589 0.28490
# Poissons Ratio (y) = 0.79854 0.10395
# Poissons Ratio (z) = 0.17367 0.02507
#
# Static dielectric constant tensor:
#      x y z
#    x 2.019990 -0.024010 0.050210 
#    y -0.024010 2.078910 0.062450 
#    z 0.050210 0.062450 2.073540 
# 
# From -- ./inp_files/58035.got.cif
#   From: 2010.05.17/outbox.cif.g08.bks.cpg/sg2_30_cif.got.tgz:58035.got - 2010.06.03 11:33:40.
