data_PCOD9064087
_publ_section_title
;
Structure prediction by ZEFSAII (Michael W. Deem and Ramdas Pophale) SiO2 
 PCOD9064087
Probable space group: P -1
;
_chemical_formula_sum "Si O2"
_cell_formula_units_Z 16
_cell_length_a 16.416447
_cell_length_b 19.578864
_cell_length_c 6.487741
_cell_angle_alpha 69.758648
_cell_angle_beta 108.510368
_cell_angle_gamma 159.290806
_cell_volume 691.742019
_symmetry_space_group_name_H-M "P -1"
_symmetry_group_IT_number 2
_symmetry_cell_setting 'triclinic'
loop_
_space_group_symop_operation_xyz
x,y,z
-x,-y,-z
loop_
_atom_site_type_symbol
_atom_site_label
_atom_site_fract_x
_atom_site_fract_y
_atom_site_fract_z
Si Si1 0.767066 0.188350 0.024130
Si Si2 0.394680 0.048595 0.161880
Si Si3 0.657337 0.423870 0.333987
Si Si4 0.136994 0.562804 0.714359
Si Si5 0.716760 0.925196 0.278589
Si Si6 0.926025 0.953303 0.257176
Si Si7 0.598875 0.653111 0.007151
Si Si8 0.082264 0.812136 0.532801
O O1 0.955982 0.397802 0.916413
O O2 0.774189 0.143758 0.870390
O O3 0.828489 0.188910 0.271685
O O4 0.500000 0.000000 0.000000
O O5 0.646616 0.221383 0.252078
O O6 0.266698 0.978189 0.332607
O O7 0.425270 0.129313 0.915839
O O8 0.751233 0.423228 0.307113
O O9 0.448367 0.241531 0.512798
O O10 0.578381 0.420732 0.102361
O O11 0.848987 0.611334 0.437909
O O12 0.000000 0.500000 0.500000
O O13 0.827229 0.957201 0.171802
O O14 0.913507 0.121951 0.360057
O O15 0.710089 0.734507 0.239152
O O16 0.000000 0.000000 0.500000
O O17 0.164992 0.136916 0.136213
O O18 0.500000 0.500000 0.000000
#
# Coordination Sequence:
#
# PCOD9064087 Si02
#       8
#     2   2   2   2   2   2   2   2
#     4  11  26  44  67 102 137 182 239 295 356 421
#     4  11  24  45  70  96 140 183 234 295 354 422
#     4  12  25  46  69 104 145 184 236 293 353 423
#     4  12  26  43  74 101 139 189 234 289 355 416
#     4  11  25  44  72 101 139 188 235 288 361 425
#     4  11  25  47  71 105 144 184 234 296 355 431
#     4  11  28  45  75 107 146 187 236 294 360 428
#     4  11  25  43  71 101 138 188 233 294 357 420
#
# _framework density 23.130012000000001
#
# number of rings (size 3 to 8) (size 9 to 14) (size 15 to 20)
#    0.000    0.750    3.750    2.250    7.000    3.000 
#    0.000    0.000    0.000    0.000    0.000    0.000 
#    0.000    0.000    0.000    0.000    0.000    0.000 
#
# Total GULP energy -89448.210878 kJ/mol
# GULP energy per Si atom -5590.513180 kJ/mol
# Density = 2.307737 g / cm^3
# Si number density = 23.130012 Si / 1000 Ang^3
#
#
#
# Elastic Constant Matrix: (Units=GPa)
#
#
# Indices 1 2 3 4 5 6 
#
# 1 78.4020 23.0058 5.9086 12.5611 3.4081 2.3770
# 2 23.0058 134.0803 39.0433 34.9695 11.1733 -10.4201
# 3 5.9086 39.0433 82.9859 28.0916 13.7019 -6.8357
# 4 12.5611 34.9695 28.0916 50.8650 3.2881 -5.0862
# 5 3.4081 11.1733 13.7019 3.2881 33.5455 5.4091
# 6 2.3770 -10.4201 -6.8357 -5.0862 5.4091 29.8776
#
#
#
# Elastic Compliance Matrix: (Units=1/GPa)
#
#
# Indices 1 2 3 4 5 6 
#
# 1 0.013789 -0.002026 0.000765 -0.002604 -0.000463 -0.001988
# 2 -0.002026 0.010138 -0.002455 -0.004703 -0.002146 0.002723
# 3 0.000765 -0.002455 0.016746 -0.007095 -0.005851 0.002766
# 4 -0.002604 -0.004703 -0.007095 0.027465 0.001829 0.001288
# 5 -0.000463 -0.002146 -0.005851 0.001829 0.034057 -0.007905
# 6 -0.001988 0.002723 0.002766 0.001288 -0.007905 0.036861
#
#
# Mechanical properties :
#
#
# Convention : Reuss Voigt Hill
#
# Bulk Modulus (GPa) = 30.08120 47.93150 39.00635
# Shear Modulus (GPa) = 31.73255 38.02499 34.87877
#
# Velocity S-wave (km/s) = 3.70796 4.05899 3.88744
# Velocity P-wave (km/s) = 5.60049 6.53718 6.08688
#
# Compressibility (1/GPa) = 0.03324336
#
# Stress axis : x y z
#
# Youngs Moduli (GPa) = 72.52112 98.64331 59.71465
#
# Poissons Ratio (x) = 0.19981 -0.04571
# Poissons Ratio (y) = 0.14689 0.14658
# Poissons Ratio (z) = -0.05551 0.24214
#
# Static dielectric constant tensor:
#      x y z
#    x 2.010540 0.045200 -0.074840 
#    y 0.045200 1.797850 0.060950 
#    z -0.074840 0.060950 1.883680 
# 
# From -- ./inp_files/112372.got.cif
#   From: 2010.05.17/outbox.cif.g08.bks.cpg/sg2_57_cif.got.tgz:112372.got - 2010.06.03 11:33:40.
