data_PCOD9064361
_publ_section_title
;
Structure prediction by ZEFSAII (Michael W. Deem and Ramdas Pophale) SiO2 
 PCOD9064361
Probable space group: P -1
;
_chemical_formula_sum "Si O2"
_cell_formula_units_Z 14
_cell_length_a 15.837720
_cell_length_b 13.166347
_cell_length_c 9.690783
_cell_angle_alpha 134.257637
_cell_angle_beta 122.690772
_cell_angle_gamma 25.451908
_cell_volume 594.765318
_symmetry_space_group_name_H-M "P -1"
_symmetry_group_IT_number 2
_symmetry_cell_setting 'triclinic'
loop_
_space_group_symop_operation_xyz
x,y,z
-x,-y,-z
loop_
_atom_site_type_symbol
_atom_site_label
_atom_site_fract_x
_atom_site_fract_y
_atom_site_fract_z
Si Si1 0.866406 0.307451 0.653317
Si Si2 0.648802 0.166445 0.699305
Si Si3 0.585397 0.463794 0.400893
Si Si4 0.154741 0.483149 0.904304
Si Si5 0.106850 0.996073 0.003930
Si Si6 0.554006 0.857286 0.552994
Si Si7 0.033727 0.567202 0.335402
O O1 0.668716 0.510745 0.578611
O O2 0.978811 0.296212 0.662050
O O3 0.813762 0.437264 0.877118
O O4 0.000000 0.000000 0.500000
O O5 0.600160 0.318853 0.666170
O O6 0.710615 0.171293 0.895465
O O7 0.457405 0.294538 0.642546
O O8 0.847036 0.826028 0.520311
O O9 0.500000 0.500000 0.500000
O O10 0.781481 0.170520 0.203475
O O11 0.988979 0.563645 0.865503
O O12 0.367843 0.136230 0.750996
O O13 0.066533 0.673115 0.871907
O O14 0.000000 0.000000 0.000000
O O15 0.760899 0.658323 0.612573
O O16 0.500000 0.000000 0.500000
#
# Coordination Sequence:
#
# PCOD9064361 Si02
#       7
#     2   2   2   2   2   2   2
#     4  12  24  48  75 106 154 199 250 316 384 452
#     4  11  25  46  74 109 147 202 253 312 381 455
#     4  12  27  46  75 112 155 200 254 319 386 453
#     4  11  27  45  75 111 147 202 253 318 381 457
#     4  12  27  48  77 111 156 205 256 320 387 456
#     4  11  24  45  74 104 147 197 254 312 378 457
#     4  11  24  49  73 109 155 196 253 318 381 451
#
# _framework density 23.538696999999999
#
# number of rings (size 3 to 8) (size 9 to 14) (size 15 to 20)
#    0.000    0.571    2.857    4.286    4.000    5.143 
#    0.000    0.000    0.000    0.000    0.000    0.000 
#    0.000    0.000    0.000    0.000    0.000    0.000 
#
# Total GULP energy -78185.701583 kJ/mol
# GULP energy per Si atom -5584.692970 kJ/mol
# Density = 2.348512 g / cm^3
# Si number density = 23.538697 Si / 1000 Ang^3
#
#
#
# Elastic Constant Matrix: (Units=GPa)
#
#
# Indices 1 2 3 4 5 6 
#
# 1 98.1407 10.0047 37.0546 2.4674 8.0048 6.3914
# 2 10.0047 121.8471 40.8407 -16.1881 0.7351 -10.7871
# 3 37.0546 40.8407 135.6437 -32.0938 6.6641 -7.9646
# 4 2.4674 -16.1881 -32.0938 43.7572 -0.1050 0.4390
# 5 8.0048 0.7351 6.6641 -0.1050 32.3630 -1.3258
# 6 6.3914 -10.7871 -7.9646 0.4390 -1.3258 44.2606
#
#
#
# Elastic Compliance Matrix: (Units=1/GPa)
#
#
# Indices 1 2 3 4 5 6 
#
# 1 0.012270 -0.000331 -0.004214 -0.003884 -0.002280 -0.002641
# 2 -0.000331 0.009388 -0.002203 0.001857 0.000408 0.001933
# 3 -0.004214 -0.002203 0.011149 0.007578 -0.001098 0.001970
# 4 -0.003884 0.001857 0.007578 0.029296 -0.000462 0.002073
# 5 -0.002280 0.000408 -0.001098 -0.000462 0.031727 0.001186
# 6 -0.002641 0.001933 0.001970 0.002073 0.001186 0.023815
#
#
# Mechanical properties :
#
#
# Convention : Reuss Voigt Hill
#
# Bulk Modulus (GPa) = 51.78547 59.04797 55.41672
# Shear Modulus (GPa) = 36.34257 41.92493 39.13375
#
# Velocity S-wave (km/s) = 3.93358 4.22489 4.08183
# Velocity P-wave (km/s) = 6.53289 6.99568 6.76824
#
# Compressibility (1/GPa) = 0.01931044
#
# Stress axis : x y z
#
# Youngs Moduli (GPa) = 81.49977 106.51746 89.69107
#
# Poissons Ratio (x) = 0.03526 0.37798
# Poissons Ratio (y) = 0.02698 0.19761
# Poissons Ratio (z) = 0.34346 0.23469
#
# Static dielectric constant tensor:
#      x y z
#    x 2.002690 0.056600 0.014320 
#    y 0.056600 1.961150 0.073080 
#    z 0.014320 0.073080 1.938760 
# 
# From -- ./inp_files/308579.got.cif
#   From: 2010.05.17/outbox.cif.g08.bks.cpg/sg2_155_cif.got.tgz:308579.got - 2010.06.03 11:33:40.
