data_PCOD9064376
_publ_section_title
;
Structure prediction by ZEFSAII (Michael W. Deem and Ramdas Pophale) SiO2 
 PCOD9064376
Probable space group: P -1
;
_chemical_formula_sum "Si O2"
_cell_formula_units_Z 16
_cell_length_a 19.632172
_cell_length_b 8.941454
_cell_length_c 10.545779
_cell_angle_alpha 122.602672
_cell_angle_beta 43.488328
_cell_angle_gamma 147.137637
_cell_volume 678.840387
_symmetry_space_group_name_H-M "P -1"
_symmetry_group_IT_number 2
_symmetry_cell_setting 'triclinic'
loop_
_space_group_symop_operation_xyz
x,y,z
-x,-y,-z
loop_
_atom_site_type_symbol
_atom_site_label
_atom_site_fract_x
_atom_site_fract_y
_atom_site_fract_z
Si Si1 0.019010 0.419163 0.068033
Si Si2 0.427168 0.604639 0.855540
Si Si3 0.634713 0.187852 0.765095
Si Si4 0.161356 0.127014 0.810442
Si Si5 0.362439 0.800190 0.764441
Si Si6 0.049660 0.342244 0.599676
Si Si7 0.508141 0.309066 0.655794
Si Si8 0.848682 0.822279 0.450274
O O1 0.039143 0.601021 0.226964
O O2 0.177400 0.525116 0.901659
O O3 0.869999 0.100743 0.174571
O O4 0.000000 0.500000 0.000000
O O5 0.311593 0.427294 0.809671
O O6 0.454991 0.437264 0.772213
O O7 0.593944 0.936255 0.761596
O O8 0.344939 0.621399 0.076638
O O9 0.779538 0.382950 0.563875
O O10 0.469132 0.987659 0.827015
O O11 0.168634 0.132573 0.650013
O O12 0.000000 0.000000 0.000000
O O13 0.441840 0.747272 0.556547
O O14 0.381902 0.009771 0.755197
O O15 0.070678 0.255057 0.660411
O O16 0.951428 0.097636 0.518745
O O17 0.673368 0.555075 0.618350
#
# Coordination Sequence:
#
# PCOD9064376 Si02
#       8
#     2   2   2   2   2   2   2   2
#     4  12  27  46  73 108 146 194 247 301 365 440
#     4  11  27  44  75 108 149 191 245 299 373 438
#     4  11  25  48  70 107 150 189 242 307 363 441
#     4  12  25  46  71 104 144 190 244 302 359 438
#     4  11  25  44  74 104 147 188 245 300 363 431
#     4  11  26  48  73 104 148 194 241 308 371 431
#     4  11  24  45  74 107 143 191 242 302 365 442
#     4  11  25  45  72 105 143 190 245 300 369 434
#
# _framework density 23.569604999999999
#
# number of rings (size 3 to 8) (size 9 to 14) (size 15 to 20)
#    0.000    0.750    1.250    5.250    7.000    6.000 
#    0.000    0.000    0.000    0.000    0.000    0.000 
#    0.000    0.000    0.000    0.000    0.000    0.000 
#
# Total GULP energy -89358.163123 kJ/mol
# GULP energy per Si atom -5584.885195 kJ/mol
# Density = 2.351596 g / cm^3
# Si number density = 23.569605 Si / 1000 Ang^3
#
#
#
# Elastic Constant Matrix: (Units=GPa)
#
#
# Indices 1 2 3 4 5 6 
#
# 1 72.6271 34.8973 18.1646 16.5479 15.1445 -1.1495
# 2 34.8973 144.3720 41.1210 9.6200 14.7316 -8.6803
# 3 18.1646 41.1210 62.2446 15.5259 7.8736 -11.3337
# 4 16.5479 9.6200 15.5259 39.9357 -10.5167 -7.5139
# 5 15.1445 14.7316 7.8736 -10.5167 25.2863 -2.4107
# 6 -1.1495 -8.6803 -11.3337 -7.5139 -2.4107 48.8279
#
#
#
# Elastic Compliance Matrix: (Units=1/GPa)
#
#
# Indices 1 2 3 4 5 6 
#
# 1 0.021726 -0.002924 0.000714 -0.013715 -0.017503 -0.002817
# 2 -0.002924 0.009255 -0.005108 0.000575 -0.001773 0.000392
# 3 0.000714 -0.005108 0.023242 -0.009870 -0.008549 0.002563
# 4 -0.013715 0.000575 -0.009870 0.043235 0.029467 0.005596
# 5 -0.017503 -0.001773 -0.008549 0.029467 0.066467 0.005105
# 6 -0.002817 0.000392 0.002563 0.005596 0.005105 0.022191
#
#
# Mechanical properties :
#
#
# Convention : Reuss Voigt Hill
#
# Bulk Modulus (GPa) = 25.26243 51.95661 38.60952
# Shear Modulus (GPa) = 23.37012 35.14737 29.25874
#
# Velocity S-wave (km/s) = 3.15228 3.86582 3.52714
# Velocity P-wave (km/s) = 4.89803 6.48211 5.74493
#
# Compressibility (1/GPa) = 0.03958447
#
# Stress axis : x y z
#
# Youngs Moduli (GPa) = 46.02851 108.05506 43.02529
#
# Poissons Ratio (x) = 0.31599 -0.03071
# Poissons Ratio (y) = 0.13460 0.21979
# Poissons Ratio (z) = -0.03285 0.55199
#
# Static dielectric constant tensor:
#      x y z
#    x 2.010920 -0.120720 0.045690 
#    y -0.120720 1.929640 0.001850 
#    z 0.045690 0.001850 1.880810 
# 
# From -- ./inp_files/470132.got.cif
#   From: 2010.05.17/outbox.cif.g08.bks.cpg/sg2_236_cif.got.tgz:470132.got - 2010.06.03 11:33:40.
