data_PCOD9064893
_publ_section_title
;
Structure prediction by ZEFSAII (Michael W. Deem and Ramdas Pophale) SiO2 
 PCOD9064893
Probable space group: P -1
;
_chemical_formula_sum "Si O2"
_cell_formula_units_Z 14
_cell_length_a 11.635921
_cell_length_b 11.836343
_cell_length_c 5.318772
_cell_angle_alpha 102.269322
_cell_angle_beta 77.115629
_cell_angle_gamma 59.931992
_cell_volume 570.536412
_symmetry_space_group_name_H-M "P -1"
_symmetry_group_IT_number 2
_symmetry_cell_setting 'triclinic'
loop_
_space_group_symop_operation_xyz
x,y,z
-x,-y,-z
loop_
_atom_site_type_symbol
_atom_site_label
_atom_site_fract_x
_atom_site_fract_y
_atom_site_fract_z
Si Si1 0.429835 0.099560 0.338820
Si Si2 0.536809 0.730976 0.934934
Si Si3 0.203113 0.316982 0.899428
Si Si4 0.993052 0.097748 0.829358
Si Si5 0.368087 0.554545 0.396896
Si Si6 0.251836 0.861675 0.399898
Si Si7 0.092750 0.605969 0.814897
O O1 0.468168 0.213944 0.318559
O O2 0.264304 0.209585 0.577877
O O3 0.500000 0.000000 0.500000
O O4 0.500000 0.000000 0.000000
O O5 0.561626 0.579596 0.887611
O O6 0.664892 0.726087 0.005109
O O7 0.382605 0.842069 0.179926
O O8 0.146972 0.470934 0.895229
O O9 0.072615 0.336405 0.136358
O O10 0.876715 0.112326 0.700158
O O11 0.930410 0.258386 0.980531
O O12 0.163872 0.010155 0.654119
O O13 0.000000 0.000000 0.000000
O O14 0.500000 0.500000 0.500000
O O15 0.308525 0.715500 0.443140
O O16 0.224806 0.561210 0.544899
#
# Coordination Sequence:
#
# PCOD9064893 Si02
#       7
#     2   2   2   2   2   2   2
#     4  12  27  50  74 111 151 202 259 317 388 463
#     4  12  26  47  77 107 157 201 261 323 392 471
#     4  11  26  49  74 111 152 211 255 324 394 463
#     4  11  24  47  71 105 151 197 251 323 391 458
#     4  12  24  46  79 111 153 204 261 324 389 466
#     4  11  26  44  73 112 142 200 256 318 395 461
#     4  11  24  46  75 107 154 200 262 315 389 478
#
# _framework density 24.538311
#
# number of rings (size 3 to 8) (size 9 to 14) (size 15 to 20)
#    0.000    0.571    4.286    3.000    2.000    1.714 
#    2.571    0.000    0.000    0.000    0.000    0.000 
#    0.000    0.000    0.000    0.000    0.000    0.000 
#
# Total GULP energy -78019.424156 kJ/mol
# GULP energy per Si atom -5572.816011 kJ/mol
# Density = 2.448246 g / cm^3
# Si number density = 24.538311 Si / 1000 Ang^3
#
#
#
# Elastic Constant Matrix: (Units=GPa)
#
#
# Indices 1 2 3 4 5 6 
#
# 1 111.5030 29.1517 36.7379 1.2608 -26.7071 -14.3149
# 2 29.1517 137.7641 35.3336 1.6712 -2.6034 -13.2714
# 3 36.7379 35.3336 98.8207 22.4141 -28.6035 -14.7282
# 4 1.2608 1.6712 22.4141 44.2397 -1.9739 -5.9360
# 5 -26.7071 -2.6034 -28.6035 -1.9739 42.5670 5.6016
# 6 -14.3149 -13.2714 -14.7282 -5.9360 5.6016 45.3770
#
#
#
# Elastic Compliance Matrix: (Units=1/GPa)
#
#
# Indices 1 2 3 4 5 6 
#
# 1 0.011683 -0.001641 -0.002144 0.001332 0.005588 0.001994
# 2 -0.001641 0.008549 -0.003425 0.001521 -0.002926 0.001431
# 3 -0.002144 -0.003425 0.016774 -0.007681 0.009146 0.001632
# 4 0.001332 0.001521 -0.007681 0.026555 -0.003297 0.002253
# 5 0.005588 -0.002926 0.009146 -0.003297 0.032893 -0.000616
# 6 0.001994 0.001431 0.001632 0.002253 -0.000616 0.023986
#
#
# Mechanical properties :
#
#
# Convention : Reuss Voigt Hill
#
# Bulk Modulus (GPa) = 44.27615 61.17047 52.72331
# Shear Modulus (GPa) = 35.11512 42.89439 39.00475
#
# Velocity S-wave (km/s) = 3.78700 4.18551 3.99124
# Velocity P-wave (km/s) = 6.09957 6.95275 6.54008
#
# Compressibility (1/GPa) = 0.02258552
#
# Stress axis : x y z
#
# Youngs Moduli (GPa) = 85.59225 116.97869 59.61704
#
# Poissons Ratio (x) = 0.19193 0.12783
# Poissons Ratio (y) = 0.14044 0.20420
# Poissons Ratio (z) = 0.18352 0.40067
#
# Static dielectric constant tensor:
#      x y z
#    x 2.055580 0.060430 0.019500 
#    y 0.060430 1.945160 0.014210 
#    z 0.019500 0.014210 2.165590 
# 
# From -- ./inp_files/71085.got.cif
#   From: 2010.05.17/outbox.cif.g08.bks.cpg/sg2_36_cif.got.tgz:71085.got - 2010.06.03 11:33:40.
