data_PCOD9064172
_publ_section_title
;
Structure prediction by ZEFSAII (Michael W. Deem and Ramdas Pophale) SiO2 
 PCOD9064172
Probable space group: P -1
;
_chemical_formula_sum "Si O2"
_cell_formula_units_Z 16
_cell_length_a 8.988080
_cell_length_b 8.768603
_cell_length_c 20.334429
_cell_angle_alpha 119.428669
_cell_angle_beta 61.008427
_cell_angle_gamma 148.194258
_cell_volume 727.750981
_symmetry_space_group_name_H-M "P -1"
_symmetry_group_IT_number 2
_symmetry_cell_setting 'triclinic'
loop_
_space_group_symop_operation_xyz
x,y,z
-x,-y,-z
loop_
_atom_site_type_symbol
_atom_site_label
_atom_site_fract_x
_atom_site_fract_y
_atom_site_fract_z
Si Si1 0.330781 0.536644 0.529302
Si Si2 0.616329 0.377287 0.313714
Si Si3 0.237057 0.917661 0.531915
Si Si4 0.855488 0.237996 0.162851
Si Si5 0.533976 0.304307 0.086883
Si Si6 0.025212 0.023153 0.312497
Si Si7 0.628855 0.186913 0.912499
Si Si8 0.967427 0.979658 0.162144
O O1 0.500000 0.500000 0.500000
O O2 0.320113 0.607721 0.619873
O O3 0.024520 0.322088 0.514686
O O4 0.562839 0.775448 0.476620
O O5 0.671431 0.240920 0.235817
O O6 0.812976 0.690363 0.306314
O O7 0.303002 0.196142 0.330451
O O8 0.500000 0.000000 0.500000
O O9 0.092329 0.884451 0.619376
O O10 0.124482 0.556897 0.137832
O O11 0.665551 0.994381 0.094962
O O12 0.902219 0.120876 0.180255
O O13 0.725802 0.627723 0.136834
O O14 0.439948 0.073838 0.109971
O O15 0.684992 0.329521 0.999691
O O16 0.231735 0.133611 0.094406
O O17 0.068909 0.069936 0.235279
#
# Coordination Sequence:
#
# PCOD9064172 Si02
#       8
#     2   2   2   2   2   2   2   2
#     4  12  23  46  70 101 133 181 241 284 343 419
#     4  12  25  43  72  94 135 183 234 286 336 415
#     4  12  26  44  69 103 139 180 227 294 357 413
#     4  12  26  43  65 105 137 179 226 291 345 408
#     4  11  24  45  71  99 131 185 226 285 340 422
#     4  12  24  45  67  96 135 187 228 281 348 419
#     4  11  24  45  72  97 135 177 238 277 340 417
#     4  12  26  42  66 101 142 176 227 283 358 409
#
# _framework density 21.985541999999999
#
# number of rings (size 3 to 8) (size 9 to 14) (size 15 to 20)
#    0.000    0.250    2.500    7.500    1.750    5.000 
#    2.250    0.000    0.000    0.000    0.000    0.000 
#    0.000    0.000    0.000    0.000    0.000    0.000 
#
# Total GULP energy -89096.426665 kJ/mol
# GULP energy per Si atom -5568.526667 kJ/mol
# Density = 2.193550 g / cm^3
# Si number density = 21.985542 Si / 1000 Ang^3
#
#
#
# Elastic Constant Matrix: (Units=GPa)
#
#
# Indices 1 2 3 4 5 6 
#
# 1 108.3156 8.1496 41.5252 11.3487 -22.7957 18.5408
# 2 8.1496 82.6768 13.1754 1.9297 -6.6812 17.7398
# 3 41.5252 13.1754 124.8825 0.8802 -0.8290 -0.1301
# 4 11.3487 1.9297 0.8802 23.7044 3.4329 1.2761
# 5 -22.7957 -6.6812 -0.8290 3.4329 32.8015 -1.0341
# 6 18.5408 17.7398 -0.1301 1.2761 -1.0341 39.6066
#
#
#
# Elastic Compliance Matrix: (Units=1/GPa)
#
#
# Indices 1 2 3 4 5 6 
#
# 1 0.015967 0.002158 -0.005402 -0.008947 0.012088 -0.007855
# 2 0.002158 0.014176 -0.002175 -0.002350 0.004352 -0.007177
# 3 -0.005402 -0.002175 0.009989 0.002811 -0.004134 0.003337
# 4 -0.008947 -0.002350 0.002811 0.048046 -0.011547 0.003401
# 5 0.012088 0.004352 -0.004134 -0.011547 0.040682 -0.006187
# 6 -0.007855 -0.007177 0.003337 0.003401 -0.006187 0.031880
#
#
# Mechanical properties :
#
#
# Convention : Reuss Voigt Hill
#
# Bulk Modulus (GPa) = 34.13648 49.06394 41.60021
# Shear Modulus (GPa) = 27.57213 36.09081 31.83147
#
# Velocity S-wave (km/s) = 3.54517 4.05603 3.80917
# Velocity P-wave (km/s) = 5.68491 6.65583 6.18943
#
# Compressibility (1/GPa) = 0.02929417
#
# Stress axis : x y z
#
# Youngs Moduli (GPa) = 62.63009 70.54286 100.10626
#
# Poissons Ratio (x) = -0.15223 0.54075
# Poissons Ratio (y) = -0.13516 0.21775
# Poissons Ratio (z) = 0.33831 0.15344
#
# Static dielectric constant tensor:
#      x y z
#    x 1.775620 -0.001100 0.000230 
#    y -0.001100 1.832540 0.039610 
#    z 0.000230 0.039610 1.881260 
# 
# From -- ./inp_files/588038.got.cif
#   From: 2010.05.17/outbox.cif.g08.bks.cpg/sg2_295_cif.got.tgz:588038.got - 2010.06.03 11:33:40.
