data_PCOD9064128
_publ_section_title
;
Structure prediction by ZEFSAII (Michael W. Deem and Ramdas Pophale) SiO2 
 PCOD9064128
Probable space group: P -1
;
_chemical_formula_sum "Si O2"
_cell_formula_units_Z 16
_cell_length_a 11.505900
_cell_length_b 5.619243
_cell_length_c 19.471914
_cell_angle_alpha 54.616329
_cell_angle_beta 140.280403
_cell_angle_gamma 120.285850
_cell_volume 651.699451
_symmetry_space_group_name_H-M "P -1"
_symmetry_group_IT_number 2
_symmetry_cell_setting 'triclinic'
loop_
_space_group_symop_operation_xyz
x,y,z
-x,-y,-z
loop_
_atom_site_type_symbol
_atom_site_label
_atom_site_fract_x
_atom_site_fract_y
_atom_site_fract_z
Si Si1 0.353608 0.210138 0.810169
Si Si2 0.849725 0.762109 0.002886
Si Si3 0.137848 0.353168 0.210078
Si Si4 0.869778 0.730534 0.520838
Si Si5 0.957473 0.067301 0.643572
Si Si6 0.354430 0.228859 0.959298
Si Si7 0.477095 0.678756 0.390371
Si Si8 0.408164 0.292702 0.227122
O O1 0.170405 0.025829 0.732960
O O2 0.294536 0.298796 0.844366
O O3 0.421930 0.465880 0.746894
O O4 0.530375 0.045932 0.933500
O O5 0.808826 0.816879 0.053971
O O6 0.938800 0.459343 0.093460
O O7 0.666737 0.769852 0.873915
O O8 0.000000 0.000000 0.000000
O O9 0.284544 0.566254 0.285435
O O10 0.231864 0.366827 0.176353
O O11 0.112202 0.059860 0.292888
O O12 0.649857 0.670515 0.419250
O O13 0.938269 0.417987 0.581037
O O14 0.000000 0.000000 0.500000
O O15 0.865714 0.855007 0.577271
O O16 0.500000 0.500000 0.000000
O O17 0.500000 0.500000 0.500000
O O18 0.468078 0.021109 0.341250
#
# Coordination Sequence:
#
# PCOD9064128 Si02
#       8
#     2   2   2   2   2   2   2   2
#     4  11  27  44  72 112 148 207 256 317 396 459
#     4  12  25  46  74 111 155 202 260 315 391 469
#     4  12  28  46  77 110 155 205 255 322 392 470
#     4  12  29  51  80 113 153 202 268 329 390 464
#     4  12  29  49  79 114 154 205 263 326 394 471
#     4  11  24  45  71 103 157 200 250 316 383 471
#     4  12  27  51  76 108 150 202 256 322 395 457
#     4  12  27  47  75 111 152 203 258 321 388 472
#
# _framework density 24.551193000000001
#
# number of rings (size 3 to 8) (size 9 to 14) (size 15 to 20)
#    0.000    0.250    3.750    3.750   10.500    1.000 
#    0.000    0.000    0.000    0.000    0.000    0.000 
#    0.000    0.000    0.000    0.000    0.000    0.000 
#
# Total GULP energy -89459.341108 kJ/mol
# GULP energy per Si atom -5591.208819 kJ/mol
# Density = 2.449531 g / cm^3
# Si number density = 24.551193 Si / 1000 Ang^3
#
#
#
# Elastic Constant Matrix: (Units=GPa)
#
#
# Indices 1 2 3 4 5 6 
#
# 1 146.7953 30.7177 16.3208 -11.0984 -6.6341 19.4108
# 2 30.7177 82.4913 14.9616 -10.8191 -25.9378 19.2121
# 3 16.3208 14.9616 60.7016 3.1848 -8.9958 -5.3422
# 4 -11.0984 -10.8191 3.1848 37.2768 7.1136 1.8688
# 5 -6.6341 -25.9378 -8.9958 7.1136 39.3155 -0.3936
# 6 19.4108 19.2121 -5.3422 1.8688 -0.3936 48.5340
#
#
#
# Elastic Compliance Matrix: (Units=1/GPa)
#
#
# Indices 1 2 3 4 5 6 
#
# 1 0.007949 -0.001887 -0.002161 0.002303 -0.000842 -0.002766
# 2 -0.001887 0.018932 -0.003392 0.003543 0.010683 -0.007163
# 3 -0.002161 -0.003392 0.018855 -0.003933 0.002468 0.004454
# 4 0.002303 0.003543 -0.003933 0.029760 -0.003598 -0.003932
# 5 -0.000842 0.010683 0.002468 -0.003598 0.033524 -0.003210
# 6 -0.002766 -0.007163 0.004454 -0.003932 -0.003210 0.025161
#
#
# Mechanical properties :
#
#
# Convention : Reuss Voigt Hill
#
# Bulk Modulus (GPa) = 32.40837 45.99870 39.20354
# Shear Modulus (GPa) = 31.37778 40.22449 35.80113
#
# Velocity S-wave (km/s) = 3.57887 4.05210 3.82281
# Velocity P-wave (km/s) = 5.50515 6.37724 5.95718
#
# Compressibility (1/GPa) = 0.03085622
#
# Stress axis : x y z
#
# Youngs Moduli (GPa) = 125.80078 52.81981 53.03541
#
# Poissons Ratio (x) = 0.09965 0.11463
# Poissons Ratio (y) = 0.23735 0.17991
# Poissons Ratio (z) = 0.27189 0.17918
#
# Static dielectric constant tensor:
#      x y z
#    x 1.993210 -0.027140 0.077810 
#    y -0.027140 2.086410 0.123310 
#    z 0.077810 0.123310 2.163090 
# 
# From -- ./inp_files/592665.got.cif
#   From: 2010.05.17/outbox.cif.g08.bks.cpg/sg2_297_cif.got.tgz:592665.got - 2010.06.03 11:33:40.
