data_PCOD9064737
_publ_section_title
;
Structure prediction by ZEFSAII (Michael W. Deem and Ramdas Pophale) SiO2 
 PCOD9064737
Probable space group: P -1
;
_chemical_formula_sum "Si O2"
_cell_formula_units_Z 15
_cell_length_a 11.827191
_cell_length_b 12.616290
_cell_length_c 9.602404
_cell_angle_alpha 131.983404
_cell_angle_beta 37.383357
_cell_angle_gamma 118.282086
_cell_volume 641.347762
_symmetry_space_group_name_H-M "P -1"
_symmetry_group_IT_number 2
_symmetry_cell_setting 'triclinic'
loop_
_space_group_symop_operation_xyz
x,y,z
-x,-y,-z
loop_
_atom_site_type_symbol
_atom_site_label
_atom_site_fract_x
_atom_site_fract_y
_atom_site_fract_z
Si Si1 0.420106 0.953913 0.682673
Si Si2 0.637494 0.882316 0.672414
Si Si3 0.980718 0.491434 0.289642
Si Si4 0.641803 0.569424 0.523295
Si Si5 0.000000 0.000000 0.500000
Si Si6 0.617712 0.432794 0.958543
Si Si7 0.122421 0.173921 0.263446
Si Si8 0.149598 0.770884 0.642672
O O1 0.560791 0.871335 0.582026
O O2 0.261900 0.852035 0.714781
O O3 0.500000 0.000000 0.500000
O O4 0.331906 0.098203 0.973459
O O5 0.654980 0.727649 0.591540
O O6 0.835925 0.938499 0.519275
O O7 0.500000 0.000000 0.000000
O O8 0.851970 0.484054 0.269092
O O9 0.904692 0.654294 0.552877
O O10 0.920241 0.368620 0.340622
O O11 0.207327 0.489831 0.081434
O O12 0.500000 0.500000 0.500000
O O13 0.530206 0.577397 0.784774
O O14 0.958398 0.893197 0.580045
O O15 0.715875 0.283755 0.666765
O O16 0.500000 0.500000 0.000000
O O17 0.022108 0.138086 0.186511
#
# Coordination Sequence:
#
# PCOD9064737 Si02
#       8
#     2   2   2   2   1   2   2   2
#     4  12  27  46  72 113 149 189 249 312 366 434
#     4  12  27  47  73 102 146 195 245 301 364 448
#     4  11  24  48  73 107 146 191 245 305 366 438
#     4  12  27  48  71 108 150 188 249 305 368 443
#     4  12  24  46  74 100 146 198 244 290 368 436
#     4  11  25  43  77 104 142 195 240 295 372 436
#     4  11  24  46  72 107 145 194 245 298 367 445
#     4  11  25  43  75 108 145 187 243 307 369 432
#
# _framework density 23.388247
#
# number of rings (size 3 to 8) (size 9 to 14) (size 15 to 20)
#    0.000    0.533    4.000    3.600    7.467    0.533 
#    2.400    0.000    0.000    0.000    0.000    0.000 
#    0.000    0.000    0.000    0.000    0.000    0.000 
#
# Total GULP energy -83602.035661 kJ/mol
# GULP energy per Si atom -5573.469044 kJ/mol
# Density = 2.333501 g / cm^3
# Si number density = 23.388247 Si / 1000 Ang^3
#
#
#
# Elastic Constant Matrix: (Units=GPa)
#
#
# Indices 1 2 3 4 5 6 
#
# 1 210.3974 59.3646 15.3667 -18.7282 -8.8898 -4.6127
# 2 59.3646 154.9136 47.0625 -27.3338 0.6031 -4.8588
# 3 15.3667 47.0625 33.9220 -10.1656 -5.2780 -7.3672
# 4 -18.7282 -27.3338 -10.1656 22.8504 1.4739 2.7268
# 5 -8.8898 0.6031 -5.2780 1.4739 29.4850 -5.7292
# 6 -4.6127 -4.8588 -7.3672 2.7268 -5.7292 59.7280
#
#
#
# Elastic Compliance Matrix: (Units=1/GPa)
#
#
# Indices 1 2 3 4 5 6 
#
# 1 0.005569 -0.002206 0.001716 0.002494 0.002012 0.000541
# 2 -0.002206 0.013759 -0.016960 0.007644 -0.004743 -0.001947
# 3 0.001716 -0.016960 0.057055 0.004915 0.012140 0.006730
# 4 0.002494 0.007644 0.004915 0.057407 -0.001658 -0.001359
# 5 0.002012 -0.004743 0.012140 -0.001658 0.037841 0.004972
# 6 0.000541 -0.001947 0.006730 -0.001359 0.004972 0.017995
#
#
# Mechanical properties :
#
#
# Convention : Reuss Voigt Hill
#
# Bulk Modulus (GPa) = 24.10584 71.42451 47.76517
# Shear Modulus (GPa) = 20.97719 40.90864 30.94291
#
# Velocity S-wave (km/s) = 2.99810 4.18677 3.64127
# Velocity P-wave (km/s) = 4.72377 7.34691 6.17620
#
# Compressibility (1/GPa) = 0.04148372
#
# Stress axis : x y z
#
# Youngs Moduli (GPa) = 179.56659 72.67897 17.52685
#
# Poissons Ratio (x) = 0.16034 -0.03008
# Poissons Ratio (y) = 0.39616 0.29725
# Poissons Ratio (z) = -0.30817 1.23262
#
# Static dielectric constant tensor:
#      x y z
#    x 2.027590 0.036150 -0.036300 
#    y 0.036150 1.827760 0.017970 
#    z -0.036300 0.017970 1.927620 
# 
# From -- ./inp_files/263280.got.cif
#   From: 2010.05.17/outbox.cif.g08.bks.cpg/sg2_132_cif.got.tgz:263280.got - 2010.06.03 11:33:40.
