data_PCOD9064952
_publ_section_title
;
Structure prediction by ZEFSAII (Michael W. Deem and Ramdas Pophale) SiO2 
 PCOD9064952
Probable space group: P -1
;
_chemical_formula_sum "Si O2"
_cell_formula_units_Z 13
_cell_length_a 9.337474
_cell_length_b 12.553813
_cell_length_c 11.114612
_cell_angle_alpha 143.997742
_cell_angle_beta 138.420638
_cell_angle_gamma 51.830439
_cell_volume 507.984009
_symmetry_space_group_name_H-M "P -1"
_symmetry_group_IT_number 2
_symmetry_cell_setting 'triclinic'
loop_
_space_group_symop_operation_xyz
x,y,z
-x,-y,-z
loop_
_atom_site_type_symbol
_atom_site_label
_atom_site_fract_x
_atom_site_fract_y
_atom_site_fract_z
Si Si1 0.593659 0.269898 0.491359
Si Si2 0.879294 0.686520 0.854637
Si Si3 0.762665 0.376365 0.179315
Si Si4 0.125061 0.250176 0.459030
Si Si5 0.000000 0.500000 0.000000
Si Si6 0.573763 0.018606 0.699581
Si Si7 0.076238 0.944396 0.633311
O O1 0.355776 0.344411 0.377102
O O2 0.710834 0.180482 0.367223
O O3 0.561614 0.100983 0.406265
O O4 0.760096 0.404273 0.778273
O O5 0.071016 0.682736 0.875982
O O6 0.937276 0.541651 0.860135
O O7 0.873881 0.878495 0.097103
O O8 0.709586 0.586930 0.309835
O O9 0.900762 0.343464 0.357648
O O10 0.583642 0.226802 0.932418
O O11 0.090930 0.168861 0.495610
O O12 0.194527 0.088392 0.264306
O O13 0.500000 0.000000 0.500000
O O14 0.000000 0.000000 0.500000
#
# Coordination Sequence:
#
# PCOD9064952 Si02
#       7
#     2   2   2   2   1   2   2
#     4  12  26  46  73 108 146 198 250 305 379 441
#     4  12  24  47  76 105 150 200 247 306 375 445
#     4  11  24  46  77 106 143 194 246 307 364 443
#     4  11  24  46  77 104 145 193 246 299 372 440
#     4  12  26  46  68 106 152 190 244 314 362 446
#     4  12  24  46  73 108 148 192 242 309 369 441
#     4  12  24  46  73 110 151 197 245 310 370 443
#
# _framework density 25.591358
#
# number of rings (size 3 to 8) (size 9 to 14) (size 15 to 20)
#    0.000    0.308    4.615    5.077    0.000    0.615 
#    2.769    0.000    0.000    0.000    0.000    0.000 
#    0.000    0.000    0.000    0.000    0.000    0.000 
#
# Total GULP energy -72559.341293 kJ/mol
# GULP energy per Si atom -5581.487792 kJ/mol
# Density = 2.553311 g / cm^3
# Si number density = 25.591358 Si / 1000 Ang^3
#
#
#
# Elastic Constant Matrix: (Units=GPa)
#
#
# Indices 1 2 3 4 5 6 
#
# 1 109.5789 34.4251 23.5967 9.3556 19.1189 15.9454
# 2 34.4251 75.9103 35.1091 -11.7094 3.8563 44.0193
# 3 23.5967 35.1091 175.0458 11.2034 18.2459 22.0701
# 4 9.3556 -11.7094 11.2034 35.4297 -3.5984 -0.1131
# 5 19.1189 3.8563 18.2459 -3.5984 36.4667 16.2256
# 6 15.9454 44.0193 22.0701 -0.1131 16.2256 58.5771
#
#
#
# Elastic Compliance Matrix: (Units=1/GPa)
#
#
# Indices 1 2 3 4 5 6 
#
# 1 0.014631 -0.013291 0.001463 -0.009895 -0.011853 0.008718
# 2 -0.013291 0.043520 -0.006558 0.022139 0.022418 -0.032783
# 3 0.001463 -0.006558 0.007361 -0.005458 -0.005785 0.003348
# 4 -0.009895 0.022139 -0.005458 0.041558 0.017031 -0.016524
# 5 -0.011853 0.022418 -0.005785 0.017031 0.046668 -0.024335
# 6 0.008718 -0.032783 0.003348 -0.016524 -0.024335 0.044781
#
#
# Mechanical properties :
#
#
# Convention : Reuss Voigt Hill
#
# Bulk Modulus (GPa) = 34.79448 60.75518 47.77483
# Shear Modulus (GPa) = 20.41891 43.92164 32.17027
#
# Velocity S-wave (km/s) = 2.82775 4.14728 3.54937
# Velocity P-wave (km/s) = 4.92821 6.83559 5.95871
#
# Compressibility (1/GPa) = 0.02874019
#
# Stress axis : x y z
#
# Youngs Moduli (GPa) = 68.35023 22.97770 135.85060
#
# Poissons Ratio (x) = 0.30541 -0.19877
# Poissons Ratio (y) = 0.90847 0.89086
# Poissons Ratio (z) = -0.10001 0.15068
#
# Static dielectric constant tensor:
#      x y z
#    x 2.002380 -0.088100 -0.002710 
#    y -0.088100 2.145070 0.039640 
#    z -0.002710 0.039640 2.045360 
# 
# From -- ./inp_files/393044.got.cif
#   From: 2010.05.17/outbox.cif.g08.bks.cpg/sg2_197_cif.got.tgz:393044.got - 2010.06.03 11:33:40.
