data_PCOD9064297
_publ_section_title
;
Structure prediction by ZEFSAII (Michael W. Deem and Ramdas Pophale) SiO2 
 PCOD9064297
Probable space group: P -1
;
_chemical_formula_sum "Si O2"
_cell_formula_units_Z 12
_cell_length_a 12.813129
_cell_length_b 8.994264
_cell_length_c 9.473834
_cell_angle_alpha 77.805675
_cell_angle_beta 46.156245
_cell_angle_gamma 49.597816
_cell_volume 540.561300
_symmetry_space_group_name_H-M "P -1"
_symmetry_group_IT_number 2
_symmetry_cell_setting 'triclinic'
loop_
_space_group_symop_operation_xyz
x,y,z
-x,-y,-z
loop_
_atom_site_type_symbol
_atom_site_label
_atom_site_fract_x
_atom_site_fract_y
_atom_site_fract_z
Si Si1 0.833055 0.503207 0.485130
Si Si2 0.726121 0.816253 0.757109
Si Si3 0.574324 0.174837 0.638479
Si Si4 0.781938 0.724761 0.210393
Si Si5 0.221445 0.911379 0.820823
Si Si6 0.483720 0.501124 0.182272
O O1 0.757236 0.639331 0.673755
O O2 0.747649 0.669467 0.404523
O O3 0.735653 0.409531 0.589139
O O4 0.080967 0.317115 0.291485
O O5 0.741053 0.943862 0.605912
O O6 0.500000 0.000000 0.000000
O O7 0.395631 0.199192 0.742746
O O8 0.663992 0.194483 0.415174
O O9 0.491574 0.356446 0.792809
O O10 0.789216 0.899949 0.183168
O O11 0.000000 0.500000 0.000000
O O12 0.348478 0.737942 0.861337
O O13 0.000000 0.000000 0.000000
O O14 0.500000 0.500000 0.000000
#
# Coordination Sequence:
#
# PCOD9064297 Si02
#       6
#     2   2   2   2   2   2
#     4  11  25  46  72 106 150 190 244 306 361 440
#     4  11  24  45  73 106 145 194 244 299 368 436
#     4  12  25  48  73 104 148 189 243 300 362 438
#     4  12  25  46  77 105 139 196 246 297 367 437
#     4  12  27  47  75 109 147 188 245 303 365 434
#     4  12  28  47  72 107 147 191 244 304 370 431
#
# _framework density 22.199147
#
# number of rings (size 3 to 8) (size 9 to 14) (size 15 to 20)
#    0.000    0.333    3.333    5.000    4.667    3.333 
#    0.000    0.000    0.000    0.000    0.000    0.000 
#    0.000    0.000    0.000    0.000    0.000    0.000 
#
# Total GULP energy -67241.472709 kJ/mol
# GULP energy per Si atom -5603.456059 kJ/mol
# Density = 2.214862 g / cm^3
# Si number density = 22.199147 Si / 1000 Ang^3
#
#
#
# Elastic Constant Matrix: (Units=GPa)
#
#
# Indices 1 2 3 4 5 6 
#
# 1 150.8474 56.8774 48.2759 -8.4309 -3.3633 2.1241
# 2 56.8774 112.8786 21.7650 -12.4994 10.5119 -12.3203
# 3 48.2759 21.7650 103.3636 2.0304 1.6767 -1.0226
# 4 -8.4309 -12.4994 2.0304 41.2191 -4.5942 1.1038
# 5 -3.3633 10.5119 1.6767 -4.5942 38.0472 -3.0845
# 6 2.1241 -12.3203 -1.0226 1.1038 -3.0845 38.6504
#
#
#
# Elastic Compliance Matrix: (Units=1/GPa)
#
#
# Indices 1 2 3 4 5 6 
#
# 1 0.009596 -0.004427 -0.003626 0.001096 0.002210 -0.001889
# 2 -0.004427 0.012141 -0.000447 0.002347 -0.003136 0.003784
# 3 -0.003626 -0.000447 0.011510 -0.001549 -0.000864 0.000337
# 4 0.001096 0.002347 -0.001549 0.025561 0.002613 0.000126
# 5 0.002210 -0.003136 -0.000864 0.002613 0.027779 0.000998
# 6 -0.001889 0.003784 0.000337 0.000126 0.000998 0.027268
#
#
# Mechanical properties :
#
#
# Convention : Reuss Voigt Hill
#
# Bulk Modulus (GPa) = 61.54581 68.99180 65.26880
# Shear Modulus (GPa) = 36.69213 39.59473 38.14343
#
# Velocity S-wave (km/s) = 4.06995 4.22787 4.14966
# Velocity P-wave (km/s) = 7.06191 7.41480 7.24050
#
# Compressibility (1/GPa) = 0.01624806
#
# Stress axis : x y z
#
# Youngs Moduli (GPa) = 104.21247 82.36724 86.88251
#
# Poissons Ratio (x) = 0.36462 0.31501
# Poissons Ratio (y) = 0.46132 0.03881
# Poissons Ratio (z) = 0.37784 0.03680
#
# Static dielectric constant tensor:
#      x y z
#    x 1.799810 0.000210 0.010690 
#    y 0.000210 1.781570 -0.020620 
#    z 0.010690 -0.020620 1.844560 
# 
# From -- ./inp_files/148690.got.cif
#   From: 2010.05.17/outbox.cif.g08.bks.cpg/sg2_75_cif.got.tgz:148690.got - 2010.06.03 11:33:40.
