data_PCOD9064489
_publ_section_title
;
Structure prediction by ZEFSAII (Michael W. Deem and Ramdas Pophale) SiO2 
 PCOD9064489
Probable space group: P -1
;
_chemical_formula_sum "Si O2"
_cell_formula_units_Z 14
_cell_length_a 16.375939
_cell_length_b 7.698595
_cell_length_c 9.841751
_cell_angle_alpha 71.073915
_cell_angle_beta 34.443828
_cell_angle_gamma 59.543940
_cell_volume 593.674845
_symmetry_space_group_name_H-M "P -1"
_symmetry_group_IT_number 2
_symmetry_cell_setting 'triclinic'
loop_
_space_group_symop_operation_xyz
x,y,z
-x,-y,-z
loop_
_atom_site_type_symbol
_atom_site_label
_atom_site_fract_x
_atom_site_fract_y
_atom_site_fract_z
Si Si1 0.784265 0.018892 0.349067
Si Si2 0.555058 0.591799 0.771823
Si Si3 0.043802 0.880686 0.247468
Si Si4 0.897287 0.538654 0.269334
Si Si5 0.646320 0.358203 0.233124
Si Si6 0.477344 0.041748 0.863562
Si Si7 0.122926 0.190063 0.241971
O O1 0.836952 0.778774 0.319099
O O2 0.609231 0.119498 0.632707
O O3 0.922824 0.017796 0.258359
O O4 0.736486 0.138059 0.242523
O O5 0.742598 0.489620 0.494623
O O6 0.448112 0.611724 0.783889
O O7 0.520634 0.821986 0.796257
O O8 0.500000 0.500000 0.000000
O O9 0.937995 0.837893 0.518738
O O10 0.120589 0.009346 0.193433
O O11 0.180322 0.664250 0.055614
O O12 0.005274 0.397713 0.277211
O O13 0.000000 0.500000 0.000000
O O14 0.500000 0.500000 0.500000
O O15 0.500000 0.000000 0.000000
O O16 0.298736 0.178526 0.021435
#
# Coordination Sequence:
#
# PCOD9064489 Si02
#       7
#     2   2   2   2   2   2   2
#     4  11  27  46  69 105 152 183 245 303 370 440
#     4  11  27  49  72 107 148 197 256 301 369 457
#     4  11  24  47  73 108 143 193 247 305 364 450
#     4  11  27  44  72 105 147 190 242 311 375 435
#     4  12  28  44  76 108 149 197 248 306 371 446
#     4  11  24  47  74 108 144 190 238 313 367 438
#     4  11  24  45  79 103 145 194 248 301 376 440
#
# _framework density 23.581931000000001
#
# number of rings (size 3 to 8) (size 9 to 14) (size 15 to 20)
#    0.000    0.857    2.857    2.143   10.000    1.714 
#    0.000    0.000    0.000    0.000    0.000    0.000 
#    0.000    0.000    0.000    0.000    0.000    0.000 
#
# Total GULP energy -78134.832985 kJ/mol
# GULP energy per Si atom -5581.059499 kJ/mol
# Density = 2.352826 g / cm^3
# Si number density = 23.581931 Si / 1000 Ang^3
#
#
#
# Elastic Constant Matrix: (Units=GPa)
#
#
# Indices 1 2 3 4 5 6 
#
# 1 143.6096 40.1964 60.6677 3.3766 -21.6213 -48.0280
# 2 40.1964 99.4212 28.6217 23.1660 -2.4597 -27.4477
# 3 60.6677 28.6217 153.3550 8.0669 -21.2886 -17.9954
# 4 3.3766 23.1660 8.0669 28.6547 -11.9442 1.9254
# 5 -21.6213 -2.4597 -21.2886 -11.9442 57.6334 3.4396
# 6 -48.0280 -27.4477 -17.9954 1.9254 3.4396 42.1433
#
#
#
# Elastic Compliance Matrix: (Units=1/GPa)
#
#
# Indices 1 2 3 4 5 6 
#
# 1 0.013377 -0.000951 -0.003183 0.000523 0.003136 0.012987
# 2 -0.000951 0.017432 -0.001336 -0.016024 -0.004070 0.010763
# 3 -0.003183 -0.001336 0.008146 0.000003 0.001828 -0.001169
# 4 0.000523 -0.016024 0.000003 0.053419 0.011372 -0.013208
# 5 0.003136 -0.004070 0.001828 0.011372 0.021419 -0.000564
# 6 0.012987 0.010763 -0.001169 -0.013208 -0.000564 0.045689
#
#
# Mechanical properties :
#
#
# Convention : Reuss Voigt Hill
#
# Bulk Modulus (GPa) = 35.69573 72.81750 54.25661
# Shear Modulus (GPa) = 27.81476 43.47960 35.64718
#
# Velocity S-wave (km/s) = 3.43810 4.29857 3.89219
# Velocity P-wave (km/s) = 5.56152 7.45537 6.57697
#
# Compressibility (1/GPa) = 0.02801456
#
# Stress axis : x y z
#
# Youngs Moduli (GPa) = 74.75471 57.36590 122.76179
#
# Poissons Ratio (x) = 0.05456 0.39073
# Poissons Ratio (y) = 0.07110 0.16404
# Poissons Ratio (z) = 0.23793 0.07665
#
# Static dielectric constant tensor:
#      x y z
#    x 1.892340 -0.013490 0.039580 
#    y -0.013490 1.998190 -0.123570 
#    z 0.039580 -0.123570 2.228320 
# 
# From -- ./inp_files/223186.got.cif
#   From: 2010.05.17/outbox.cif.g08.bks.cpg/sg2_112_cif.got.tgz:223186.got - 2010.06.03 11:33:40.
