data_PCOD9064089
_publ_section_title
;
Structure prediction by ZEFSAII (Michael W. Deem and Ramdas Pophale) SiO2 
 PCOD9064089
Probable space group: P -1
;
_chemical_formula_sum "Si O2"
_cell_formula_units_Z 15
_cell_length_a 23.829399
_cell_length_b 4.898277
_cell_length_c 5.701089
_cell_angle_alpha 80.535641
_cell_angle_beta 116.757633
_cell_angle_gamma 99.155973
_cell_volume 583.361570
_symmetry_space_group_name_H-M "P -1"
_symmetry_group_IT_number 2
_symmetry_cell_setting 'triclinic'
loop_
_space_group_symop_operation_xyz
x,y,z
-x,-y,-z
loop_
_atom_site_type_symbol
_atom_site_label
_atom_site_fract_x
_atom_site_fract_y
_atom_site_fract_z
Si Si1 0.713104 0.782777 0.163222
Si Si2 0.582487 0.525496 0.855155
Si Si3 0.897803 0.441612 0.262890
Si Si4 0.279513 0.793890 0.512624
Si Si5 0.500000 0.000000 0.500000
Si Si6 0.014117 0.723705 0.192029
Si Si7 0.406995 0.764509 0.579197
Si Si8 0.179171 0.054690 0.002558
O O1 0.736600 0.514106 0.375559
O O2 0.686848 0.000061 0.260709
O O3 0.771491 0.945839 0.118216
O O4 0.653868 0.659132 0.916017
O O5 0.567170 0.309293 0.633437
O O6 0.535469 0.760135 0.754104
O O7 0.586465 0.393922 0.141765
O O8 0.917516 0.308461 0.564272
O O9 0.880310 0.171356 0.110691
O O10 0.959353 0.649311 0.290130
O O11 0.841759 0.635622 0.089403
O O12 0.332053 0.774348 0.414420
O O13 0.219481 0.949442 0.305447
O O14 0.549873 0.947343 0.375326
O O15 0.000000 0.500000 0.000000
O O16 0.000000 0.000000 0.000000
#
# Coordination Sequence:
#
# PCOD9064089 Si02
#       8
#     2   2   2   2   1   2   2   2
#     4  11  27  46  72 102 143 190 239 296 375 446
#     4  11  28  47  73 107 145 192 250 307 377 459
#     4  11  26  42  68 110 138 183 250 296 354 441
#     4  11  27  46  72 102 143 190 239 296 375 446
#     4  12  26  46  80 100 152 184 256 306 396 422
#     4  11  24  45  70  96 146 195 234 295 365 425
#     4  11  28  47  73 107 145 192 250 307 377 459
#     4  12  25  43  72 103 145 180 240 306 362 426
#
# _framework density 25.713044
#
# number of rings (size 3 to 8) (size 9 to 14) (size 15 to 20)
#    0.000    0.800    0.000    4.800   16.800    9.600 
#    0.000    0.000    0.000    0.000    0.000    0.000 
#    0.000    0.000    0.000    0.000    0.000    0.000 
#
# Total GULP energy -83666.619886 kJ/mol
# GULP energy per Si atom -5577.774659 kJ/mol
# Density = 2.565452 g / cm^3
# Si number density = 25.713044 Si / 1000 Ang^3
#
#
#
# Elastic Constant Matrix: (Units=GPa)
#
#
# Indices 1 2 3 4 5 6 
#
# 1 61.6543 8.6598 22.6139 -13.4726 5.2169 5.6375
# 2 8.6598 137.3646 50.4568 -22.0692 -0.3168 -12.6663
# 3 22.6139 50.4568 125.5058 -26.2107 17.8944 -8.8601
# 4 -13.4726 -22.0692 -26.2107 50.3892 -3.8344 -3.3300
# 5 5.2169 -0.3168 17.8944 -3.8344 36.2565 -6.7327
# 6 5.6375 -12.6663 -8.8601 -3.3300 -6.7327 42.6309
#
#
#
# Elastic Compliance Matrix: (Units=1/GPa)
#
#
# Indices 1 2 3 4 5 6 
#
# 1 0.018281 0.000059 -0.002631 0.003235 -0.001535 -0.002936
# 2 0.000059 0.009168 -0.003305 0.002674 0.002474 0.002629
# 3 -0.002631 -0.003305 0.011229 0.003422 -0.004600 0.001240
# 4 0.003235 0.002674 0.003422 0.023941 0.000977 0.003102
# 5 -0.001535 0.002474 -0.004600 0.000977 0.031121 0.004973
# 6 -0.002936 0.002629 0.001240 0.003102 0.004973 0.025912
#
#
# Mechanical properties :
#
#
# Convention : Reuss Voigt Hill
#
# Bulk Modulus (GPa) = 37.14113 54.22063 45.68088
# Shear Modulus (GPa) = 35.61780 42.04161 38.82970
#
# Velocity S-wave (km/s) = 3.72587 4.04794 3.89024
# Velocity P-wave (km/s) = 5.74328 6.55594 6.16302
#
# Compressibility (1/GPa) = 0.02692433
#
# Stress axis : x y z
#
# Youngs Moduli (GPa) = 54.70089 109.07635 89.05901
#
# Poissons Ratio (x) = -0.00645 0.23429
# Poissons Ratio (y) = -0.00324 0.29435
# Poissons Ratio (z) = 0.14390 0.36051
#
# Static dielectric constant tensor:
#      x y z
#    x 2.329500 0.170670 0.036840 
#    y 0.170670 2.302110 0.071950 
#    z 0.036840 0.071950 2.106570 
# 
# From -- ./inp_files/125419.got.cif
#   From: 2010.05.17/outbox.cif.g08.bks.cpg/sg2_63_cif.got.tgz:125419.got - 2010.06.03 11:33:40.
