data_PCOD9064180
_publ_section_title
;
Structure prediction by ZEFSAII (Michael W. Deem and Ramdas Pophale) SiO2 
 PCOD9064180
Probable space group: P -1
;
_chemical_formula_sum "Si O2"
_cell_formula_units_Z 16
_cell_length_a 8.085831
_cell_length_b 7.983880
_cell_length_c 23.031663
_cell_angle_alpha 118.327378
_cell_angle_beta 32.784215
_cell_angle_gamma 121.121642
_cell_volume 686.645549
_symmetry_space_group_name_H-M "P -1"
_symmetry_group_IT_number 2
_symmetry_cell_setting 'triclinic'
loop_
_space_group_symop_operation_xyz
x,y,z
-x,-y,-z
loop_
_atom_site_type_symbol
_atom_site_label
_atom_site_fract_x
_atom_site_fract_y
_atom_site_fract_z
Si Si1 0.771849 0.964371 0.822141
Si Si2 0.351515 0.408717 0.278834
Si Si3 0.216038 0.352519 0.900911
Si Si4 0.958543 0.071617 0.144580
Si Si5 0.765290 0.887814 0.389967
Si Si6 0.321119 0.491081 0.491026
Si Si7 0.301697 0.151566 0.357695
Si Si8 0.605398 0.707850 0.033877
O O1 0.090368 0.055926 0.706914
O O2 0.613830 0.776276 0.800051
O O3 0.593805 0.138199 0.901170
O O4 0.830630 0.874422 0.851760
O O5 0.570481 0.587489 0.209152
O O6 0.415402 0.338650 0.311911
O O7 0.998033 0.437922 0.392866
O O8 0.998061 0.140581 0.918325
O O9 0.400927 0.325952 0.900938
O O10 0.000000 0.500000 0.000000
O O11 0.601855 0.065555 0.265447
O O12 0.054011 0.199118 0.079603
O O13 0.582876 0.658650 0.407355
O O14 0.500000 0.000000 0.500000
O O15 0.037684 0.985253 0.373766
O O16 0.500000 0.500000 0.500000
O O17 0.224973 0.270484 0.456035
O O18 0.500000 0.500000 0.000000
#
# Coordination Sequence:
#
# PCOD9064180 Si02
#       8
#     2   2   2   2   2   2   2   2
#     4  11  24  45  71  99 143 181 238 294 348 431
#     4  11  24  46  68 104 136 188 233 289 353 418
#     4  12  25  43  71 102 138 180 235 291 354 426
#     4  12  26  45  69 107 137 187 233 295 363 419
#     4  11  25  47  71 103 142 193 236 294 359 414
#     4  12  27  44  72 104 146 188 240 290 353 428
#     4  11  26  46  72 104 150 185 241 297 351 430
#     4  12  26  45  71 101 140 186 234 293 356 427
#
# _framework density 23.301690000000001
#
# number of rings (size 3 to 8) (size 9 to 14) (size 15 to 20)
#    0.000    0.500    2.500    6.375    7.000    0.500 
#    0.000    0.000    0.000    0.000    0.000    0.000 
#    0.000    0.000    0.000    0.000    0.000    0.000 
#
# Total GULP energy -89398.877047 kJ/mol
# GULP energy per Si atom -5587.429815 kJ/mol
# Density = 2.324865 g / cm^3
# Si number density = 23.301690 Si / 1000 Ang^3
#
#
#
# Elastic Constant Matrix: (Units=GPa)
#
#
# Indices 1 2 3 4 5 6 
#
# 1 75.2604 -13.1147 13.9389 19.7602 -5.3105 -4.0529
# 2 -13.1147 91.2530 20.7353 6.4362 -5.3317 10.8930
# 3 13.9389 20.7353 93.0361 10.4025 -13.6642 -1.5318
# 4 19.7602 6.4362 10.4025 50.2378 -7.0003 5.8173
# 5 -5.3105 -5.3317 -13.6642 -7.0003 35.4853 9.5590
# 6 -4.0529 10.8930 -1.5318 5.8173 9.5590 33.8734
#
#
#
# Elastic Compliance Matrix: (Units=1/GPa)
#
#
# Indices 1 2 3 4 5 6 
#
# 1 0.016051 0.003073 -0.002311 -0.006417 0.000204 0.001872
# 2 0.003073 0.012791 -0.002907 -0.001462 0.002111 -0.004222
# 3 -0.002311 -0.002907 0.012387 -0.000795 0.003750 0.000297
# 4 -0.006417 -0.001462 -0.000795 0.024134 0.004850 -0.005847
# 5 0.000204 0.002111 0.003750 0.004850 0.033858 -0.010873
# 6 0.001872 -0.004222 0.000297 -0.005847 -0.010873 0.035189
#
#
# Mechanical properties :
#
#
# Convention : Reuss Voigt Hill
#
# Bulk Modulus (GPa) = 27.07232 33.62983 30.35107
# Shear Modulus (GPa) = 33.10937 39.78530 36.44733
#
# Velocity S-wave (km/s) = 3.77357 4.13655 3.95922
# Velocity P-wave (km/s) = 5.53442 6.10561 5.82702
#
# Compressibility (1/GPa) = 0.03693810
#
# Stress axis : x y z
#
# Youngs Moduli (GPa) = 62.30228 78.17843 80.72739
#
# Poissons Ratio (x) = -0.24024 0.18660
# Poissons Ratio (y) = -0.19146 0.23469
# Poissons Ratio (z) = 0.14401 0.22728
#
# Static dielectric constant tensor:
#      x y z
#    x 1.953790 -0.066080 0.145400 
#    y -0.066080 1.963680 -0.094870 
#    z 0.145400 -0.094870 1.959440 
# 
# From -- ./inp_files/606431.got.cif
#   From: 2010.05.17/outbox.cif.g08.bks.cpg/sg2_304_cif.got.tgz:606431.got - 2010.06.03 11:33:40.
