data_PCOD9064989
_publ_section_title
;
Structure prediction by ZEFSAII (Michael W. Deem and Ramdas Pophale) SiO2 
 PCOD9064989
Probable space group: P -1
;
_chemical_formula_sum "Si O2"
_cell_formula_units_Z 15
_cell_length_a 12.394472
_cell_length_b 11.388447
_cell_length_c 11.657076
_cell_angle_alpha 153.736472
_cell_angle_beta 52.781028
_cell_angle_gamma 121.694170
_cell_volume 579.136029
_symmetry_space_group_name_H-M "P -1"
_symmetry_group_IT_number 2
_symmetry_cell_setting 'triclinic'
loop_
_space_group_symop_operation_xyz
x,y,z
-x,-y,-z
loop_
_atom_site_type_symbol
_atom_site_label
_atom_site_fract_x
_atom_site_fract_y
_atom_site_fract_z
Si Si1 0.996416 0.273712 0.075191
Si Si2 0.883987 0.781879 0.816187
Si Si3 0.625760 0.625939 0.711727
Si Si4 0.500000 0.000000 0.000000
Si Si5 0.277853 0.558629 0.731221
Si Si6 0.359240 0.887738 0.627634
Si Si7 0.609153 0.221129 0.745569
Si Si8 0.252821 0.349239 0.817177
O O1 0.856399 0.388259 0.211446
O O2 0.036863 0.365583 0.258744
O O3 0.113887 0.341556 0.971575
O O4 0.974459 0.959830 0.832553
O O5 0.768092 0.649352 0.701929
O O6 0.786653 0.003117 0.140833
O O7 0.632579 0.658506 0.594623
O O8 0.582429 0.338737 0.522088
O O9 0.518611 0.866169 0.004124
O O10 0.635863 0.183322 0.094672
O O11 0.241411 0.464756 0.798006
O O12 0.352844 0.748683 0.386322
O O13 0.453603 0.137112 0.772386
O O14 0.692472 0.953310 0.493397
O O15 0.650473 0.469636 0.010708
#
# Coordination Sequence:
#
# PCOD9064989 Si02
#       8
#     2   2   2   1   2   2   2   2
#     4  11  24  51  71 111 150 204 254 313 381 456
#     4  11  24  46  80 107 151 189 264 319 380 449
#     4  12  25  45  77 112 144 198 250 327 381 454
#     4  12  26  48  70 108 152 188 264 310 386 454
#     4  12  28  46  74 107 152 206 252 315 381 462
#     4  11  24  47  75 113 149 193 258 326 390 444
#     4  11  28  47  79 113 154 200 257 322 392 454
#     4  12  28  49  74 112 158 209 254 311 383 471
#
# _framework density 25.900652000000001
#
# number of rings (size 3 to 8) (size 9 to 14) (size 15 to 20)
#    0.000    0.533    4.000    2.400    7.467    2.667 
#    0.000    2.000    0.000    0.000    0.000    0.000 
#    0.000    0.000    0.000    0.000    0.000    0.000 
#
# Total GULP energy -83907.823535 kJ/mol
# GULP energy per Si atom -5593.854902 kJ/mol
# Density = 2.584170 g / cm^3
# Si number density = 25.900652 Si / 1000 Ang^3
#
#
#
# Elastic Constant Matrix: (Units=GPa)
#
#
# Indices 1 2 3 4 5 6 
#
# 1 181.5867 65.0825 43.1271 -2.5412 0.6758 -14.7442
# 2 65.0825 169.3942 42.8108 -7.8906 17.7074 -16.8855
# 3 43.1271 42.8108 91.5991 2.7554 29.3756 -5.6589
# 4 -2.5412 -7.8906 2.7554 38.1612 -11.6089 2.3177
# 5 0.6758 17.7074 29.3756 -11.6089 38.4990 -1.0640
# 6 -14.7442 -16.8855 -5.6589 2.3177 -1.0640 62.5876
#
#
#
# Elastic Compliance Matrix: (Units=1/GPa)
#
#
# Indices 1 2 3 4 5 6 
#
# 1 0.007229 -0.002114 -0.003760 0.001545 0.004203 0.000807
# 2 -0.002114 0.007558 -0.001976 0.001001 -0.001594 0.001298
# 3 -0.003760 -0.001976 0.018749 -0.006696 -0.015343 0.000264
# 4 0.001545 0.001001 -0.006696 0.031324 0.014043 -0.000893
# 5 0.004203 -0.001594 -0.015343 0.014043 0.042558 -0.000624
# 6 0.000807 0.001298 0.000264 -0.000893 -0.000624 0.016564
#
#
# Mechanical properties :
#
#
# Convention : Reuss Voigt Hill
#
# Bulk Modulus (GPa) = 56.06552 82.73565 69.40058
# Shear Modulus (GPa) = 34.33421 47.28686 40.81053
#
# Velocity S-wave (km/s) = 3.64485 4.27746 3.97376
# Velocity P-wave (km/s) = 6.27746 7.51055 6.92152
#
# Compressibility (1/GPa) = 0.01783628
#
# Stress axis : x y z
#
# Youngs Moduli (GPa) = 138.32637 132.31737 53.33626
#
# Poissons Ratio (x) = 0.27974 0.20055
# Poissons Ratio (y) = 0.29245 0.10537
# Poissons Ratio (z) = 0.52012 0.26140
#
# Static dielectric constant tensor:
#      x y z
#    x 1.789420 0.045500 0.597970 
#    y 0.045500 1.992350 -0.282220 
#    z 0.597970 -0.282220 0.575800 
# 
# From -- ./inp_files/67363.got.cif
#   From: 2010.05.17/outbox.cif.g08.bks.cpg/sg2_34_cif.got.tgz:67363.got - 2010.06.03 11:33:40.
