data_PCOD9064199
_publ_section_title
;
Structure prediction by ZEFSAII (Michael W. Deem and Ramdas Pophale) SiO2 
 PCOD9064199
Probable space group: P -1
;
_chemical_formula_sum "Si O2"
_cell_formula_units_Z 16
_cell_length_a 12.065517
_cell_length_b 12.987632
_cell_length_c 9.422072
_cell_angle_alpha 43.464828
_cell_angle_beta 46.152497
_cell_angle_gamma 57.400014
_cell_volume 730.559452
_symmetry_space_group_name_H-M "P -1"
_symmetry_group_IT_number 2
_symmetry_cell_setting 'triclinic'
loop_
_space_group_symop_operation_xyz
x,y,z
-x,-y,-z
loop_
_atom_site_type_symbol
_atom_site_label
_atom_site_fract_x
_atom_site_fract_y
_atom_site_fract_z
Si Si1 0.845823 0.525969 0.022597
Si Si2 0.617829 0.880583 0.592513
Si Si3 0.832825 0.868475 0.667586
Si Si4 0.116520 0.105834 0.870136
Si Si5 0.091611 0.604754 0.209449
Si Si6 0.811799 0.086609 0.735909
Si Si7 0.367898 0.609365 0.438038
Si Si8 0.594546 0.388244 0.919912
O O1 0.750518 0.413922 0.307012
O O2 0.787772 0.700462 0.909727
O O3 0.862734 0.483692 0.885805
O O4 0.000000 0.500000 0.000000
O O5 0.716285 0.934393 0.584182
O O6 0.755224 0.833769 0.407445
O O7 0.500000 0.000000 0.500000
O O8 0.516376 0.746403 0.862347
O O9 0.014162 0.853005 0.474789
O O10 0.816609 0.975799 0.709224
O O11 0.015743 0.247405 0.880714
O O12 0.200139 0.007722 0.016361
O O13 0.000000 0.000000 0.000000
O O14 0.242693 0.654323 0.106347
O O15 0.000000 0.500000 0.500000
O O16 0.670054 0.212014 0.727880
O O17 0.500000 0.500000 0.500000
O O18 0.364984 0.553750 0.331662
O O19 0.500000 0.500000 0.000000
#
# Coordination Sequence:
#
# PCOD9064199 Si02
#       8
#     2   2   2   2   2   2   2   2
#     4  12  24  45  72 107 142 190 246 305 372 437
#     4  12  26  46  71 103 146 194 239 303 375 441
#     4  11  24  45  72 103 146 188 244 303 370 441
#     4  12  24  44  75 109 144 196 253 308 370 445
#     4  12  26  45  76 110 148 198 253 310 368 452
#     4  11  25  45  72 108 142 191 249 306 367 442
#     4  12  26  46  72 105 148 192 246 308 372 446
#     4  12  27  48  68 106 148 194 243 303 375 443
#
# _framework density 21.901024
#
# number of rings (size 3 to 8) (size 9 to 14) (size 15 to 20)
#    0.000    0.250    2.500    7.500    1.750    2.000 
#    0.000    5.625    0.000    0.000    0.000    0.000 
#    0.000    0.000    0.000    0.000    0.000    0.000 
#
# Total GULP energy -89351.339275 kJ/mol
# GULP energy per Si atom -5584.458705 kJ/mol
# Density = 2.185118 g / cm^3
# Si number density = 21.901024 Si / 1000 Ang^3
#
#
#
# Elastic Constant Matrix: (Units=GPa)
#
#
# Indices 1 2 3 4 5 6 
#
# 1 145.4694 39.9900 29.3292 -0.9935 24.2156 -6.7243
# 2 39.9900 110.6631 21.0722 -2.0055 15.6503 -9.3778
# 3 29.3292 21.0722 103.3559 11.7305 16.7642 12.7336
# 4 -0.9935 -2.0055 11.7305 36.6354 -0.6622 11.0657
# 5 24.2156 15.6503 16.7642 -0.6622 41.1610 -0.3070
# 6 -6.7243 -9.3778 12.7336 11.0657 -0.3070 39.3483
#
#
#
# Elastic Compliance Matrix: (Units=1/GPa)
#
#
# Indices 1 2 3 4 5 6 
#
# 1 0.008423 -0.002131 -0.001574 0.000137 -0.003491 0.001375
# 2 -0.002131 0.010629 -0.001560 0.000199 -0.002130 0.002601
# 3 -0.001574 -0.001560 0.011757 -0.002844 -0.003342 -0.003672
# 4 0.000137 0.000199 -0.002844 0.030539 0.001436 -0.007586
# 5 -0.003491 -0.002130 -0.003342 0.001436 0.028542 -0.000204
# 6 0.001375 0.002601 -0.003672 -0.007586 -0.000204 0.029589
#
#
# Mechanical properties :
#
#
# Convention : Reuss Voigt Hill
#
# Bulk Modulus (GPa) = 49.31374 60.03012 54.67193
# Shear Modulus (GPa) = 36.55793 41.36876 38.96335
#
# Velocity S-wave (km/s) = 4.09006 4.35086 4.22247
# Velocity P-wave (km/s) = 6.69853 7.26011 6.98497
#
# Compressibility (1/GPa) = 0.02027833
#
# Stress axis : x y z
#
# Youngs Moduli (GPa) = 118.71752 94.08364 85.05267
#
# Poissons Ratio (x) = 0.20052 0.13391
# Poissons Ratio (y) = 0.25302 0.13267
# Poissons Ratio (z) = 0.18691 0.14676
#
# Static dielectric constant tensor:
#      x y z
#    x 1.854210 -0.035150 -0.013320 
#    y -0.035150 1.810250 0.003060 
#    z -0.013320 0.003060 1.826230 
# 
# From -- ./inp_files/261409.got.cif
#   From: 2010.05.17/outbox.cif.g08.bks.cpg/sg2_131_cif.got.tgz:261409.got - 2010.06.03 11:33:40.
