data_PCOD9064885
_publ_section_title
;
Structure prediction by ZEFSAII (Michael W. Deem and Ramdas Pophale) SiO2 
 PCOD9064885
Probable space group: P -1
;
_chemical_formula_sum "Si O2"
_cell_formula_units_Z 16
_cell_length_a 9.688987
_cell_length_b 31.103278
_cell_length_c 9.414036
_cell_angle_alpha 34.401584
_cell_angle_beta 117.593407
_cell_angle_gamma 143.600772
_cell_volume 761.424809
_symmetry_space_group_name_H-M "P -1"
_symmetry_group_IT_number 2
_symmetry_cell_setting 'triclinic'
loop_
_space_group_symop_operation_xyz
x,y,z
-x,-y,-z
loop_
_atom_site_type_symbol
_atom_site_label
_atom_site_fract_x
_atom_site_fract_y
_atom_site_fract_z
Si Si1 0.293572 0.629840 0.872145
Si Si2 0.643658 0.626546 0.134234
Si Si3 0.332232 0.111665 0.862632
Si Si4 0.785844 0.622330 0.904431
Si Si5 0.052134 0.895527 0.788826
Si Si6 0.385053 0.955475 0.226821
Si Si7 0.709166 0.866386 0.897349
Si Si8 0.874250 0.385249 0.857825
O O1 0.493915 0.770239 0.496066
O O2 0.434071 0.606883 0.034934
O O3 0.217824 0.627867 0.995575
O O4 0.000000 0.500000 0.000000
O O5 0.500000 0.500000 0.500000
O O6 0.749762 0.639299 0.999613
O O7 0.875491 0.759203 0.990527
O O8 0.401834 0.170641 0.893633
O O9 0.367798 0.035305 0.061769
O O10 0.000000 0.000000 0.000000
O O11 0.065100 0.784893 0.537071
O O12 0.500000 0.500000 0.000000
O O13 0.885113 0.577943 0.100915
O O14 0.874802 0.858210 0.941921
O O15 0.367221 0.990845 0.718117
O O16 0.078070 0.976656 0.470066
O O17 0.500000 0.000000 0.000000
O O18 0.424665 0.763805 0.948752
O O19 0.000000 0.500000 0.500000
#
# Coordination Sequence:
#
# PCOD9064885 Si02
#       8
#     2   2   2   2   2   2   2   2
#     4  12  26  49  71 106 148 195 246 301 366 444
#     4  12  28  48  74 109 150 197 242 304 376 435
#     4  12  27  45  75 107 148 191 247 305 374 441
#     4  12  28  48  72 108 152 192 246 306 367 445
#     4  11  25  46  77 104 152 190 254 311 364 446
#     4  12  27  45  77 112 147 196 247 309 378 439
#     4  11  24  46  75 106 142 196 246 310 366 437
#     4  12  25  45  73 107 142 197 247 296 369 441
#
# _framework density 21.013238000000001
#
# number of rings (size 3 to 8) (size 9 to 14) (size 15 to 20)
#    0.000    0.250    2.500    6.000    7.000    2.000 
#    0.000    0.000    0.000    0.000    0.000    0.000 
#    0.000    0.000    0.000    0.000    0.000    0.000 
#
# Total GULP energy -89399.268645 kJ/mol
# GULP energy per Si atom -5587.454290 kJ/mol
# Density = 2.096541 g / cm^3
# Si number density = 21.013238 Si / 1000 Ang^3
#
#
#
# Elastic Constant Matrix: (Units=GPa)
#
#
# Indices 1 2 3 4 5 6 
#
# 1 183.2339 88.2924 65.2921 15.8573 2.5305 -2.5714
# 2 88.2924 169.5500 72.7190 -11.4519 -0.3396 -7.6352
# 3 65.2921 72.7190 184.0580 6.4466 -6.8497 -10.2906
# 4 15.8573 -11.4519 6.4466 42.1207 -5.7542 -9.9159
# 5 2.5305 -0.3396 -6.8497 -5.7542 35.1711 11.2191
# 6 -2.5714 -7.6352 -10.2906 -9.9159 11.2191 54.1997
#
#
#
# Elastic Compliance Matrix: (Units=1/GPa)
#
#
# Indices 1 2 3 4 5 6 
#
# 1 0.008280 -0.004120 -0.001256 -0.004451 -0.001298 -0.000972
# 2 -0.004120 0.009449 -0.002348 0.004873 0.000239 0.001532
# 3 -0.001256 -0.002348 0.006909 -0.000951 0.001091 0.000522
# 4 -0.004451 0.004873 -0.000951 0.028473 0.003303 0.004820
# 5 -0.001298 0.000239 0.001091 0.003303 0.031084 -0.005651
# 6 -0.000972 0.001532 0.000522 0.004820 -0.005651 0.020771
#
#
# Mechanical properties :
#
#
# Convention : Reuss Voigt Hill
#
# Bulk Modulus (GPa) = 108.80994 109.93877 109.37436
# Shear Modulus (GPa) = 40.49350 47.00088 43.74719
#
# Velocity S-wave (km/s) = 4.39458 4.73454 4.56772
# Velocity P-wave (km/s) = 8.81157 9.07305 8.94326
#
# Compressibility (1/GPa) = 0.00919034
#
# Stress axis : x y z
#
# Youngs Moduli (GPa) = 120.77548 105.83238 144.73142
#
# Poissons Ratio (x) = 0.43602 0.18181
# Poissons Ratio (y) = 0.49758 0.33980
# Poissons Ratio (z) = 0.15172 0.24847
#
# Static dielectric constant tensor:
#      x y z
#    x 1.702240 -0.001830 -0.006320 
#    y -0.001830 1.818830 0.068980 
#    z -0.006320 0.068980 1.891740 
# 
# From -- ./inp_files/227716.got.cif
#   From: 2010.05.17/outbox.cif.g08.bks.cpg/sg2_114_cif.got.tgz:227716.got - 2010.06.03 11:33:40.
