data_PCOD9064427
_publ_section_title
;
Structure prediction by ZEFSAII (Michael W. Deem and Ramdas Pophale) SiO2 
 PCOD9064427
Probable space group: P -1
;
_chemical_formula_sum "Si O2"
_cell_formula_units_Z 16
_cell_length_a 8.681295
_cell_length_b 11.775389
_cell_length_c 9.282122
_cell_angle_alpha 53.830373
_cell_angle_beta 74.084327
_cell_angle_gamma 79.168876
_cell_volume 736.218852
_symmetry_space_group_name_H-M "P -1"
_symmetry_group_IT_number 2
_symmetry_cell_setting 'triclinic'
loop_
_space_group_symop_operation_xyz
x,y,z
-x,-y,-z
loop_
_atom_site_type_symbol
_atom_site_label
_atom_site_fract_x
_atom_site_fract_y
_atom_site_fract_z
Si Si1 0.978454 0.500403 0.834756
Si Si2 0.357631 0.999954 0.154713
Si Si3 0.386038 0.698599 0.297414
Si Si4 0.448069 0.140637 0.323556
Si Si5 0.002589 0.038950 0.136865
Si Si6 0.732445 0.280157 0.014459
Si Si7 0.860753 0.756999 0.500978
Si Si8 0.742249 0.604476 0.355412
O O1 0.120438 0.411018 0.787706
O O2 0.970863 0.651431 0.646565
O O3 0.000000 0.500000 0.000000
O O4 0.809491 0.430447 0.897491
O O5 0.335369 0.832589 0.307815
O O6 0.186870 0.065738 0.102130
O O7 0.406476 0.082886 0.220267
O O8 0.500000 0.000000 0.000000
O O9 0.577590 0.675704 0.284307
O O10 0.305427 0.553197 0.468510
O O11 0.330056 0.734126 0.122492
O O12 0.590059 0.247838 0.183961
O O13 0.299730 0.211711 0.390829
O O14 0.500000 0.000000 0.500000
O O15 0.943758 0.903486 0.339449
O O16 0.875469 0.166575 0.095366
O O17 0.000000 0.000000 0.000000
O O18 0.812318 0.685497 0.414965
#
# Coordination Sequence:
#
# PCOD9064427 Si02
#       8
#     2   2   2   2   2   2   2   2
#     4  12  30  48  75 111 150 195 247 309 376 441
#     4  12  26  43  74 106 148 192 244 300 361 442
#     4  11  24  45  75 109 139 201 248 299 368 438
#     4  12  27  48  71 111 151 190 251 305 371 432
#     4  12  25  44  76 109 145 193 250 298 375 438
#     4  12  26  46  73 108 149 194 243 308 369 444
#     4  12  27  49  78 107 148 204 243 315 368 441
#     4  11  26  48  76 104 147 193 252 303 370 447
#
# _framework density 21.732668
#
# number of rings (size 3 to 8) (size 9 to 14) (size 15 to 20)
#    0.000    0.250    5.000    2.625    7.000    5.000 
#    0.000    0.000    0.000    0.000    0.000    0.000 
#    0.000    0.000    0.000    0.000    0.000    0.000 
#
# Total GULP energy -89603.438715 kJ/mol
# GULP energy per Si atom -5600.214920 kJ/mol
# Density = 2.168320 g / cm^3
# Si number density = 21.732668 Si / 1000 Ang^3
#
#
#
# Elastic Constant Matrix: (Units=GPa)
#
#
# Indices 1 2 3 4 5 6 
#
# 1 117.9969 22.1995 60.6968 19.3762 5.1629 -17.4604
# 2 22.1995 84.0724 37.0536 20.2448 5.5651 -16.4390
# 3 60.6968 37.0536 112.7643 -0.4586 -1.5615 -6.0602
# 4 19.3762 20.2448 -0.4586 51.6807 -3.3126 -2.5890
# 5 5.1629 5.5651 -1.5615 -3.3126 45.1552 1.3918
# 6 -17.4604 -16.4390 -6.0602 -2.5890 1.3918 42.0785
#
#
#
# Elastic Compliance Matrix: (Units=1/GPa)
#
#
# Indices 1 2 3 4 5 6 
#
# 1 0.014228 0.002705 -0.008319 -0.006379 -0.002884 0.005465
# 2 0.002705 0.017702 -0.006996 -0.007902 -0.003518 0.006661
# 3 -0.008319 -0.006996 0.015512 0.005999 0.002903 -0.003678
# 4 -0.006379 -0.007902 0.005999 0.024963 0.003849 -0.003462
# 5 -0.002884 -0.003518 0.002903 0.003849 0.023375 -0.002689
# 6 0.005465 0.006661 -0.003678 -0.003462 -0.002689 0.027981
#
#
# Mechanical properties :
#
#
# Convention : Reuss Voigt Hill
#
# Bulk Modulus (GPa) = 45.00112 61.63703 53.31907
# Shear Modulus (GPa) = 31.97194 40.77514 36.37354
#
# Velocity S-wave (km/s) = 3.83971 4.33623 4.09550
# Velocity P-wave (km/s) = 6.35685 7.31393 6.85212
#
# Compressibility (1/GPa) = 0.02222167
#
# Stress axis : x y z
#
# Youngs Moduli (GPa) = 70.28558 56.49212 64.46720
#
# Poissons Ratio (x) = -0.15284 0.53633
# Poissons Ratio (y) = -0.19016 0.45100
# Poissons Ratio (z) = 0.58473 0.39521
#
# Static dielectric constant tensor:
#      x y z
#    x 1.803380 -0.020610 0.002450 
#    y -0.020610 1.786070 -0.056860 
#    z 0.002450 -0.056860 1.804500 
# 
# From -- ./inp_files/184097.got.cif
#   From: 2010.05.17/outbox.cif.g08.bks.cpg/sg2_93_cif.got.tgz:184097.got - 2010.06.03 11:33:40.
