data_PCOD9064731
_publ_section_title
;
Structure prediction by ZEFSAII (Michael W. Deem and Ramdas Pophale) SiO2 
 PCOD9064731
Probable space group: P -1
;
_chemical_formula_sum "Si O2"
_cell_formula_units_Z 14
_cell_length_a 9.526525
_cell_length_b 10.357384
_cell_length_c 9.954999
_cell_angle_alpha 80.883834
_cell_angle_beta 41.505998
_cell_angle_gamma 62.230735
_cell_volume 544.737348
_symmetry_space_group_name_H-M "P -1"
_symmetry_group_IT_number 2
_symmetry_cell_setting 'triclinic'
loop_
_space_group_symop_operation_xyz
x,y,z
-x,-y,-z
loop_
_atom_site_type_symbol
_atom_site_label
_atom_site_fract_x
_atom_site_fract_y
_atom_site_fract_z
Si Si1 0.332833 0.069583 0.245391
Si Si2 0.165512 0.729667 0.581051
Si Si3 0.500595 0.412001 0.863939
Si Si4 0.061189 0.470444 0.803415
Si Si5 0.093764 0.834490 0.904296
Si Si6 0.590334 0.866861 0.343560
Si Si7 0.491444 0.307327 0.150675
O O1 0.370187 0.204729 0.257264
O O2 0.051267 0.152648 0.382282
O O3 0.410195 0.945521 0.329904
O O4 0.500000 0.000000 0.000000
O O5 0.423073 0.648346 0.330568
O O6 0.108800 0.599104 0.688912
O O7 0.165186 0.813731 0.702151
O O8 0.634816 0.507563 0.781317
O O9 0.604975 0.279087 0.923571
O O10 0.199216 0.499950 0.075126
O O11 0.305776 0.300195 0.634385
O O12 0.000000 0.500000 0.000000
O O13 0.317925 0.731330 0.859338
O O14 0.855630 0.821891 0.095357
O O15 0.000000 0.000000 0.000000
O O16 0.500000 0.000000 0.500000
#
# Coordination Sequence:
#
# PCOD9064731 Si02
#       7
#     2   2   2   2   2   2   2
#     4  12  24  50  73 108 153 201 249 317 381 455
#     4  12  27  48  84 110 148 206 263 310 383 459
#     4  11  27  46  79 113 149 198 259 318 379 445
#     4  12  24  50  77 111 155 195 258 317 370 459
#     4  12  24  49  70 109 152 196 247 318 381 457
#     4  12  28  44  74 111 154 198 249 312 392 447
#     4  11  24  46  72 106 155 188 247 322 376 442
#
# _framework density 25.70046
#
# number of rings (size 3 to 8) (size 9 to 14) (size 15 to 20)
#    0.000    0.286    7.143    0.000    4.000    4.000 
#    0.000    1.429    0.000    0.000    0.000    0.000 
#    0.000    0.000    0.000    0.000    0.000    0.000 
#
# Total GULP energy -78325.499736 kJ/mol
# GULP energy per Si atom -5594.678553 kJ/mol
# Density = 2.564196 g / cm^3
# Si number density = 25.700460 Si / 1000 Ang^3
#
#
#
# Elastic Constant Matrix: (Units=GPa)
#
#
# Indices 1 2 3 4 5 6 
#
# 1 163.7012 75.9671 46.5615 6.0701 22.4681 -33.3828
# 2 75.9671 133.3903 41.8511 6.1043 7.9734 0.8065
# 3 46.5615 41.8511 120.7616 5.8188 21.0793 -16.1916
# 4 6.0701 6.1043 5.8188 34.5429 -1.1240 3.3982
# 5 22.4681 7.9734 21.0793 -1.1240 47.0616 0.4328
# 6 -33.3828 0.8065 -16.1916 3.3982 0.4328 57.4244
#
#
#
# Elastic Compliance Matrix: (Units=1/GPa)
#
#
# Indices 1 2 3 4 5 6 
#
# 1 0.010825 -0.005714 -0.000563 -0.001553 -0.004043 0.006337
# 2 -0.005714 0.011508 -0.002705 -0.000089 0.002027 -0.004256
# 3 -0.000563 -0.002705 0.010606 -0.001621 -0.004088 0.002828
# 4 -0.001553 -0.000089 -0.001621 0.029893 0.002225 -0.003144
# 5 -0.004043 0.002027 -0.004088 0.002225 0.024755 -0.003850
# 6 0.006337 -0.004256 0.002828 -0.003144 -0.003850 0.022170
#
#
# Mechanical properties :
#
#
# Convention : Reuss Voigt Hill
#
# Bulk Modulus (GPa) = 66.78006 82.95694 74.86850
# Shear Modulus (GPa) = 37.67458 44.70399 41.18929
#
# Velocity S-wave (km/s) = 3.83288 4.17516 4.00768
# Velocity P-wave (km/s) = 6.75487 7.45595 7.11405
#
# Compressibility (1/GPa) = 0.01497453
#
# Stress axis : x y z
#
# Youngs Moduli (GPa) = 92.37634 86.89297 94.28238
#
# Poissons Ratio (x) = 0.49650 0.05313
# Poissons Ratio (y) = 0.52783 0.25507
# Poissons Ratio (z) = 0.05205 0.23508
#
# Static dielectric constant tensor:
#      x y z
#    x 2.054390 0.002970 0.030010 
#    y 0.002970 1.168030 0.147800 
#    z 0.030010 0.147800 1.977810 
# 
# From -- ./inp_files/186310.got.cif
#   From: 2010.05.17/outbox.cif.g08.bks.cpg/sg2_94_cif.got.tgz:186310.got - 2010.06.03 11:33:40.
