data_PCOD9064943
_publ_section_title
;
Structure prediction by ZEFSAII (Michael W. Deem and Ramdas Pophale) SiO2 
 PCOD9064943
Probable space group: P -1
;
_chemical_formula_sum "Si O2"
_cell_formula_units_Z 14
_cell_length_a 8.911489
_cell_length_b 13.926818
_cell_length_c 5.221527
_cell_angle_alpha 114.112474
_cell_angle_beta 74.451759
_cell_angle_gamma 103.473491
_cell_volume 564.199829
_symmetry_space_group_name_H-M "P -1"
_symmetry_group_IT_number 2
_symmetry_cell_setting 'triclinic'
loop_
_space_group_symop_operation_xyz
x,y,z
-x,-y,-z
loop_
_atom_site_type_symbol
_atom_site_label
_atom_site_fract_x
_atom_site_fract_y
_atom_site_fract_z
Si Si1 0.529177 0.700156 0.509477
Si Si2 0.368173 0.628150 0.009867
Si Si3 0.889161 0.548667 0.814724
Si Si4 0.836831 0.746202 0.749773
Si Si5 0.080612 0.726932 0.238651
Si Si6 0.541028 0.935826 0.664829
Si Si7 0.888285 0.903582 0.315816
O O1 0.500994 0.649752 0.188663
O O2 0.707885 0.724494 0.558542
O O3 0.466359 0.813537 0.622346
O O4 0.435914 0.626383 0.690877
O O5 0.245996 0.532348 0.076280
O O6 0.264695 0.725957 0.149356
O O7 0.808329 0.640830 0.816759
O O8 0.000000 0.500000 0.500000
O O9 0.001760 0.613466 0.042734
O O10 0.013673 0.743930 0.567302
O O11 0.831869 0.860445 0.008976
O O12 0.997919 0.812037 0.216231
O O13 0.723180 0.921999 0.532786
O O14 0.500000 0.000000 0.500000
O O15 0.500000 0.000000 0.000000
O O16 0.000000 0.000000 0.500000
#
# Coordination Sequence:
#
# PCOD9064943 Si02
#       7
#     2   2   2   2   2   2   2
#     4  12  28  49  71 112 157 193 252 313 386 450
#     4  12  27  45  77 112 151 201 258 309 364 466
#     4  11  24  46  76 114 153 204 257 312 384 439
#     4  11  25  49  75 106 160 201 245 320 385 449
#     4  11  25  46  77 105 156 199 252 318 376 449
#     4  12  27  50  76 104 150 200 242 315 389 449
#     4  11  27  48  76 112 144 195 259 315 381 457
#
# _framework density 24.813901999999999
#
# number of rings (size 3 to 8) (size 9 to 14) (size 15 to 20)
#    0.000    0.571    2.857    3.857   10.000    1.714 
#    0.000    0.000    0.000    0.000    0.000    0.000 
#    0.000    0.000    0.000    0.000    0.000    0.000 
#
# Total GULP energy -78122.524402 kJ/mol
# GULP energy per Si atom -5580.180314 kJ/mol
# Density = 2.475742 g / cm^3
# Si number density = 24.813902 Si / 1000 Ang^3
#
#
#
# Elastic Constant Matrix: (Units=GPa)
#
#
# Indices 1 2 3 4 5 6 
#
# 1 129.9601 16.4909 41.9649 -5.2888 8.3202 -11.0622
# 2 16.4909 82.1176 33.4645 -0.9837 22.3272 -13.2209
# 3 41.9649 33.4645 163.1069 3.0107 -6.7388 6.7237
# 4 -5.2888 -0.9837 3.0107 49.2961 2.8714 7.6455
# 5 8.3202 22.3272 -6.7388 2.8714 40.4090 -9.5379
# 6 -11.0622 -13.2209 6.7237 7.6455 -9.5379 32.0839
#
#
#
# Elastic Compliance Matrix: (Units=1/GPa)
#
#
# Indices 1 2 3 4 5 6 
#
# 1 0.008882 0.000206 -0.002535 0.000748 -0.001712 0.002991
# 2 0.000206 0.017122 -0.004159 0.000327 -0.008980 0.005251
# 3 -0.002535 -0.004159 0.007917 -0.000561 0.003452 -0.003087
# 4 0.000748 0.000327 -0.000561 0.021462 -0.003269 -0.005576
# 5 -0.001712 -0.008980 0.003452 -0.003269 0.032124 0.005315
# 6 0.002991 0.005251 -0.003087 -0.005576 0.005315 0.037919
#
#
# Mechanical properties :
#
#
# Convention : Reuss Voigt Hill
#
# Bulk Modulus (GPa) = 47.74851 62.11390 54.93121
# Shear Modulus (GPa) = 34.39151 43.24208 38.81679
#
# Velocity S-wave (km/s) = 3.72691 4.17904 3.95943
# Velocity P-wave (km/s) = 6.14851 6.95500 6.56416
#
# Compressibility (1/GPa) = 0.02094306
#
# Stress axis : x y z
#
# Youngs Moduli (GPa) = 112.58898 58.40306 126.31357
#
# Poissons Ratio (x) = -0.01200 0.32023
# Poissons Ratio (y) = -0.02314 0.52538
# Poissons Ratio (z) = 0.28543 0.24292
#
# Static dielectric constant tensor:
#      x y z
#    x 2.089700 -0.041580 0.274240 
#    y -0.041580 2.102450 -0.069760 
#    z 0.274240 -0.069760 2.377200 
# 
# From -- ./inp_files/40190.got.cif
#   From: 2010.05.17/outbox.cif.g08.bks.cpg/sg2_21_cif.got.tgz:40190.got - 2010.06.03 11:33:40.
