data_PCOD9064540
_publ_section_title
;
Structure prediction by ZEFSAII (Michael W. Deem and Ramdas Pophale) SiO2 
 PCOD9064540
Probable space group: P -1
;
_chemical_formula_sum "Si O2"
_cell_formula_units_Z 15
_cell_length_a 8.824353
_cell_length_b 9.813774
_cell_length_c 11.907797
_cell_angle_alpha 56.786259
_cell_angle_beta 129.671592
_cell_angle_gamma 121.062176
_cell_volume 641.552684
_symmetry_space_group_name_H-M "P -1"
_symmetry_group_IT_number 2
_symmetry_cell_setting 'triclinic'
loop_
_space_group_symop_operation_xyz
x,y,z
-x,-y,-z
loop_
_atom_site_type_symbol
_atom_site_label
_atom_site_fract_x
_atom_site_fract_y
_atom_site_fract_z
Si Si1 0.107859 0.044897 0.197641
Si Si2 0.000000 0.500000 0.500000
Si Si3 0.308286 0.104690 0.035870
Si Si4 0.534237 0.209441 0.746108
Si Si5 0.095753 0.476870 0.299031
Si Si6 0.169558 0.118059 0.447551
Si Si7 0.411887 0.404842 0.804598
Si Si8 0.858126 0.584171 0.969171
O O1 0.277192 0.066530 0.171206
O O2 0.163896 0.034117 0.359036
O O3 0.045579 0.218812 0.079204
O O4 0.911964 0.907454 0.121523
O O5 0.086451 0.467986 0.431446
O O6 0.215088 0.474522 0.670156
O O7 0.399579 0.954102 0.105118
O O8 0.427331 0.290241 0.972620
O O9 0.721135 0.363288 0.724574
O O10 0.384315 0.149567 0.597433
O O11 0.420563 0.281617 0.758756
O O12 0.124752 0.302438 0.340328
O O13 0.890745 0.513599 0.137586
O O14 0.000000 0.000000 0.500000
O O15 0.625781 0.546105 0.838813
O O16 0.000000 0.500000 0.000000
#
# Coordination Sequence:
#
# PCOD9064540 Si02
#       8
#     2   1   2   2   2   2   2   2
#     4  11  24  46  68 108 149 190 241 306 372 435
#     4  12  30  46  74 108 158 190 244 304 374 446
#     4  11  26  45  75 108 148 190 247 308 373 432
#     4  12  25  48  76 106 145 201 245 301 377 444
#     4  12  26  48  73 109 146 198 242 304 372 445
#     4  12  27  44  72 106 151 192 248 300 370 442
#     4  12  26  48  78 111 147 195 247 306 370 440
#     4  12  23  46  80 108 140 192 255 305 356 442
#
# _framework density 23.380773999999999
#
# number of rings (size 3 to 8) (size 9 to 14) (size 15 to 20)
#    0.000    0.267    5.333    2.400    5.600    2.667 
#    0.000    0.000    0.000    0.000    0.000    0.000 
#    0.000    0.000    0.000    0.000    0.000    0.000 
#
# Total GULP energy -83637.306378 kJ/mol
# GULP energy per Si atom -5575.820425 kJ/mol
# Density = 2.332756 g / cm^3
# Si number density = 23.380774 Si / 1000 Ang^3
#
#
#
# Elastic Constant Matrix: (Units=GPa)
#
#
# Indices 1 2 3 4 5 6 
#
# 1 109.0285 22.9304 37.5320 10.5087 -5.4618 -5.8484
# 2 22.9304 64.0167 16.0256 5.4301 4.6390 20.9458
# 3 37.5320 16.0256 117.3382 26.5055 -0.9834 10.1824
# 4 10.5087 5.4301 26.5055 30.4003 -14.7337 -3.1363
# 5 -5.4618 4.6390 -0.9834 -14.7337 51.8374 7.6843
# 6 -5.8484 20.9458 10.1824 -3.1363 7.6843 25.9067
#
#
#
# Elastic Compliance Matrix: (Units=1/GPa)
#
#
# Indices 1 2 3 4 5 6 
#
# 1 0.012557 -0.007002 -0.004473 0.002359 0.001018 0.010237
# 2 -0.007002 0.026192 0.002492 -0.007722 -0.001644 -0.024183
# 3 -0.004473 0.002492 0.013230 -0.012675 -0.002719 -0.008952
# 4 0.002359 -0.007722 -0.012675 0.052526 0.013538 0.014101
# 5 0.001018 -0.001644 -0.002719 0.013538 0.023754 -0.002779
# 6 0.010237 -0.024183 -0.008952 0.014101 -0.002779 0.066514
#
#
# Mechanical properties :
#
#
# Convention : Reuss Voigt Hill
#
# Bulk Modulus (GPa) = 29.40061 49.26216 39.33138
# Shear Modulus (GPa) = 22.31388 35.88857 29.10123
#
# Velocity S-wave (km/s) = 3.09264 3.92211 3.53181
# Velocity P-wave (km/s) = 5.03533 6.45181 5.78707
#
# Compressibility (1/GPa) = 0.03401290
#
# Stress axis : x y z
#
# Youngs Moduli (GPa) = 79.63718 38.17975 75.58511
#
# Poissons Ratio (x) = 0.26732 0.33810
# Poissons Ratio (y) = 0.55758 -0.18832
# Poissons Ratio (z) = 0.35622 -0.09513
#
# Static dielectric constant tensor:
#      x y z
#    x 1.893240 -0.032440 -0.058500 
#    y -0.032440 1.893830 0.028260 
#    z -0.058500 0.028260 1.897500 
# 
# From -- ./inp_files/185016.got.cif
#   From: 2010.05.17/outbox.cif.g08.bks.cpg/sg2_93_cif.got.tgz:185016.got - 2010.06.03 11:33:40.
