data_PCOD9064024
_publ_section_title
;
Structure prediction by ZEFSAII (Michael W. Deem and Ramdas Pophale) SiO2 
 PCOD9064024
Probable space group: P -1
;
_chemical_formula_sum "Si O2"
_cell_formula_units_Z 14
_cell_length_a 15.268064
_cell_length_b 5.036882
_cell_length_c 9.249430
_cell_angle_alpha 95.312262
_cell_angle_beta 59.325642
_cell_angle_gamma 106.804895
_cell_volume 584.356198
_symmetry_space_group_name_H-M "P -1"
_symmetry_group_IT_number 2
_symmetry_cell_setting 'triclinic'
loop_
_space_group_symop_operation_xyz
x,y,z
-x,-y,-z
loop_
_atom_site_type_symbol
_atom_site_label
_atom_site_fract_x
_atom_site_fract_y
_atom_site_fract_z
Si Si1 0.457539 0.018818 0.699382
Si Si2 0.816794 0.451764 0.478689
Si Si3 0.950893 0.052604 0.392211
Si Si4 0.634015 0.642907 0.000657
Si Si5 0.222465 0.738137 0.816909
Si Si6 0.855883 0.783779 0.971783
Si Si7 0.376131 0.876888 0.187936
O O1 0.339851 0.802260 0.791138
O O2 0.500000 0.000000 0.500000
O O3 0.547112 0.997178 0.736494
O O4 0.428946 0.294645 0.800934
O O5 0.916449 0.334318 0.423886
O O6 0.770003 0.330080 0.358784
O O7 0.731554 0.317479 0.663865
O O8 0.850117 0.782718 0.451344
O O9 0.037910 0.071675 0.195921
O O10 0.000000 0.000000 0.500000
O O11 0.756089 0.678899 0.942761
O O12 0.585148 0.346957 0.951246
O O13 0.640473 0.889798 0.893089
O O14 0.141316 0.483743 0.953247
O O15 0.178894 0.002211 0.884666
#
# Coordination Sequence:
#
# PCOD9064024 Si02
#       7
#     2   2   2   2   2   2   2
#     4  11  24  47  71 104 142 184 230 286 347 412
#     4  12  25  43  70 101 138 176 231 281 340 410
#     4  12  26  44  69 100 131 181 228 285 344 405
#     4  11  25  45  71 103 138 187 233 282 347 409
#     4  11  25  45  67 102 134 183 222 280 353 410
#     4  11  24  45  69  96 143 175 227 287 342 408
#     4  12  24  46  70 103 143 184 231 288 338 412
#
# _framework density 23.957991
#
# number of rings (size 3 to 8) (size 9 to 14) (size 15 to 20)
#    0.000    0.571    1.429    7.286    0.000    5.714 
#    0.000    7.143    0.000    0.000    0.000    0.000 
#    0.000    0.000    0.000    0.000    0.000    0.000 
#
# Total GULP energy -78414.429450 kJ/mol
# GULP energy per Si atom -5601.030675 kJ/mol
# Density = 2.390346 g / cm^3
# Si number density = 23.957991 Si / 1000 Ang^3
#
#
#
# Elastic Constant Matrix: (Units=GPa)
#
#
# Indices 1 2 3 4 5 6 
#
# 1 56.6417 12.9589 12.6027 8.4282 12.0115 -0.5936
# 2 12.9589 86.2559 26.7195 -6.4937 31.0301 6.5885
# 3 12.6027 26.7195 131.1479 3.9887 -0.0468 17.2154
# 4 8.4282 -6.4937 3.9887 37.7046 14.8788 6.4425
# 5 12.0115 31.0301 -0.0468 14.8788 38.4613 -4.2351
# 6 -0.5936 6.5885 17.2154 6.4425 -4.2351 29.6153
#
#
#
# Elastic Compliance Matrix: (Units=1/GPa)
#
#
# Indices 1 2 3 4 5 6 
#
# 1 0.019655 -0.001767 -0.001698 -0.003677 -0.003057 0.002137
# 2 -0.001767 0.025702 -0.004134 0.018510 -0.028613 -0.011468
# 3 -0.001698 -0.004134 0.009133 -0.002521 0.004496 -0.003232
# 4 -0.003677 0.018510 -0.002521 0.047292 -0.034052 -0.017884
# 5 -0.003057 -0.028613 0.004496 -0.034052 0.065471 0.020461
# 6 0.002137 -0.011468 -0.003232 -0.017884 0.020461 0.045056
#
#
# Mechanical properties :
#
#
# Convention : Reuss Voigt Hill
#
# Bulk Modulus (GPa) = 25.45181 42.06753 33.75967
# Shear Modulus (GPa) = 20.78094 35.94054 28.36074
#
# Velocity S-wave (km/s) = 2.94834 3.87738 3.44433
# Velocity P-wave (km/s) = 4.71560 6.13534 5.47171
#
# Compressibility (1/GPa) = 0.03928993
#
# Stress axis : x y z
#
# Youngs Moduli (GPa) = 50.87814 38.90689 109.49252
#
# Poissons Ratio (x) = 0.06876 0.18597
# Poissons Ratio (y) = 0.08991 0.45269
# Poissons Ratio (z) = 0.08642 0.16086
#
# Static dielectric constant tensor:
#      x y z
#    x 1.929760 0.025220 -0.012980 
#    y 0.025220 1.885400 0.022130 
#    z -0.012980 0.022130 1.884670 
# 
# From -- ./inp_files/288767.got.cif
#   From: 2010.05.17/outbox.cif.g08.bks.cpg/sg2_145_cif.got.tgz:288767.got - 2010.06.03 11:33:40.
