data_PCOD9064652
_publ_section_title
;
Structure prediction by ZEFSAII (Michael W. Deem and Ramdas Pophale) SiO2 
 PCOD9064652
Probable space group: P -1
;
_chemical_formula_sum "Si O2"
_cell_formula_units_Z 12
_cell_length_a 7.176290
_cell_length_b 14.321357
_cell_length_c 5.013229
_cell_angle_alpha 117.701889
_cell_angle_beta 104.591867
_cell_angle_gamma 71.949797
_cell_volume 430.146524
_symmetry_space_group_name_H-M "P -1"
_symmetry_group_IT_number 2
_symmetry_cell_setting 'triclinic'
loop_
_space_group_symop_operation_xyz
x,y,z
-x,-y,-z
loop_
_atom_site_type_symbol
_atom_site_label
_atom_site_fract_x
_atom_site_fract_y
_atom_site_fract_z
Si Si1 0.857110 0.779265 0.770792
Si Si2 0.573533 0.122830 0.386966
Si Si3 0.564335 0.357055 0.906925
Si Si4 0.079367 0.603815 0.253549
Si Si5 0.169562 0.913345 0.096343
Si Si6 0.693545 0.579197 0.595461
O O1 0.656884 0.871979 0.762564
O O2 0.937054 0.714413 0.443194
O O3 0.037978 0.826353 0.009144
O O4 0.799903 0.680646 0.784769
O O5 0.559360 0.232817 0.692058
O O6 0.677292 0.126631 0.143838
O O7 0.719301 0.047096 0.554310
O O8 0.396026 0.417700 0.724232
O O9 0.764530 0.370545 0.861720
O O10 0.480175 0.391102 0.211673
O O11 0.816138 0.458551 0.529271
O O12 0.000000 0.500000 0.000000
O O13 0.000000 0.000000 0.000000
#
# Coordination Sequence:
#
# PCOD9064652 Si02
#       6
#     2   2   2   2   2   2
#     4  11  27  49  76 113 156 199 252 314 370 450
#     4  11  25  49  76 112 150 192 249 308 384 446
#     4  11  24  46  71 103 151 198 244 305 357 434
#     4  12  25  43  70 111 152 202 252 298 364 441
#     4  12  28  51  82 111 146 194 247 317 391 451
#     4  11  25  44  69 104 148 202 247 296 360 425
#
# _framework density 27.897468
#
# number of rings (size 3 to 8) (size 9 to 14) (size 15 to 20)
#    0.000    0.667    1.667    6.000    2.333    6.667 
#    3.000    0.000    0.000    0.000    0.000    0.000 
#    0.000    0.000    0.000    0.000    0.000    0.000 
#
# Total GULP energy -67193.036116 kJ/mol
# GULP energy per Si atom -5599.419676 kJ/mol
# Density = 2.783397 g / cm^3
# Si number density = 27.897468 Si / 1000 Ang^3
#
#
#
# Elastic Constant Matrix: (Units=GPa)
#
#
# Indices 1 2 3 4 5 6 
#
# 1 170.2467 23.0979 40.4114 -10.8819 -0.1527 -3.2733
# 2 23.0979 95.7400 0.0083 -24.0738 -4.3685 -4.4312
# 3 40.4114 0.0083 105.5609 -31.4868 -0.6256 -2.0031
# 4 -10.8819 -24.0738 -31.4868 34.5309 -4.0891 4.4009
# 5 -0.1527 -4.3685 -0.6256 -4.0891 50.6743 -2.8011
# 6 -3.2733 -4.4312 -2.0031 4.4009 -2.8011 42.4894
#
#
#
# Elastic Compliance Matrix: (Units=1/GPa)
#
#
# Indices 1 2 3 4 5 6 
#
# 1 0.006834 -0.002321 -0.003407 -0.002668 -0.000416 0.000373
# 2 -0.002321 0.014828 0.005292 0.014699 0.002537 0.000262
# 3 -0.003407 0.005292 0.016006 0.017532 0.002023 -0.000639
# 4 -0.002668 0.014699 0.017532 0.055445 0.005772 -0.003208
# 5 -0.000416 0.002537 0.002023 0.005772 0.020502 0.001082
# 6 0.000373 0.000262 -0.000639 -0.003208 0.001082 0.023965
#
#
# Mechanical properties :
#
#
# Convention : Reuss Voigt Hill
#
# Bulk Modulus (GPa) = 27.17724 55.39811 41.28767
# Shear Modulus (GPa) = 33.17438 46.07423 39.62431
#
# Velocity S-wave (km/s) = 3.45215 4.06834 3.77285
# Velocity P-wave (km/s) = 5.06486 6.47838 5.81473
#
# Compressibility (1/GPa) = 0.03679549
#
# Stress axis : x y z
#
# Youngs Moduli (GPa) = 146.33241 67.43825 62.47468
#
# Poissons Ratio (x) = 0.15653 0.21287
# Poissons Ratio (y) = 0.33965 -0.33060
# Poissons Ratio (z) = 0.49859 -0.35687
#
# Static dielectric constant tensor:
#      x y z
#    x 2.475720 -0.174230 0.291350 
#    y -0.174230 2.426950 -0.075030 
#    z 0.291350 -0.075030 2.259690 
# 
# From -- ./inp_files/11617.got.cif
#   From: 2010.05.17/outbox.cif.g08.bks.cpg/sg2_6_cif.got.tgz:11617.got - 2010.06.03 11:33:40.
