data_PCOD9064391
_publ_section_title
;
Structure prediction by ZEFSAII (Michael W. Deem and Ramdas Pophale) SiO2 
 PCOD9064391
Probable space group: P -1
;
_chemical_formula_sum "Si O2"
_cell_formula_units_Z 16
_cell_length_a 12.562967
_cell_length_b 12.597508
_cell_length_c 11.417499
_cell_angle_alpha 122.291376
_cell_angle_beta 116.859815
_cell_angle_gamma 25.863383
_cell_volume 664.284879
_symmetry_space_group_name_H-M "P -1"
_symmetry_group_IT_number 2
_symmetry_cell_setting 'triclinic'
loop_
_space_group_symop_operation_xyz
x,y,z
-x,-y,-z
loop_
_atom_site_type_symbol
_atom_site_label
_atom_site_fract_x
_atom_site_fract_y
_atom_site_fract_z
Si Si1 0.477720 0.775069 0.618279
Si Si2 0.701351 0.710697 0.904200
Si Si3 0.562057 0.935111 0.354092
Si Si4 0.114714 0.755665 0.929308
Si Si5 0.948987 0.986210 0.343460
Si Si6 0.280408 0.626652 0.689999
Si Si7 0.069346 0.335719 0.185771
Si Si8 0.627932 0.530661 0.883100
O O1 0.663408 0.663105 0.738650
O O2 0.588592 0.578307 0.462018
O O3 0.365281 0.994837 0.620704
O O4 0.292724 0.870081 0.664430
O O5 0.915970 0.604713 0.897743
O O6 0.635919 0.672000 0.952093
O O7 0.500000 0.000000 0.000000
O O8 0.804229 0.625710 0.274756
O O9 0.500000 0.000000 0.500000
O O10 0.307404 0.139376 0.274561
O O11 0.215947 0.620565 0.774352
O O12 0.933332 0.813157 0.917466
O O13 0.325176 0.556034 0.012649
O O14 0.000000 0.000000 0.000000
O O15 0.141413 0.716738 0.227636
O O16 0.956681 0.097933 0.326375
O O17 0.000000 0.000000 0.500000
O O18 0.421238 0.626255 0.790810
#
# Coordination Sequence:
#
# PCOD9064391 Si02
#       8
#     2   2   2   2   2   2   2   2
#     4  11  24  45  74 110 152 194 258 328 396 461
#     4  11  27  48  81 111 155 208 264 332 396 478
#     4  11  25  49  79 111 153 209 260 331 399 481
#     4  12  29  48  75 112 155 209 261 322 399 478
#     4  12  23  42  74 111 149 192 254 323 395 459
#     4  12  25  48  71 112 153 197 260 320 388 479
#     4  11  28  50  75 115 156 204 274 322 401 476
#     4  12  26  47  78 107 154 207 257 323 396 473
#
# _framework density 24.086051000000001
#
# number of rings (size 3 to 8) (size 9 to 14) (size 15 to 20)
#    0.000    0.500    3.750    3.375    7.000    5.500 
#    0.000    0.000    0.000    0.000    0.000    0.000 
#    0.000    0.000    0.000    0.000    0.000    0.000 
#
# Total GULP energy -89288.074184 kJ/mol
# GULP energy per Si atom -5580.504637 kJ/mol
# Density = 2.403123 g / cm^3
# Si number density = 24.086051 Si / 1000 Ang^3
#
#
#
# Elastic Constant Matrix: (Units=GPa)
#
#
# Indices 1 2 3 4 5 6 
#
# 1 139.6198 26.7518 15.8668 -3.0779 1.0984 34.1523
# 2 26.7518 78.5857 23.3498 11.2936 2.6515 31.6248
# 3 15.8668 23.3498 57.0808 -2.0213 -17.8056 9.4210
# 4 -3.0779 11.2936 -2.0213 45.6904 3.5355 -5.7179
# 5 1.0984 2.6515 -17.8056 3.5355 52.5359 -2.5944
# 6 34.1523 31.6248 9.4210 -5.7179 -2.5944 52.3407
#
#
#
# Elastic Compliance Matrix: (Units=1/GPa)
#
#
# Indices 1 2 3 4 5 6 
#
# 1 0.008708 -0.000306 -0.001749 0.000009 -0.001018 -0.005231
# 2 -0.000306 0.021211 -0.008063 -0.006831 -0.003935 -0.012106
# 3 -0.001749 -0.008063 0.023606 0.002578 0.008392 0.002462
# 4 0.000009 -0.006831 0.002578 0.024490 -0.000117 0.006327
# 5 -0.001018 -0.003935 0.008392 -0.000117 0.022236 0.002621
# 6 -0.005231 -0.012106 0.002462 0.006327 0.002621 0.030212
#
#
# Mechanical properties :
#
#
# Convention : Reuss Voigt Hill
#
# Bulk Modulus (GPa) = 30.04029 45.24702 37.64365
# Shear Modulus (GPa) = 30.90308 44.06791 37.48550
#
# Velocity S-wave (km/s) = 3.58582 4.28203 3.94930
# Velocity P-wave (km/s) = 5.44457 6.57830 6.03810
#
# Compressibility (1/GPa) = 0.03328863
#
# Stress axis : x y z
#
# Youngs Moduli (GPa) = 114.84213 47.14501 42.36141
#
# Poissons Ratio (x) = 0.01444 0.07410
# Poissons Ratio (y) = 0.03517 0.34156
# Poissons Ratio (z) = 0.20087 0.38013
#
# Static dielectric constant tensor:
#      x y z
#    x 2.123130 -0.090960 0.054010 
#    y -0.090960 2.077530 -0.022330 
#    z 0.054010 -0.022330 1.925470 
# 
# From -- ./inp_files/428756.got.cif
#   From: 2010.05.17/outbox.cif.g08.bks.cpg/sg2_215_cif.got.tgz:428756.got - 2010.06.03 11:33:40.
