data_PCOD9064959
_publ_section_title
;
Structure prediction by ZEFSAII (Michael W. Deem and Ramdas Pophale) SiO2 
 PCOD9064959
Probable space group: P -1
;
_chemical_formula_sum "Si O2"
_cell_formula_units_Z 12
_cell_length_a 9.596927
_cell_length_b 9.639622
_cell_length_c 9.018752
_cell_angle_alpha 47.313921
_cell_angle_beta 65.717592
_cell_angle_gamma 67.806152
_cell_volume 552.913715
_symmetry_space_group_name_H-M "P -1"
_symmetry_group_IT_number 2
_symmetry_cell_setting 'triclinic'
loop_
_space_group_symop_operation_xyz
x,y,z
-x,-y,-z
loop_
_atom_site_type_symbol
_atom_site_label
_atom_site_fract_x
_atom_site_fract_y
_atom_site_fract_z
Si Si1 0.088516 0.507322 0.609171
Si Si2 0.266097 0.923010 0.004345
Si Si3 0.968242 0.186963 0.063304
Si Si4 0.408039 0.507984 0.379945
Si Si5 0.482921 0.893424 0.429985
Si Si6 0.851433 0.155766 0.452164
O O1 0.257343 0.416610 0.554170
O O2 0.119706 0.699138 0.536440
O O3 0.000000 0.500000 0.500000
O O4 0.008944 0.385844 0.845680
O O5 0.351901 0.718429 0.182753
O O6 0.136476 0.045583 0.082072
O O7 0.151572 0.885387 0.947079
O O8 0.400002 0.031401 0.795782
O O9 0.873867 0.232954 0.221869
O O10 0.500000 0.500000 0.500000
O O11 0.496825 0.334058 0.373060
O O12 0.310337 0.924579 0.413944
O O13 0.500000 0.000000 0.500000
O O14 0.000000 0.000000 0.500000
#
# Coordination Sequence:
#
# PCOD9064959 Si02
#       6
#     2   2   2   2   2   2
#     4  12  25  47  77 107 151 199 244 306 370 444
#     4  11  25  46  80 109 144 203 246 299 376 445
#     4  11  24  46  77 110 148 195 253 299 368 443
#     4  12  26  47  72 109 148 194 250 301 370 442
#     4  12  27  48  74 107 151 192 245 313 369 436
#     4  12  28  47  72 113 148 192 252 309 367 439
#
# _framework density 21.703205000000001
#
# number of rings (size 3 to 8) (size 9 to 14) (size 15 to 20)
#    0.000    0.333    6.667    1.500    4.667    2.667 
#    3.000    0.000    0.000    0.000    0.000    0.000 
#    0.000    0.000    0.000    0.000    0.000    0.000 
#
# Total GULP energy -66833.533716 kJ/mol
# GULP energy per Si atom -5569.461143 kJ/mol
# Density = 2.165381 g / cm^3
# Si number density = 21.703205 Si / 1000 Ang^3
#
#
#
# Elastic Constant Matrix: (Units=GPa)
#
#
# Indices 1 2 3 4 5 6 
#
# 1 196.7478 53.7717 58.2736 -7.3548 -15.8235 0.9808
# 2 53.7717 129.6421 35.4108 -11.0045 15.3964 11.7171
# 3 58.2736 35.4108 130.9929 -8.0613 -15.5995 -7.9626
# 4 -7.3548 -11.0045 -8.0613 29.6654 -3.4252 2.9039
# 5 -15.8235 15.3964 -15.5995 -3.4252 40.7947 5.3502
# 6 0.9808 11.7171 -7.9626 2.9039 5.3502 41.6924
#
#
#
# Elastic Compliance Matrix: (Units=1/GPa)
#
#
# Indices 1 2 3 4 5 6 
#
# 1 0.006571 -0.002478 -0.001896 0.000544 0.002834 -0.000222
# 2 -0.002478 0.010467 -0.002384 0.002289 -0.005261 -0.002823
# 3 -0.001896 -0.002384 0.009788 0.001546 0.003776 0.001992
# 4 0.000544 0.002289 0.001546 0.035825 0.003377 -0.003290
# 5 0.002834 -0.005261 0.003776 0.003377 0.029574 -0.001897
# 6 -0.000222 -0.002823 0.001992 -0.003290 -0.001897 0.025637
#
#
# Mechanical properties :
#
#
# Convention : Reuss Voigt Hill
#
# Bulk Modulus (GPa) = 75.13536 83.58833 79.36184
# Shear Modulus (GPa) = 36.81515 43.09229 39.95372
#
# Velocity S-wave (km/s) = 4.12308 4.46076 4.29524
# Velocity P-wave (km/s) = 7.57371 8.07026 7.82592
#
# Compressibility (1/GPa) = 0.01330931
#
# Stress axis : x y z
#
# Youngs Moduli (GPa) = 152.19145 95.54033 102.16793
#
# Poissons Ratio (x) = 0.23673 0.19369
# Poissons Ratio (y) = 0.37711 0.24360
# Poissons Ratio (z) = 0.28852 0.22780
#
# Static dielectric constant tensor:
#      x y z
#    x 1.851360 -0.119860 0.050990 
#    y -0.119860 1.609340 -0.058380 
#    z 0.050990 -0.058380 1.925450 
# 
# From -- ./inp_files/156380.got.cif
#   From: 2010.05.17/outbox.cif.g08.bks.cpg/sg2_79_cif.got.tgz:156380.got - 2010.06.03 11:33:40.
