data_PCOD9064325
_publ_section_title
;
Structure prediction by ZEFSAII (Michael W. Deem and Ramdas Pophale) SiO2 
 PCOD9064325
Probable space group: P -1
;
_chemical_formula_sum "Si O2"
_cell_formula_units_Z 16
_cell_length_a 9.046843
_cell_length_b 11.498983
_cell_length_c 9.156472
_cell_angle_alpha 122.222682
_cell_angle_beta 117.152635
_cell_angle_gamma 73.170682
_cell_volume 715.675836
_symmetry_space_group_name_H-M "P -1"
_symmetry_group_IT_number 2
_symmetry_cell_setting 'triclinic'
loop_
_space_group_symop_operation_xyz
x,y,z
-x,-y,-z
loop_
_atom_site_type_symbol
_atom_site_label
_atom_site_fract_x
_atom_site_fract_y
_atom_site_fract_z
Si Si1 0.410063 0.822580 0.538415
Si Si2 0.137935 0.610385 0.242524
Si Si3 0.698119 0.732107 0.416452
Si Si4 0.753059 0.631053 0.062958
Si Si5 0.010889 0.126408 0.978958
Si Si6 0.079783 0.405104 0.343988
Si Si7 0.857408 0.991220 0.550917
Si Si8 0.389658 0.142759 0.065093
O O1 0.256288 0.727003 0.417798
O O2 0.519787 0.799425 0.427008
O O3 0.317558 0.973068 0.584812
O O4 0.522163 0.798810 0.714340
O O5 0.117690 0.501768 0.290812
O O6 0.948900 0.665982 0.158909
O O7 0.232074 0.522010 0.098355
O O8 0.700479 0.637420 0.211671
O O9 0.759391 0.656419 0.539734
O O10 0.833462 0.843493 0.513574
O O11 0.634356 0.740837 0.993490
O O12 0.987086 0.274513 0.148919
O O13 0.200041 0.114775 0.998624
O O14 0.890560 0.095562 0.768609
O O15 0.000000 0.000000 0.000000
O O16 0.000000 0.500000 0.500000
O O17 0.000000 0.000000 0.500000
O O18 0.500000 0.000000 0.000000
#
# Coordination Sequence:
#
# PCOD9064325 Si02
#       8
#     2   2   2   2   2   2   2   2
#     4  12  26  44  70 104 146 186 232 301 369 424
#     4  11  25  46  75 100 138 198 238 296 365 436
#     4  12  24  45  69 108 144 184 237 309 357 425
#     4  11  24  45  73  98 141 183 249 287 357 434
#     4  12  24  47  72 104 140 188 245 297 352 431
#     4  12  25  45  75 105 144 188 245 300 358 432
#     4  12  26  44  76 105 142 191 249 289 361 434
#     4  12  25  44  68 103 141 187 230 298 363 426
#
# _framework density 22.356491999999999
#
# number of rings (size 3 to 8) (size 9 to 14) (size 15 to 20)
#    0.000    0.250    5.000    4.125    1.750    4.500 
#    0.000    0.000    0.000    0.000    0.000    0.000 
#    0.000    0.000    0.000    0.000    0.000    0.000 
#
# Total GULP energy -89424.725371 kJ/mol
# GULP energy per Si atom -5589.045336 kJ/mol
# Density = 2.230561 g / cm^3
# Si number density = 22.356492 Si / 1000 Ang^3
#
#
#
# Elastic Constant Matrix: (Units=GPa)
#
#
# Indices 1 2 3 4 5 6 
#
# 1 54.3053 22.8595 13.3524 -2.8981 -12.1519 -16.1475
# 2 22.8595 98.6453 39.2526 -18.1432 -10.1107 -10.8397
# 3 13.3524 39.2526 116.3392 -13.6354 -25.6185 -9.0663
# 4 -2.8981 -18.1432 -13.6354 47.4675 -8.8377 -0.2371
# 5 -12.1519 -10.1107 -25.6185 -8.8377 33.3226 3.0611
# 6 -16.1475 -10.8397 -9.0663 -0.2371 3.0611 43.6902
#
#
#
# Elastic Compliance Matrix: (Units=1/GPa)
#
#
# Indices 1 2 3 4 5 6 
#
# 1 0.024008 -0.004034 0.001236 0.001858 0.008280 0.007559
# 2 -0.004034 0.013351 -0.003231 0.004138 0.001093 0.001097
# 3 0.001236 -0.003231 0.012354 0.004250 0.009954 0.001544
# 4 0.001858 0.004138 0.004250 0.026223 0.011981 0.001898
# 5 0.008280 0.001093 0.009954 0.011981 0.043972 0.002381
# 6 0.007559 0.001097 0.001544 0.001898 0.002381 0.026118
#
#
# Mechanical properties :
#
#
# Convention : Reuss Voigt Hill
#
# Bulk Modulus (GPa) = 26.55667 46.69097 36.62382
# Shear Modulus (GPa) = 29.30197 37.81774 33.55985
#
# Velocity S-wave (km/s) = 3.62424 4.11734 3.87864
# Velocity P-wave (km/s) = 5.42384 6.59799 6.03951
#
# Compressibility (1/GPa) = 0.03765532
#
# Stress axis : x y z
#
# Youngs Moduli (GPa) = 41.65246 74.89908 80.94478
#
# Poissons Ratio (x) = 0.30216 -0.10003
# Poissons Ratio (y) = 0.16804 0.26150
# Poissons Ratio (z) = -0.05147 0.24197
#
# Static dielectric constant tensor:
#      x y z
#    x 1.829450 -0.054300 -0.024610 
#    y -0.054300 1.900740 0.027950 
#    z -0.024610 0.027950 1.857450 
# 
# From -- ./inp_files/190362.got.cif
#   From: 2010.05.17/outbox.cif.g08.bks.cpg/sg2_96_cif.got.tgz:190362.got - 2010.06.03 11:33:40.
