data_PCOD9064147
_publ_section_title
;
Structure prediction by ZEFSAII (Michael W. Deem and Ramdas Pophale) SiO2 
 PCOD9064147
Probable space group: P -1
;
_chemical_formula_sum "Si O2"
_cell_formula_units_Z 16
_cell_length_a 8.071819
_cell_length_b 18.372514
_cell_length_c 11.259736
_cell_angle_alpha 132.967441
_cell_angle_beta 144.511325
_cell_angle_gamma 54.957992
_cell_volume 708.622228
_symmetry_space_group_name_H-M "P -1"
_symmetry_group_IT_number 2
_symmetry_cell_setting 'triclinic'
loop_
_space_group_symop_operation_xyz
x,y,z
-x,-y,-z
loop_
_atom_site_type_symbol
_atom_site_label
_atom_site_fract_x
_atom_site_fract_y
_atom_site_fract_z
Si Si1 0.433641 0.253489 0.415016
Si Si2 0.741991 0.561820 0.358358
Si Si3 0.272601 0.431777 0.923471
Si Si4 0.980142 0.834847 0.321522
Si Si5 0.011153 0.908418 0.995255
Si Si6 0.838265 0.999750 0.225969
Si Si7 0.411066 0.728662 0.926952
Si Si8 0.646273 0.388786 0.481211
O O1 0.244116 0.325889 0.468196
O O2 0.276074 0.150207 0.209027
O O3 0.473292 0.314145 0.382104
O O4 0.742815 0.230981 0.627154
O O5 0.754842 0.550867 0.213356
O O6 0.000000 0.500000 0.500000
O O7 0.429702 0.525256 0.174147
O O8 0.953083 0.405354 0.740405
O O9 0.503391 0.344359 0.995264
O O10 0.078070 0.891223 0.560761
O O11 0.893458 0.920824 0.274675
O O12 0.712169 0.769914 0.109549
O O13 0.225585 0.823593 0.972203
O O14 0.051353 0.962062 0.204186
O O15 0.000000 0.000000 0.000000
O O16 0.500000 0.000000 0.000000
O O17 0.311637 0.666274 0.684041
O O18 0.500000 0.500000 0.500000
#
# Coordination Sequence:
#
# PCOD9064147 Si02
#       8
#     2   2   2   2   2   2   2   2
#     4  12  25  46  74 107 143 199 245 300 370 435
#     4  11  25  46  72 105 152 190 245 305 375 438
#     4  11  24  45  71 106 147 194 241 306 367 443
#     4  11  26  44  75 104 141 192 246 301 362 447
#     4  12  28  46  78 106 150 195 240 309 373 437
#     4  11  24  49  72 101 144 186 244 304 367 430
#     4  12  27  46  71 110 147 190 247 302 371 438
#     4  12  27  47  76 107 153 196 250 306 362 440
#
# _framework density 22.579027
#
# number of rings (size 3 to 8) (size 9 to 14) (size 15 to 20)
#    0.000    0.500    2.500    5.250    7.000    3.500 
#    0.000    0.000    0.000    0.000    0.000    0.000 
#    0.000    0.000    0.000    0.000    0.000    0.000 
#
# Total GULP energy -89397.852106 kJ/mol
# GULP energy per Si atom -5587.365757 kJ/mol
# Density = 2.252764 g / cm^3
# Si number density = 22.579027 Si / 1000 Ang^3
#
#
#
# Elastic Constant Matrix: (Units=GPa)
#
#
# Indices 1 2 3 4 5 6 
#
# 1 72.7688 24.6407 25.3463 -4.4820 -0.7190 -2.1367
# 2 24.6407 138.7466 38.5689 -8.6067 -0.9261 -6.6649
# 3 25.3463 38.5689 94.4858 -0.1012 1.8654 2.1769
# 4 -4.4820 -8.6067 -0.1012 36.9683 2.3104 2.7102
# 5 -0.7190 -0.9261 1.8654 2.3104 35.7264 5.6981
# 6 -2.1367 -6.6649 2.1769 2.7102 5.6981 51.5682
#
#
#
# Elastic Compliance Matrix: (Units=1/GPa)
#
#
# Indices 1 2 3 4 5 6 
#
# 1 0.015646 -0.001685 -0.003524 0.001442 0.000287 0.000472
# 2 -0.001685 0.008509 -0.003046 0.001686 0.000067 0.001062
# 3 -0.003524 -0.003046 0.012805 -0.000993 -0.000601 -0.000962
# 4 0.001442 0.001686 -0.000993 0.027781 -0.001517 -0.000973
# 5 0.000287 0.000067 -0.000601 -0.001517 0.028612 -0.003036
# 6 0.000472 0.001062 -0.000962 -0.000973 -0.003036 0.019976
#
#
# Mechanical properties :
#
#
# Convention : Reuss Voigt Hill
#
# Bulk Modulus (GPa) = 48.89764 53.67923 51.28844
# Shear Modulus (GPa) = 36.58847 39.34892 37.96870
#
# Velocity S-wave (km/s) = 4.02986 4.17912 4.10517
# Velocity P-wave (km/s) = 6.58455 6.86384 6.72564
#
# Compressibility (1/GPa) = 0.02045088
#
# Stress axis : x y z
#
# Youngs Moduli (GPa) = 63.91503 117.51849 78.09369
#
# Poissons Ratio (x) = 0.19800 0.27522
# Poissons Ratio (y) = 0.10769 0.23783
# Poissons Ratio (z) = 0.22525 0.35790
#
# Static dielectric constant tensor:
#      x y z
#    x 1.885120 0.059930 0.049120 
#    y 0.059930 1.896170 0.075660 
#    z 0.049120 0.075660 1.907440 
# 
# From -- ./inp_files/403298.got.cif
#   From: 2010.05.17/outbox.cif.g08.bks.cpg/sg2_202_cif.got.tgz:403298.got - 2010.06.03 11:33:40.
