data_PCOD9064683
_publ_section_title
;
Structure prediction by ZEFSAII (Michael W. Deem and Ramdas Pophale) SiO2 
 PCOD9064683
Probable space group: P -1
;
_chemical_formula_sum "Si O2"
_cell_formula_units_Z 14
_cell_length_a 11.905294
_cell_length_b 9.559893
_cell_length_c 8.562524
_cell_angle_alpha 111.392198
_cell_angle_beta 75.589563
_cell_angle_gamma 52.219394
_cell_volume 549.959594
_symmetry_space_group_name_H-M "P -1"
_symmetry_group_IT_number 2
_symmetry_cell_setting 'triclinic'
loop_
_space_group_symop_operation_xyz
x,y,z
-x,-y,-z
loop_
_atom_site_type_symbol
_atom_site_label
_atom_site_fract_x
_atom_site_fract_y
_atom_site_fract_z
Si Si1 0.219149 0.945277 0.451509
Si Si2 0.686094 0.429725 0.583458
Si Si3 0.290831 0.754895 0.003546
Si Si4 0.512935 0.767975 0.521336
Si Si5 0.131316 0.495327 0.265354
Si Si6 0.826266 0.855265 0.988080
Si Si7 0.192909 0.503609 0.906197
O O1 0.170071 0.847971 0.535861
O O2 0.275756 0.824958 0.215003
O O3 0.381900 0.854114 0.458976
O O4 0.060148 0.226602 0.590387
O O5 0.625166 0.516542 0.462306
O O6 0.763194 0.510202 0.648992
O O7 0.501014 0.573678 0.800907
O O8 0.233650 0.639993 0.962167
O O9 0.168610 0.989242 0.034347
O O10 0.673382 0.701257 0.356253
O O11 0.374099 0.958011 0.783529
O O12 0.131679 0.317754 0.222477
O O13 0.229512 0.404398 0.024453
O O14 0.984643 0.687419 0.995772
#
# Coordination Sequence:
#
# PCOD9064683 Si02
#       7
#     2   2   2   2   2   2   2
#     4  12  23  44  71 108 138 188 234 295 347 421
#     4  11  24  46  71 110 140 185 241 298 351 421
#     4  11  25  44  76 103 143 184 246 290 353 421
#     4  11  26  44  76 103 145 182 240 295 356 410
#     4  12  27  46  73 102 154 184 235 292 360 425
#     4  11  28  49  66 111 147 188 233 294 357 427
#     4  12  24  46  74 107 136 191 238 295 346 423
#
# _framework density 25.456413999999999
#
# number of rings (size 3 to 8) (size 9 to 14) (size 15 to 20)
#    0.000    0.571    4.286    3.000    4.000    3.429 
#    2.571    0.000    0.000    0.000    0.000    0.000 
#    0.000    0.000    0.000    0.000    0.000    0.000 
#
# Total GULP energy -78436.841982 kJ/mol
# GULP energy per Si atom -5602.631570 kJ/mol
# Density = 2.539847 g / cm^3
# Si number density = 25.456414 Si / 1000 Ang^3
#
#
#
# Elastic Constant Matrix: (Units=GPa)
#
#
# Indices 1 2 3 4 5 6 
#
# 1 72.8385 29.6414 -4.5933 20.3604 10.7319 -3.1123
# 2 29.6414 85.6237 32.4981 7.4814 9.1203 -2.9336
# 3 -4.5933 32.4981 87.8926 1.7264 -1.2090 -8.9015
# 4 20.3604 7.4814 1.7264 33.3483 5.7278 13.1382
# 5 10.7319 9.1203 -1.2090 5.7278 25.7928 5.2806
# 6 -3.1123 -2.9336 -8.9015 13.1382 5.2806 41.3752
#
#
#
# Elastic Compliance Matrix: (Units=1/GPa)
#
#
# Indices 1 2 3 4 5 6 
#
# 1 0.022007 -0.007496 0.004866 -0.014057 -0.004636 0.007226
# 2 -0.007496 0.017037 -0.006889 0.002131 -0.003482 -0.001070
# 3 0.004866 -0.006889 0.014696 -0.004026 0.001140 0.004172
# 4 -0.014057 0.002131 -0.004026 0.044826 -0.001818 -0.015774
# 5 -0.004636 -0.003482 0.001140 -0.001818 0.043478 -0.005322
# 6 0.007226 -0.001070 0.004172 -0.015774 -0.005322 0.031223
#
#
# Mechanical properties :
#
#
# Convention : Reuss Voigt Hill
#
# Bulk Modulus (GPa) = 28.81641 40.16081 34.48861
# Shear Modulus (GPa) = 24.52510 32.69049 28.60779
#
# Velocity S-wave (km/s) = 3.10726 3.58743 3.35594
# Velocity P-wave (km/s) = 4.92117 5.74196 5.34733
#
# Compressibility (1/GPa) = 0.03470245
#
# Stress axis : x y z
#
# Youngs Moduli (GPa) = 45.43909 58.69673 68.04408
#
# Poissons Ratio (x) = 0.43997 -0.33109
# Poissons Ratio (y) = 0.34060 0.46877
# Poissons Ratio (z) = -0.22110 0.40437
#
# Static dielectric constant tensor:
#      x y z
#    x 1.975550 0.059710 -0.034070 
#    y 0.059710 2.034660 0.054110 
#    z -0.034070 0.054110 2.056590 
# 
# From -- ./inp_files/244948.got.cif
#   From: 2010.05.17/outbox.cif.g08.bks.cpg/sg2_123_cif.got.tgz:244948.got - 2010.06.03 11:33:40.
