data_PCOD9064890
_publ_section_title
;
Structure prediction by ZEFSAII (Michael W. Deem and Ramdas Pophale) SiO2 
 PCOD9064890
Probable space group: P -1
;
_chemical_formula_sum "Si O2"
_cell_formula_units_Z 16
_cell_length_a 15.586691
_cell_length_b 7.815022
_cell_length_c 16.565014
_cell_angle_alpha 48.504493
_cell_angle_beta 35.837047
_cell_angle_gamma 35.229413
_cell_volume 681.480491
_symmetry_space_group_name_H-M "P -1"
_symmetry_group_IT_number 2
_symmetry_cell_setting 'triclinic'
loop_
_space_group_symop_operation_xyz
x,y,z
-x,-y,-z
loop_
_atom_site_type_symbol
_atom_site_label
_atom_site_fract_x
_atom_site_fract_y
_atom_site_fract_z
Si Si1 0.425982 0.870212 0.716494
Si Si2 0.092719 0.191515 0.986173
Si Si3 0.894226 0.231979 0.386430
Si Si4 0.204847 0.749364 0.725599
Si Si5 0.348496 0.796302 0.197776
Si Si6 0.592882 0.138388 0.685292
Si Si7 0.726758 0.841815 0.422870
Si Si8 0.441085 0.818714 0.948832
O O1 0.531575 0.557926 0.776979
O O2 0.579355 0.919385 0.581021
O O3 0.218782 0.102348 0.839844
O O4 0.385694 0.905173 0.640147
O O5 0.240959 0.989511 0.005138
O O6 0.000000 0.500000 0.000000
O O7 0.921097 0.186857 0.119216
O O8 0.855357 0.302954 0.297996
O O9 0.776323 0.114974 0.531379
O O10 0.818669 0.524523 0.408653
O O11 0.120167 0.983645 0.307861
O O12 0.414403 0.438877 0.682646
O O13 0.158676 0.065718 0.653446
O O14 0.405794 0.840826 0.225608
O O15 0.409691 0.888014 0.046399
O O16 0.557984 0.896735 0.786168
O O17 0.500000 0.500000 0.000000
#
# Coordination Sequence:
#
# PCOD9064890 Si02
#       8
#     2   2   2   2   2   2   2   2
#     4  11  24  46  75 106 157 192 242 324 373 442
#     4  12  25  47  74 109 151 198 255 316 369 448
#     4  12  27  48  81 114 154 194 255 320 376 453
#     4  12  26  47  79 116 147 202 259 309 381 450
#     4  12  25  51  71 108 156 198 242 318 380 442
#     4  12  26  48  76 106 150 205 248 302 392 444
#     4  11  25  48  78 114 149 196 257 310 376 454
#     4  12  27  46  73 107 150 197 253 311 374 451
#
# _framework density 23.478296
#
# number of rings (size 3 to 8) (size 9 to 14) (size 15 to 20)
#    0.000    0.250    6.250    2.625    1.750    1.500 
#    2.250    1.250    0.000    0.000    0.000    0.000 
#    0.000    0.000    0.000    0.000    0.000    0.000 
#
# Total GULP energy -89101.875097 kJ/mol
# GULP energy per Si atom -5568.867194 kJ/mol
# Density = 2.342486 g / cm^3
# Si number density = 23.478296 Si / 1000 Ang^3
#
#
#
# Elastic Constant Matrix: (Units=GPa)
#
#
# Indices 1 2 3 4 5 6 
#
# 1 122.0724 31.5529 -23.9549 -39.1152 35.1537 47.8695
# 2 31.5529 122.9494 42.5867 -2.1916 -17.2376 6.2119
# 3 -23.9549 42.5867 194.3440 29.2967 -17.7417 -7.5801
# 4 -39.1152 -2.1916 29.2967 67.7448 -18.2973 -38.8114
# 5 35.1537 -17.2376 -17.7417 -18.2973 59.3050 8.3556
# 6 47.8695 6.2119 -7.5801 -38.8114 8.3556 83.2416
#
#
#
# Elastic Compliance Matrix: (Units=1/GPa)
#
#
# Indices 1 2 3 4 5 6 
#
# 1 0.015787 -0.005549 0.001800 0.001904 -0.008898 -0.006720
# 2 -0.005549 0.011217 -0.002692 0.001037 0.005781 0.002012
# 3 0.001800 -0.002692 0.006261 -0.002783 -0.000624 -0.001499
# 4 0.001904 0.001037 -0.002783 0.023462 0.004299 0.009082
# 5 -0.008898 0.005781 -0.000624 0.004299 0.024367 0.004188
# 6 -0.006720 0.002012 -0.001499 0.009082 0.004188 0.019405
#
#
# Mechanical properties :
#
#
# Convention : Reuss Voigt Hill
#
# Bulk Modulus (GPa) = 49.05803 59.97058 54.51431
# Shear Modulus (GPa) = 41.60577 68.00368 54.80473
#
# Velocity S-wave (km/s) = 4.21419 5.38771 4.83667
# Velocity P-wave (km/s) = 6.67979 8.01883 7.37974
#
# Compressibility (1/GPa) = 0.02038402
#
# Stress axis : x y z
#
# Youngs Moduli (GPa) = 63.34291 89.14747 159.70772
#
# Poissons Ratio (x) = 0.49470 -0.28755
# Poissons Ratio (y) = 0.35150 0.42997
# Poissons Ratio (z) = -0.11405 0.24000
#
# Static dielectric constant tensor:
#      x y z
#    x 2.082720 0.208880 -0.094940 
#    y 0.208880 2.075330 -0.077830 
#    z -0.094940 -0.077830 2.052040 
# 
# From -- ./inp_files/575503.got.cif
#   From: 2010.05.17/outbox.cif.g08.bks.cpg/sg2_288_cif.got.tgz:575503.got - 2010.06.03 11:33:40.
