data_PCOD9064452
_publ_section_title
;
Structure prediction by ZEFSAII (Michael W. Deem and Ramdas Pophale) SiO2 
 PCOD9064452
Probable space group: P -1
;
_chemical_formula_sum "Si O2"
_cell_formula_units_Z 16
_cell_length_a 8.770099
_cell_length_b 5.406567
_cell_length_c 17.487188
_cell_angle_alpha 62.026595
_cell_angle_beta 99.655925
_cell_angle_gamma 71.884323
_cell_volume 645.606825
_symmetry_space_group_name_H-M "P -1"
_symmetry_group_IT_number 2
_symmetry_cell_setting 'triclinic'
loop_
_space_group_symop_operation_xyz
x,y,z
-x,-y,-z
loop_
_atom_site_type_symbol
_atom_site_label
_atom_site_fract_x
_atom_site_fract_y
_atom_site_fract_z
Si Si1 0.245862 0.663446 0.806703
Si Si2 0.345031 0.616602 0.091050
Si Si3 0.909105 0.201432 0.690636
Si Si4 0.366360 0.453387 0.685684
Si Si5 0.590432 0.815036 0.609682
Si Si6 0.899429 0.297691 0.502171
Si Si7 0.180149 0.366032 0.987624
Si Si8 0.680814 0.906428 0.758626
O O1 0.447760 0.541305 0.860050
O O2 0.243058 0.583235 0.728978
O O3 0.175506 0.484084 0.883828
O O4 0.113876 0.033295 0.747721
O O5 0.291204 0.509281 0.022912
O O6 0.271889 0.451775 0.170881
O O7 0.263914 0.988199 0.044038
O O8 0.787382 0.560587 0.647707
O O9 0.873800 0.185580 0.599617
O O10 0.830987 0.008809 0.761474
O O11 0.473738 0.651955 0.652570
O O12 0.263505 0.486043 0.594397
O O13 0.516757 0.110588 0.767645
O O14 0.603479 0.011962 0.652617
O O15 0.500000 0.000000 0.500000
O O16 0.000000 0.500000 0.500000
O O17 0.000000 0.000000 0.500000
O O18 0.000000 0.500000 0.000000
#
# Coordination Sequence:
#
# PCOD9064452 Si02
#       8
#     2   2   2   2   2   2   2   2
#     4  12  26  49  79 115 159 203 260 327 397 477
#     4  12  27  53  80 117 158 204 257 324 404 474
#     4  11  27  46  73 115 152 211 264 324 390 460
#     4  11  25  47  72 110 154 210 264 323 390 462
#     4  11  24  45  76 107 153 207 268 322 387 455
#     4  12  28  47  70 112 163 203 264 323 392 455
#     4  12  29  54  83 118 156 205 258 328 399 479
#     4  11  25  46  76 106 153 204 264 320 386 468
#
# _framework density 24.782883000000002
#
# number of rings (size 3 to 8) (size 9 to 14) (size 15 to 20)
#    0.000    0.500    2.500    4.125   10.500    3.000 
#    2.250    0.000    0.000    0.000    0.000    0.000 
#    0.000    0.000    0.000    0.000    0.000    0.000 
#
# Total GULP energy -89559.308077 kJ/mol
# GULP energy per Si atom -5597.456755 kJ/mol
# Density = 2.472648 g / cm^3
# Si number density = 24.782883 Si / 1000 Ang^3
#
#
#
# Elastic Constant Matrix: (Units=GPa)
#
#
# Indices 1 2 3 4 5 6 
#
# 1 97.7838 54.2094 30.5856 -18.4466 8.3111 -15.7079
# 2 54.2094 132.5195 38.2838 -23.5055 8.5671 -17.4801
# 3 30.5856 38.2838 107.7783 -17.5866 -6.4494 -23.3199
# 4 -18.4466 -23.5055 -17.5866 41.7825 -3.4667 -0.3305
# 5 8.3111 8.5671 -6.4494 -3.4667 50.5036 -0.5495
# 6 -15.7079 -17.4801 -23.3199 -0.3305 -0.5495 41.3255
#
#
#
# Elastic Compliance Matrix: (Units=1/GPa)
#
#
# Indices 1 2 3 4 5 6 
#
# 1 0.014289 -0.004406 -0.001486 0.003097 -0.001552 0.002733
# 2 -0.004406 0.010744 -0.001667 0.003325 -0.001061 0.001942
# 3 -0.001486 -0.001667 0.012303 0.003831 0.002424 0.005736
# 4 0.003097 0.003325 0.003831 0.028944 0.001457 0.004997
# 5 -0.001552 -0.001061 0.002424 0.001457 0.020652 0.000615
# 6 0.002733 0.001942 0.005736 0.004997 0.000615 0.029343
#
#
# Mechanical properties :
#
#
# Convention : Reuss Voigt Hill
#
# Bulk Modulus (GPa) = 45.00578 64.91546 54.96062
# Shear Modulus (GPa) = 36.02289 41.05586 38.53938
#
# Velocity S-wave (km/s) = 3.81667 4.07458 3.94773
# Velocity P-wave (km/s) = 6.13368 6.95606 6.55777
#
# Compressibility (1/GPa) = 0.02221937
#
# Stress axis : x y z
#
# Youngs Moduli (GPa) = 69.98313 93.07194 81.27856
#
# Poissons Ratio (x) = 0.41004 0.12079
# Poissons Ratio (y) = 0.30832 0.13549
# Poissons Ratio (z) = 0.10400 0.15515
#
# Static dielectric constant tensor:
#      x y z
#    x 1.979920 -0.017260 0.013870 
#    y -0.017260 1.987570 -0.008520 
#    z 0.013870 -0.008520 2.011810 
# 
# From -- ./inp_files/552382.got.cif
#   From: 2010.05.17/outbox.cif.g08.bks.cpg/sg2_277_cif.got.tgz:552382.got - 2010.06.03 11:33:40.
