data_PCOD9064777
_publ_section_title
;
Structure prediction by ZEFSAII (Michael W. Deem and Ramdas Pophale) SiO2 
 PCOD9064777
Probable space group: P -1
;
_chemical_formula_sum "Si O2"
_cell_formula_units_Z 16
_cell_length_a 11.684584
_cell_length_b 14.515381
_cell_length_c 15.291860
_cell_angle_alpha 142.552404
_cell_angle_beta 30.648090
_cell_angle_gamma 121.192750
_cell_volume 680.372227
_symmetry_space_group_name_H-M "P -1"
_symmetry_group_IT_number 2
_symmetry_cell_setting 'triclinic'
loop_
_space_group_symop_operation_xyz
x,y,z
-x,-y,-z
loop_
_atom_site_type_symbol
_atom_site_label
_atom_site_fract_x
_atom_site_fract_y
_atom_site_fract_z
Si Si1 0.963232 0.069970 0.675232
Si Si2 0.372304 0.346326 0.850518
Si Si3 0.546907 0.693296 0.707964
Si Si4 0.784016 0.703424 0.269167
Si Si5 0.997720 0.269675 0.548663
Si Si6 0.271342 0.836952 0.822691
Si Si7 0.980443 0.685298 0.817257
Si Si8 0.037101 0.752575 0.636954
O O1 0.123883 0.163630 0.661711
O O2 0.658352 0.214029 0.008542
O O3 0.000000 0.000000 0.500000
O O4 0.044047 0.894084 0.546044
O O5 0.254825 0.296512 0.808837
O O6 0.674538 0.274299 0.579092
O O7 0.218126 0.561686 0.126617
O O8 0.293091 0.282240 0.941013
O O9 0.374947 0.720479 0.755579
O O10 0.775702 0.492852 0.431719
O O11 0.713065 0.786791 0.649334
O O12 0.513060 0.757234 0.536237
O O13 0.000000 0.500000 0.000000
O O14 0.990892 0.325593 0.494584
O O15 0.030249 0.836725 0.934279
O O16 0.180321 0.037230 0.058529
O O17 0.007464 0.673315 0.686635
#
# Coordination Sequence:
#
# PCOD9064777 Si02
#       8
#     2   2   2   2   2   2   2   2
#     4  12  25  41  73 114 144 188 243 312 378 424
#     4  11  26  48  72 106 148 195 253 295 371 445
#     4  11  24  46  73 103 144 191 252 306 365 443
#     4  12  25  45  76 111 148 193 249 308 365 445
#     4  11  26  49  72 105 148 198 245 311 369 436
#     4  12  24  47  73 109 149 188 247 313 374 428
#     4  11  25  46  76 106 144 201 241 305 380 435
#     4  12  27  47  72 107 157 195 245 307 367 452
#
# _framework density 23.516539999999999
#
# number of rings (size 3 to 8) (size 9 to 14) (size 15 to 20)
#    0.000    0.500    2.500    6.000    3.500    3.500 
#    0.000    0.000    0.000    0.000    0.000    0.000 
#    0.000    0.000    0.000    0.000    0.000    0.000 
#
# Total GULP energy -89643.184548 kJ/mol
# GULP energy per Si atom -5602.699034 kJ/mol
# Density = 2.346302 g / cm^3
# Si number density = 23.516540 Si / 1000 Ang^3
#
#
#
# Elastic Constant Matrix: (Units=GPa)
#
#
# Indices 1 2 3 4 5 6 
#
# 1 93.4495 13.9665 9.0487 -4.0728 26.7167 -4.2997
# 2 13.9665 84.4690 14.1105 -12.7863 10.8228 2.1531
# 3 9.0487 14.1105 104.2590 -20.9269 18.0263 -8.1698
# 4 -4.0728 -12.7863 -20.9269 38.9098 1.9818 11.4592
# 5 26.7167 10.8228 18.0263 1.9818 37.3069 -4.3887
# 6 -4.2997 2.1531 -8.1698 11.4592 -4.3887 43.1825
#
#
#
# Elastic Compliance Matrix: (Units=1/GPa)
#
#
# Indices 1 2 3 4 5 6 
#
# 1 0.013755 -0.000792 0.001163 0.002342 -0.010312 -0.000040
# 2 -0.000792 0.013327 -0.000265 0.005088 -0.003738 -0.002524
# 3 0.001163 -0.000265 0.012121 0.006949 -0.006998 -0.000133
# 4 0.002342 0.005088 0.006949 0.034422 -0.009374 -0.008793
# 5 -0.010312 -0.003738 -0.006998 -0.009374 0.039665 0.004355
# 6 -0.000040 -0.002524 -0.000133 -0.008793 0.004355 0.026030
#
#
# Mechanical properties :
#
#
# Convention : Reuss Voigt Hill
#
# Bulk Modulus (GPa) = 25.37071 39.60320 32.48695
# Shear Modulus (GPa) = 32.84152 40.21663 36.52908
#
# Velocity S-wave (km/s) = 3.74107 4.13987 3.94551
# Velocity P-wave (km/s) = 5.42887 6.30306 5.88223
#
# Compressibility (1/GPa) = 0.03941554
#
# Stress axis : x y z
#
# Youngs Moduli (GPa) = 72.70062 75.03398 82.50353
#
# Poissons Ratio (x) = 0.05941 -0.09597
# Poissons Ratio (y) = 0.05756 0.02188
# Poissons Ratio (z) = -0.08457 0.01990
#
# Static dielectric constant tensor:
#      x y z
#    x 1.907580 0.003720 -0.003530 
#    y 0.003720 1.963870 0.013640 
#    z -0.003530 0.013640 1.839410 
# 
# From -- ./inp_files/522467.got.cif
#   From: 2010.05.17/outbox.cif.g08.bks.cpg/sg2_262_cif.got.tgz:522467.got - 2010.06.03 11:33:40.
