data_PCOD9064979
_publ_section_title
;
Structure prediction by ZEFSAII (Michael W. Deem and Ramdas Pophale) SiO2 
 PCOD9064979
Probable space group: P -1
;
_chemical_formula_sum "Si O2"
_cell_formula_units_Z 14
_cell_length_a 20.479596
_cell_length_b 8.418693
_cell_length_c 5.377403
_cell_angle_alpha 58.637477
_cell_angle_beta 107.549395
_cell_angle_gamma 135.937709
_cell_volume 546.441263
_symmetry_space_group_name_H-M "P -1"
_symmetry_group_IT_number 2
_symmetry_cell_setting 'triclinic'
loop_
_space_group_symop_operation_xyz
x,y,z
-x,-y,-z
loop_
_atom_site_type_symbol
_atom_site_label
_atom_site_fract_x
_atom_site_fract_y
_atom_site_fract_z
Si Si1 0.990164 0.603455 0.651921
Si Si2 0.611368 0.940246 0.339752
Si Si3 0.433826 0.480085 0.750591
Si Si4 0.238049 0.175049 0.805266
Si Si5 0.224602 0.753457 0.330134
Si Si6 0.100542 0.105531 0.105972
Si Si7 0.273703 0.546394 0.189248
O O1 0.886666 0.496801 0.578526
O O2 0.000000 0.500000 0.500000
O O3 0.070822 0.909934 0.456838
O O4 0.000000 0.500000 0.000000
O O5 0.506751 0.759065 0.483273
O O6 0.599288 0.745679 0.292266
O O7 0.702282 0.058060 0.521218
O O8 0.640977 0.197222 0.060550
O O9 0.344017 0.396821 0.857255
O O10 0.500000 0.500000 0.000000
O O11 0.261798 0.312522 0.453340
O O12 0.156761 0.110402 0.940016
O O13 0.221066 0.923427 0.001290
O O14 0.269426 0.654104 0.348939
O O15 0.175559 0.396886 0.051613
O O16 0.000000 0.000000 0.000000
#
# Coordination Sequence:
#
# PCOD9064979 Si02
#       7
#     2   2   2   2   2   2   2
#     4  12  28  48  79 116 155 213 278 328 402 486
#     4  11  24  46  78 113 152 204 257 336 395 481
#     4  11  24  47  81 112 153 200 266 325 406 484
#     4  12  26  47  78 110 150 207 257 320 400 479
#     4  12  26  49  77 108 158 208 263 327 404 473
#     4  12  29  50  74 114 159 208 270 330 403 480
#     4  12  27  47  74 113 156 201 263 332 395 480
#
# _framework density 25.62032
#
# number of rings (size 3 to 8) (size 9 to 14) (size 15 to 20)
#    0.000    0.286    4.286    3.429    6.000    1.714 
#    0.000    5.000    0.000    0.000    0.000    0.000 
#    0.000    0.000    0.000    0.000    0.000    0.000 
#
# Total GULP energy -78191.499849 kJ/mol
# GULP energy per Si atom -5585.107132 kJ/mol
# Density = 2.556201 g / cm^3
# Si number density = 25.620320 Si / 1000 Ang^3
#
#
#
# Elastic Constant Matrix: (Units=GPa)
#
#
# Indices 1 2 3 4 5 6 
#
# 1 66.7231 2.0750 6.4452 -14.8985 -8.7328 24.8101
# 2 2.0750 160.9451 39.4208 -21.6857 -9.3458 15.6880
# 3 6.4452 39.4208 139.4199 -36.3135 4.1045 7.7943
# 4 -14.8985 -21.6857 -36.3135 69.6070 8.6877 -13.5746
# 5 -8.7328 -9.3458 4.1045 8.6877 38.4921 -6.8923
# 6 24.8101 15.6880 7.7943 -13.5746 -6.8923 42.9979
#
#
#
# Elastic Compliance Matrix: (Units=1/GPa)
#
#
# Indices 1 2 3 4 5 6 
#
# 1 0.019761 0.001267 -0.000186 0.002126 0.002402 -0.010775
# 2 0.001267 0.007072 -0.001732 0.000897 0.001545 -0.002467
# 3 -0.000186 -0.001732 0.008872 0.004370 -0.002372 0.000131
# 4 0.002126 0.000897 0.004370 0.018372 -0.003391 0.002910
# 5 0.002402 0.001545 -0.002372 -0.003391 0.028265 0.001940
# 6 -0.010775 -0.002467 0.000131 0.002910 0.001940 0.031580
#
#
# Mechanical properties :
#
#
# Convention : Reuss Voigt Hill
#
# Bulk Modulus (GPa) = 29.06765 51.44112 40.25439
# Shear Modulus (GPa) = 39.46549 51.49588 45.48068
#
# Velocity S-wave (km/s) = 3.92905 4.48812 4.21786
# Velocity P-wave (km/s) = 5.65273 6.85416 6.28223
#
# Compressibility (1/GPa) = 0.03440250
#
# Stress axis : x y z
#
# Youngs Moduli (GPa) = 50.60355 141.39767 112.71675
#
# Poissons Ratio (x) = -0.17916 0.02101
# Poissons Ratio (y) = -0.06412 0.19525
# Poissons Ratio (z) = 0.00943 0.24493
#
# Static dielectric constant tensor:
#      x y z
#    x 2.071480 0.026650 -0.001140 
#    y 0.026650 1.901890 0.078680 
#    z -0.001140 0.078680 2.200830 
# 
# From -- ./inp_files/116710.got.cif
#   From: 2010.05.17/outbox.cif.g08.bks.cpg/sg2_59_cif.got.tgz:116710.got - 2010.06.03 11:33:40.
