data_PCOD9064932
_publ_section_title
;
Structure prediction by ZEFSAII (Michael W. Deem and Ramdas Pophale) SiO2 
 PCOD9064932
Probable space group: P -1
;
_chemical_formula_sum "Si O2"
_cell_formula_units_Z 16
_cell_length_a 5.253157
_cell_length_b 13.101144
_cell_length_c 13.602897
_cell_angle_alpha 57.934851
_cell_angle_beta 119.947941
_cell_angle_gamma 87.763474
_cell_volume 625.733163
_symmetry_space_group_name_H-M "P -1"
_symmetry_group_IT_number 2
_symmetry_cell_setting 'triclinic'
loop_
_space_group_symop_operation_xyz
x,y,z
-x,-y,-z
loop_
_atom_site_type_symbol
_atom_site_label
_atom_site_fract_x
_atom_site_fract_y
_atom_site_fract_z
Si Si1 0.205568 0.811349 0.183423
Si Si2 0.821441 0.724826 0.849645
Si Si3 0.341107 0.424822 0.722251
Si Si4 0.451842 0.475640 0.114815
Si Si5 0.367192 0.062989 0.120589
Si Si6 0.205732 0.627666 0.446423
Si Si7 0.004083 0.139601 0.590046
Si Si8 0.681314 0.858169 0.557754
O O1 0.414772 0.726878 0.174258
O O2 0.300797 0.711916 0.343826
O O3 0.258896 0.940639 0.159498
O O4 0.833006 0.854467 0.054129
O O5 0.558334 0.665916 0.806012
O O6 0.727972 0.842891 0.849625
O O7 0.891444 0.767508 0.733605
O O8 0.110826 0.596310 0.015770
O O9 0.310345 0.491717 0.787151
O O10 0.441527 0.516598 0.621063
O O11 0.993610 0.436762 0.618620
O O12 0.500000 0.500000 0.000000
O O13 0.756717 0.990903 0.238113
O O14 0.960342 0.737166 0.415956
O O15 0.128233 0.129915 0.507352
O O16 0.626793 0.173151 0.510338
O O17 0.500000 0.000000 0.500000
#
# Coordination Sequence:
#
# PCOD9064932 Si02
#       8
#     2   2   2   2   2   2   2   2
#     4  11  24  49  71 111 148 197 247 321 386 453
#     4  11  26  47  71 108 143 207 247 320 378 457
#     4  11  24  48  70 109 143 196 258 312 378 456
#     4  11  27  47  74 106 149 198 259 312 382 458
#     4  11  24  46  76 107 153 190 257 309 389 464
#     4  11  26  43  76 107 145 196 251 316 382 450
#     4  12  26  49  71 115 152 203 251 315 386 453
#     4  12  27  46  75 109 156 200 257 313 381 459
#
# _framework density 25.570004999999998
#
# number of rings (size 3 to 8) (size 9 to 14) (size 15 to 20)
#    0.000    0.750    3.750    2.250    5.250    0.500 
#    4.500    0.000    0.000    0.000    0.000    0.000 
#    0.000    0.000    0.000    0.000    0.000    0.000 
#
# Total GULP energy -89485.463348 kJ/mol
# GULP energy per Si atom -5592.841459 kJ/mol
# Density = 2.551181 g / cm^3
# Si number density = 25.570005 Si / 1000 Ang^3
#
#
#
# Elastic Constant Matrix: (Units=GPa)
#
#
# Indices 1 2 3 4 5 6 
#
# 1 45.5479 17.0304 1.4975 -7.3891 -6.0411 -8.9015
# 2 17.0304 181.2519 21.9249 18.0144 -14.7621 -14.4359
# 3 1.4975 21.9249 72.9310 0.5083 3.4922 -6.9114
# 4 -7.3891 18.0144 0.5083 39.7033 -0.9207 3.9077
# 5 -6.0411 -14.7621 3.4922 -0.9207 35.2611 -0.6240
# 6 -8.9015 -14.4359 -6.9114 3.9077 -0.6240 31.8659
#
#
#
# Elastic Compliance Matrix: (Units=1/GPa)
#
#
# Indices 1 2 3 4 5 6 
#
# 1 0.025172 -0.002205 0.000466 0.005215 0.003578 0.005564
# 2 -0.002205 0.006716 -0.001832 -0.003623 0.002565 0.002524
# 3 0.000466 -0.001832 0.014573 0.000450 -0.002077 0.002365
# 4 0.005215 -0.003623 0.000450 0.028144 0.000004 -0.003538
# 5 0.003578 0.002565 -0.002077 0.000004 0.030293 0.002304
# 6 0.005564 0.002524 0.002365 -0.003538 0.002304 0.035071
#
#
# Mechanical properties :
#
#
# Convention : Reuss Voigt Hill
#
# Bulk Modulus (GPa) = 25.43362 42.29294 33.86328
# Shear Modulus (GPa) = 31.20731 38.65126 34.92928
#
# Velocity S-wave (km/s) = 3.49731 3.89213 3.69999
# Velocity P-wave (km/s) = 5.12606 6.06417 5.61474
#
# Compressibility (1/GPa) = 0.03931803
#
# Stress axis : x y z
#
# Youngs Moduli (GPa) = 39.72662 148.89725 68.61885
#
# Poissons Ratio (x) = 0.32835 -0.03196
# Poissons Ratio (y) = 0.08761 0.12572
# Poissons Ratio (z) = -0.01850 0.27280
#
# Static dielectric constant tensor:
#      x y z
#    x 2.118760 0.042780 0.063020 
#    y 0.042780 2.213360 0.003920 
#    z 0.063020 0.003920 2.108050 
# 
# From -- ./inp_files/482761.got.cif
#   From: 2010.05.17/outbox.cif.g08.bks.cpg/sg2_242_cif.got.tgz:482761.got - 2010.06.03 11:33:40.
