data_PCOD9064080
_publ_section_title
;
Structure prediction by ZEFSAII (Michael W. Deem and Ramdas Pophale) SiO2 
 PCOD9064080
Probable space group: P -1
;
_chemical_formula_sum "Si O2"
_cell_formula_units_Z 13
_cell_length_a 17.203715
_cell_length_b 5.667732
_cell_length_c 11.047352
_cell_angle_alpha 109.325093
_cell_angle_beta 29.442892
_cell_angle_gamma 97.494545
_cell_volume 469.878109
_symmetry_space_group_name_H-M "P -1"
_symmetry_group_IT_number 2
_symmetry_cell_setting 'triclinic'
loop_
_space_group_symop_operation_xyz
x,y,z
-x,-y,-z
loop_
_atom_site_type_symbol
_atom_site_label
_atom_site_fract_x
_atom_site_fract_y
_atom_site_fract_z
Si Si1 0.478106 0.744240 0.419308
Si Si2 0.779960 0.431095 0.101702
Si Si3 0.387696 0.405127 0.316587
Si Si4 0.978929 0.269807 0.144612
Si Si5 0.000000 0.500000 0.500000
Si Si6 0.908110 0.073043 0.465043
Si Si7 0.348525 0.123582 0.093045
O O1 0.654997 0.529202 0.177473
O O2 0.326672 0.682001 0.682205
O O3 0.443239 0.661388 0.316639
O O4 0.500000 0.000000 0.500000
O O5 0.851012 0.663127 0.084032
O O6 0.947974 0.202850 0.799281
O O7 0.188190 0.499573 0.633817
O O8 0.401450 0.320209 0.143402
O O9 0.497154 0.142207 0.199788
O O10 0.936951 0.238010 0.336970
O O11 0.000000 0.000000 0.000000
O O12 0.064729 0.743281 0.436179
O O13 0.796716 0.713503 0.775753
O O14 0.743133 0.011541 0.707427
#
# Coordination Sequence:
#
# PCOD9064080 Si02
#       7
#     2   2   2   2   1   2   2
#     4  11  25  45  73 107 155 206 265 322 400 471
#     4  11  24  45  70 108 149 207 255 327 389 467
#     4  11  24  50  71 116 160 197 265 330 395 462
#     4  12  26  46  77 114 156 202 266 326 398 471
#     4  12  24  48  70 112 146 214 260 314 392 476
#     4  12  24  44  74 106 151 203 264 311 394 475
#     4  11  26  46  77 109 160 206 260 331 392 471
#
# _framework density 27.666751999999999
#
# number of rings (size 3 to 8) (size 9 to 14) (size 15 to 20)
#    0.000    0.615    3.077    4.154    2.154    4.308 
#    0.000    0.000    0.000    0.000    0.000    0.000 
#    0.000    0.000    0.000    0.000    0.000    0.000 
#
# Total GULP energy -72480.320154 kJ/mol
# GULP energy per Si atom -5575.409243 kJ/mol
# Density = 2.760378 g / cm^3
# Si number density = 27.666752 Si / 1000 Ang^3
#
#
#
# Elastic Constant Matrix: (Units=GPa)
#
#
# Indices 1 2 3 4 5 6 
#
# 1 86.3184 45.7229 39.9125 -19.2107 -22.2374 13.8451
# 2 45.7229 150.3122 36.9706 -16.4183 4.7245 46.8053
# 3 39.9125 36.9706 132.7326 -1.6889 -24.7312 8.8750
# 4 -19.2107 -16.4183 -1.6889 53.9034 -10.0163 -8.1170
# 5 -22.2374 4.7245 -24.7312 -10.0163 47.6688 -2.5525
# 6 13.8451 46.8053 8.8750 -8.1170 -2.5525 61.4824
#
#
#
# Elastic Compliance Matrix: (Units=1/GPa)
#
#
# Indices 1 2 3 4 5 6 
#
# 1 0.019504 -0.005231 -0.002560 0.007318 0.009898 0.001337
# 2 -0.005231 0.011091 -0.001984 -0.000587 -0.005082 -0.007267
# 3 -0.002560 -0.001984 0.009525 -0.000367 0.003912 0.000826
# 4 0.007318 -0.000587 -0.000367 0.022825 0.008196 0.002206
# 5 0.009898 -0.005082 0.003912 0.008196 0.030033 0.003404
# 6 0.001337 -0.007267 0.000826 0.002206 0.003404 0.021809
#
#
# Mechanical properties :
#
#
# Convention : Reuss Voigt Hill
#
# Bulk Modulus (GPa) = 48.61728 68.28613 58.45170
# Shear Modulus (GPa) = 35.41230 49.06139 42.23685
#
# Velocity S-wave (km/s) = 3.58153 4.21562 3.91145
# Velocity P-wave (km/s) = 5.89184 6.95921 6.44765
#
# Compressibility (1/GPa) = 0.02056882
#
# Stress axis : x y z
#
# Youngs Moduli (GPa) = 51.27200 90.16555 104.98367
#
# Poissons Ratio (x) = 0.47169 0.26872
# Poissons Ratio (y) = 0.26822 0.20834
# Poissons Ratio (z) = 0.13124 0.17893
#
# Static dielectric constant tensor:
#      x y z
#    x 1.654890 -0.058130 -0.171870 
#    y -0.058130 2.198000 0.007090 
#    z -0.171870 0.007090 2.080620 
# 
# From -- ./inp_files/458662.got.cif
#   From: 2010.05.17/outbox.cif.g08.bks.cpg/sg2_230_cif.got.tgz:458662.got - 2010.06.03 11:33:40.
