data_PCOD9064127
_publ_section_title
;
Structure prediction by ZEFSAII (Michael W. Deem and Ramdas Pophale) SiO2 
 PCOD9064127
Probable space group: P -1
;
_chemical_formula_sum "Si O2"
_cell_formula_units_Z 16
_cell_length_a 11.153990
_cell_length_b 14.954751
_cell_length_c 13.946024
_cell_angle_alpha 141.884760
_cell_angle_beta 144.051971
_cell_angle_gamma 62.856505
_cell_volume 730.629094
_symmetry_space_group_name_H-M "P -1"
_symmetry_group_IT_number 2
_symmetry_cell_setting 'triclinic'
loop_
_space_group_symop_operation_xyz
x,y,z
-x,-y,-z
loop_
_atom_site_type_symbol
_atom_site_label
_atom_site_fract_x
_atom_site_fract_y
_atom_site_fract_z
Si Si1 0.411829 0.576778 0.682928
Si Si2 0.065126 0.117336 0.734078
Si Si3 0.142185 0.203537 0.564940
Si Si4 0.154663 0.662357 0.170543
Si Si5 0.677716 0.772511 0.659317
Si Si6 0.073679 0.856518 0.827558
Si Si7 0.661915 0.331430 0.082776
Si Si8 0.028950 0.474718 0.738283
O O1 0.370906 0.399669 0.468790
O O2 0.340884 0.561830 0.737339
O O3 0.241496 0.619396 0.547989
O O4 0.677164 0.723976 0.972607
O O5 0.893235 0.191028 0.703950
O O6 0.000000 0.000000 0.500000
O O7 0.037137 0.987168 0.687426
O O8 0.103014 0.341898 0.710603
O O9 0.088616 0.225710 0.439581
O O10 0.399964 0.237649 0.789328
O O11 0.429929 0.723326 0.408295
O O12 0.076191 0.605633 0.962997
O O13 0.000000 0.500000 0.000000
O O14 0.890589 0.819473 0.763303
O O15 0.765402 0.944668 0.917489
O O16 0.241590 0.783723 0.906467
O O17 0.827122 0.432222 0.185734
#
# Coordination Sequence:
#
# PCOD9064127 Si02
#       8
#     2   2   2   2   2   2   2   2
#     4  12  24  46  73 102 150 196 238 303 358 434
#     4  12  27  48  73 103 144 195 247 298 362 437
#     4  12  25  44  73 108 145 194 247 294 366 430
#     4  12  26  47  73 105 148 193 245 300 362 439
#     4  11  24  45  71 103 149 183 236 302 368 417
#     4  11  25  45  73 112 145 191 240 307 361 434
#     4  12  23  48  77 106 152 187 246 306 364 431
#     4  12  26  44  75 111 142 195 247 297 373 434
#
# _framework density 21.898935999999999
#
# number of rings (size 3 to 8) (size 9 to 14) (size 15 to 20)
#    0.000    0.250    5.000    4.500    1.750    2.000 
#    0.000    3.125    0.000    0.000    0.000    0.000 
#    0.000    0.000    0.000    0.000    0.000    0.000 
#
# Total GULP energy -89488.458985 kJ/mol
# GULP energy per Si atom -5593.028687 kJ/mol
# Density = 2.184909 g / cm^3
# Si number density = 21.898936 Si / 1000 Ang^3
#
#
#
# Elastic Constant Matrix: (Units=GPa)
#
#
# Indices 1 2 3 4 5 6 
#
# 1 -29.3852 59.8368 4.4313 -3.3034 0.1897 -18.9543
# 2 59.8368 138.3146 50.7985 -0.5144 -1.0828 -22.9291
# 3 4.4313 50.7985 121.1846 -12.9325 4.9846 -14.8518
# 4 -3.3034 -0.5144 -12.9325 49.8227 -1.5197 -4.6256
# 5 0.1897 -1.0828 4.9846 -1.5197 31.6171 -0.8628
# 6 -18.9543 -22.9291 -14.8518 -4.6256 -0.8628 30.7742
#
#
#
# Elastic Compliance Matrix: (Units=1/GPa)
#
#
# Indices 1 2 3 4 5 6 
#
# 1 -0.015789 0.007012 -0.003447 -0.002456 0.000582 -0.006517
# 2 0.007012 0.006232 -0.001798 0.000850 0.000721 0.008242
# 3 -0.003447 -0.001798 0.009623 0.002347 -0.001404 0.001495
# 4 -0.002456 0.000850 0.002347 0.020866 0.000770 0.003411
# 5 0.000582 0.000721 -0.001404 0.000770 0.031942 0.001229
# 6 -0.006517 0.008242 0.001495 0.003411 0.001229 0.035891
#
#
# Mechanical properties :
#
#
# Convention : Reuss Voigt Hill
#
# Bulk Modulus (GPa) = 277.74573 51.13856 164.44214
# Shear Modulus (GPa) = 57.85085 30.11264 43.98175
#
# Velocity S-wave (km/s) = 5.14534 3.71222 4.48638
# Velocity P-wave (km/s) = 12.74384 6.46350 10.10402
#
# Compressibility (1/GPa) = 0.00360042
#
# Stress axis : x y z
#
# Youngs Moduli (GPa) = -63.33382 160.46438 103.91932
#
# Poissons Ratio (x) = -1.12511 0.35816
# Poissons Ratio (y) = 0.44407 0.18680
# Poissons Ratio (z) = -0.21828 0.28844
#
# Static dielectric constant tensor:
#      x y z
#    x 1.831880 0.005750 -0.004950 
#    y 0.005750 1.814260 0.010610 
#    z -0.004950 0.010610 1.795820 
# 
# From -- ./inp_files/243432.got.cif
#   From: 2010.05.17/outbox.cif.g08.bks.cpg/sg2_122_cif.got.tgz:243432.got - 2010.06.03 11:33:40.
