data_PCOD9064728
_publ_section_title
;
Structure prediction by ZEFSAII (Michael W. Deem and Ramdas Pophale) SiO2 
 PCOD9064728
Probable space group: P -1
;
_chemical_formula_sum "Si O2"
_cell_formula_units_Z 12
_cell_length_a 14.653952
_cell_length_b 6.354574
_cell_length_c 11.942079
_cell_angle_alpha 97.876994
_cell_angle_beta 26.874709
_cell_angle_gamma 88.046838
_cell_volume 466.613592
_symmetry_space_group_name_H-M "P -1"
_symmetry_group_IT_number 2
_symmetry_cell_setting 'triclinic'
loop_
_space_group_symop_operation_xyz
x,y,z
-x,-y,-z
loop_
_atom_site_type_symbol
_atom_site_label
_atom_site_fract_x
_atom_site_fract_y
_atom_site_fract_z
Si Si1 0.731380 0.926973 0.568300
Si Si2 0.537719 0.654642 0.593568
Si Si3 0.660213 0.687719 0.970978
Si Si4 0.025053 0.745954 0.434151
Si Si5 0.293786 0.363036 0.830576
Si Si6 0.094380 0.812813 0.787306
O O1 0.852714 0.054565 0.366075
O O2 0.605958 0.795467 0.623148
O O3 0.893013 0.754023 0.464559
O O4 0.544884 0.133438 0.848925
O O5 0.308169 0.617034 0.840614
O O6 0.585695 0.733909 0.424889
O O7 0.695854 0.394079 0.417840
O O8 0.886142 0.701757 0.684901
O O9 0.727294 0.419661 0.857226
O O10 0.624514 0.738864 0.144993
O O11 0.000000 0.000000 0.500000
O O12 0.071450 0.318779 0.061216
O O13 0.000000 0.000000 0.000000
#
# Coordination Sequence:
#
# PCOD9064728 Si02
#       6
#     2   2   2   2   2   2
#     4  12  26  49  77 111 151 198 249 311 376 447
#     4  11  26  45  70 114 151 200 245 302 377 451
#     4  11  26  48  73 109 144 199 252 304 374 447
#     4  11  27  49  75 109 144 195 256 320 371 436
#     4  11  24  46  72 105 158 191 242 305 369 449
#     4  12  25  43  70 111 154 198 247 301 367 447
#
# _framework density 25.717210000000001
#
# number of rings (size 3 to 8) (size 9 to 14) (size 15 to 20)
#    0.000    0.667    3.333    3.000    4.667    6.000 
#    0.000    0.000    0.000    0.000    0.000    0.000 
#    0.000    0.000    0.000    0.000    0.000    0.000 
#
# Total GULP energy -67093.485983 kJ/mol
# GULP energy per Si atom -5591.123832 kJ/mol
# Density = 2.565868 g / cm^3
# Si number density = 25.717210 Si / 1000 Ang^3
#
#
#
# Elastic Constant Matrix: (Units=GPa)
#
#
# Indices 1 2 3 4 5 6 
#
# 1 107.5137 57.8303 34.1273 -10.7381 6.3240 14.1138
# 2 57.8303 115.3135 59.9880 5.9457 -1.9702 7.4750
# 3 34.1273 59.9880 115.6951 6.3076 -4.5976 -6.8541
# 4 -10.7381 5.9457 6.3076 68.0130 -4.8091 -4.9591
# 5 6.3240 -1.9702 -4.5976 -4.8091 32.1478 -7.8969
# 6 14.1138 7.4750 -6.8541 -4.9591 -7.8969 61.7576
#
#
#
# Elastic Compliance Matrix: (Units=1/GPa)
#
#
# Indices 1 2 3 4 5 6 
#
# 1 0.013937 -0.006330 -0.001273 0.002407 -0.003647 -0.002833
# 2 -0.006330 0.015086 -0.005889 -0.001794 0.000795 -0.001075
# 3 -0.001273 -0.005889 0.012342 -0.000482 0.002226 0.002619
# 4 0.002407 -0.001794 -0.000482 0.015502 0.001938 0.001106
# 5 -0.003647 0.000795 0.002226 0.001938 0.033823 0.005465
# 6 -0.002833 -0.001075 0.002619 0.001106 0.005465 0.018048
#
#
# Mechanical properties :
#
#
# Convention : Reuss Voigt Hill
#
# Bulk Modulus (GPa) = 69.53640 71.37930 70.45785
# Shear Modulus (GPa) = 35.58273 44.82211 40.20242
#
# Velocity S-wave (km/s) = 3.72373 4.17932 3.95808
# Velocity P-wave (km/s) = 6.75173 7.14875 6.95307
#
# Compressibility (1/GPa) = 0.01438096
#
# Stress axis : x y z
#
# Youngs Moduli (GPa) = 71.75162 66.28658 81.02139
#
# Poissons Ratio (x) = 0.41959 0.10314
# Poissons Ratio (y) = 0.45419 0.47715
# Poissons Ratio (z) = 0.09134 0.39038
#
# Static dielectric constant tensor:
#      x y z
#    x 2.198610 -0.303430 -0.060740 
#    y -0.303430 2.814630 0.023390 
#    z -0.060740 0.023390 2.072670 
# 
# From -- ./inp_files/442036.got.cif
#   From: 2010.05.17/outbox.cif.g08.bks.cpg/sg2_222_cif.got.tgz:442036.got - 2010.06.03 11:33:40.
