data_PCOD9064760
_publ_section_title
;
Structure prediction by ZEFSAII (Michael W. Deem and Ramdas Pophale) SiO2 
 PCOD9064760
Probable space group: P -1
;
_chemical_formula_sum "Si O2"
_cell_formula_units_Z 16
_cell_length_a 15.791442
_cell_length_b 9.581919
_cell_length_c 8.330422
_cell_angle_alpha 148.224892
_cell_angle_beta 92.023065
_cell_angle_gamma 85.806807
_cell_volume 661.116846
_symmetry_space_group_name_H-M "P -1"
_symmetry_group_IT_number 2
_symmetry_cell_setting 'triclinic'
loop_
_space_group_symop_operation_xyz
x,y,z
-x,-y,-z
loop_
_atom_site_type_symbol
_atom_site_label
_atom_site_fract_x
_atom_site_fract_y
_atom_site_fract_z
Si Si1 0.595829 0.319037 0.945242
Si Si2 0.221221 0.334446 0.022903
Si Si3 0.181397 0.267971 0.309808
Si Si4 0.025317 0.242299 0.847061
Si Si5 0.639642 0.311433 0.575613
Si Si6 0.073967 0.792882 0.871915
Si Si7 0.299765 0.211980 0.556786
Si Si8 0.549902 0.835630 0.984015
O O1 0.592269 0.330384 0.763397
O O2 0.516442 0.214446 0.928155
O O3 0.672123 0.095704 0.771985
O O4 0.620463 0.609437 0.281248
O O5 0.230203 0.250656 0.128379
O O6 0.262673 0.623426 0.322880
O O7 0.123922 0.264330 0.918789
O O8 0.266579 0.236800 0.762851
O O9 0.233254 0.325373 0.529709
O O10 0.150837 0.978386 0.056672
O O11 0.106392 0.508754 0.520282
O O12 0.963319 0.259775 0.010382
O O13 0.000000 0.000000 0.500000
O O14 0.000000 0.500000 0.000000
O O15 0.620174 0.026825 0.233002
O O16 0.596440 0.539646 0.676979
O O17 0.000000 0.000000 0.000000
O O18 0.500000 0.000000 0.000000
#
# Coordination Sequence:
#
# PCOD9064760 Si02
#       8
#     2   2   2   2   2   2   2   2
#     4  11  24  46  73 100 147 188 244 295 359 427
#     4  11  27  46  75 105 145 191 241 296 372 427
#     4  12  27  45  75 101 151 185 244 303 367 426
#     4  12  27  46  76 104 145 186 243 300 361 430
#     4  11  25  46  70 104 144 192 242 293 365 440
#     4  12  25  47  67 105 137 189 239 297 360 436
#     4  11  25  46  70 109 143 191 243 301 361 437
#     4  12  26  43  73 107 146 187 244 299 358 433
#
# _framework density 24.201471000000002
#
# number of rings (size 3 to 8) (size 9 to 14) (size 15 to 20)
#    0.000    0.500    1.250    6.750    5.250    7.000 
#    0.000    0.000    0.000    0.000    0.000    0.000 
#    0.000    0.000    0.000    0.000    0.000    0.000 
#
# Total GULP energy -89386.252172 kJ/mol
# GULP energy per Si atom -5586.640761 kJ/mol
# Density = 2.414639 g / cm^3
# Si number density = 24.201471 Si / 1000 Ang^3
#
#
#
# Elastic Constant Matrix: (Units=GPa)
#
#
# Indices 1 2 3 4 5 6 
#
# 1 92.9739 69.9376 30.4852 -8.2331 11.3657 38.2610
# 2 69.9376 173.2610 61.7509 16.1791 2.8137 10.6952
# 3 30.4852 61.7509 85.3655 12.8873 13.2270 22.2153
# 4 -8.2331 16.1791 12.8873 36.4922 -0.9968 6.0364
# 5 11.3657 2.8137 13.2270 -0.9968 41.7785 16.7760
# 6 38.2610 10.6952 22.2153 6.0364 16.7760 49.8275
#
#
#
# Elastic Compliance Matrix: (Units=1/GPa)
#
#
# Indices 1 2 3 4 5 6 
#
# 1 0.032091 -0.013800 0.002279 0.016819 0.002093 -0.025438
# 2 -0.013800 0.013877 -0.006842 -0.008784 0.000075 0.011708
# 3 0.002279 -0.006842 0.018507 -0.001876 -0.003155 -0.007243
# 4 0.016819 -0.008784 -0.001876 0.038549 0.004045 -0.016225
# 5 0.002093 0.000075 -0.003155 0.004045 0.028608 -0.010339
# 6 -0.025438 0.011708 -0.007243 -0.016225 -0.010339 0.045765
#
#
# Mechanical properties :
#
#
# Convention : Reuss Voigt Hill
#
# Bulk Modulus (GPa) = 36.03840 75.10530 55.57185
# Shear Modulus (GPa) = 22.38388 38.24808 30.31598
#
# Velocity S-wave (km/s) = 3.04451 3.97974 3.54312
# Velocity P-wave (km/s) = 5.22322 7.22624 6.30478
#
# Compressibility (1/GPa) = 0.02774818
#
# Stress axis : x y z
#
# Youngs Moduli (GPa) = 31.16100 72.06052 54.03355
#
# Poissons Ratio (x) = 0.99446 -0.12314
# Poissons Ratio (y) = 0.43003 0.36972
# Poissons Ratio (z) = -0.07102 0.49307
#
# Static dielectric constant tensor:
#      x y z
#    x 2.041940 -0.109770 -0.039350 
#    y -0.109770 1.894720 -0.001880 
#    z -0.039350 -0.001880 1.911230 
# 
# From -- ./inp_files/329728.got.cif
#   From: 2010.05.17/outbox.cif.g08.bks.cpg/sg2_165_cif.got.tgz:329728.got - 2010.06.03 11:33:40.
