data_PCOD9064097
_publ_section_title
;
Structure prediction by ZEFSAII (Michael W. Deem and Ramdas Pophale) SiO2 
 PCOD9064097
Probable space group: P -1
;
_chemical_formula_sum "Si O2"
_cell_formula_units_Z 14
_cell_length_a 11.326465
_cell_length_b 27.346853
_cell_length_c 13.520988
_cell_angle_alpha 22.142230
_cell_angle_beta 144.441069
_cell_angle_gamma 154.498434
_cell_volume 673.040702
_symmetry_space_group_name_H-M "P -1"
_symmetry_group_IT_number 2
_symmetry_cell_setting 'triclinic'
loop_
_space_group_symop_operation_xyz
x,y,z
-x,-y,-z
loop_
_atom_site_type_symbol
_atom_site_label
_atom_site_fract_x
_atom_site_fract_y
_atom_site_fract_z
Si Si1 0.523194 0.311713 0.017385
Si Si2 0.972249 0.437171 0.968920
Si Si3 0.708638 0.625419 0.819595
Si Si4 0.864398 0.634346 0.404980
Si Si5 0.548090 0.991632 0.931498
Si Si6 0.712104 0.400982 0.547859
Si Si7 0.162789 0.006670 0.507418
O O1 0.790619 0.478892 0.945411
O O2 0.322768 0.166030 0.238421
O O3 0.667998 0.272564 0.113639
O O4 0.376123 0.363202 0.761453
O O5 0.943518 0.574888 0.660238
O O6 0.097511 0.408909 0.017615
O O7 0.497264 0.586561 0.666557
O O8 0.926106 0.827852 0.622040
O O9 0.500000 0.500000 0.000000
O O10 0.791877 0.499554 0.521708
O O11 0.132268 0.836820 0.185346
O O12 0.380439 0.011118 0.705557
O O13 0.451380 0.805799 0.183567
O O14 0.500000 0.000000 0.000000
O O15 0.000000 0.500000 0.500000
O O16 0.000000 0.000000 0.500000
#
# Coordination Sequence:
#
# PCOD9064097 Si02
#       7
#     2   2   2   2   2   2   2
#     4  11  24  45  70  99 136 183 229 276 342 413
#     4  11  24  45  70  99 136 183 229 276 342 413
#     4  12  25  43  68 100 139 176 229 287 341 406
#     4  12  23  44  70  98 140 180 229 280 345 406
#     4  12  24  40  63 101 139 179 227 284 343 408
#     4  12  24  40  63 101 139 179 227 284 343 408
#     4  12  25  43  68 100 139 176 229 287 341 406
#
# _framework density 20.801120000000001
#
# number of rings (size 3 to 8) (size 9 to 14) (size 15 to 20)
#    0.000    0.286    4.286    6.429    0.000    0.571 
#    0.000    0.000    0.000    4.286    0.000    0.000 
#    0.000    0.000    0.000    0.000    0.000    0.000 
#
# Total GULP energy -78151.246043 kJ/mol
# GULP energy per Si atom -5582.231860 kJ/mol
# Density = 2.075378 g / cm^3
# Si number density = 20.801120 Si / 1000 Ang^3
#
#
#
# Elastic Constant Matrix: (Units=GPa)
#
#
# Indices 1 2 3 4 5 6 
#
# 1 108.4750 37.6416 44.2931 -6.6741 -1.2805 35.5834
# 2 37.6416 134.3763 48.4785 10.7699 2.4339 12.2355
# 3 44.2931 48.4785 109.9834 8.2254 -5.7314 16.1106
# 4 -6.6741 10.7699 8.2254 51.9723 -1.8856 2.9603
# 5 -1.2805 2.4339 -5.7314 -1.8856 28.4725 3.3166
# 6 35.5834 12.2355 16.1106 2.9603 3.3166 43.9275
#
#
#
# Elastic Compliance Matrix: (Units=1/GPa)
#
#
# Indices 1 2 3 4 5 6 
#
# 1 0.015337 -0.002275 -0.003789 0.003713 0.001622 -0.010773
# 2 -0.002275 0.009375 -0.003272 -0.001820 -0.001763 0.000688
# 3 -0.003789 -0.003272 0.012414 -0.001642 0.002576 -0.000656
# 4 0.003713 -0.001820 -0.001642 0.020613 0.001756 -0.003420
# 5 0.001622 -0.001763 0.002576 0.001756 0.036521 -0.004644
# 6 -0.010773 0.000688 -0.000656 -0.003420 -0.004644 0.032121
#
#
# Mechanical properties :
#
#
# Convention : Reuss Voigt Hill
#
# Bulk Modulus (GPa) = 54.19354 68.18456 61.18905
# Shear Modulus (GPa) = 33.06767 39.70255 36.38511
#
# Velocity S-wave (km/s) = 3.99144 4.37358 4.18687
# Velocity P-wave (km/s) = 6.88127 7.63902 7.27002
#
# Compressibility (1/GPa) = 0.01845238
#
# Stress axis : x y z
#
# Youngs Moduli (GPa) = 65.20272 106.66726 80.55641
#
# Poissons Ratio (x) = 0.24271 0.30520
# Poissons Ratio (y) = 0.14836 0.26362
# Poissons Ratio (z) = 0.24703 0.34906
#
# Static dielectric constant tensor:
#      x y z
#    x 1.823670 0.002780 -0.067200 
#    y 0.002780 1.722810 0.044190 
#    z -0.067200 0.044190 1.783350 
# 
# From -- ./inp_files/357042.got.cif
#   From: 2010.05.17/outbox.cif.g08.bks.cpg/sg2_179_cif.got.tgz:357042.got - 2010.06.03 11:33:40.
