data_PCOD9064744
_publ_section_title
;
Structure prediction by ZEFSAII (Michael W. Deem and Ramdas Pophale) SiO2 
 PCOD9064744
Probable space group: P -1
;
_chemical_formula_sum "Si O2"
_cell_formula_units_Z 8
_cell_length_a 6.800908
_cell_length_b 12.577300
_cell_length_c 6.339398
_cell_angle_alpha 68.141578
_cell_angle_beta 114.248951
_cell_angle_gamma 62.853823
_cell_volume 318.500008
_symmetry_space_group_name_H-M "P -1"
_symmetry_group_IT_number 2
_symmetry_cell_setting 'triclinic'
loop_
_space_group_symop_operation_xyz
x,y,z
-x,-y,-z
loop_
_atom_site_type_symbol
_atom_site_label
_atom_site_fract_x
_atom_site_fract_y
_atom_site_fract_z
Si Si1 0.510361 0.914345 0.270202
Si Si2 0.440046 0.485034 0.744996
Si Si3 0.022401 0.100102 0.275058
Si Si4 0.225511 0.434424 0.352908
O O1 0.757966 0.885636 0.543551
O O2 0.649942 0.737694 0.412882
O O3 0.194626 0.013824 0.190950
O O4 0.500000 0.000000 0.000000
O O5 0.144246 0.542828 0.446939
O O6 0.510607 0.580174 0.602727
O O7 0.500000 0.500000 0.000000
O O8 0.690995 0.287320 0.977194
O O9 0.000000 0.000000 0.500000
O O10 0.000000 0.500000 0.000000
#
# Coordination Sequence:
#
# PCOD9064744 Si02
#       4
#     2   2   2   2
#     4  11  25  45  75 109 147 201 247 315 380 443
#     4  11  25  45  74 106 146 201 246 311 380 445
#     4  11  24  46  72 109 151 193 256 310 374 454
#     4  11  24  47  70 108 146 191 252 309 370 452
#
# _framework density 25.117737000000002
#
# number of rings (size 3 to 8) (size 9 to 14) (size 15 to 20)
#    0.000    1.000    2.500    3.000    0.000   11.000 
#    0.000    0.000    0.000    0.000    0.000    0.000 
#    0.000    0.000    0.000    0.000    0.000    0.000 
#
# Total GULP energy -44584.704119 kJ/mol
# GULP energy per Si atom -5573.088015 kJ/mol
# Density = 2.506057 g / cm^3
# Si number density = 25.117737 Si / 1000 Ang^3
#
#
#
# Elastic Constant Matrix: (Units=GPa)
#
#
# Indices 1 2 3 4 5 6 
#
# 1 158.4947 87.2052 44.2849 7.8277 -39.4508 34.7823
# 2 87.2052 178.8891 98.0184 25.3295 -15.1830 27.2007
# 3 44.2849 98.0184 157.0204 25.8347 -20.5700 21.1234
# 4 7.8277 25.3295 25.8347 62.4628 33.4414 5.4814
# 5 -39.4508 -15.1830 -20.5700 33.4414 62.7103 10.3639
# 6 34.7823 27.2007 21.1234 5.4814 10.3639 63.7142
#
#
#
# Elastic Compliance Matrix: (Units=1/GPa)
#
#
# Indices 1 2 3 4 5 6 
#
# 1 0.013929 -0.005141 0.003621 -0.008153 0.014417 -0.008253
# 2 -0.005141 0.011009 -0.005776 -0.000156 -0.002452 0.000434
# 3 0.003621 -0.005776 0.012180 -0.008065 0.009914 -0.004468
# 4 -0.008153 -0.000156 -0.008065 0.034456 -0.027628 0.008721
# 5 0.014417 -0.002452 0.009914 -0.027628 0.044893 -0.015036
# 6 -0.008253 0.000434 -0.004468 0.008721 -0.015036 0.023192
#
#
# Mechanical properties :
#
#
# Convention : Reuss Voigt Hill
#
# Bulk Modulus (GPa) = 44.39403 105.93569 75.16486
# Shear Modulus (GPa) = 30.91000 55.43720 43.17360
#
# Velocity S-wave (km/s) = 3.51180 4.70307 4.15040
# Velocity P-wave (km/s) = 5.84435 8.47107 7.27721
#
# Compressibility (1/GPa) = 0.02252555
#
# Stress axis : x y z
#
# Youngs Moduli (GPa) = 71.79364 90.83100 82.10403
#
# Poissons Ratio (x) = 0.46699 -0.29734
# Poissons Ratio (y) = 0.36911 0.47426
# Poissons Ratio (z) = -0.26000 0.52467
#
# Static dielectric constant tensor:
#      x y z
#    x 2.092100 -0.155470 -0.023360 
#    y -0.155470 2.075340 0.202790 
#    z -0.023360 0.202790 2.295050 
# 
# From -- ./inp_files/2075.got.cif
#   From: 2010.05.17/outbox.cif.g08.bks.cpg/sg2_2_cif.got.tgz:2075.got - 2010.06.03 11:33:40.
