data_PCOD9064732
_publ_section_title
;
Structure prediction by ZEFSAII (Michael W. Deem and Ramdas Pophale) SiO2 
 PCOD9064732
Probable space group: P -1
;
_chemical_formula_sum "Si O2"
_cell_formula_units_Z 16
_cell_length_a 5.629809
_cell_length_b 16.283560
_cell_length_c 15.218264
_cell_angle_alpha 36.413982
_cell_angle_beta 96.225879
_cell_angle_gamma 77.469876
_cell_volume 705.435495
_symmetry_space_group_name_H-M "P -1"
_symmetry_group_IT_number 2
_symmetry_cell_setting 'triclinic'
loop_
_space_group_symop_operation_xyz
x,y,z
-x,-y,-z
loop_
_atom_site_type_symbol
_atom_site_label
_atom_site_fract_x
_atom_site_fract_y
_atom_site_fract_z
Si Si1 0.769944 0.634398 0.995455
Si Si2 0.434158 0.777191 0.027674
Si Si3 0.069816 0.090013 0.851097
Si Si4 0.668847 0.807610 0.664064
Si Si5 0.473952 0.638895 0.445749
Si Si6 0.790145 0.664385 0.299764
Si Si7 0.270152 0.659204 0.735620
Si Si8 0.295303 0.522335 0.229598
O O1 0.560576 0.760059 0.951290
O O2 0.665070 0.511809 0.071057
O O3 0.063551 0.531751 0.146925
O O4 0.799113 0.720168 0.837705
O O5 0.671868 0.652698 0.212448
O O6 0.232296 0.704633 0.077348
O O7 0.298505 0.949933 0.919103
O O8 0.118306 0.207702 0.813420
O O9 0.838483 0.226399 0.659031
O O10 0.000000 0.000000 0.000000
O O11 0.443852 0.748356 0.688383
O O12 0.936027 0.764373 0.648840
O O13 0.500000 0.000000 0.500000
O O14 0.500000 0.500000 0.500000
O O15 0.550724 0.742195 0.296714
O O16 0.676904 0.552725 0.609024
O O17 0.000000 0.500000 0.500000
O O18 0.398592 0.588601 0.705310
#
# Coordination Sequence:
#
# PCOD9064732 Si02
#       8
#     2   2   2   2   2   2   2   2
#     4  11  26  45  80 103 144 189 243 300 359 450
#     4  11  25  40  65 103 140 182 248 299 370 424
#     4  12  25  42  64  95 138 190 245 305 364 421
#     4  12  27  50  79 113 153 186 234 301 382 442
#     4  12  23  43  68  97 140 189 243 296 354 427
#     4  12  23  41  68  92 133 193 247 295 352 430
#     4  11  25  50  79 110 144 193 248 289 364 455
#     4  11  24  46  72 107 139 192 247 302 354 433
#
# _framework density 22.681025000000002
#
# number of rings (size 3 to 8) (size 9 to 14) (size 15 to 20)
#    0.000    0.500    5.000    2.250    5.250    2.000 
#    4.500    0.000    0.000    0.000    0.000    0.000 
#    0.000    0.000    0.000    0.000    0.000    0.000 
#
# Total GULP energy -89144.689515 kJ/mol
# GULP energy per Si atom -5571.543095 kJ/mol
# Density = 2.262940 g / cm^3
# Si number density = 22.681025 Si / 1000 Ang^3
#
#
#
# Elastic Constant Matrix: (Units=GPa)
#
#
# Indices 1 2 3 4 5 6 
#
# 1 106.8105 46.6583 42.0229 -9.4917 -3.4965 11.1477
# 2 46.6583 91.8210 44.1139 -24.2676 3.4453 5.1894
# 3 42.0229 44.1139 105.0447 -11.5391 2.5313 9.6226
# 4 -9.4917 -24.2676 -11.5391 37.7512 -5.1124 9.0834
# 5 -3.4965 3.4453 2.5313 -5.1124 41.3849 -5.2630
# 6 11.1477 5.1894 9.6226 9.0834 -5.2630 46.3704
#
#
#
# Elastic Compliance Matrix: (Units=1/GPa)
#
#
# Indices 1 2 3 4 5 6 
#
# 1 0.012998 -0.005274 -0.002911 -0.000410 0.001450 -0.001686
# 2 -0.005274 0.018283 -0.004348 0.009429 -0.000767 -0.001810
# 3 -0.002911 -0.004348 0.012757 0.000670 -0.000795 -0.001682
# 4 -0.000410 0.009429 0.000670 0.034824 0.002470 -0.007637
# 5 0.001450 -0.000767 -0.000795 0.002470 0.024990 0.002255
# 6 -0.001686 -0.001810 -0.001682 -0.007637 0.002255 0.024274
#
#
# Mechanical properties :
#
#
# Convention : Reuss Voigt Hill
#
# Bulk Modulus (GPa) = 52.70727 63.25184 57.97955
# Shear Modulus (GPa) = 31.34461 36.49338 33.91900
#
# Velocity S-wave (km/s) = 3.72153 4.01556 3.87134
# Velocity P-wave (km/s) = 6.46183 7.03191 6.75289
#
# Compressibility (1/GPa) = 0.01897271
#
# Stress axis : x y z
#
# Youngs Moduli (GPa) = 76.93223 54.69592 78.38886
#
# Poissons Ratio (x) = 0.28848 0.22816
# Poissons Ratio (y) = 0.40576 0.34083
# Poissons Ratio (z) = 0.22392 0.23781
#
# Static dielectric constant tensor:
#      x y z
#    x 2.348750 -0.042660 0.047240 
#    y -0.042660 1.896440 0.005770 
#    z 0.047240 0.005770 1.807040 
# 
# From -- ./inp_files/484269.got.cif
#   From: 2010.05.17/outbox.cif.g08.bks.cpg/sg2_243_cif.got.tgz:484269.got - 2010.06.03 11:33:40.
