data_PCOD9064449
_publ_section_title
;
Structure prediction by ZEFSAII (Michael W. Deem and Ramdas Pophale) SiO2 
 PCOD9064449
Probable space group: P -1
;
_chemical_formula_sum "Si O2"
_cell_formula_units_Z 15
_cell_length_a 13.812506
_cell_length_b 10.381242
_cell_length_c 8.415199
_cell_angle_alpha 106.625732
_cell_angle_beta 108.564838
_cell_angle_gamma 32.738751
_cell_volume 618.222528
_symmetry_space_group_name_H-M "P -1"
_symmetry_group_IT_number 2
_symmetry_cell_setting 'triclinic'
loop_
_space_group_symop_operation_xyz
x,y,z
-x,-y,-z
loop_
_atom_site_type_symbol
_atom_site_label
_atom_site_fract_x
_atom_site_fract_y
_atom_site_fract_z
Si Si1 0.383361 0.718232 0.735151
Si Si2 0.460197 0.899396 0.019353
Si Si3 0.172332 0.224270 0.239287
Si Si4 0.000000 0.000000 0.000000
Si Si5 0.765234 0.540045 0.560424
Si Si6 0.012650 0.909665 0.307007
Si Si7 0.832653 0.450817 0.208109
Si Si8 0.400683 0.771695 0.404142
O O1 0.339353 0.783172 0.547850
O O2 0.509281 0.450734 0.722024
O O3 0.465713 0.766911 0.857844
O O4 0.193644 0.896634 0.787599
O O5 0.620111 0.705051 0.161308
O O6 0.266067 0.108794 0.077030
O O7 0.500000 0.000000 0.000000
O O8 0.231178 0.304929 0.362591
O O9 0.957286 0.438166 0.208804
O O10 0.256544 0.014235 0.317244
O O11 0.910582 0.094899 0.803798
O O12 0.896221 0.253550 0.073717
O O13 0.876820 0.344868 0.687748
O O14 0.857858 0.406425 0.393369
O O15 0.566919 0.691591 0.503705
O O16 0.000000 0.000000 0.500000
#
# Coordination Sequence:
#
# PCOD9064449 Si02
#       8
#     2   2   2   1   2   2   2   2
#     4  11  26  46  72 110 148 199 252 317 377 456
#     4  12  30  49  71 109 160 198 249 319 380 454
#     4  12  28  47  77 106 149 202 256 309 387 458
#     4  12  28  46  78 114 152 198 254 322 374 454
#     4  12  25  49  77 109 153 198 254 322 379 461
#     4  12  25  49  76 112 152 198 257 314 385 452
#     4  12  28  48  76 112 148 202 258 313 385 456
#     4  11  24  45  76 107 142 197 252 312 381 452
#
# _framework density 24.263107000000002
#
# number of rings (size 3 to 8) (size 9 to 14) (size 15 to 20)
#    0.000    0.267    4.000    3.200    9.333    1.067 
#    0.000    0.000    0.000    0.000    0.000    0.000 
#    0.000    0.000    0.000    0.000    0.000    0.000 
#
# Total GULP energy -83833.434163 kJ/mol
# GULP energy per Si atom -5588.895611 kJ/mol
# Density = 2.420788 g / cm^3
# Si number density = 24.263107 Si / 1000 Ang^3
#
#
#
# Elastic Constant Matrix: (Units=GPa)
#
#
# Indices 1 2 3 4 5 6 
#
# 1 84.0098 10.2559 2.7719 -1.4726 17.6922 -0.7644
# 2 10.2559 53.5922 14.5265 -11.1669 9.5730 19.7046
# 3 2.7719 14.5265 89.4033 1.9443 11.5427 19.3060
# 4 -1.4726 -11.1669 1.9443 33.2862 16.0878 -1.0591
# 5 17.6922 9.5730 11.5427 16.0878 32.8465 7.7486
# 6 -0.7644 19.7046 19.3060 -1.0591 7.7486 55.0768
#
#
#
# Elastic Compliance Matrix: (Units=1/GPa)
#
#
# Indices 1 2 3 4 5 6 
#
# 1 0.014407 -0.000324 0.000530 0.005972 -0.011206 0.001822
# 2 -0.000324 0.027267 -0.001536 0.015308 -0.013058 -0.007090
# 3 0.000530 -0.001536 0.012606 0.000456 -0.003705 -0.003332
# 4 0.005972 0.015308 0.000456 0.051378 -0.033022 0.000080
# 5 -0.011206 -0.013058 -0.003705 -0.033022 0.058481 -0.003048
# 6 0.001822 -0.007090 -0.003332 0.000080 -0.003048 0.022316
#
#
# Mechanical properties :
#
#
# Convention : Reuss Voigt Hill
#
# Bulk Modulus (GPa) = 19.37326 31.34599 25.35962
# Shear Modulus (GPa) = 24.23373 37.53861 30.88617
#
# Velocity S-wave (km/s) = 3.16379 3.93765 3.57174
# Velocity P-wave (km/s) = 4.62040 5.79833 5.24255
#
# Compressibility (1/GPa) = 0.05161754
#
# Stress axis : x y z
#
# Youngs Moduli (GPa) = 69.41212 36.67452 79.32473
#
# Poissons Ratio (x) = 0.01190 -0.04201
# Poissons Ratio (y) = 0.02251 0.12188
# Poissons Ratio (z) = -0.03676 0.05635
#
# Static dielectric constant tensor:
#      x y z
#    x 1.999340 -0.027420 -0.039710 
#    y -0.027420 1.910680 -0.002030 
#    z -0.039710 -0.002030 1.937750 
# 
# From -- ./inp_files/244611.got.cif
#   From: 2010.05.17/outbox.cif.g08.bks.cpg/sg2_123_cif.got.tgz:244611.got - 2010.06.03 11:33:40.
