data_PCOD9064148
_publ_section_title
;
Structure prediction by ZEFSAII (Michael W. Deem and Ramdas Pophale) SiO2 
 PCOD9064148
Probable space group: P -1
;
_chemical_formula_sum "Si O2"
_cell_formula_units_Z 16
_cell_length_a 7.448734
_cell_length_b 9.096298
_cell_length_c 13.374588
_cell_angle_alpha 71.055597
_cell_angle_beta 109.969419
_cell_angle_gamma 63.653504
_cell_volume 629.535879
_symmetry_space_group_name_H-M "P -1"
_symmetry_group_IT_number 2
_symmetry_cell_setting 'triclinic'
loop_
_space_group_symop_operation_xyz
x,y,z
-x,-y,-z
loop_
_atom_site_type_symbol
_atom_site_label
_atom_site_fract_x
_atom_site_fract_y
_atom_site_fract_z
Si Si1 0.531054 0.691842 0.724755
Si Si2 0.700334 0.308344 0.517309
Si Si3 0.936200 0.929922 0.763738
Si Si4 0.949438 0.354764 0.979243
Si Si5 0.050701 0.341082 0.315969
Si Si6 0.231079 0.148879 0.606139
Si Si7 0.208662 0.038500 0.926605
Si Si8 0.598029 0.781230 0.195682
O O1 0.385953 0.671212 0.617261
O O2 0.658067 0.516045 0.869229
O O3 0.754216 0.666696 0.714327
O O4 0.363587 0.914685 0.686272
O O5 0.500000 0.500000 0.500000
O O6 0.959266 0.266386 0.574046
O O7 0.739306 0.120778 0.617206
O O8 0.051147 0.756906 0.741021
O O9 0.066345 0.002295 0.831609
O O10 0.913842 0.822432 0.875320
O O11 0.053328 0.237526 0.919863
O O12 0.000000 0.500000 0.000000
O O13 0.192196 0.216518 0.469627
O O14 0.824391 0.562760 0.253985
O O15 0.379049 0.201674 0.686161
O O16 0.371141 0.061057 0.878795
O O17 0.352891 0.857991 0.074324
#
# Coordination Sequence:
#
# PCOD9064148 Si02
#       8
#     2   2   2   2   2   2   2   2
#     4  12  25  46  74 106 151 198 249 307 376 450
#     4  12  27  49  76 108 153 195 250 317 379 446
#     4  12  26  47  75 110 152 192 258 310 374 450
#     4  12  24  47  75 108 151 198 249 307 382 441
#     4  12  26  47  75 113 148 200 255 310 379 450
#     4  12  26  47  75 110 147 199 255 314 376 447
#     4  11  24  45  71 106 148 197 247 308 373 449
#     4  11  24  45  73 103 149 194 251 309 374 444
#
# _framework density 25.415548999999999
#
# number of rings (size 3 to 8) (size 9 to 14) (size 15 to 20)
#    0.000    0.250    5.000    3.750    0.000    3.500 
#    0.000    0.000    0.000    0.000    0.000    0.000 
#    0.000    0.000    0.000    0.000    0.000    0.000 
#
# Total GULP energy -89546.756502 kJ/mol
# GULP energy per Si atom -5596.672281 kJ/mol
# Density = 2.535770 g / cm^3
# Si number density = 25.415549 Si / 1000 Ang^3
#
#
#
# Elastic Constant Matrix: (Units=GPa)
#
#
# Indices 1 2 3 4 5 6 
#
# 1 47.3460 7.1091 8.6137 -4.0761 -9.1511 -2.1872
# 2 7.1091 132.4684 40.0483 20.0129 13.3427 -1.3241
# 3 8.6137 40.0483 148.1689 19.5079 12.1782 1.2518
# 4 -4.0761 20.0129 19.5079 59.4568 -2.2221 1.7853
# 5 -9.1511 13.3427 12.1782 -2.2221 35.2297 -5.5096
# 6 -2.1872 -1.3241 1.2518 1.7853 -5.5096 31.1944
#
#
#
# Elastic Compliance Matrix: (Units=1/GPa)
#
#
# Indices 1 2 3 4 5 6 
#
# 1 0.023778 -0.001959 -0.001972 0.003157 0.008259 0.002941
# 2 -0.001959 0.008916 -0.001648 -0.002721 -0.003512 -0.000157
# 3 -0.001972 -0.001648 0.007848 -0.002236 -0.002884 -0.000904
# 4 0.003157 -0.002721 -0.002236 0.018833 0.003778 -0.000215
# 5 0.008259 -0.003512 -0.002884 0.003778 0.034089 0.006350
# 6 0.002941 -0.000157 -0.000904 -0.000215 0.006350 0.033427
#
#
# Mechanical properties :
#
#
# Convention : Reuss Voigt Hill
#
# Bulk Modulus (GPa) = 34.03243 48.83618 41.43430
# Shear Modulus (GPa) = 33.81970 43.32366 38.57168
#
# Velocity S-wave (km/s) = 3.65179 4.13317 3.89992
# Velocity P-wave (km/s) = 5.58572 6.48339 6.05122
#
# Compressibility (1/GPa) = 0.02938374
#
# Stress axis : x y z
#
# Youngs Moduli (GPa) = 42.05545 112.16387 127.41949
#
# Poissons Ratio (x) = 0.21977 0.25128
# Poissons Ratio (y) = 0.08240 0.20993
# Poissons Ratio (z) = 0.08294 0.18480
#
# Static dielectric constant tensor:
#      x y z
#    x 2.115270 0.002980 0.008700 
#    y 0.002980 1.930210 0.025920 
#    z 0.008700 0.025920 2.041380 
# 
# From -- ./inp_files/494946.got.cif
#   From: 2010.05.17/outbox.cif.g08.bks.cpg/sg2_248_cif.got.tgz:494946.got - 2010.06.03 11:33:40.
