data_PCOD9064993
_publ_section_title
;
Structure prediction by ZEFSAII (Michael W. Deem and Ramdas Pophale) SiO2 
 PCOD9064993
Probable space group: P -1
;
_chemical_formula_sum "Si O2"
_cell_formula_units_Z 10
_cell_length_a 8.507329
_cell_length_b 10.916252
_cell_length_c 6.651450
_cell_angle_alpha 128.524228
_cell_angle_beta 88.065886
_cell_angle_gamma 63.224679
_cell_volume 385.283652
_symmetry_space_group_name_H-M "P -1"
_symmetry_group_IT_number 2
_symmetry_cell_setting 'triclinic'
loop_
_space_group_symop_operation_xyz
x,y,z
-x,-y,-z
loop_
_atom_site_type_symbol
_atom_site_label
_atom_site_fract_x
_atom_site_fract_y
_atom_site_fract_z
Si Si1 0.475126 0.124671 0.321630
Si Si2 0.870177 0.416033 0.885260
Si Si3 0.820795 0.490504 0.517491
Si Si4 0.743524 0.004049 0.551711
Si Si5 0.661756 0.364025 0.172104
O O1 0.343532 0.332123 0.430700
O O2 0.350372 0.097981 0.456994
O O3 0.658609 0.072284 0.397013
O O4 0.500000 0.000000 0.000000
O O5 0.774327 0.501293 0.761363
O O6 0.026021 0.179123 0.640203
O O7 0.690824 0.459328 0.073092
O O8 0.000000 0.500000 0.000000
O O9 0.858113 0.298899 0.222628
O O10 0.000000 0.500000 0.500000
O O11 0.680142 0.181194 0.887846
O O12 0.500000 0.500000 0.500000
#
# Coordination Sequence:
#
# PCOD9064993 Si02
#       5
#     2   2   2   2   2
#     4  11  24  46  80 113 161 208 266 332 410 483
#     4  12  25  49  82 115 158 210 274 330 405 485
#     4  12  25  48  78 113 156 214 266 326 408 481
#     4  11  26  47  77 120 158 210 272 333 400 483
#     4  12  29  50  78 117 168 210 270 341 400 472
#
# _framework density 25.954903000000002
#
# number of rings (size 3 to 8) (size 9 to 14) (size 15 to 20)
#    0.000    0.400    4.000    3.000    0.000   10.400 
#    0.000    0.000    0.000    0.000    0.000    1.400 
#    0.000    0.000    0.000    0.000    0.000    0.000 
#
# Total GULP energy -55722.324536 kJ/mol
# GULP energy per Si atom -5572.232454 kJ/mol
# Density = 2.589583 g / cm^3
# Si number density = 25.954903 Si / 1000 Ang^3
#
#
#
# Elastic Constant Matrix: (Units=GPa)
#
#
# Indices 1 2 3 4 5 6 
#
# 1 98.1046 66.9818 66.2251 6.0304 5.7863 9.3599
# 2 66.9818 185.1070 91.7600 -24.7499 -0.5453 -7.5956
# 3 66.2251 91.7600 193.6740 -3.8995 7.9476 -16.6798
# 4 6.0304 -24.7499 -3.8995 46.6789 5.0680 -6.0414
# 5 5.7863 -0.5453 7.9476 5.0680 57.4390 -9.6724
# 6 9.3599 -7.5956 -16.6798 -6.0414 -9.6724 51.2824
#
#
#
# Elastic Compliance Matrix: (Units=1/GPa)
#
#
# Indices 1 2 3 4 5 6 
#
# 1 0.017837 -0.005531 -0.004087 -0.006219 -0.001827 -0.006481
# 2 -0.005531 0.009400 -0.002267 0.005739 0.000876 0.002506
# 3 -0.004087 -0.002267 0.007910 0.000399 -0.000237 0.002985
# 4 -0.006219 0.005739 0.000399 0.026043 -0.000825 0.005027
# 5 -0.001827 0.000876 -0.000237 -0.000825 0.018339 0.003748
# 6 -0.006481 0.002506 0.002985 0.005027 0.003748 0.023324
#
#
# Mechanical properties :
#
#
# Convention : Reuss Voigt Hill
#
# Bulk Modulus (GPa) = 87.90021 102.97991 95.44006
# Shear Modulus (GPa) = 38.33921 47.87466 43.10693
#
# Velocity S-wave (km/s) = 3.84754 4.29946 4.07976
# Velocity P-wave (km/s) = 7.32653 8.02557 7.68400
#
# Compressibility (1/GPa) = 0.01137654
#
# Stress axis : x y z
#
# Youngs Moduli (GPa) = 56.06319 106.38064 126.42695
#
# Poissons Ratio (x) = 0.58842 0.51671
# Poissons Ratio (y) = 0.31010 0.28660
# Poissons Ratio (z) = 0.22913 0.24116
#
# Static dielectric constant tensor:
#      x y z
#    x 2.415430 0.068810 0.341410 
#    y 0.068810 2.099410 0.220880 
#    z 0.341410 0.220880 2.975300 
# 
# From -- ./inp_files/20745.got.cif
#   From: 2010.05.17/outbox.cif.g08.bks.cpg/sg2_11_cif.got.tgz:20745.got - 2010.06.03 11:33:40.
