data_PCOD9064961
_publ_section_title
;
Structure prediction by ZEFSAII (Michael W. Deem and Ramdas Pophale) SiO2 
 PCOD9064961
Probable space group: P -1
;
_chemical_formula_sum "Si O2"
_cell_formula_units_Z 12
_cell_length_a 17.300485
_cell_length_b 4.949775
_cell_length_c 9.796128
_cell_angle_alpha 96.177940
_cell_angle_beta 42.071440
_cell_angle_gamma 113.311500
_cell_volume 492.026936
_symmetry_space_group_name_H-M "P -1"
_symmetry_group_IT_number 2
_symmetry_cell_setting 'triclinic'
loop_
_space_group_symop_operation_xyz
x,y,z
-x,-y,-z
loop_
_atom_site_type_symbol
_atom_site_label
_atom_site_fract_x
_atom_site_fract_y
_atom_site_fract_z
Si Si1 0.342512 0.628514 0.380947
Si Si2 0.284230 0.031453 0.289038
Si Si3 0.049947 0.288209 0.850754
Si Si4 0.280044 0.712851 0.994864
Si Si5 0.430306 0.330578 0.720294
Si Si6 0.006434 0.117542 0.344029
O O1 0.350972 0.928202 0.313799
O O2 0.206229 0.465390 0.633606
O O3 0.459358 0.673656 0.327206
O O4 0.331940 0.392591 0.261444
O O5 0.127777 0.871435 0.510128
O O6 0.303185 0.912955 0.112713
O O7 0.991465 0.137944 0.772934
O O8 0.000000 0.500000 0.000000
O O9 0.000000 0.000000 0.000000
O O10 0.362579 0.527474 0.875329
O O11 0.324158 0.967328 0.830469
O O12 0.130982 0.445383 0.174916
O O13 0.500000 0.500000 0.500000
O O14 0.000000 0.000000 0.500000
#
# Coordination Sequence:
#
# PCOD9064961 Si02
#       6
#     2   2   2   2   2   2
#     4  11  25  48  71 103 154 187 249 316 363 447
#     4  11  24  46  77 112 143 186 246 319 384 433
#     4  11  25  45  73 108 143 201 245 303 381 443
#     4  12  26  46  78 110 147 201 248 305 385 449
#     4  12  29  50  69 105 153 209 253 304 360 452
#     4  11  25  49  79 120 157 189 251 327 385 455
#
# _framework density 24.388909999999999
#
# number of rings (size 3 to 8) (size 9 to 14) (size 15 to 20)
#    0.000    0.667    0.000    8.000    2.333    9.333 
#    0.000    0.000    0.000    0.000    0.000    0.000 
#    0.000    0.000    0.000    0.000    0.000    0.000 
#
# Total GULP energy -67336.345226 kJ/mol
# GULP energy per Si atom -5611.362102 kJ/mol
# Density = 2.433340 g / cm^3
# Si number density = 24.388910 Si / 1000 Ang^3
#
#
#
# Elastic Constant Matrix: (Units=GPa)
#
#
# Indices 1 2 3 4 5 6 
#
# 1 110.8275 45.9225 55.5304 6.9515 -5.5179 -10.0743
# 2 45.9225 138.9208 70.1751 3.8871 4.3638 -22.7328
# 3 55.5304 70.1751 130.2594 -3.2355 1.9213 -0.1445
# 4 6.9515 3.8871 -3.2355 56.4158 -3.1038 -0.7026
# 5 -5.5179 4.3638 1.9213 -3.1038 32.9047 1.1116
# 6 -10.0743 -22.7328 -0.1445 -0.7026 1.1116 47.4134
#
#
#
# Elastic Compliance Matrix: (Units=1/GPa)
#
#
# Indices 1 2 3 4 5 6 
#
# 1 0.012274 -0.001536 -0.004475 -0.001513 0.002320 0.001781
# 2 -0.001536 0.011395 -0.005476 -0.000940 -0.001712 0.005146
# 3 -0.004475 -0.005476 0.012577 0.001579 -0.000491 -0.003503
# 4 -0.001513 -0.000940 0.001579 0.018144 0.001508 -0.000534
# 5 0.002320 -0.001712 -0.000491 0.001508 0.031213 -0.001039
# 6 0.001781 0.005146 -0.003503 -0.000534 -0.001039 0.023943
#
#
# Mechanical properties :
#
#
# Convention : Reuss Voigt Hill
#
# Bulk Modulus (GPa) = 75.34725 80.36265 77.85495
# Shear Modulus (GPa) = 36.51143 41.23875 38.87509
#
# Velocity S-wave (km/s) = 3.87337 4.11649 3.99678
# Velocity P-wave (km/s) = 7.13899 7.45762 7.30004
#
# Compressibility (1/GPa) = 0.01327188
#
# Stress axis : x y z
#
# Youngs Moduli (GPa) = 81.47339 87.76074 79.50739
#
# Poissons Ratio (x) = 0.13480 0.35578
# Poissons Ratio (y) = 0.12515 0.43540
# Poissons Ratio (z) = 0.36458 0.48060
#
# Static dielectric constant tensor:
#      x y z
#    x 1.905870 0.026630 -0.015070 
#    y 0.026630 1.903020 -0.025750 
#    z -0.015070 -0.025750 1.955230 
# 
# From -- ./inp_files/38677.got.cif
#   From: 2010.05.17/outbox.cif.g08.bks.cpg/sg2_20_cif.got.tgz:38677.got - 2010.06.03 11:33:40.
