data_PCOD9064017
_publ_section_title
;
Structure prediction by ZEFSAII (Michael W. Deem and Ramdas Pophale) SiO2 
 PCOD9064017
Probable space group: P -1
;
_chemical_formula_sum "Si O2"
_cell_formula_units_Z 14
_cell_length_a 15.199017
_cell_length_b 12.566846
_cell_length_c 8.703829
_cell_angle_alpha 119.284661
_cell_angle_beta 152.239243
_cell_angle_gamma 53.396403
_cell_volume 618.324404
_symmetry_space_group_name_H-M "P -1"
_symmetry_group_IT_number 2
_symmetry_cell_setting 'triclinic'
loop_
_space_group_symop_operation_xyz
x,y,z
-x,-y,-z
loop_
_atom_site_type_symbol
_atom_site_label
_atom_site_fract_x
_atom_site_fract_y
_atom_site_fract_z
Si Si1 0.921684 0.082917 0.281065
Si Si2 0.663103 0.640191 0.886560
Si Si3 0.750498 0.359185 0.869115
Si Si4 0.068621 0.351111 0.941161
Si Si5 0.875428 0.859755 0.851830
Si Si6 0.694367 0.369903 0.153753
Si Si7 0.699739 0.876425 0.278267
O O1 0.104995 0.116452 0.509161
O O2 0.721507 0.217134 0.106432
O O3 0.000000 0.000000 0.500000
O O4 0.869544 0.991403 0.015069
O O5 0.810187 0.483443 0.011306
O O6 0.439432 0.637697 0.526074
O O7 0.717200 0.692684 0.849197
O O8 0.688723 0.735198 0.122084
O O9 0.703662 0.380269 0.991565
O O10 0.924033 0.217392 0.997642
O O11 0.892450 0.361774 0.552827
O O12 0.099960 0.246387 0.050842
O O13 0.000000 0.500000 0.000000
O O14 0.704353 0.889502 0.478515
O O15 0.500000 0.500000 0.000000
O O16 0.500000 0.000000 0.000000
#
# Coordination Sequence:
#
# PCOD9064017 Si02
#       7
#     2   2   2   2   2   2   2
#     4  12  25  50  74 103 150 194 243 300 370 442
#     4  11  24  45  69 108 142 189 242 301 364 429
#     4  11  25  45  76 103 144 190 247 302 365 438
#     4  12  24  46  72 107 149 183 244 302 363 438
#     4  12  25  47  75 106 142 198 238 304 373 437
#     4  12  27  46  74 110 146 198 243 303 366 436
#     4  12  27  47  72 106 144 187 249 306 364 441
#
# _framework density 22.641839000000001
#
# number of rings (size 3 to 8) (size 9 to 14) (size 15 to 20)
#    0.000    0.286    5.714    2.143    6.000    2.286 
#    2.571    1.429    0.000    0.000    0.000    0.000 
#    0.000    0.000    0.000    0.000    0.000    0.000 
#
# Total GULP energy -78231.720638 kJ/mol
# GULP energy per Si atom -5587.980046 kJ/mol
# Density = 2.259030 g / cm^3
# Si number density = 22.641839 Si / 1000 Ang^3
#
#
#
# Elastic Constant Matrix: (Units=GPa)
#
#
# Indices 1 2 3 4 5 6 
#
# 1 79.4914 45.1511 20.0675 13.1937 -23.4548 -4.8610
# 2 45.1511 190.8025 63.5353 22.2610 -15.1448 -23.7203
# 3 20.0675 63.5353 79.5054 20.3769 -29.7513 1.4842
# 4 13.1937 22.2610 20.3769 49.6609 -13.7226 -5.7415
# 5 -23.4548 -15.1448 -29.7513 -13.7226 34.2823 1.9159
# 6 -4.8610 -23.7203 1.4842 -5.7415 1.9159 41.3785
#
#
#
# Elastic Compliance Matrix: (Units=1/GPa)
#
#
# Indices 1 2 3 4 5 6 
#
# 1 0.018486 -0.004998 0.005033 -0.000913 0.014535 -0.001674
# 2 -0.004998 0.009683 -0.009330 -0.000705 -0.007832 0.005563
# 3 0.005033 -0.009330 0.028355 -0.003269 0.023027 -0.007294
# 4 -0.000913 -0.000705 -0.003269 0.023905 0.005646 0.002661
# 5 0.014535 -0.007832 0.023027 0.005646 0.058207 -0.005520
# 6 -0.001674 0.005563 -0.007294 0.002661 -0.005520 0.028046
#
#
# Mechanical properties :
#
#
# Convention : Reuss Voigt Hill
#
# Bulk Modulus (GPa) = 26.36285 67.47857 46.92071
# Shear Modulus (GPa) = 25.26302 39.80069 32.53186
#
# Velocity S-wave (km/s) = 3.34393 4.19721 3.79463
# Velocity P-wave (km/s) = 5.15537 7.30452 6.32194
#
# Compressibility (1/GPa) = 0.03793217
#
# Stress axis : x y z
#
# Youngs Moduli (GPa) = 54.09359 103.27493 35.26736
#
# Poissons Ratio (x) = 0.51619 -0.17749
# Poissons Ratio (y) = 0.27037 0.32906
# Poissons Ratio (z) = -0.27223 0.96359
#
# Static dielectric constant tensor:
#      x y z
#    x 1.874000 0.020880 0.007900 
#    y 0.020880 1.868390 -0.036340 
#    z 0.007900 -0.036340 1.911310 
# 
# From -- ./inp_files/217508.got.cif
#   From: 2010.05.17/outbox.cif.g08.bks.cpg/sg2_109_cif.got.tgz:217508.got - 2010.06.03 11:33:40.
