data_PCOD9064040
_publ_section_title
;
Structure prediction by ZEFSAII (Michael W. Deem and Ramdas Pophale) SiO2 
 PCOD9064040
Probable space group: P -1
;
_chemical_formula_sum "Si O2"
_cell_formula_units_Z 16
_cell_length_a 5.274916
_cell_length_b 18.994033
_cell_length_c 22.005861
_cell_angle_alpha 160.859670
_cell_angle_beta 107.577740
_cell_angle_gamma 70.468589
_cell_volume 680.637648
_symmetry_space_group_name_H-M "P -1"
_symmetry_group_IT_number 2
_symmetry_cell_setting 'triclinic'
loop_
_space_group_symop_operation_xyz
x,y,z
-x,-y,-z
loop_
_atom_site_type_symbol
_atom_site_label
_atom_site_fract_x
_atom_site_fract_y
_atom_site_fract_z
Si Si1 0.304077 0.164322 0.840927
Si Si2 0.224556 0.808017 0.884001
Si Si3 0.570483 0.813092 0.402375
Si Si4 0.532132 0.486835 0.563276
Si Si5 0.305356 0.596297 0.008807
Si Si6 0.070241 0.362336 0.185482
Si Si7 0.628752 0.981252 0.142134
Si Si8 0.153755 0.766351 0.441737
O O1 0.383024 0.162417 0.915531
O O2 0.278291 0.920614 0.622192
O O3 0.537648 0.229188 0.868966
O O4 0.010973 0.313701 0.929005
O O5 0.270123 0.638500 0.693846
O O6 0.205015 0.636403 0.798248
O O7 0.431147 0.946533 0.043979
O O8 0.000000 0.000000 0.000000
O O9 0.674026 0.594347 0.194653
O O10 0.328341 0.775143 0.399472
O O11 0.839874 0.869987 0.498688
O O12 0.500000 0.000000 0.500000
O O13 0.500000 0.500000 0.500000
O O14 0.742409 0.600875 0.712296
O O15 0.595217 0.227212 0.363059
O O16 0.500000 0.500000 0.000000
O O17 0.132997 0.536468 0.283623
O O18 0.100817 0.130242 0.963684
#
# Coordination Sequence:
#
# PCOD9064040 Si02
#       8
#     2   2   2   2   2   2   2   2
#     4  12  26  46  72 108 144 194 244 305 367 443
#     4  11  26  45  71 104 142 189 246 309 375 444
#     4  12  26  47  73 106 147 194 241 304 367 438
#     4  11  24  45  70 101 140 185 242 301 372 446
#     4  12  26  47  73 107 146 193 245 300 367 442
#     4  11  25  44  68 101 142 185 241 303 368 439
#     4  11  25  44  68 101 142 186 243 300 373 434
#     4  12  26  46  73 106 147 192 245 303 372 437
#
# _framework density 23.507370999999999
#
# number of rings (size 3 to 8) (size 9 to 14) (size 15 to 20)
#    0.000    0.500    1.250    6.750    7.000    6.000 
#    0.000    0.000    0.000    0.000    0.000    0.000 
#    0.000    0.000    0.000    0.000    0.000    0.000 
#
# Total GULP energy -89154.082285 kJ/mol
# GULP energy per Si atom -5572.130143 kJ/mol
# Density = 2.345387 g / cm^3
# Si number density = 23.507371 Si / 1000 Ang^3
#
#
#
# Elastic Constant Matrix: (Units=GPa)
#
#
# Indices 1 2 3 4 5 6 
#
# 1 66.1082 16.3697 12.7719 2.9465 -11.9504 20.0004
# 2 16.3697 114.2845 17.2260 -9.2028 -6.4712 13.1870
# 3 12.7719 17.2260 152.8769 -8.7344 -19.2793 15.2861
# 4 2.9465 -9.2028 -8.7344 35.5037 6.3186 4.1925
# 5 -11.9504 -6.4712 -19.2793 6.3186 37.9598 -6.2601
# 6 20.0004 13.1870 15.2861 4.1925 -6.2601 31.2055
#
#
#
# Elastic Compliance Matrix: (Units=1/GPa)
#
#
# Indices 1 2 3 4 5 6 
#
# 1 0.019640 -0.001432 0.000088 -0.001475 0.004425 -0.010940
# 2 -0.001432 0.009641 -0.000478 0.002908 -0.000083 -0.003329
# 3 0.000088 -0.000478 0.007350 0.001520 0.002919 -0.003074
# 4 -0.001475 0.002908 0.001520 0.031124 -0.005415 -0.006296
# 5 0.004425 -0.000083 0.002919 -0.005415 0.030539 0.002623
# 6 -0.010940 -0.003329 -0.003074 -0.006296 0.002623 0.043342
#
#
# Mechanical properties :
#
#
# Convention : Reuss Voigt Hill
#
# Bulk Modulus (GPa) = 30.31576 47.33389 38.82483
# Shear Modulus (GPa) = 31.99485 40.06061 36.02773
#
# Velocity S-wave (km/s) = 3.69325 4.13264 3.91911
# Velocity P-wave (km/s) = 5.57773 6.55371 6.08532
#
# Compressibility (1/GPa) = 0.03298614
#
# Stress axis : x y z
#
# Youngs Moduli (GPa) = 50.91742 103.72415 136.05336
#
# Poissons Ratio (x) = 0.14857 -0.01200
# Poissons Ratio (y) = 0.07293 0.06505
# Poissons Ratio (z) = -0.00449 0.04959
#
# Static dielectric constant tensor:
#      x y z
#    x 2.144240 -0.045870 -0.036030 
#    y -0.045870 1.989700 0.134880 
#    z -0.036030 0.134880 2.066940 
# 
# From -- ./inp_files/584101.got.cif
#   From: 2010.05.17/outbox.cif.g08.bks.cpg/sg2_293_cif.got.tgz:584101.got - 2010.06.03 11:33:40.
