data_PCOD9064339
_publ_section_title
;
Structure prediction by ZEFSAII (Michael W. Deem and Ramdas Pophale) SiO2 
 PCOD9064339
Probable space group: P -1
;
_chemical_formula_sum "Si O2"
_cell_formula_units_Z 15
_cell_length_a 8.568149
_cell_length_b 8.770521
_cell_length_c 15.235003
_cell_angle_alpha 70.185672
_cell_angle_beta 142.025820
_cell_angle_gamma 94.910826
_cell_volume 629.280720
_symmetry_space_group_name_H-M "P -1"
_symmetry_group_IT_number 2
_symmetry_cell_setting 'triclinic'
loop_
_space_group_symop_operation_xyz
x,y,z
-x,-y,-z
loop_
_atom_site_type_symbol
_atom_site_label
_atom_site_fract_x
_atom_site_fract_y
_atom_site_fract_z
Si Si1 0.500000 0.500000 0.500000
Si Si2 0.072290 0.054123 0.117486
Si Si3 0.496267 0.822961 0.077051
Si Si4 0.087023 0.451083 0.795589
Si Si5 0.789437 0.260191 0.292911
Si Si6 0.216189 0.363965 0.065999
Si Si7 0.112046 0.117300 0.633034
Si Si8 0.637804 0.146521 0.554586
O O1 0.460026 0.343008 0.449341
O O2 0.821002 0.440552 0.632507
O O3 0.243168 0.180082 0.153534
O O4 0.802060 0.155059 0.029605
O O5 0.230791 0.901799 0.280742
O O6 0.000000 0.000000 0.000000
O O7 0.648923 0.674459 0.108675
O O8 0.680038 0.801366 0.248781
O O9 0.500000 0.000000 0.000000
O O10 0.115939 0.637791 0.760202
O O11 0.098768 0.384199 0.912226
O O12 0.511831 0.376863 0.188351
O O13 0.008961 0.201388 0.477839
O O14 0.749630 0.085697 0.276029
O O15 0.000000 0.500000 0.000000
O O16 0.862251 0.134013 0.583139
O O17 0.500000 0.000000 0.500000
#
# Coordination Sequence:
#
# PCOD9064339 Si02
#       8
#     1   2   2   2   2   2   2   2
#     4  12  26  48  74 112 152 188 262 306 390 456
#     4  12  26  47  75 110 150 201 250 314 390 457
#     4  12  23  46  75 103 146 194 246 299 380 456
#     4  12  27  47  73 104 148 198 242 317 378 455
#     4  11  26  47  72 106 142 192 252 311 381 455
#     4  12  28  44  71 109 149 192 251 314 376 462
#     4  11  24  45  74 102 139 193 249 307 372 458
#     4  12  26  47  79 108 153 203 248 322 385 453
#
# _framework density 23.836739000000001
#
# number of rings (size 3 to 8) (size 9 to 14) (size 15 to 20)
#    0.000    0.267    2.667    6.000    5.600    4.800 
#    2.400    0.000    0.000    0.000    0.000    0.000 
#    0.000    0.000    0.000    0.000    0.000    0.000 
#
# Total GULP energy -83801.361053 kJ/mol
# GULP energy per Si atom -5586.757404 kJ/mol
# Density = 2.378249 g / cm^3
# Si number density = 23.836739 Si / 1000 Ang^3
#
#
#
# Elastic Constant Matrix: (Units=GPa)
#
#
# Indices 1 2 3 4 5 6 
#
# 1 111.2022 17.1454 2.2771 -9.8585 14.4913 -0.9930
# 2 17.1454 69.1023 -8.0569 -6.6137 2.5875 -8.1031
# 3 2.2771 -8.0569 40.7509 6.0084 -0.0403 2.8771
# 4 -9.8585 -6.6137 6.0084 34.4188 -0.3331 0.3198
# 5 14.4913 2.5875 -0.0403 -0.3331 40.6971 4.1261
# 6 -0.9930 -8.1031 2.8771 0.3198 4.1261 49.0382
#
#
#
# Elastic Compliance Matrix: (Units=1/GPa)
#
#
# Indices 1 2 3 4 5 6 
#
# 1 0.010054 -0.002255 -0.001416 0.002659 -0.003435 0.000186
# 2 -0.002255 0.015839 0.002808 0.001881 -0.000432 0.002431
# 3 -0.001416 0.002808 0.025896 -0.004372 0.000426 -0.001091
# 4 0.002659 0.001881 -0.004372 0.030927 -0.000867 0.000492
# 5 -0.003435 -0.000432 0.000426 -0.000867 0.026054 -0.002353
# 6 0.000186 0.002431 -0.001091 0.000492 -0.002353 0.021056
#
#
# Mechanical properties :
#
#
# Convention : Reuss Voigt Hill
#
# Bulk Modulus (GPa) = 19.97441 27.08741 23.53091
# Shear Modulus (GPa) = 33.72885 38.81015 36.26950
#
# Velocity S-wave (km/s) = 3.76572 4.03943 3.90498
# Velocity P-wave (km/s) = 5.22546 5.75712 5.49772
#
# Compressibility (1/GPa) = 0.05006407
#
# Stress axis : x y z
#
# Youngs Moduli (GPa) = 99.45972 63.13348 38.61627
#
# Poissons Ratio (x) = 0.14236 0.05469
# Poissons Ratio (y) = 0.22427 -0.10845
# Poissons Ratio (z) = 0.14085 -0.17730
#
# Static dielectric constant tensor:
#      x y z
#    x 1.866530 -0.029710 0.020050 
#    y -0.029710 1.962440 0.011910 
#    z 0.020050 0.011910 1.912120 
# 
# From -- ./inp_files/342785.got.cif
#   From: 2010.05.17/outbox.cif.g08.bks.cpg/sg2_172_cif.got.tgz:342785.got - 2010.06.03 11:33:40.
