data_PCOD9064881
_publ_section_title
;
Structure prediction by ZEFSAII (Michael W. Deem and Ramdas Pophale) SiO2 
 PCOD9064881
Probable space group: P -1
;
_chemical_formula_sum "Si O2"
_cell_formula_units_Z 14
_cell_length_a 5.309287
_cell_length_b 8.526604
_cell_length_c 12.705075
_cell_angle_alpha 80.685585
_cell_angle_beta 91.651772
_cell_angle_gamma 99.913968
_cell_volume 559.101955
_symmetry_space_group_name_H-M "P -1"
_symmetry_group_IT_number 2
_symmetry_cell_setting 'triclinic'
loop_
_space_group_symop_operation_xyz
x,y,z
-x,-y,-z
loop_
_atom_site_type_symbol
_atom_site_label
_atom_site_fract_x
_atom_site_fract_y
_atom_site_fract_z
Si Si1 0.398192 0.307312 0.149845
Si Si2 0.988227 0.617079 0.388576
Si Si3 0.221297 0.891642 0.502289
Si Si4 0.220306 0.625870 0.170406
Si Si5 0.896279 0.812963 0.041307
Si Si6 0.134269 0.812756 0.730570
Si Si7 0.338894 0.180898 0.737657
O O1 0.386414 0.493690 0.150327
O O2 0.673109 0.270218 0.188580
O O3 0.156273 0.217491 0.227645
O O4 0.323314 0.247079 0.038153
O O5 0.174811 0.782749 0.409545
O O6 0.066069 0.555694 0.281889
O O7 0.000000 0.500000 0.500000
O O8 0.719326 0.681503 0.358630
O O9 0.174865 0.772583 0.614259
O O10 0.500000 0.000000 0.500000
O O11 0.000000 0.000000 0.500000
O O12 0.391322 0.783306 0.205465
O O13 0.085263 0.682554 0.059656
O O14 0.835637 0.806028 0.164322
O O15 0.000000 0.000000 0.000000
O O16 0.252964 0.002790 0.714552
#
# Coordination Sequence:
#
# PCOD9064881 Si02
#       7
#     2   2   2   2   2   2   2
#     4  12  28  46  75 106 149 190 239 303 361 434
#     4  11  26  47  71 105 148 192 239 301 369 429
#     4  12  25  45  74 105 142 190 245 300 358 422
#     4  11  27  46  71 107 146 189 244 299 363 436
#     4  11  24  46  75 105 142 192 241 297 368 429
#     4  12  26  47  73 106 146 189 248 293 365 433
#     4  11  25  45  73 104 144 190 244 300 356 444
#
# _framework density 25.040156
#
# number of rings (size 3 to 8) (size 9 to 14) (size 15 to 20)
#    0.000    0.571    2.857    3.857   10.000    2.286 
#    0.000    0.000    0.000    0.000    0.000    0.000 
#    0.000    0.000    0.000    0.000    0.000    0.000 
#
# Total GULP energy -78293.723629 kJ/mol
# GULP energy per Si atom -5592.408831 kJ/mol
# Density = 2.498316 g / cm^3
# Si number density = 25.040156 Si / 1000 Ang^3
#
#
#
# Elastic Constant Matrix: (Units=GPa)
#
#
# Indices 1 2 3 4 5 6 
#
# 1 83.0958 0.8342 17.0094 -7.8619 8.7116 6.3296
# 2 0.8342 85.5016 29.5366 4.7087 -2.6815 -0.5016
# 3 17.0094 29.5366 126.2821 -6.1447 21.4545 -13.1237
# 4 -7.8619 4.7087 -6.1447 53.8217 3.4507 3.8944
# 5 8.7116 -2.6815 21.4545 3.4507 36.2880 -1.1543
# 6 6.3296 -0.5016 -13.1237 3.8944 -1.1543 43.4676
#
#
#
# Elastic Compliance Matrix: (Units=1/GPa)
#
#
# Indices 1 2 3 4 5 6 
#
# 1 0.013001 0.000203 -0.001551 0.002051 -0.002467 -0.002608
# 2 0.000203 0.013221 -0.003855 -0.001724 0.003346 -0.000798
# 3 -0.001551 -0.003855 0.010461 0.001478 -0.006141 0.003044
# 4 0.002051 -0.001724 0.001478 0.019542 -0.003407 -0.001713
# 5 -0.002467 0.003346 -0.006141 -0.003407 0.032342 -0.000292
# 6 -0.002608 -0.000798 0.003044 -0.001713 -0.000292 0.024441
#
#
# Mechanical properties :
#
#
# Convention : Reuss Voigt Hill
#
# Bulk Modulus (GPa) = 38.05476 43.29331 40.67404
# Shear Modulus (GPa) = 37.82970 43.21542 40.52256
#
# Velocity S-wave (km/s) = 3.89107 4.15884 4.02718
# Velocity P-wave (km/s) = 5.95128 6.35518 6.15654
#
# Compressibility (1/GPa) = 0.02627792
#
# Stress axis : x y z
#
# Youngs Moduli (GPa) = 76.91645 75.64005 95.59418
#
# Poissons Ratio (x) = -0.01537 0.14825
# Poissons Ratio (y) = -0.01563 0.36849
# Poissons Ratio (z) = 0.11928 0.29157
#
# Static dielectric constant tensor:
#      x y z
#    x 2.208080 -0.061930 -0.093550 
#    y -0.061930 2.017270 -0.031660 
#    z -0.093550 -0.031660 1.971880 
# 
# From -- ./inp_files/27545.got.cif
#   From: 2010.05.17/outbox.cif.g08.bks.cpg/sg2_14_cif.got.tgz:27545.got - 2010.06.03 11:33:40.
