data_PCOD9064122
_publ_section_title
;
Structure prediction by ZEFSAII (Michael W. Deem and Ramdas Pophale) SiO2 
 PCOD9064122
Probable space group: P -1
;
_chemical_formula_sum "Si O2"
_cell_formula_units_Z 12
_cell_length_a 13.301526
_cell_length_b 9.031331
_cell_length_c 8.004205
_cell_angle_alpha 33.199463
_cell_angle_beta 113.429189
_cell_angle_gamma 116.824010
_cell_volume 469.453519
_symmetry_space_group_name_H-M "P -1"
_symmetry_group_IT_number 2
_symmetry_cell_setting 'triclinic'
loop_
_space_group_symop_operation_xyz
x,y,z
-x,-y,-z
loop_
_atom_site_type_symbol
_atom_site_label
_atom_site_fract_x
_atom_site_fract_y
_atom_site_fract_z
Si Si1 0.298587 0.753892 0.769302
Si Si2 0.913402 0.133674 0.610000
Si Si3 0.964227 0.342046 0.950714
Si Si4 0.416743 0.699764 0.241870
Si Si5 0.379310 0.290944 0.099286
Si Si6 0.754031 0.113599 0.847110
O O1 0.177628 0.823302 0.627653
O O2 0.373245 0.031589 0.467443
O O3 0.346861 0.672058 0.050408
O O4 0.294401 0.482889 0.909411
O O5 0.842708 0.138296 0.728591
O O6 0.017945 0.398626 0.411586
O O7 0.954484 0.857108 0.859928
O O8 0.838890 0.147304 0.028052
O O9 0.000000 0.500000 0.000000
O O10 0.500000 0.500000 0.500000
O O11 0.326405 0.683687 0.346466
O O12 0.500000 0.000000 0.000000
O O13 0.340676 0.152572 0.026679
O O14 0.500000 0.500000 0.000000
#
# Coordination Sequence:
#
# PCOD9064122 Si02
#       6
#     2   2   2   2   2   2
#     4  11  24  45  71 102 145 193 244 308 372 442
#     4  11  25  47  74 111 147 192 246 305 372 452
#     4  12  26  47  76 111 149 192 241 305 379 455
#     4  12  28  47  70 105 147 195 251 309 370 440
#     4  11  24  45  71 103 142 197 253 309 369 435
#     4  11  27  47  75 108 149 197 249 310 373 442
#
# _framework density 25.561634999999999
#
# number of rings (size 3 to 8) (size 9 to 14) (size 15 to 20)
#    0.000    0.667    0.000    7.000    0.000   13.333 
#    0.000    0.000    0.000    0.000    0.000    0.000 
#    0.000    0.000    0.000    0.000    0.000    0.000 
#
# Total GULP energy -67097.199701 kJ/mol
# GULP energy per Si atom -5591.433308 kJ/mol
# Density = 2.550346 g / cm^3
# Si number density = 25.561635 Si / 1000 Ang^3
#
#
#
# Elastic Constant Matrix: (Units=GPa)
#
#
# Indices 1 2 3 4 5 6 
#
# 1 145.9579 67.8986 56.1878 -7.0809 32.9135 -16.7509
# 2 67.8986 198.5505 55.3449 0.1047 11.1193 -0.1549
# 3 56.1878 55.3449 152.1330 -24.7287 30.1273 -25.8673
# 4 -7.0809 0.1047 -24.7287 34.1515 -4.6303 5.6195
# 5 32.9135 11.1193 30.1273 -4.6303 49.3894 -3.6227
# 6 -16.7509 -0.1549 -25.8673 5.6195 -3.6227 55.1745
#
#
#
# Elastic Compliance Matrix: (Units=1/GPa)
#
#
# Indices 1 2 3 4 5 6 
#
# 1 0.010047 -0.002781 -0.001318 0.000103 -0.005103 0.002079
# 2 -0.002781 0.006513 -0.002174 -0.001716 0.001436 -0.001576
# 3 -0.001318 -0.002174 0.010227 0.006012 -0.004049 0.003510
# 4 0.000103 -0.001716 0.006012 0.033729 -0.000232 -0.000605
# 5 -0.005103 0.001436 -0.004049 -0.000232 0.025646 -0.001736
# 6 0.002079 -0.001576 0.003510 -0.000605 -0.001736 0.020344
#
#
# Mechanical properties :
#
#
# Convention : Reuss Voigt Hill
#
# Bulk Modulus (GPa) = 70.22073 95.05600 82.63836
# Shear Modulus (GPa) = 40.38871 48.89043 44.63957
#
# Velocity S-wave (km/s) = 3.97930 4.37813 4.18347
# Velocity P-wave (km/s) = 6.97452 7.92623 7.46555
#
# Compressibility (1/GPa) = 0.01424081
#
# Stress axis : x y z
#
# Youngs Moduli (GPa) = 99.53559 153.54872 97.78372
#
# Poissons Ratio (x) = 0.42701 0.12889
# Poissons Ratio (y) = 0.27680 0.21254
# Poissons Ratio (z) = 0.13120 0.33374
#
# Static dielectric constant tensor:
#      x y z
#    x 2.100680 -0.009570 -0.098550 
#    y -0.009570 2.102840 -0.022740 
#    z -0.098550 -0.022740 2.046740 
# 
# From -- ./inp_files/291397.got.cif
#   From: 2010.05.17/outbox.cif.g08.bks.cpg/sg2_146_cif.got.tgz:291397.got - 2010.06.03 11:33:40.
