data_PCOD9064141
_publ_section_title
;
Structure prediction by ZEFSAII (Michael W. Deem and Ramdas Pophale) SiO2 
 PCOD9064141
Probable space group: P -1
;
_chemical_formula_sum "Si O2"
_cell_formula_units_Z 13
_cell_length_a 12.573068
_cell_length_b 11.811201
_cell_length_c 9.941406
_cell_angle_alpha 142.254585
_cell_angle_beta 78.021025
_cell_angle_gamma 73.416838
_cell_volume 584.065863
_symmetry_space_group_name_H-M "P -1"
_symmetry_group_IT_number 2
_symmetry_cell_setting 'triclinic'
loop_
_space_group_symop_operation_xyz
x,y,z
-x,-y,-z
loop_
_atom_site_type_symbol
_atom_site_label
_atom_site_fract_x
_atom_site_fract_y
_atom_site_fract_z
Si Si1 0.963894 0.858096 0.641917
Si Si2 0.656496 0.776274 0.843401
Si Si3 0.673153 0.324833 0.359520
Si Si4 0.502960 0.880009 0.250284
Si Si5 0.259102 0.768565 0.453512
Si Si6 0.000000 0.500000 0.500000
Si Si7 0.155457 0.170457 0.619543
O O1 0.898384 0.897540 0.548754
O O2 0.095278 0.854579 0.596536
O O3 0.039049 0.580974 0.433023
O O4 0.818210 0.096498 0.004965
O O5 0.695349 0.510625 0.564606
O O6 0.810207 0.702247 0.688884
O O7 0.593503 0.877327 0.107057
O O8 0.500000 0.000000 0.000000
O O9 0.500000 0.500000 0.500000
O O10 0.694947 0.203860 0.386931
O O11 0.500000 0.000000 0.500000
O O12 0.315220 0.080310 0.446250
O O13 0.599485 0.559408 0.935694
O O14 0.217068 0.976861 0.550913
O O15 0.000000 0.500000 0.000000
#
# Coordination Sequence:
#
# PCOD9064141 Si02
#       7
#     2   2   2   2   2   1   2
#     4  12  25  44  71 103 142 187 248 303 370 445
#     4  11  25  45  71 110 145 192 247 310 373 449
#     4  11  24  45  71 105 146 188 246 307 379 439
#     4  11  24  47  69 104 146 192 246 297 376 446
#     4  11  25  48  70 105 149 191 245 303 376 450
#     4  12  24  44  78 100 150 182 258 302 374 432
#     4  12  28  45  72 107 146 198 246 304 379 449
#
# _framework density 22.257764000000002
#
# number of rings (size 3 to 8) (size 9 to 14) (size 15 to 20)
#    0.000    0.615    3.077    6.000    2.154    3.692 
#    0.000    0.000    0.000    0.000    0.000    0.000 
#    0.000    0.000    0.000    0.000    0.000    0.000 
#
# Total GULP energy -72513.947815 kJ/mol
# GULP energy per Si atom -5577.995986 kJ/mol
# Density = 2.220710 g / cm^3
# Si number density = 22.257764 Si / 1000 Ang^3
#
#
#
# Elastic Constant Matrix: (Units=GPa)
#
#
# Indices 1 2 3 4 5 6 
#
# 1 132.0876 21.7763 37.0720 -11.1908 -35.8806 -12.6883
# 2 21.7763 128.5399 44.2616 -16.2048 1.4983 -13.9409
# 3 37.0720 44.2616 143.2356 -10.5577 -11.6955 -18.0629
# 4 -11.1908 -16.2048 -10.5577 35.1237 -11.9211 4.1794
# 5 -35.8806 1.4983 -11.6955 -11.9211 41.5191 2.1386
# 6 -12.6883 -13.9409 -18.0629 4.1794 2.1386 49.7788
#
#
#
# Elastic Compliance Matrix: (Units=1/GPa)
#
#
# Indices 1 2 3 4 5 6 
#
# 1 0.012026 -0.000725 -0.001220 0.007059 0.012034 0.001310
# 2 -0.000725 0.009230 -0.002355 0.002864 -0.000870 0.001342
# 3 -0.001220 -0.002355 0.008517 0.001449 0.001747 0.001923
# 4 0.007059 0.002864 0.001449 0.038522 0.017510 -0.000859
# 5 0.012034 -0.000870 0.001747 0.017510 0.040022 0.000268
# 6 0.001310 0.001342 0.001923 -0.000859 0.000268 0.021557
#
#
# Mechanical properties :
#
#
# Convention : Reuss Voigt Hill
#
# Bulk Modulus (GPa) = 47.23374 67.78699 57.51036
# Shear Modulus (GPa) = 34.35644 45.33453 39.84549
#
# Velocity S-wave (km/s) = 3.93309 4.51798 4.23565
# Velocity P-wave (km/s) = 6.47248 7.59854 7.05800
#
# Compressibility (1/GPa) = 0.02117131
#
# Stress axis : x y z
#
# Youngs Moduli (GPa) = 83.15573 108.33739 117.41199
#
# Poissons Ratio (x) = 0.07860 0.14327
# Poissons Ratio (y) = 0.06033 0.27653
# Poissons Ratio (z) = 0.10147 0.25515
#
# Static dielectric constant tensor:
#      x y z
#    x 1.791230 0.001140 0.039700 
#    y 0.001140 1.958470 0.101850 
#    z 0.039700 0.101850 1.855450 
# 
# From -- ./inp_files/149612.got.cif
#   From: 2010.05.17/outbox.cif.g08.bks.cpg/sg2_75_cif.got.tgz:149612.got - 2010.06.03 11:33:40.
