data_PCOD9064869
_publ_section_title
;
Structure prediction by ZEFSAII (Michael W. Deem and Ramdas Pophale) SiO2 
 PCOD9064869
Probable space group: P -1
;
_chemical_formula_sum "Si O2"
_cell_formula_units_Z 14
_cell_length_a 6.007612
_cell_length_b 10.746831
_cell_length_c 12.197859
_cell_angle_alpha 73.102682
_cell_angle_beta 121.033610
_cell_angle_gamma 107.024024
_cell_volume 635.785018
_symmetry_space_group_name_H-M "P -1"
_symmetry_group_IT_number 2
_symmetry_cell_setting 'triclinic'
loop_
_space_group_symop_operation_xyz
x,y,z
-x,-y,-z
loop_
_atom_site_type_symbol
_atom_site_label
_atom_site_fract_x
_atom_site_fract_y
_atom_site_fract_z
Si Si1 0.338442 0.776427 0.468144
Si Si2 0.731301 0.931992 0.016198
Si Si3 0.869524 0.957312 0.591468
Si Si4 0.084977 0.361781 0.035695
Si Si5 0.241489 0.794454 0.833287
Si Si6 0.332364 0.602086 0.724702
Si Si7 0.076030 0.311942 0.787331
O O1 0.647798 0.830519 0.541764
O O2 0.278281 0.673317 0.579576
O O3 0.206119 0.714837 0.338578
O O4 0.232419 0.914459 0.422536
O O5 0.550083 0.851479 0.896283
O O6 0.809841 0.824860 0.149130
O O7 0.500000 0.000000 0.000000
O O8 0.000000 0.000000 0.000000
O O9 0.081367 0.908119 0.733965
O O10 0.000000 0.000000 0.500000
O O11 0.361549 0.367236 0.168036
O O12 0.860658 0.255530 0.061426
O O13 0.084263 0.342250 0.910817
O O14 0.000000 0.500000 0.000000
O O15 0.188110 0.673288 0.765321
O O16 0.240531 0.444187 0.740935
#
# Coordination Sequence:
#
# PCOD9064869 Si02
#       7
#     2   2   2   2   2   2   2
#     4  11  26  46  73 108 149 187 254 317 376 455
#     4  12  28  47  74 112 156 198 256 327 387 455
#     4  11  24  46  75 101 144 203 244 303 381 460
#     4  12  24  46  73 105 148 199 248 309 384 462
#     4  12  24  46  74 105 143 199 253 302 385 459
#     4  12  24  47  72 106 145 195 248 309 385 461
#     4  12  26  47  74 114 148 195 255 319 385 455
#
# _framework density 22.020022000000001
#
# number of rings (size 3 to 8) (size 9 to 14) (size 15 to 20)
#    0.000    0.286    5.714    3.429    2.000    0.000 
#    5.143    1.429    0.000    0.000    0.000    0.000 
#    0.000    0.000    0.000    0.000    0.000    0.000 
#
# Total GULP energy -78151.664796 kJ/mol
# GULP energy per Si atom -5582.261771 kJ/mol
# Density = 2.196990 g / cm^3
# Si number density = 22.020022 Si / 1000 Ang^3
#
#
#
# Elastic Constant Matrix: (Units=GPa)
#
#
# Indices 1 2 3 4 5 6 
#
# 1 67.1515 42.6529 27.0638 -11.0575 8.9048 13.7521
# 2 42.6529 126.5756 55.7847 -15.1601 7.7395 23.3055
# 3 27.0638 55.7847 150.1154 -7.4375 19.3163 12.7093
# 4 -11.0575 -15.1601 -7.4375 44.6451 4.3410 1.1600
# 5 8.9048 7.7395 19.3163 4.3410 28.8008 0.3828
# 6 13.7521 23.3055 12.7093 1.1600 0.3828 49.9532
#
#
#
# Elastic Compliance Matrix: (Units=1/GPa)
#
#
# Indices 1 2 3 4 5 6 
#
# 1 0.020398 -0.005287 -0.000630 0.003715 -0.004983 -0.003037
# 2 -0.005287 0.011936 -0.003110 0.002293 0.000213 -0.003377
# 3 -0.000630 -0.003110 0.008639 0.000714 -0.004864 -0.000553
# 4 0.003715 0.002293 0.000714 0.024868 -0.005955 -0.002806
# 5 -0.004983 0.000213 -0.004864 -0.005955 0.040333 0.002339
# 6 -0.003037 -0.003377 -0.000553 -0.002806 0.002339 0.022618
#
#
# Mechanical properties :
#
#
# Convention : Reuss Voigt Hill
#
# Bulk Modulus (GPa) = 43.63405 66.09392 54.86399
# Shear Modulus (GPa) = 32.36489 39.23589 35.80039
#
# Velocity S-wave (km/s) = 3.83795 4.22575 4.03651
# Velocity P-wave (km/s) = 6.28478 7.34097 6.83331
#
# Compressibility (1/GPa) = 0.02291788
#
# Stress axis : x y z
#
# Youngs Moduli (GPa) = 49.02326 83.77903 115.75365
#
# Poissons Ratio (x) = 0.44295 0.07298
# Poissons Ratio (y) = 0.25919 0.36003
# Poissons Ratio (z) = 0.03091 0.26058
#
# Static dielectric constant tensor:
#      x y z
#    x 1.841200 0.135300 -0.152370 
#    y 0.135300 3.244050 -1.518470 
#    z -0.152370 -1.518470 3.552000 
# 
# From -- ./inp_files/364187.got.cif
#   From: 2010.05.17/outbox.cif.g08.bks.cpg/sg2_183_cif.got.tgz:364187.got - 2010.06.03 11:33:40.
