data_PCOD9064265
_publ_section_title
;
Structure prediction by ZEFSAII (Michael W. Deem and Ramdas Pophale) SiO2 
 PCOD9064265
Probable space group: P -1
;
_chemical_formula_sum "Si O2"
_cell_formula_units_Z 14
_cell_length_a 14.925398
_cell_length_b 11.097226
_cell_length_c 5.604732
_cell_angle_alpha 75.957539
_cell_angle_beta 102.757171
_cell_angle_gamma 139.621051
_cell_volume 582.470359
_symmetry_space_group_name_H-M "P -1"
_symmetry_group_IT_number 2
_symmetry_cell_setting 'triclinic'
loop_
_space_group_symop_operation_xyz
x,y,z
-x,-y,-z
loop_
_atom_site_type_symbol
_atom_site_label
_atom_site_fract_x
_atom_site_fract_y
_atom_site_fract_z
Si Si1 0.161075 0.696098 0.448837
Si Si2 0.989694 0.346355 0.998251
Si Si3 0.341686 0.640003 0.527789
Si Si4 0.854615 0.691603 0.117135
Si Si5 0.763121 0.025268 0.296135
Si Si6 0.112849 0.065235 0.341458
Si Si7 0.493708 0.843578 0.025797
O O1 0.238158 0.652273 0.433095
O O2 0.244435 0.851639 0.625092
O O3 0.000000 0.500000 0.500000
O O4 0.138101 0.776179 0.198878
O O5 0.926323 0.196905 0.235210
O O6 0.000000 0.500000 0.000000
O O7 0.127004 0.426149 0.934948
O O8 0.248463 0.429290 0.664104
O O9 0.414945 0.708606 0.280727
O O10 0.434062 0.761916 0.761637
O O11 0.822090 0.759467 0.865105
O O12 0.010082 0.882579 0.197722
O O13 0.767042 0.900542 0.499127
O O14 0.638497 0.915562 0.093801
O O15 0.000000 0.000000 0.500000
O O16 0.500000 0.000000 0.000000
#
# Coordination Sequence:
#
# PCOD9064265 Si02
#       7
#     2   2   2   2   2   2   2
#     4  12  22  37  64 103 138 172 225 296 367 425
#     4  12  23  37  67 108 141 173 226 301 374 432
#     4  12  27  46  71 102 150 186 239 294 356 434
#     4  11  25  43  69 108 139 181 239 299 369 422
#     4  12  24  42  67  96 140 185 242 285 356 426
#     4  11  24  45  73 102 138 185 237 309 363 417
#     4  12  28  47  68 103 147 202 235 285 352 436
#
# _framework density 24.035558000000002
#
# number of rings (size 3 to 8) (size 9 to 14) (size 15 to 20)
#    0.000    0.286    7.143    1.286    6.000    0.000 
#    0.000    1.429    0.000    0.000    0.000    0.000 
#    0.000    0.000    0.000    0.000    0.000    0.000 
#
# Total GULP energy -78124.293927 kJ/mol
# GULP energy per Si atom -5580.306709 kJ/mol
# Density = 2.398085 g / cm^3
# Si number density = 24.035558 Si / 1000 Ang^3
#
#
#
# Elastic Constant Matrix: (Units=GPa)
#
#
# Indices 1 2 3 4 5 6 
#
# 1 84.5611 26.1027 38.9753 -12.4582 20.9748 8.5630
# 2 26.1027 63.9296 41.7904 -12.4858 7.1597 4.4757
# 3 38.9753 41.7904 116.5133 -22.8055 14.1150 8.5493
# 4 -12.4582 -12.4858 -22.8055 60.3049 8.3748 -2.5927
# 5 20.9748 7.1597 14.1150 8.3748 52.3134 -2.8284
# 6 8.5630 4.4757 8.5493 -2.5927 -2.8284 28.6466
#
#
#
# Elastic Compliance Matrix: (Units=1/GPa)
#
#
# Indices 1 2 3 4 5 6 
#
# 1 0.016381 -0.003493 -0.002782 0.002262 -0.005912 -0.003900
# 2 -0.003493 0.021432 -0.006216 0.001363 -0.000092 -0.000335
# 3 -0.002782 -0.006216 0.012757 0.003170 -0.002088 -0.001924
# 4 0.002262 0.001363 0.003170 0.019207 -0.005056 -0.000596
# 5 -0.005912 -0.000092 -0.002088 -0.005056 0.023100 0.004228
# 6 -0.003900 -0.000335 -0.001924 -0.000596 0.004228 0.037064
#
#
# Mechanical properties :
#
#
# Convention : Reuss Voigt Hill
#
# Bulk Modulus (GPa) = 39.07993 53.19341 46.13667
# Shear Modulus (GPa) = 30.59010 38.79536 34.69273
#
# Velocity S-wave (km/s) = 3.57136 4.02192 3.80332
# Velocity P-wave (km/s) = 5.77068 6.61415 6.20676
#
# Compressibility (1/GPa) = 0.02558859
#
# Stress axis : x y z
#
# Youngs Moduli (GPa) = 61.04727 46.65958 78.38683
#
# Poissons Ratio (x) = 0.16299 0.21803
# Poissons Ratio (y) = 0.21324 0.48725
# Poissons Ratio (z) = 0.16980 0.29004
#
# Static dielectric constant tensor:
#      x y z
#    x 1.946490 -0.025400 -0.189350 
#    y -0.025400 1.983660 0.006920 
#    z -0.189350 0.006920 2.405720 
# 
# From -- ./inp_files/94689.got.cif
#   From: 2010.05.17/outbox.cif.g08.bks.cpg/sg2_48_cif.got.tgz:94689.got - 2010.06.03 11:33:40.
