data_PCOD9064784
_publ_section_title
;
Structure prediction by ZEFSAII (Michael W. Deem and Ramdas Pophale) SiO2 
 PCOD9064784
Probable space group: P -1
;
_chemical_formula_sum "Si O2"
_cell_formula_units_Z 14
_cell_length_a 9.047190
_cell_length_b 14.622188
_cell_length_c 19.053958
_cell_angle_alpha 160.948506
_cell_angle_beta 49.356225
_cell_angle_gamma 129.550896
_cell_volume 622.039198
_symmetry_space_group_name_H-M "P -1"
_symmetry_group_IT_number 2
_symmetry_cell_setting 'triclinic'
loop_
_space_group_symop_operation_xyz
x,y,z
-x,-y,-z
loop_
_atom_site_type_symbol
_atom_site_label
_atom_site_fract_x
_atom_site_fract_y
_atom_site_fract_z
Si Si1 0.116139 0.791135 0.148964
Si Si2 0.683928 0.317822 0.324536
Si Si3 0.695180 0.286179 0.460915
Si Si4 0.474452 0.821373 0.951715
Si Si5 0.592033 0.277132 0.711664
Si Si6 0.933654 0.334610 0.555701
Si Si7 0.622964 0.210744 0.804363
O O1 0.247084 0.899589 0.254143
O O2 0.266039 0.783101 0.029929
O O3 0.969155 0.020766 0.341365
O O4 0.000000 0.500000 0.000000
O O5 0.500000 0.500000 0.500000
O O6 0.735908 0.321986 0.392844
O O7 0.875908 0.468552 0.339507
O O8 0.619912 0.007892 0.093097
O O9 0.548396 0.519004 0.695650
O O10 0.878663 0.319794 0.480046
O O11 0.577371 0.983444 0.285065
O O12 0.500000 0.000000 0.000000
O O13 0.744690 0.429532 0.721802
O O14 0.706730 0.219723 0.706479
O O15 0.500000 0.000000 0.500000
O O16 0.429335 0.482804 0.932331
#
# Coordination Sequence:
#
# PCOD9064784 Si02
#       7
#     2   2   2   2   2   2   2
#     4  12  27  46  72 111 148 189 249 304 366 443
#     4  12  24  50  71 106 149 188 248 303 363 437
#     4  12  25  46  75 105 142 192 245 298 371 430
#     4  12  26  48  78 101 146 200 240 304 372 437
#     4  11  24  46  73 104 146 190 242 300 367 432
#     4  12  26  45  74 109 146 190 247 305 363 440
#     4  11  25  47  74 101 148 193 234 302 369 435
#
# _framework density 22.506620000000002
#
# number of rings (size 3 to 8) (size 9 to 14) (size 15 to 20)
#    0.000    0.286    5.714    2.143    4.000    2.286 
#    2.571    0.000    0.000    0.000    0.000    0.000 
#    0.000    0.000    0.000    0.000    0.000    0.000 
#
# Total GULP energy -78296.953321 kJ/mol
# GULP energy per Si atom -5592.639523 kJ/mol
# Density = 2.245539 g / cm^3
# Si number density = 22.506620 Si / 1000 Ang^3
#
#
#
# Elastic Constant Matrix: (Units=GPa)
#
#
# Indices 1 2 3 4 5 6 
#
# 1 106.4795 30.2897 18.7332 -12.3735 10.9732 -19.8578
# 2 30.2897 127.1133 28.1981 1.2155 14.4546 2.1370
# 3 18.7332 28.1981 114.1640 2.0381 13.4223 -1.9263
# 4 -12.3735 1.2155 2.0381 28.6637 -10.4823 14.5509
# 5 10.9732 14.4546 13.4223 -10.4823 26.5278 9.9982
# 6 -19.8578 2.1370 -1.9263 14.5509 9.9982 49.0892
#
#
#
# Elastic Compliance Matrix: (Units=1/GPa)
#
#
# Indices 1 2 3 4 5 6 
#
# 1 0.011813 -0.002141 -0.000665 0.000220 -0.005522 0.005905
# 2 -0.002141 0.009270 -0.001245 -0.003553 -0.005242 0.000802
# 3 -0.000665 -0.001245 0.010230 -0.005469 -0.007653 0.003367
# 4 0.000220 -0.003553 -0.005469 0.063928 0.040081 -0.027084
# 5 -0.005522 -0.005242 -0.007653 0.040081 0.073538 -0.029165
# 6 0.005905 0.000802 0.003367 -0.027084 -0.029165 0.036825
#
#
# Mechanical properties :
#
#
# Convention : Reuss Voigt Hill
#
# Bulk Modulus (GPa) = 43.08116 55.79984 49.44050
# Shear Modulus (GPa) = 22.57905 38.89186 30.73546
#
# Velocity S-wave (km/s) = 3.17080 4.16145 3.69944
# Velocity P-wave (km/s) = 5.70862 6.92364 6.34528
#
# Compressibility (1/GPa) = 0.02321200
#
# Stress axis : x y z
#
# Youngs Moduli (GPa) = 84.64899 107.87582 97.75082
#
# Poissons Ratio (x) = 0.23096 0.06497
# Poissons Ratio (y) = 0.18123 0.12171
# Poissons Ratio (z) = 0.05626 0.13431
#
# Static dielectric constant tensor:
#      x y z
#    x 1.679330 -0.106020 0.148610 
#    y -0.106020 1.917690 0.054860 
#    z 0.148610 0.054860 1.641100 
# 
# From -- ./inp_files/561460.got.cif
#   From: 2010.05.17/outbox.cif.g08.bks.cpg/sg2_281_cif.got.tgz:561460.got - 2010.06.03 11:33:40.
