data_PCOD9064194
_publ_section_title
;
Structure prediction by ZEFSAII (Michael W. Deem and Ramdas Pophale) SiO2 
 PCOD9064194
Probable space group: P -1
;
_chemical_formula_sum "Si O2"
_cell_formula_units_Z 16
_cell_length_a 8.719820
_cell_length_b 17.311184
_cell_length_c 13.936078
_cell_angle_alpha 41.963091
_cell_angle_beta 29.724741
_cell_angle_gamma 40.055097
_cell_volume 650.409990
_symmetry_space_group_name_H-M "P -1"
_symmetry_group_IT_number 2
_symmetry_cell_setting 'triclinic'
loop_
_space_group_symop_operation_xyz
x,y,z
-x,-y,-z
loop_
_atom_site_type_symbol
_atom_site_label
_atom_site_fract_x
_atom_site_fract_y
_atom_site_fract_z
Si Si1 0.635951 0.655727 0.620724
Si Si2 0.361088 0.785659 0.164350
Si Si3 0.203847 0.058079 0.212534
Si Si4 0.745018 0.362753 0.464404
Si Si5 0.813759 0.024815 0.264471
Si Si6 0.381405 0.819047 0.442883
Si Si7 0.647095 0.420392 0.767407
Si Si8 0.506922 0.295484 0.125629
O O1 0.586750 0.772042 0.471584
O O2 0.465700 0.565276 0.750786
O O3 0.508298 0.683533 0.771332
O O4 0.032240 0.588101 0.462147
O O5 0.228106 0.730505 0.376458
O O6 0.497451 0.671310 0.123075
O O7 0.627840 0.844215 0.994634
O O8 0.053324 0.905749 0.187095
O O9 0.010737 0.040480 0.239241
O O10 0.981746 0.117590 0.371337
O O11 0.438046 0.922803 0.249469
O O12 0.500000 0.500000 0.500000
O O13 0.601447 0.300118 0.517435
O O14 0.121575 0.352229 0.249422
O O15 0.676867 0.147831 0.161121
O O16 0.500000 0.000000 0.500000
O O17 0.711123 0.362642 0.893041
#
# Coordination Sequence:
#
# PCOD9064194 Si02
#       8
#     2   2   2   2   2   2   2   2
#     4  11  24  48  74 105 146 194 247 307 355 436
#     4  12  25  46  70 110 148 188 249 302 367 436
#     4  11  25  44  72 106 146 190 245 303 368 438
#     4  12  26  46  73 105 150 195 244 304 369 436
#     4  12  23  45  75 103 149 190 241 307 359 438
#     4  11  24  45  72 102 146 192 241 300 370 432
#     4  11  26  45  74 106 147 191 249 298 366 437
#     4  12  25  48  73 108 142 197 246 300 370 432
#
# _framework density 24.599867
#
# number of rings (size 3 to 8) (size 9 to 14) (size 15 to 20)
#    0.000    0.500    5.000    2.250    3.500    2.500 
#    0.000    2.500    0.000    0.000    0.000    0.000 
#    0.000    0.000    0.000    0.000    0.000    0.000 
#
# Total GULP energy -89442.470922 kJ/mol
# GULP energy per Si atom -5590.154433 kJ/mol
# Density = 2.454388 g / cm^3
# Si number density = 24.599867 Si / 1000 Ang^3
#
#
#
# Elastic Constant Matrix: (Units=GPa)
#
#
# Indices 1 2 3 4 5 6 
#
# 1 74.5722 13.3239 18.4505 -9.3185 -2.6435 24.8216
# 2 13.3239 82.7823 31.8687 -22.6006 -6.1626 6.0530
# 3 18.4505 31.8687 88.4080 -9.4410 5.7769 18.9415
# 4 -9.3185 -22.6006 -9.4410 31.0606 9.3119 3.2587
# 5 -2.6435 -6.1626 5.7769 9.3119 44.4023 -8.4959
# 6 24.8216 6.0530 18.9415 3.2587 -8.4959 37.5952
#
#
#
# Elastic Compliance Matrix: (Units=1/GPa)
#
#
# Indices 1 2 3 4 5 6 
#
# 1 0.018956 -0.000124 0.000177 0.008111 -0.003298 -0.014033
# 2 -0.000124 0.017008 -0.004739 0.010870 0.000479 -0.001103
# 3 0.000177 -0.004739 0.015586 0.003794 -0.005135 -0.008696
# 4 0.008111 0.010870 0.003794 0.048900 -0.011804 -0.015923
# 5 -0.003298 0.000479 -0.005135 -0.011804 0.027831 0.012000
# 6 -0.014033 -0.001103 -0.008696 -0.015923 0.012000 0.044515
#
#
# Mechanical properties :
#
#
# Convention : Reuss Voigt Hill
#
# Bulk Modulus (GPa) = 23.70938 41.44987 32.57962
# Shear Modulus (GPa) = 25.48047 34.75292 30.11670
#
# Velocity S-wave (km/s) = 3.22187 3.76271 3.50274
# Velocity P-wave (km/s) = 4.84763 5.98026 5.44348
#
# Compressibility (1/GPa) = 0.04217741
#
# Stress axis : x y z
#
# Youngs Moduli (GPa) = 52.75452 58.79476 64.15842
#
# Poissons Ratio (x) = 0.00729 -0.01135
# Poissons Ratio (y) = 0.00654 0.30408
# Poissons Ratio (z) = -0.00933 0.27866
#
# Static dielectric constant tensor:
#      x y z
#    x 2.018430 0.008290 -0.020980 
#    y 0.008290 2.046560 0.030610 
#    z -0.020980 0.030610 1.935130 
# 
# From -- ./inp_files/507277.got.cif
#   From: 2010.05.17/outbox.cif.g08.bks.cpg/sg2_254_cif.got.tgz:507277.got - 2010.06.03 11:33:40.
