data_PCOD9064124
_publ_section_title
;
Structure prediction by ZEFSAII (Michael W. Deem and Ramdas Pophale) SiO2 
 PCOD9064124
Probable space group: P -1
;
_chemical_formula_sum "Si O2"
_cell_formula_units_Z 16
_cell_length_a 9.494663
_cell_length_b 21.231526
_cell_length_c 12.517763
_cell_angle_alpha 30.826517
_cell_angle_beta 131.320037
_cell_angle_gamma 141.907655
_cell_volume 796.783189
_symmetry_space_group_name_H-M "P -1"
_symmetry_group_IT_number 2
_symmetry_cell_setting 'triclinic'
loop_
_space_group_symop_operation_xyz
x,y,z
-x,-y,-z
loop_
_atom_site_type_symbol
_atom_site_label
_atom_site_fract_x
_atom_site_fract_y
_atom_site_fract_z
Si Si1 0.048613 0.594825 0.993771
Si Si2 0.893213 0.091827 0.809736
Si Si3 0.771427 0.567819 0.534496
Si Si4 0.562682 0.050282 0.334483
Si Si5 0.228636 0.914450 0.993721
Si Si6 0.409451 0.411648 0.191814
Si Si7 0.752805 0.923694 0.441096
Si Si8 0.132975 0.421974 0.681600
O O1 0.137618 0.522995 0.228461
O O2 0.247090 0.771807 0.830274
O O3 0.000000 0.500000 0.000000
O O4 0.816879 0.590364 0.897386
O O5 0.064910 0.257139 0.604268
O O6 0.670940 0.994352 0.769533
O O7 0.826818 0.092494 0.898789
O O8 0.000000 0.000000 0.000000
O O9 0.500000 0.500000 0.500000
O O10 0.821513 0.581476 0.414593
O O11 0.500000 0.000000 0.500000
O O12 0.631702 0.965736 0.408666
O O13 0.203505 0.007970 0.755313
O O14 0.050906 0.741496 0.122700
O O15 0.500000 0.000000 0.000000
O O16 0.361895 0.250696 0.380338
O O17 0.620620 0.495523 0.258590
O O18 0.500000 0.500000 0.000000
O O19 0.000000 0.000000 0.500000
O O20 0.000000 0.500000 0.500000
#
# Coordination Sequence:
#
# PCOD9064124 Si02
#       8
#     2   2   2   2   2   2   2   2
#     4  12  27  47  72 104 145 187 235 292 356 425
#     4  11  26  45  73 105 141 186 234 291 352 424
#     4  11  25  47  71 101 142 183 233 287 351 422
#     4  12  28  47  72 104 144 189 238 295 355 425
#     4  11  24  45  71 103 140 182 236 289 349 418
#     4  12  27  44  72 106 142 188 235 293 353 420
#     4  12  26  47  72 103 145 189 240 289 357 424
#     4  11  25  42  71 104 139 182 229 289 349 414
#
# _framework density 20.080745
#
# number of rings (size 3 to 8) (size 9 to 14) (size 15 to 20)
#    0.000    0.500    2.500    4.500    8.750    5.000 
#    0.000    0.000    0.000    0.000    0.000    0.000 
#    0.000    0.000    0.000    0.000    0.000    0.000 
#
# Total GULP energy -89159.673286 kJ/mol
# GULP energy per Si atom -5572.479580 kJ/mol
# Density = 2.003504 g / cm^3
# Si number density = 20.080745 Si / 1000 Ang^3
#
#
#
# Elastic Constant Matrix: (Units=GPa)
#
#
# Indices 1 2 3 4 5 6 
#
# 1 112.3077 64.3395 58.2867 -13.9596 7.8953 21.5802
# 2 64.3395 194.7412 93.6409 1.2276 8.7651 25.7711
# 3 58.2867 93.6409 187.6491 -11.9441 -3.6748 10.4342
# 4 -13.9596 1.2276 -11.9441 56.4884 0.3524 1.9844
# 5 7.8953 8.7651 -3.6748 0.3524 33.1785 6.5888
# 6 21.5802 25.7711 10.4342 1.9844 6.5888 42.2437
#
#
#
# Elastic Compliance Matrix: (Units=1/GPa)
#
#
# Indices 1 2 3 4 5 6 
#
# 1 0.012876 -0.002474 -0.002376 0.002897 -0.001845 -0.004330
# 2 -0.002474 0.007851 -0.003123 -0.001347 -0.001323 -0.002485
# 3 -0.002376 -0.003123 0.007686 0.001063 0.002062 0.000849
# 4 0.002897 -0.001347 0.001063 0.018736 -0.000059 -0.001792
# 5 -0.001845 -0.001323 0.002062 -0.000059 0.031899 -0.003732
# 6 -0.004330 -0.002485 0.000849 -0.001792 -0.003732 0.027857
#
#
# Mechanical properties :
#
#
# Convention : Reuss Voigt Hill
#
# Bulk Modulus (GPa) = 80.20450 103.02579 91.61514
# Shear Modulus (GPa) = 39.36821 44.94419 42.15620
#
# Velocity S-wave (km/s) = 4.43255 4.73607 4.58682
# Velocity P-wave (km/s) = 8.13784 9.01800 8.58920
#
# Compressibility (1/GPa) = 0.01246813
#
# Stress axis : x y z
#
# Youngs Moduli (GPa) = 77.66212 127.37592 130.10143
#
# Poissons Ratio (x) = 0.31511 0.30912
# Poissons Ratio (y) = 0.19212 0.40628
# Poissons Ratio (z) = 0.18453 0.39777
#
# Static dielectric constant tensor:
#      x y z
#    x 1.418620 -0.084090 -0.195880 
#    y -0.084090 1.753850 -0.108900 
#    z -0.195880 -0.108900 1.433200 
# 
# From -- ./inp_files/244800.got.cif
#   From: 2010.05.17/outbox.cif.g08.bks.cpg/sg2_123_cif.got.tgz:244800.got - 2010.06.03 11:33:40.
