data_PCOD9064239
_publ_section_title
;
Structure prediction by ZEFSAII (Michael W. Deem and Ramdas Pophale) SiO2 
 PCOD9064239
Probable space group: P -1
;
_chemical_formula_sum "Si O2"
_cell_formula_units_Z 13
_cell_length_a 13.273383
_cell_length_b 6.695635
_cell_length_c 9.303676
_cell_angle_alpha 99.235376
_cell_angle_beta 65.047476
_cell_angle_gamma 128.266924
_cell_volume 582.664116
_symmetry_space_group_name_H-M "P -1"
_symmetry_group_IT_number 2
_symmetry_cell_setting 'triclinic'
loop_
_space_group_symop_operation_xyz
x,y,z
-x,-y,-z
loop_
_atom_site_type_symbol
_atom_site_label
_atom_site_fract_x
_atom_site_fract_y
_atom_site_fract_z
Si Si1 0.123625 0.177601 0.647898
Si Si2 0.461900 0.744209 0.803084
Si Si3 0.677454 0.811210 0.269536
Si Si4 0.087585 0.391349 0.421465
Si Si5 0.721070 0.197099 0.873126
Si Si6 0.926469 0.216175 0.954182
Si Si7 0.500000 0.000000 0.500000
O O1 0.264458 0.229390 0.624626
O O2 0.146758 0.374705 0.535294
O O3 0.045223 0.192723 0.831148
O O4 0.018492 0.893555 0.612276
O O5 0.416101 0.460704 0.786011
O O6 0.491245 0.864262 0.642406
O O7 0.597626 0.931685 0.842849
O O8 0.339265 0.738284 0.952400
O O9 0.594367 0.921022 0.363419
O O10 0.815414 0.013888 0.114125
O O11 0.212897 0.578830 0.258112
O O12 0.000000 0.500000 0.500000
O O13 0.839965 0.181112 0.859708
O O14 0.000000 0.500000 0.000000
#
# Coordination Sequence:
#
# PCOD9064239 Si02
#       7
#     2   2   2   2   2   2   1
#     4  11  26  43  74 112 141 193 241 297 375 433
#     4  11  27  48  73 105 143 201 244 301 359 432
#     4  12  27  48  74 107 148 194 249 299 367 437
#     4  11  24  45  72 109 147 188 234 307 370 431
#     4  11  24  48  75 107 146 192 245 294 368 439
#     4  12  24  46  78 107 149 192 238 306 367 438
#     4  12  28  50  70 106 148 202 244 304 356 434
#
# _framework density 22.311312000000001
#
# number of rings (size 3 to 8) (size 9 to 14) (size 15 to 20)
#    0.000    0.615    3.077    3.692    4.308    0.615 
#    2.769    0.000    0.000    0.000    0.000    0.000 
#    0.000    0.000    0.000    0.000    0.000    0.000 
#
# Total GULP energy -72604.442738 kJ/mol
# GULP energy per Si atom -5584.957134 kJ/mol
# Density = 2.226053 g / cm^3
# Si number density = 22.311312 Si / 1000 Ang^3
#
#
#
# Elastic Constant Matrix: (Units=GPa)
#
#
# Indices 1 2 3 4 5 6 
#
# 1 90.3779 39.2057 1.9196 9.1575 -1.9854 -23.0872
# 2 39.2057 79.4256 35.3378 8.6663 2.5927 -10.8030
# 3 1.9196 35.3378 111.8973 -11.0288 -0.2454 -12.8267
# 4 9.1575 8.6663 -11.0288 31.9669 -11.7026 -0.5954
# 5 -1.9854 2.5927 -0.2454 -11.7026 23.9468 0.0032
# 6 -23.0872 -10.8030 -12.8267 -0.5954 0.0032 28.5035
#
#
#
# Elastic Compliance Matrix: (Units=1/GPa)
#
#
# Indices 1 2 3 4 5 6 
#
# 1 0.018419 -0.009152 0.004077 -0.000250 0.002436 0.013280
# 2 -0.009152 0.021344 -0.007792 -0.008601 -0.007352 -0.003009
# 3 0.004077 -0.007792 0.012768 0.007242 0.004851 0.006246
# 4 -0.000250 -0.008601 0.007242 0.044523 0.022742 0.000724
# 5 0.002436 -0.007352 0.004851 0.022742 0.053921 0.001838
# 6 0.013280 -0.003009 0.006246 0.000724 0.001838 0.047525
#
#
# Mechanical properties :
#
#
# Convention : Reuss Voigt Hill
#
# Bulk Modulus (GPa) = 37.31735 48.29189 42.80462
# Shear Modulus (GPa) = 21.44387 30.56598 26.00492
#
# Velocity S-wave (km/s) = 3.10356 3.70534 3.41772
# Velocity P-wave (km/s) = 5.44103 6.32436 5.89925
#
# Compressibility (1/GPa) = 0.02679719
#
# Stress axis : x y z
#
# Youngs Moduli (GPa) = 54.29041 46.85114 78.32087
#
# Poissons Ratio (x) = 0.42879 -0.31934
# Poissons Ratio (y) = 0.49688 0.61030
# Poissons Ratio (z) = -0.22136 0.36508
#
# Static dielectric constant tensor:
#      x y z
#    x 1.801440 0.009540 0.027710 
#    y 0.009540 1.792280 -0.006950 
#    z 0.027710 -0.006950 1.798460 
# 
# From -- ./inp_files/25127.got.cif
#   From: 2010.05.17/outbox.cif.g08.bks.cpg/sg2_13_cif.got.tgz:25127.got - 2010.06.03 11:33:40.
