data_PCOD9064549
_publ_section_title
;
Structure prediction by ZEFSAII (Michael W. Deem and Ramdas Pophale) SiO2 
 PCOD9064549
Probable space group: P -1
;
_chemical_formula_sum "Si O2"
_cell_formula_units_Z 16
_cell_length_a 17.936549
_cell_length_b 8.829813
_cell_length_c 12.514058
_cell_angle_alpha 60.024630
_cell_angle_beta 32.615450
_cell_angle_gamma 46.468978
_cell_volume 757.872665
_symmetry_space_group_name_H-M "P -1"
_symmetry_group_IT_number 2
_symmetry_cell_setting 'triclinic'
loop_
_space_group_symop_operation_xyz
x,y,z
-x,-y,-z
loop_
_atom_site_type_symbol
_atom_site_label
_atom_site_fract_x
_atom_site_fract_y
_atom_site_fract_z
Si Si1 0.685819 0.055695 0.104933
Si Si2 0.137475 0.748171 0.906749
Si Si3 0.884355 0.679336 0.165399
Si Si4 0.180156 0.466104 0.312005
Si Si5 0.954028 0.058063 0.656644
Si Si6 0.340299 0.154121 0.427823
Si Si7 0.261949 0.842086 0.527338
Si Si8 0.608796 0.491468 0.124723
O O1 0.539457 0.034427 0.248354
O O2 0.604220 0.307245 0.134726
O O3 0.775954 0.904385 0.152614
O O4 0.835888 0.986991 0.865349
O O5 0.219092 0.715206 0.703911
O O6 0.277703 0.639771 0.864493
O O7 0.027695 0.654876 0.076811
O O8 0.000000 0.000000 0.000000
O O9 0.751586 0.703070 0.404697
O O10 0.000000 0.500000 0.000000
O O11 0.142534 0.689764 0.313400
O O12 0.280816 0.297669 0.343374
O O13 0.000000 0.500000 0.500000
O O14 0.297105 0.420388 0.083740
O O15 0.000000 0.000000 0.500000
O O16 0.106134 0.971714 0.588169
O O17 0.291066 0.988925 0.517680
O O18 0.427467 0.685148 0.314302
#
# Coordination Sequence:
#
# PCOD9064549 Si02
#       8
#     2   2   2   2   2   2   2   2
#     4  11  26  47  66 101 139 177 229 286 340 406
#     4  12  21  46  72  96 137 184 230 282 337 410
#     4  12  27  43  71 102 140 179 229 281 354 403
#     4  11  24  46  68  99 139 183 228 278 342 408
#     4  11  26  45  72  97 138 185 229 277 344 409
#     4  12  27  44  70 102 142 177 229 291 338 404
#     4  12  25  45  72 104 133 184 233 281 341 408
#     4  11  26  42  71 101 138 181 232 281 343 402
#
# _framework density 21.111726999999998
#
# number of rings (size 3 to 8) (size 9 to 14) (size 15 to 20)
#    0.000    0.500    5.000    2.250    8.750    2.500 
#    0.000    0.000    0.000    0.000    0.000    0.000 
#    0.000    0.000    0.000    0.000    0.000    0.000 
#
# Total GULP energy -89341.919595 kJ/mol
# GULP energy per Si atom -5583.869975 kJ/mol
# Density = 2.106368 g / cm^3
# Si number density = 21.111727 Si / 1000 Ang^3
#
#
#
# Elastic Constant Matrix: (Units=GPa)
#
#
# Indices 1 2 3 4 5 6 
#
# 1 70.8551 -5.9613 9.2789 1.4769 -10.9273 2.0689
# 2 -5.9613 38.2175 12.8406 5.5175 3.4541 -8.6961
# 3 9.2789 12.8406 82.1470 10.3460 1.8885 9.6265
# 4 1.4769 5.5175 10.3460 33.5693 -0.9772 9.2827
# 5 -10.9273 3.4541 1.8885 -0.9772 43.3406 -3.4540
# 6 2.0689 -8.6961 9.6265 9.2827 -3.4540 25.0355
#
#
#
# Elastic Compliance Matrix: (Units=1/GPa)
#
#
# Indices 1 2 3 4 5 6 
#
# 1 0.015268 0.003352 -0.002427 -0.000825 0.003802 0.001666
# 2 0.003352 0.034098 -0.006649 -0.008473 -0.000402 0.017210
# 3 -0.002427 -0.006649 0.014547 -0.001272 -0.001336 -0.007415
# 4 -0.000825 -0.008473 -0.001272 0.035956 0.000082 -0.015706
# 5 0.003802 -0.000402 -0.001336 0.000082 0.024394 0.003395
# 6 0.001666 0.017210 -0.007415 -0.015706 0.003395 0.054927
#
#
# Mechanical properties :
#
#
# Convention : Reuss Voigt Hill
#
# Bulk Modulus (GPa) = 19.06073 24.83732 21.94902
# Shear Modulus (GPa) = 24.02376 32.05984 28.04180
#
# Velocity S-wave (km/s) = 3.37699 3.90112 3.64848
# Velocity P-wave (km/s) = 4.92478 5.66409 5.30733
#
# Compressibility (1/GPa) = 0.05246389
#
# Stress axis : x y z
#
# Youngs Moduli (GPa) = 65.49601 29.32682 68.74441
#
# Poissons Ratio (x) = -0.09829 0.16686
# Poissons Ratio (y) = -0.21952 0.45708
# Poissons Ratio (z) = 0.15898 0.19499
#
# Static dielectric constant tensor:
#      x y z
#    x 1.726880 0.047630 -0.032770 
#    y 0.047630 1.765080 -0.011900 
#    z -0.032770 -0.011900 1.657380 
# 
# From -- ./inp_files/207522.got.cif
#   From: 2010.05.17/outbox.cif.g08.bks.cpg/sg2_104_cif.got.tgz:207522.got - 2010.06.03 11:33:40.
