data_PCOD9064009
_publ_section_title
;
Structure prediction by ZEFSAII (Michael W. Deem and Ramdas Pophale) SiO2 
 PCOD9064009
Probable space group: P -1
;
_chemical_formula_sum "Si O2"
_cell_formula_units_Z 16
_cell_length_a 8.776726
_cell_length_b 15.411184
_cell_length_c 11.997485
_cell_angle_alpha 111.477483
_cell_angle_beta 72.837120
_cell_angle_gamma 48.322879
_cell_volume 713.007530
_symmetry_space_group_name_H-M "P -1"
_symmetry_group_IT_number 2
_symmetry_cell_setting 'triclinic'
loop_
_space_group_symop_operation_xyz
x,y,z
-x,-y,-z
loop_
_atom_site_type_symbol
_atom_site_label
_atom_site_fract_x
_atom_site_fract_y
_atom_site_fract_z
Si Si1 0.626476 0.153274 0.258616
Si Si2 0.773854 0.697347 0.187813
Si Si3 0.317809 0.726819 0.874567
Si Si4 0.720540 0.837360 0.784687
Si Si5 0.644413 0.213033 0.524627
Si Si6 0.232945 0.594361 0.189003
Si Si7 0.174602 0.075636 0.392508
Si Si8 0.286105 0.563039 0.673968
O O1 0.533226 0.286766 0.262383
O O2 0.460081 0.148221 0.240313
O O3 0.550379 0.212682 0.429432
O O4 0.013680 0.941919 0.080229
O O5 0.490868 0.786321 0.354389
O O6 0.987710 0.654907 0.199975
O O7 0.559022 0.868646 0.230903
O O8 0.000000 0.500000 0.000000
O O9 0.567355 0.568555 0.840518
O O10 0.174830 0.706743 0.839198
O O11 0.863448 0.838964 0.666949
O O12 0.004613 0.652751 0.713111
O O13 0.500000 0.000000 0.000000
O O14 0.465325 0.403377 0.644094
O O15 0.010566 0.059583 0.391588
O O16 0.016440 0.779386 0.393510
O O17 0.500000 0.500000 0.000000
O O18 0.500000 0.500000 0.500000
#
# Coordination Sequence:
#
# PCOD9064009 Si02
#       8
#     2   2   2   2   2   2   2   2
#     4  11  26  41  73 108 142 183 233 302 349 431
#     4  12  31  48  72 110 140 189 250 302 356 428
#     4  11  24  45  69 105 143 181 241 284 365 424
#     4  12  26  42  75 107 145 190 235 295 361 438
#     4  12  26  47  76 102 147 188 238 304 358 428
#     4  12  28  49  78 101 143 199 243 300 362 434
#     4  12  27  51  73 103 148 195 243 295 366 429
#     4  12  22  46  70 104 142 186 231 290 374 427
#
# _framework density 22.440155000000001
#
# number of rings (size 3 to 8) (size 9 to 14) (size 15 to 20)
#    0.000    0.250    5.000    2.250   10.500    0.500 
#    0.000    0.000    0.000    0.000    0.000    0.000 
#    0.000    0.000    0.000    0.000    0.000    0.000 
#
# Total GULP energy -89453.117354 kJ/mol
# GULP energy per Si atom -5590.819835 kJ/mol
# Density = 2.238908 g / cm^3
# Si number density = 22.440155 Si / 1000 Ang^3
#
#
#
# Elastic Constant Matrix: (Units=GPa)
#
#
# Indices 1 2 3 4 5 6 
#
# 1 145.7024 19.1371 17.5411 -2.4105 4.5119 -32.1047
# 2 19.1371 108.3216 8.7172 14.6366 -3.3216 -24.5812
# 3 17.5411 8.7172 65.1350 1.7863 16.1439 -7.0784
# 4 -2.4105 14.6366 1.7863 33.1237 -3.8849 -7.7883
# 5 4.5119 -3.3216 16.1439 -3.8849 33.2718 4.9547
# 6 -32.1047 -24.5812 -7.0784 -7.7883 4.9547 37.8562
#
#
#
# Elastic Compliance Matrix: (Units=1/GPa)
#
#
# Indices 1 2 3 4 5 6 
#
# 1 0.008853 -0.000035 -0.001204 0.002417 -0.001523 0.007957
# 2 -0.000035 0.011212 -0.000735 -0.003398 0.000132 0.006397
# 3 -0.001204 -0.000735 0.018470 -0.001173 -0.009448 0.002950
# 4 0.002417 -0.003398 -0.001173 0.033726 0.002920 0.006181
# 5 -0.001523 0.000132 -0.009448 0.002920 0.036260 -0.007118
# 6 0.007957 0.006397 0.002950 0.006181 -0.007118 0.040072
#
#
# Mechanical properties :
#
#
# Convention : Reuss Voigt Hill
#
# Bulk Modulus (GPa) = 28.91245 45.55000 37.23122
# Shear Modulus (GPa) = 30.47466 39.10125 34.78795
#
# Velocity S-wave (km/s) = 3.68916 4.17882 3.94160
# Velocity P-wave (km/s) = 5.57304 6.60499 6.11083
#
# Compressibility (1/GPa) = 0.03458718
#
# Stress axis : x y z
#
# Youngs Moduli (GPa) = 112.95346 89.19108 54.14205
#
# Poissons Ratio (x) = 0.00311 0.06517
# Poissons Ratio (y) = 0.00393 0.03981
# Poissons Ratio (z) = 0.13596 0.06559
#
# Static dielectric constant tensor:
#      x y z
#    x 1.867660 -0.049800 -0.063900 
#    y -0.049800 1.914510 0.015470 
#    z -0.063900 0.015470 1.917620 
# 
# From -- ./inp_files/242558.got.cif
#   From: 2010.05.17/outbox.cif.g08.bks.cpg/sg2_122_cif.got.tgz:242558.got - 2010.06.03 11:33:40.
