data_PCOD9064168
_publ_section_title
;
Structure prediction by ZEFSAII (Michael W. Deem and Ramdas Pophale) SiO2 
 PCOD9064168
Probable space group: P -1
;
_chemical_formula_sum "Si O2"
_cell_formula_units_Z 16
_cell_length_a 15.126499
_cell_length_b 13.085252
_cell_length_c 15.530950
_cell_angle_alpha 131.544385
_cell_angle_beta 30.634514
_cell_angle_gamma 151.040039
_cell_volume 706.632769
_symmetry_space_group_name_H-M "P -1"
_symmetry_group_IT_number 2
_symmetry_cell_setting 'triclinic'
loop_
_space_group_symop_operation_xyz
x,y,z
-x,-y,-z
loop_
_atom_site_type_symbol
_atom_site_label
_atom_site_fract_x
_atom_site_fract_y
_atom_site_fract_z
Si Si1 0.045401 0.951968 0.227136
Si Si2 0.112402 0.913783 0.855261
Si Si3 0.845932 0.508171 0.341311
Si Si4 0.722559 0.987201 0.422178
Si Si5 0.291028 0.734011 0.340553
Si Si6 0.244986 0.253989 0.464136
Si Si7 0.308163 0.602784 0.064933
Si Si8 0.853488 0.551856 0.160451
O O1 0.358354 0.201757 0.130105
O O2 0.901234 0.967213 0.291681
O O3 0.823068 0.788502 0.400004
O O4 0.069958 0.810021 0.096939
O O5 0.873925 0.651174 0.936409
O O6 0.177452 0.912963 0.701325
O O7 0.410304 0.097957 0.762762
O O8 0.000000 0.000000 0.000000
O O9 0.610605 0.264233 0.444896
O O10 0.815864 0.642426 0.475749
O O11 0.769487 0.486561 0.294614
O O12 0.149666 0.624749 0.158704
O O13 0.747919 0.125581 0.547061
O O14 0.309296 0.662389 0.195734
O O15 0.000000 0.500000 0.500000
O O16 0.564707 0.400606 0.265641
O O17 0.000000 0.000000 0.500000
O O18 0.000000 0.500000 0.000000
#
# Coordination Sequence:
#
# PCOD9064168 Si02
#       8
#     2   2   2   2   2   2   2   2
#     4  11  26  44  69  99 140 181 231 286 350 418
#     4  12  28  47  70 105 146 181 234 297 349 420
#     4  11  24  45  71  97 141 183 235 287 348 417
#     4  12  23  47  74  99 139 190 235 289 356 419
#     4  12  26  47  74 101 142 188 238 295 352 414
#     4  11  25  45  67 102 139 180 232 289 351 415
#     4  12  28  46  69 110 141 186 241 288 353 423
#     4  11  25  45  70 102 139 180 233 293 346 415
#
# _framework density 22.642595
#
# number of rings (size 3 to 8) (size 9 to 14) (size 15 to 20)
#    0.000    0.500    5.000    2.625    8.750    4.000 
#    0.000    0.000    0.000    0.000    0.000    0.000 
#    0.000    0.000    0.000    0.000    0.000    0.000 
#
# Total GULP energy -89376.361727 kJ/mol
# GULP energy per Si atom -5586.022608 kJ/mol
# Density = 2.259106 g / cm^3
# Si number density = 22.642595 Si / 1000 Ang^3
#
#
#
# Elastic Constant Matrix: (Units=GPa)
#
#
# Indices 1 2 3 4 5 6 
#
# 1 61.8791 12.8680 16.7330 1.7240 -14.7345 1.2562
# 2 12.8680 149.2058 40.2613 2.5982 -18.9021 -8.8382
# 3 16.7330 40.2613 91.6891 -9.3700 -24.4137 -4.4656
# 4 1.7240 2.5982 -9.3700 45.6668 -4.3712 -5.2122
# 5 -14.7345 -18.9021 -24.4137 -4.3712 37.9483 2.9284
# 6 1.2562 -8.8382 -4.4656 -5.2122 2.9284 29.6964
#
#
#
# Elastic Compliance Matrix: (Units=1/GPa)
#
#
# Indices 1 2 3 4 5 6 
#
# 1 0.018156 -0.000466 -0.001732 -0.000674 0.005769 -0.001854
# 2 -0.000466 0.007845 -0.002911 -0.000682 0.001650 0.001635
# 3 -0.001732 -0.002911 0.015136 0.004267 0.007995 0.001443
# 4 -0.000674 -0.000682 0.004267 0.023751 0.004557 0.004187
# 5 0.005769 0.001650 0.007995 0.004557 0.035176 -0.001220
# 6 -0.001854 0.001635 0.001443 0.004187 -0.001220 0.035311
#
#
# Mechanical properties :
#
#
# Convention : Reuss Voigt Hill
#
# Bulk Modulus (GPa) = 32.34150 49.16650 40.75400
# Shear Modulus (GPa) = 32.07198 38.18974 35.13086
#
# Velocity S-wave (km/s) = 3.76765 4.11132 3.94323
# Velocity P-wave (km/s) = 5.76554 6.65572 6.22655
#
# Compressibility (1/GPa) = 0.03092003
#
# Stress axis : x y z
#
# Youngs Moduli (GPa) = 55.07876 127.46257 66.06836
#
# Poissons Ratio (x) = 0.05936 0.11443
# Poissons Ratio (y) = 0.02565 0.19231
# Poissons Ratio (z) = 0.09540 0.37101
#
# Static dielectric constant tensor:
#      x y z
#    x 1.896750 0.101360 0.114240 
#    y 0.101360 1.918170 0.123450 
#    z 0.114240 0.123450 1.890140 
# 
# From -- ./inp_files/573619.got.cif
#   From: 2010.05.17/outbox.cif.g08.bks.cpg/sg2_287_cif.got.tgz:573619.got - 2010.06.03 11:33:40.
