data_PCOD9064699
_publ_section_title
;
Structure prediction by ZEFSAII (Michael W. Deem and Ramdas Pophale) SiO2 
 PCOD9064699
Probable space group: P -1
;
_chemical_formula_sum "Si O2"
_cell_formula_units_Z 12
_cell_length_a 12.858563
_cell_length_b 9.656550
_cell_length_c 8.356479
_cell_angle_alpha 75.206453
_cell_angle_beta 42.359120
_cell_angle_gamma 51.420744
_cell_volume 503.240826
_symmetry_space_group_name_H-M "P -1"
_symmetry_group_IT_number 2
_symmetry_cell_setting 'triclinic'
loop_
_space_group_symop_operation_xyz
x,y,z
-x,-y,-z
loop_
_atom_site_type_symbol
_atom_site_label
_atom_site_fract_x
_atom_site_fract_y
_atom_site_fract_z
Si Si1 0.457485 0.956012 0.389020
Si Si2 0.677161 0.282867 0.304700
Si Si3 0.910034 0.593983 0.905263
Si Si4 0.943458 0.683825 0.419953
Si Si5 0.800468 0.204097 0.818709
Si Si6 0.107539 0.765914 0.611722
O O1 0.368164 0.853355 0.554969
O O2 0.500000 0.000000 0.500000
O O3 0.293427 0.149504 0.415409
O O4 0.679669 0.797953 0.100459
O O5 0.500000 0.500000 0.500000
O O6 0.853679 0.222064 0.248759
O O7 0.694022 0.275719 0.093725
O O8 0.920036 0.435293 0.855025
O O9 0.064936 0.625907 0.671103
O O10 0.000000 0.500000 0.000000
O O11 0.000000 0.500000 0.500000
O O12 0.022283 0.783491 0.369854
O O13 0.723105 0.287615 0.699669
O O14 0.900521 0.986397 0.752818
#
# Coordination Sequence:
#
# PCOD9064699 Si02
#       6
#     2   2   2   2   2   2
#     4  12  26  45  74 111 143 193 246 300 371 441
#     4  12  26  45  74 107 145 189 244 304 366 444
#     4  12  24  45  74 104 144 191 244 298 366 442
#     4  12  25  46  71 106 149 189 241 305 369 434
#     4  11  24  46  72 101 141 193 241 296 370 436
#     4  11  24  46  73 101 144 191 238 301 368 428
#
# _framework density 23.845441000000001
#
# number of rings (size 3 to 8) (size 9 to 14) (size 15 to 20)
#    0.000    0.333    5.000    4.500    0.000    1.333 
#    0.000    3.333    0.000    0.000    0.000    0.000 
#    0.000    0.000    0.000    0.000    0.000    0.000 
#
# Total GULP energy -66894.930954 kJ/mol
# GULP energy per Si atom -5574.577579 kJ/mol
# Density = 2.379117 g / cm^3
# Si number density = 23.845441 Si / 1000 Ang^3
#
#
#
# Elastic Constant Matrix: (Units=GPa)
#
#
# Indices 1 2 3 4 5 6 
#
# 1 83.0280 43.1008 13.3198 0.9875 17.2114 17.3892
# 2 43.1008 144.2699 28.2315 -0.4786 0.6165 -12.0205
# 3 13.3198 28.2315 65.2273 -3.7899 30.8761 -14.8392
# 4 0.9875 -0.4786 -3.7899 49.5038 -0.3021 4.5046
# 5 17.2114 0.6165 30.8761 -0.3021 48.4984 5.4861
# 6 17.3892 -12.0205 -14.8392 4.5046 5.4861 58.6217
#
#
#
# Elastic Compliance Matrix: (Units=1/GPa)
#
#
# Indices 1 2 3 4 5 6 
#
# 1 0.017300 -0.005675 0.000282 0.000107 -0.005601 -0.005708
# 2 -0.005675 0.009725 -0.004856 -0.000320 0.004750 0.002028
# 3 0.000282 -0.004856 0.028091 0.001284 -0.018784 0.007691
# 4 0.000107 -0.000320 0.001284 0.020407 -0.000578 -0.001286
# 5 -0.005601 0.004750 -0.018784 -0.000578 0.035108 -0.005361
# 6 -0.005708 0.002028 0.007691 -0.001286 -0.005361 0.021715
#
#
# Mechanical properties :
#
#
# Convention : Reuss Voigt Hill
#
# Bulk Modulus (GPa) = 28.88630 51.31439 40.10034
# Shear Modulus (GPa) = 30.41677 45.18300 37.79989
#
# Velocity S-wave (km/s) = 3.57540 4.35768 3.98578
# Velocity P-wave (km/s) = 5.40231 6.84730 6.16727
#
# Compressibility (1/GPa) = 0.03461849
#
# Stress axis : x y z
#
# Youngs Moduli (GPa) = 57.80352 102.83058 35.59835
#
# Poissons Ratio (x) = 0.58356 -0.01005
# Poissons Ratio (y) = 0.32803 0.17287
# Poissons Ratio (z) = -0.01632 0.49935
#
# Static dielectric constant tensor:
#      x y z
#    x 1.939240 -0.109990 0.048540 
#    y -0.109990 1.726040 -0.028900 
#    z 0.048540 -0.028900 2.062280 
# 
# From -- ./inp_files/148602.got.cif
#   From: 2010.05.17/outbox.cif.g08.bks.cpg/sg2_75_cif.got.tgz:148602.got - 2010.06.03 11:33:40.
