data_PCOD9064553
_publ_section_title
;
Structure prediction by ZEFSAII (Michael W. Deem and Ramdas Pophale) SiO2 
 PCOD9064553
Probable space group: P -1
;
_chemical_formula_sum "Si O2"
_cell_formula_units_Z 12
_cell_length_a 6.904056
_cell_length_b 8.539526
_cell_length_c 18.918585
_cell_angle_alpha 46.828792
_cell_angle_beta 133.780943
_cell_angle_gamma 100.508752
_cell_volume 489.477422
_symmetry_space_group_name_H-M "P -1"
_symmetry_group_IT_number 2
_symmetry_cell_setting 'triclinic'
loop_
_space_group_symop_operation_xyz
x,y,z
-x,-y,-z
loop_
_atom_site_type_symbol
_atom_site_label
_atom_site_fract_x
_atom_site_fract_y
_atom_site_fract_z
Si Si1 0.238354 0.726987 0.914089
Si Si2 0.477971 0.855002 0.444499
Si Si3 0.722334 0.754216 0.389971
Si Si4 0.716696 0.364702 0.885445
Si Si5 0.760259 0.168519 0.468907
Si Si6 0.657250 0.941478 0.931584
O O1 0.378983 0.907093 0.897854
O O2 0.500000 0.500000 0.000000
O O3 0.238342 0.623190 0.023892
O O4 0.877861 0.894763 0.740546
O O5 0.614027 0.705338 0.452008
O O6 0.430065 0.718155 0.540159
O O7 0.702661 0.949768 0.499312
O O8 0.445985 0.909996 0.215423
O O9 0.000000 0.500000 0.500000
O O10 0.878795 0.916556 0.398223
O O11 0.395277 0.612249 0.697226
O O12 0.707393 0.114481 0.944226
O O13 0.009915 0.321411 0.924180
#
# Coordination Sequence:
#
# PCOD9064553 Si02
#       6
#     2   2   2   2   2   2
#     4  12  26  44  73 104 137 182 228 278 347 407
#     4  11  26  46  69 102 142 177 229 286 335 409
#     4  12  24  46  72 102 135 184 227 281 346 403
#     4  11  25  46  71 101 139 180 230 283 338 404
#     4  11  25  45  72 102 135 183 229 280 344 401
#     4  11  24  46  69 101 140 181 228 282 340 402
#
# _framework density 24.515941999999999
#
# number of rings (size 3 to 8) (size 9 to 14) (size 15 to 20)
#    0.000    0.667    5.000    2.000    2.333    6.000 
#    6.000    0.000    0.000    0.000    0.000    0.000 
#    0.000    0.000    0.000    0.000    0.000    0.000 
#
# Total GULP energy -67229.843118 kJ/mol
# GULP energy per Si atom -5602.486926 kJ/mol
# Density = 2.446014 g / cm^3
# Si number density = 24.515942 Si / 1000 Ang^3
#
#
#
# Elastic Constant Matrix: (Units=GPa)
#
#
# Indices 1 2 3 4 5 6 
#
# 1 110.2270 41.1553 11.7839 7.6847 -14.0602 -26.9579
# 2 41.1553 74.8393 17.8085 14.1292 8.0758 -6.7268
# 3 11.7839 17.8085 91.3206 20.9660 -3.1009 -15.9407
# 4 7.6847 14.1292 20.9660 32.2416 -2.6407 4.3523
# 5 -14.0602 8.0758 -3.1009 -2.6407 43.4426 9.9827
# 6 -26.9579 -6.7268 -15.9407 4.3523 9.9827 52.5300
#
#
#
# Elastic Compliance Matrix: (Units=1/GPa)
#
#
# Indices 1 2 3 4 5 6 
#
# 1 0.013875 -0.007684 0.001094 -0.001038 0.004630 0.005675
# 2 -0.007684 0.019889 -0.001683 -0.006320 -0.006662 -0.000117
# 3 0.001094 -0.001683 0.014291 -0.009573 -0.000160 0.005506
# 4 -0.001038 -0.006320 -0.009573 0.041801 0.004672 -0.008598
# 5 0.004630 -0.006662 -0.000160 0.004672 0.026956 -0.004035
# 6 0.005675 -0.000117 0.005506 -0.008598 -0.004035 0.025084
#
#
# Mechanical properties :
#
#
# Convention : Reuss Voigt Hill
#
# Bulk Modulus (GPa) = 31.73603 46.43139 39.08371
# Shear Modulus (GPa) = 29.59543 39.35212 34.47377
#
# Velocity S-wave (km/s) = 3.47824 4.01080 3.75397
# Velocity P-wave (km/s) = 5.39481 6.35838 5.89631
#
# Compressibility (1/GPa) = 0.03150993
#
# Stress axis : x y z
#
# Youngs Moduli (GPa) = 72.07208 50.27791 69.97451
#
# Poissons Ratio (x) = 0.38634 -0.07656
# Poissons Ratio (y) = 0.55380 0.11775
# Poissons Ratio (z) = -0.07886 0.08461
#
# Static dielectric constant tensor:
#      x y z
#    x 1.977150 0.009730 0.050030 
#    y 0.009730 1.974010 -0.001950 
#    z 0.050030 -0.001950 1.916520 
# 
# From -- ./inp_files/21753.got.cif
#   From: 2010.05.17/outbox.cif.g08.bks.cpg/sg2_11_cif.got.tgz:21753.got - 2010.06.03 11:33:40.
