data_PCOD9064344
_publ_section_title
;
Structure prediction by ZEFSAII (Michael W. Deem and Ramdas Pophale) SiO2 
 PCOD9064344
Probable space group: P -1
;
_chemical_formula_sum "Si O2"
_cell_formula_units_Z 16
_cell_length_a 10.319465
_cell_length_b 12.882576
_cell_length_c 9.269279
_cell_angle_alpha 101.603429
_cell_angle_beta 123.584819
_cell_angle_gamma 43.385523
_cell_volume 660.275113
_symmetry_space_group_name_H-M "P -1"
_symmetry_group_IT_number 2
_symmetry_cell_setting 'triclinic'
loop_
_space_group_symop_operation_xyz
x,y,z
-x,-y,-z
loop_
_atom_site_type_symbol
_atom_site_label
_atom_site_fract_x
_atom_site_fract_y
_atom_site_fract_z
Si Si1 0.142712 0.576619 0.565951
Si Si2 0.542481 0.641723 0.848832
Si Si3 0.677115 0.695456 0.206447
Si Si4 0.478114 0.341292 0.500151
Si Si5 0.637970 0.949331 0.923451
Si Si6 0.471940 0.906142 0.546150
Si Si7 0.159803 0.724031 0.105474
Si Si8 0.936261 0.166490 0.245119
O O1 0.314011 0.416261 0.725962
O O2 0.283905 0.524359 0.490399
O O3 0.085593 0.705533 0.663819
O O4 0.903125 0.644142 0.386827
O O5 0.510166 0.672670 0.667646
O O6 0.670501 0.461304 0.887678
O O7 0.284967 0.779244 0.804909
O O8 0.691989 0.649783 0.036169
O O9 0.455682 0.887653 0.142994
O O10 0.388950 0.268785 0.470714
O O11 0.709981 0.264014 0.701866
O O12 0.554484 0.900573 0.751011
O O13 0.500000 0.000000 0.000000
O O14 0.920347 0.805698 0.055905
O O15 0.500000 0.000000 0.500000
O O16 0.203836 0.000970 0.405014
O O17 0.089508 0.816062 0.937717
#
# Coordination Sequence:
#
# PCOD9064344 Si02
#       8
#     2   2   2   2   2   2   2   2
#     4  11  24  45  74 103 139 188 245 297 346 431
#     4  12  27  47  73 108 147 188 240 299 358 426
#     4  11  25  45  73 104 141 188 244 292 359 424
#     4  12  29  45  72 108 146 192 240 296 366 421
#     4  12  28  46  72 106 149 190 239 302 364 426
#     4  12  27  50  72 105 145 192 241 294 362 428
#     4  12  27  48  72 107 149 191 243 296 362 427
#     4  12  25  48  75 101 147 188 241 298 349 435
#
# _framework density 24.232324999999999
#
# number of rings (size 3 to 8) (size 9 to 14) (size 15 to 20)
#    0.000    0.250    5.000    3.000    8.750    1.500 
#    0.000    0.000    0.000    0.000    0.000    0.000 
#    0.000    0.000    0.000    0.000    0.000    0.000 
#
# Total GULP energy -89583.468505 kJ/mol
# GULP energy per Si atom -5598.966782 kJ/mol
# Density = 2.417717 g / cm^3
# Si number density = 24.232325 Si / 1000 Ang^3
#
#
#
# Elastic Constant Matrix: (Units=GPa)
#
#
# Indices 1 2 3 4 5 6 
#
# 1 71.1448 1.2090 35.5784 1.1445 -4.7562 -25.5253
# 2 1.2090 83.3932 29.8681 18.1123 8.3579 2.1911
# 3 35.5784 29.8681 171.1737 32.6540 -2.6954 -2.1568
# 4 1.1445 18.1123 32.6540 40.0936 -12.0922 5.0213
# 5 -4.7562 8.3579 -2.6954 -12.0922 31.5643 6.2902
# 6 -25.5253 2.1911 -2.1568 5.0213 6.2902 45.4394
#
#
#
# Elastic Compliance Matrix: (Units=1/GPa)
#
#
# Indices 1 2 3 4 5 6 
#
# 1 0.020189 0.000530 -0.004482 0.001810 0.001069 0.010755
# 2 0.000530 0.014900 -0.001258 -0.008125 -0.007372 0.001438
# 3 -0.004482 -0.001258 0.008167 -0.006380 -0.001869 -0.001105
# 4 0.001810 -0.008125 -0.006380 0.040037 0.018386 -0.005864
# 5 0.001069 -0.007372 -0.001869 0.018386 0.042071 -0.006988
# 6 0.010755 0.001438 -0.001105 -0.005864 -0.006988 0.029542
#
#
# Mechanical properties :
#
#
# Convention : Reuss Voigt Hill
#
# Bulk Modulus (GPa) = 30.45454 51.00251 40.72852
# Shear Modulus (GPa) = 28.36536 40.68987 34.52761
#
# Velocity S-wave (km/s) = 3.42505 4.10220 3.77882
# Velocity P-wave (km/s) = 5.31379 6.59775 5.99027
#
# Compressibility (1/GPa) = 0.03283583
#
# Stress axis : x y z
#
# Youngs Moduli (GPa) = 49.53200 67.11368 122.44649
#
# Poissons Ratio (x) = -0.03554 0.54876
# Poissons Ratio (y) = -0.02623 0.15403
# Poissons Ratio (z) = 0.22198 0.08442
#
# Static dielectric constant tensor:
#      x y z
#    x 2.011050 0.019330 -0.052180 
#    y 0.019330 1.944760 -0.023840 
#    z -0.052180 -0.023840 1.901530 
# 
# From -- ./inp_files/209312.got.cif
#   From: 2010.05.17/outbox.cif.g08.bks.cpg/sg2_105_cif.got.tgz:209312.got - 2010.06.03 11:33:40.
