data_PCOD9064778
_publ_section_title
;
Structure prediction by ZEFSAII (Michael W. Deem and Ramdas Pophale) SiO2 
 PCOD9064778
Probable space group: P -1
;
_chemical_formula_sum "Si O2"
_cell_formula_units_Z 16
_cell_length_a 10.272894
_cell_length_b 14.854655
_cell_length_c 10.880096
_cell_angle_alpha 60.456965
_cell_angle_beta 42.277300
_cell_angle_gamma 37.612890
_cell_volume 663.951224
_symmetry_space_group_name_H-M "P -1"
_symmetry_group_IT_number 2
_symmetry_cell_setting 'triclinic'
loop_
_space_group_symop_operation_xyz
x,y,z
-x,-y,-z
loop_
_atom_site_type_symbol
_atom_site_label
_atom_site_fract_x
_atom_site_fract_y
_atom_site_fract_z
Si Si1 0.636896 0.053780 0.328538
Si Si2 0.788080 0.677367 0.048095
Si Si3 0.238292 0.779899 0.432379
Si Si4 0.775927 0.283555 0.877663
Si Si5 0.863638 0.281175 0.094277
Si Si6 0.087489 0.934008 0.685585
Si Si7 0.741263 0.441192 0.565187
Si Si8 0.312352 0.295570 0.175143
O O1 0.966808 0.899511 0.178013
O O2 0.500000 0.000000 0.500000
O O3 0.634442 0.132524 0.393750
O O4 0.478436 0.163467 0.249132
O O5 0.691123 0.748334 0.931091
O O6 0.940357 0.707373 0.995412
O O7 0.529814 0.728213 0.266905
O O8 0.000000 0.500000 0.000000
O O9 0.089453 0.866692 0.604326
O O10 0.272673 0.646565 0.466008
O O11 0.072470 0.900047 0.355815
O O12 0.825494 0.349828 0.694214
O O13 0.779867 0.329746 0.979389
O O14 0.482540 0.337153 0.021510
O O15 0.020180 0.109665 0.114281
O O16 0.569876 0.393241 0.301930
O O17 0.986216 0.423552 0.362922
#
# Coordination Sequence:
#
# PCOD9064778 Si02
#       8
#     2   2   2   2   2   2   2   2
#     4  12  24  47  75 107 147 198 242 304 369 437
#     4  12  26  47  74 107 145 201 241 299 375 435
#     4  11  24  46  73 103 152 186 244 302 361 444
#     4  12  25  48  73 108 153 186 249 302 363 442
#     4  12  28  44  73 109 146 191 246 306 363 433
#     4  11  25  45  70 108 142 191 245 304 362 430
#     4  12  25  49  74 108 150 195 240 301 374 441
#     4  12  25  44  79 103 143 203 241 297 373 434
#
# _framework density 24.098154999999998
#
# number of rings (size 3 to 8) (size 9 to 14) (size 15 to 20)
#    0.000    0.250    6.250    1.500    5.250    3.000 
#    0.000    0.000    0.000    0.000    0.000    0.000 
#    0.000    0.000    0.000    0.000    0.000    0.000 
#
# Total GULP energy -89567.423281 kJ/mol
# GULP energy per Si atom -5597.963955 kJ/mol
# Density = 2.404331 g / cm^3
# Si number density = 24.098155 Si / 1000 Ang^3
#
#
#
# Elastic Constant Matrix: (Units=GPa)
#
#
# Indices 1 2 3 4 5 6 
#
# 1 176.0995 8.4577 30.5961 -2.8560 -8.2415 -1.0690
# 2 8.4577 72.5500 -12.8616 -9.2530 8.1107 -10.6953
# 3 30.5961 -12.8616 80.5329 6.6413 -19.1223 -5.9053
# 4 -2.8560 -9.2530 6.6413 35.1269 -3.2219 -1.6810
# 5 -8.2415 8.1107 -19.1223 -3.2219 35.8143 2.8122
# 6 -1.0690 -10.6953 -5.9053 -1.6810 2.8122 32.2137
#
#
#
# Elastic Compliance Matrix: (Units=1/GPa)
#
#
# Indices 1 2 3 4 5 6 
#
# 1 0.006210 -0.001243 -0.002554 0.000670 0.000461 -0.000680
# 2 -0.001243 0.016067 0.002541 0.003697 -0.002721 0.006190
# 3 -0.002554 0.002541 0.015788 -0.001751 0.006876 0.002961
# 4 0.000670 0.003697 -0.001751 0.030025 0.000893 0.002418
# 5 0.000461 -0.002721 0.006876 0.000893 0.032586 -0.002426
# 6 -0.000680 0.006190 0.002961 0.002418 -0.002426 0.033956
#
#
# Mechanical properties :
#
#
# Convention : Reuss Voigt Hill
#
# Bulk Modulus (GPa) = 28.12626 42.39632 35.26129
# Shear Modulus (GPa) = 33.55810 40.83033 37.19422
#
# Velocity S-wave (km/s) = 3.73575 4.12069 3.93293
# Velocity P-wave (km/s) = 5.50497 6.34599 5.94038
#
# Compressibility (1/GPa) = 0.03555396
#
# Stress axis : x y z
#
# Youngs Moduli (GPa) = 161.02311 62.23834 63.34097
#
# Poissons Ratio (x) = 0.07736 0.16175
# Poissons Ratio (y) = 0.20015 -0.16095
# Poissons Ratio (z) = 0.41119 -0.15815
#
# Static dielectric constant tensor:
#      x y z
#    x 1.882370 -0.001440 0.072050 
#    y -0.001440 1.987680 0.024740 
#    z 0.072050 0.024740 1.883800 
# 
# From -- ./inp_files/436601.got.cif
#   From: 2010.05.17/outbox.cif.g08.bks.cpg/sg2_219_cif.got.tgz:436601.got - 2010.06.03 11:33:40.
