data_PCOD9064380
_publ_section_title
;
Structure prediction by ZEFSAII (Michael W. Deem and Ramdas Pophale) SiO2 
 PCOD9064380
Probable space group: P -1
;
_chemical_formula_sum "Si O2"
_cell_formula_units_Z 14
_cell_length_a 8.651590
_cell_length_b 12.471207
_cell_length_c 15.418271
_cell_angle_alpha 152.748541
_cell_angle_beta 122.693455
_cell_angle_gamma 47.910422
_cell_volume 557.626912
_symmetry_space_group_name_H-M "P -1"
_symmetry_group_IT_number 2
_symmetry_cell_setting 'triclinic'
loop_
_space_group_symop_operation_xyz
x,y,z
-x,-y,-z
loop_
_atom_site_type_symbol
_atom_site_label
_atom_site_fract_x
_atom_site_fract_y
_atom_site_fract_z
Si Si1 0.681158 0.865804 0.031419
Si Si2 0.747284 0.998715 0.572650
Si Si3 0.791468 0.225358 0.435005
Si Si4 0.576568 0.165511 0.835475
Si Si5 0.774870 0.569717 0.517960
Si Si6 0.172007 0.533759 0.881707
Si Si7 0.449814 0.544051 0.293702
O O1 0.615754 0.664851 0.913680
O O2 0.923852 0.706989 0.954814
O O3 0.500000 0.000000 0.000000
O O4 0.675196 0.092943 0.254315
O O5 0.799395 0.705087 0.344949
O O6 0.967452 0.997408 0.638501
O O7 0.655514 0.068255 0.690485
O O8 0.600025 0.220728 0.619169
O O9 0.789458 0.445500 0.527261
O O10 0.693571 0.338815 0.579487
O O11 0.329435 0.380588 0.901025
O O12 0.633493 0.891739 0.704118
O O13 0.721686 0.295285 0.001209
O O14 0.679878 0.437621 0.327436
O O15 0.000000 0.500000 0.500000
#
# Coordination Sequence:
#
# PCOD9064380 Si02
#       7
#     2   2   2   2   2   2   2
#     4  12  26  47  73 108 147 193 252 300 368 441
#     4  12  24  47  77 108 147 193 244 300 369 437
#     4  12  26  49  77 104 152 194 240 311 363 437
#     4  11  25  47  74 110 149 191 247 304 363 436
#     4  12  24  47  76 105 148 195 242 305 372 426
#     4  11  24  45  74 107 147 192 246 302 361 437
#     4  12  28  46  75 109 146 199 243 298 373 438
#
# _framework density 25.106394000000002
#
# number of rings (size 3 to 8) (size 9 to 14) (size 15 to 20)
#    0.000    0.286    7.143    1.286    0.000    1.714 
#    0.000    2.143    0.000    0.000    0.000    0.000 
#    0.000    0.000    0.000    0.000    0.000    0.000 
#
# Total GULP energy -78531.085235 kJ/mol
# GULP energy per Si atom -5609.363231 kJ/mol
# Density = 2.504925 g / cm^3
# Si number density = 25.106394 Si / 1000 Ang^3
#
#
#
# Elastic Constant Matrix: (Units=GPa)
#
#
# Indices 1 2 3 4 5 6 
#
# 1 142.9077 41.0652 31.4706 0.3402 2.5322 -24.7368
# 2 41.0652 75.4581 19.4770 -6.4904 -8.1969 -11.6662
# 3 31.4706 19.4770 108.4822 -1.1929 18.2195 17.1826
# 4 0.3402 -6.4904 -1.1929 38.7796 -5.4320 3.2796
# 5 2.5322 -8.1969 18.2195 -5.4320 48.0928 -2.5851
# 6 -24.7368 -11.6662 17.1826 3.2796 -2.5851 61.8673
#
#
#
# Elastic Compliance Matrix: (Units=1/GPa)
#
#
# Indices 1 2 3 4 5 6 
#
# 1 0.009364 -0.003953 -0.002600 -0.001159 -0.000110 0.003778
# 2 -0.003953 0.017452 -0.003190 0.003323 0.004908 0.002625
# 3 -0.002600 -0.003190 0.012277 -0.000444 -0.005391 -0.005252
# 4 -0.001159 0.003323 -0.000444 0.026953 0.003787 -0.000984
# 5 -0.000110 0.004908 -0.005391 0.003787 0.024277 0.003192
# 6 0.003778 0.002625 -0.005252 -0.000984 0.003192 0.019813
#
#
# Mechanical properties :
#
#
# Convention : Reuss Voigt Hill
#
# Bulk Modulus (GPa) = 50.99794 56.76373 53.88083
# Shear Modulus (GPa) = 36.72202 45.40362 41.06282
#
# Velocity S-wave (km/s) = 3.82862 4.25720 4.04858
# Velocity P-wave (km/s) = 6.31674 6.84276 6.58501
#
# Compressibility (1/GPa) = 0.01960863
#
# Stress axis : x y z
#
# Youngs Moduli (GPa) = 106.78678 57.30094 81.45046
#
# Poissons Ratio (x) = 0.22650 0.21174
# Poissons Ratio (y) = 0.42210 0.25983
# Poissons Ratio (z) = 0.27760 0.18280
#
# Static dielectric constant tensor:
#      x y z
#    x 1.991300 -0.029460 0.024810 
#    y -0.029460 1.951860 0.006360 
#    z 0.024810 0.006360 2.013970 
# 
# From -- ./inp_files/501285.got.cif
#   From: 2010.05.17/outbox.cif.g08.bks.cpg/sg2_251_cif.got.tgz:501285.got - 2010.06.03 11:33:40.
