data_PCOD9064167
_publ_section_title
;
Structure prediction by ZEFSAII (Michael W. Deem and Ramdas Pophale) SiO2 
 PCOD9064167
Probable space group: P -1
;
_chemical_formula_sum "Si O2"
_cell_formula_units_Z 14
_cell_length_a 19.441650
_cell_length_b 4.995173
_cell_length_c 7.366119
_cell_angle_alpha 94.412941
_cell_angle_beta 116.767027
_cell_angle_gamma 104.852564
_cell_volume 601.826929
_symmetry_space_group_name_H-M "P -1"
_symmetry_group_IT_number 2
_symmetry_cell_setting 'triclinic'
loop_
_space_group_symop_operation_xyz
x,y,z
-x,-y,-z
loop_
_atom_site_type_symbol
_atom_site_label
_atom_site_fract_x
_atom_site_fract_y
_atom_site_fract_z
Si Si1 0.069266 0.998777 0.943530
Si Si2 0.408116 0.922760 0.322582
Si Si3 0.803288 0.923614 0.612720
Si Si4 0.629588 0.587867 0.508466
Si Si5 0.591259 0.232060 0.100149
Si Si6 0.072848 0.486554 0.717715
Si Si7 0.214059 0.626581 0.628198
O O1 0.065025 0.176637 0.768425
O O2 0.063520 0.678718 0.881796
O O3 0.151891 0.126537 0.158912
O O4 0.000000 0.000000 0.000000
O O5 0.358026 0.682137 0.391313
O O6 0.500000 0.000000 0.500000
O O7 0.397642 0.229894 0.359848
O O8 0.400744 0.776573 0.109907
O O9 0.709931 0.816762 0.546060
O O10 0.810936 0.707939 0.455877
O O11 0.823860 0.232054 0.567852
O O12 0.583953 0.464216 0.255925
O O13 0.686515 0.238040 0.251809
O O14 0.500000 0.000000 0.000000
O O15 0.162792 0.640185 0.747292
O O16 0.000000 0.500000 0.500000
#
# Coordination Sequence:
#
# PCOD9064167 Si02
#       7
#     2   2   2   2   2   2   2
#     4  12  25  43  72 103 137 186 224 283 353 422
#     4  12  26  44  71 100 138 184 248 299 365 432
#     4  11  24  45  71  95 142 176 236 285 356 417
#     4  11  26  46  67 103 139 186 238 308 356 430
#     4  11  26  46  73 101 146 193 245 301 370 423
#     4  12  25  44  72 105 144 177 230 285 345 426
#     4  11  25  46  68 103 137 186 230 295 354 420
#
# _framework density 23.262505000000001
#
# number of rings (size 3 to 8) (size 9 to 14) (size 15 to 20)
#    0.000    0.571    1.429    6.429    4.000    4.000 
#    0.000    0.000    0.000    0.000    0.000    0.000 
#    0.000    0.000    0.000    0.000    0.000    0.000 
#
# Total GULP energy -77948.933837 kJ/mol
# GULP energy per Si atom -5567.780988 kJ/mol
# Density = 2.320956 g / cm^3
# Si number density = 23.262505 Si / 1000 Ang^3
#
#
#
# Elastic Constant Matrix: (Units=GPa)
#
#
# Indices 1 2 3 4 5 6 
#
# 1 34.4507 24.5437 8.0826 6.3164 -15.7931 -0.9641
# 2 24.5437 83.7503 18.1324 -7.4549 0.0641 -7.3272
# 3 8.0826 18.1324 116.9720 -4.1271 -9.9005 -2.6025
# 4 6.3164 -7.4549 -4.1271 32.7476 -4.4562 -5.1117
# 5 -15.7931 0.0641 -9.9005 -4.4562 40.6140 2.1984
# 6 -0.9641 -7.3272 -2.6025 -5.1117 2.1984 28.5854
#
#
#
# Elastic Compliance Matrix: (Units=1/GPa)
#
#
# Indices 1 2 3 4 5 6 
#
# 1 0.051908 -0.016877 0.000088 -0.012198 0.019232 -0.006227
# 2 -0.016877 0.018445 -0.001865 0.007229 -0.006566 0.005786
# 3 0.000088 -0.001865 0.009077 0.001079 0.002349 0.000364
# 4 -0.012198 0.007229 0.001079 0.035786 -0.000999 0.008016
# 5 0.019232 -0.006566 0.002349 -0.000999 0.032764 -0.003519
# 6 -0.006227 0.005786 0.000364 0.008016 -0.003519 0.037993
#
#
# Mechanical properties :
#
#
# Convention : Reuss Voigt Hill
#
# Bulk Modulus (GPa) = 23.74002 37.41005 30.57504
# Shear Modulus (GPa) = 21.06850 32.68368 26.87609
#
# Velocity S-wave (km/s) = 3.01272 3.75239 3.40272
# Velocity P-wave (km/s) = 4.72540 5.90682 5.34883
#
# Compressibility (1/GPa) = 0.04212297
#
# Stress axis : x y z
#
# Youngs Moduli (GPa) = 19.26480 54.21645 110.16843
#
# Poissons Ratio (x) = 0.91499 -0.00972
# Poissons Ratio (y) = 0.32512 0.20547
# Poissons Ratio (z) = -0.00170 0.10112
#
# Static dielectric constant tensor:
#      x y z
#    x 1.993290 -0.167000 -0.094110 
#    y -0.167000 2.136470 0.182340 
#    z -0.094110 0.182340 2.017550 
# 
# From -- ./inp_files/114253.got.cif
#   From: 2010.05.17/outbox.cif.g08.bks.cpg/sg2_58_cif.got.tgz:114253.got - 2010.06.03 11:33:40.
