data_PCOD9064636
_publ_section_title
;
Structure prediction by ZEFSAII (Michael W. Deem and Ramdas Pophale) SiO2 
 PCOD9064636
Probable space group: P -1
;
_chemical_formula_sum "Si O2"
_cell_formula_units_Z 16
_cell_length_a 9.253461
_cell_length_b 13.110389
_cell_length_c 9.103183
_cell_angle_alpha 89.678509
_cell_angle_beta 102.033437
_cell_angle_gamma 131.902539
_cell_volume 790.236798
_symmetry_space_group_name_H-M "P -1"
_symmetry_group_IT_number 2
_symmetry_cell_setting 'triclinic'
loop_
_space_group_symop_operation_xyz
x,y,z
-x,-y,-z
loop_
_atom_site_type_symbol
_atom_site_label
_atom_site_fract_x
_atom_site_fract_y
_atom_site_fract_z
Si Si1 0.690338 0.329733 0.031736
Si Si2 0.963709 0.649030 0.027612
Si Si3 0.525442 0.165842 0.298024
Si Si4 0.187039 0.883388 0.594451
Si Si5 0.088022 0.899695 0.241278
Si Si6 0.718155 0.860604 0.238908
Si Si7 0.204445 0.368928 0.320554
Si Si8 0.531232 0.682084 0.491079
O O1 0.807222 0.492170 0.057951
O O2 0.643639 0.267370 0.184255
O O3 0.481137 0.240313 0.900966
O O4 0.836632 0.319039 0.979209
O O5 0.016514 0.762273 0.151298
O O6 0.868050 0.652732 0.860826
O O7 0.628401 0.108250 0.364386
O O8 0.530369 0.247224 0.432733
O O9 0.291894 0.036837 0.209267
O O10 0.145501 0.904453 0.422542
O O11 0.989519 0.733804 0.615758
O O12 0.232828 0.000476 0.708427
O O13 0.909021 0.897371 0.203665
O O14 0.668499 0.778546 0.381318
O O15 0.338622 0.529447 0.392505
O O16 0.342635 0.334743 0.377997
#
# Coordination Sequence:
#
# PCOD9064636 Si02
#       8
#     2   2   2   2   2   2   2   2
#     4  11  27  46  68 100 140 179 221 278 338 397
#     4  11  26  47  69 100 139 177 222 278 339 401
#     4  12  27  44  70 102 134 182 227 276 331 404
#     4  12  25  45  70  99 137 176 227 282 333 394
#     4  12  27  43  70 103 134 179 226 277 337 399
#     4  12  25  47  69  97 141 179 223 281 333 397
#     4  11  24  46  71 100 136 178 220 281 337 396
#     4  11  25  45  72 101 136 175 228 276 335 399
#
# _framework density 20.247095999999999
#
# number of rings (size 3 to 8) (size 9 to 14) (size 15 to 20)
#    0.000    0.500    5.000    2.250    7.000    2.500 
#    0.000    0.000    0.000    0.000    0.000    0.000 
#    0.000    0.000    0.000    0.000    0.000    0.000 
#
# Total GULP energy -89596.020087 kJ/mol
# GULP energy per Si atom -5599.751255 kJ/mol
# Density = 2.020101 g / cm^3
# Si number density = 20.247096 Si / 1000 Ang^3
#
#
#
# Elastic Constant Matrix: (Units=GPa)
#
#
# Indices 1 2 3 4 5 6 
#
# 1 -601.3494 -0.2920 -558.7662 -131.5645 -199.9954 286.1322
# 2 -0.2920 67.6209 -40.2791 0.3956 -19.3367 27.5094
# 3 -558.7662 -40.2791 -421.0500 -119.6250 -150.8874 230.4615
# 4 -131.5645 0.3956 -119.6250 -0.2720 -50.1592 55.4134
# 5 -199.9954 -19.3367 -150.8874 -50.1592 -25.9769 84.3856
# 6 286.1322 27.5094 230.4615 55.4134 84.3856 -75.7906
#
#
#
# Elastic Compliance Matrix: (Units=1/GPa)
#
#
# Indices 1 2 3 4 5 6 
#
# 1 0.012312 -0.008721 -0.009917 -0.006247 -0.003547 0.004643
# 2 -0.008721 0.021464 0.005199 -0.001525 0.003821 -0.006183
# 3 -0.009917 0.005199 0.019274 -0.003200 -0.012992 0.006249
# 4 -0.006247 -0.001525 -0.003200 0.038829 0.009535 0.005140
# 5 -0.003547 0.003821 -0.012992 0.009535 0.038847 -0.001284
# 6 0.004643 -0.006183 0.006249 0.005140 -0.001284 0.023421
#
#
# Mechanical properties :
#
#
# Convention : Reuss Voigt Hill
#
# Bulk Modulus (GPa) = 38.20795 -239.27255 -100.53230
# Shear Modulus (GPa) = 26.35058 -44.10398 -8.87670
#
# Velocity S-wave (km/s) = 3.61148 -4.67228 -2.09612
# Velocity P-wave (km/s) = 6.02513 12.14659 7.45780
#
# Compressibility (1/GPa) = 0.02617256
#
# Stress axis : x y z
#
# Youngs Moduli (GPa) = 81.22444 46.58861 51.88403
#
# Poissons Ratio (x) = 0.40628 0.51454
# Poissons Ratio (y) = 0.70832 -0.26975
# Poissons Ratio (z) = 0.80551 -0.24222
#
# Static dielectric constant tensor:
#      x y z
#    x 1.692990 0.008500 0.015460 
#    y 0.008500 1.697470 -0.015080 
#    z 0.015460 -0.015080 1.681910 
# 
# From -- ./inp_files/184147.got.cif
#   From: 2010.05.17/outbox.cif.g08.bks.cpg/sg2_93_cif.got.tgz:184147.got - 2010.06.03 11:33:40.
