data_PCOD9064824
_publ_section_title
;
Structure prediction by ZEFSAII (Michael W. Deem and Ramdas Pophale) SiO2 
 PCOD9064824
Probable space group: P -1
;
_chemical_formula_sum "Si O2"
_cell_formula_units_Z 16
_cell_length_a 18.791083
_cell_length_b 22.038249
_cell_length_c 9.401908
_cell_angle_alpha 144.318593
_cell_angle_beta 33.609845
_cell_angle_gamma 161.975950
_cell_volume 662.148887
_symmetry_space_group_name_H-M "P -1"
_symmetry_group_IT_number 2
_symmetry_cell_setting 'triclinic'
loop_
_space_group_symop_operation_xyz
x,y,z
-x,-y,-z
loop_
_atom_site_type_symbol
_atom_site_label
_atom_site_fract_x
_atom_site_fract_y
_atom_site_fract_z
Si Si1 0.543525 0.387113 0.661758
Si Si2 0.371794 0.156937 0.968006
Si Si3 0.143496 0.241661 0.963347
Si Si4 0.205376 0.642973 0.167592
Si Si5 0.087766 0.334344 0.664835
Si Si6 0.227030 0.275911 0.556121
Si Si7 0.626286 0.061243 0.757122
Si Si8 0.305489 0.660571 0.466022
O O1 0.258987 0.216624 0.793531
O O2 0.664455 0.499999 0.524831
O O3 0.609449 0.318970 0.479963
O O4 0.683163 0.554030 0.863139
O O5 0.546432 0.215407 0.895038
O O6 0.556816 0.314052 0.832556
O O7 0.243293 0.166683 0.276328
O O8 0.140260 0.935769 0.872207
O O9 0.165035 0.252180 0.777530
O O10 0.277973 0.773075 0.171938
O O11 0.986504 0.540325 0.431873
O O12 0.091478 0.455647 0.945679
O O13 0.073104 0.242343 0.641703
O O14 0.868455 0.166523 0.601760
O O15 0.500000 0.500000 0.500000
O O16 0.426988 0.856941 0.614678
O O17 0.500000 0.000000 0.000000
#
# Coordination Sequence:
#
# PCOD9064824 Si02
#       8
#     2   2   2   2   2   2   2   2
#     4  11  24  46  74 103 151 189 242 304 369 429
#     4  12  28  46  72 109 148 191 246 302 368 443
#     4  11  26  46  72 109 146 195 242 306 367 440
#     4  12  26  49  73 105 155 192 243 302 364 436
#     4  12  24  46  76 108 149 191 243 306 363 437
#     4  12  24  46  74 107 145 192 238 297 383 431
#     4  12  26  45  74 110 140 199 251 294 360 435
#     4  12  27  48  72 108 148 197 246 302 365 430
#
# _framework density 24.16375
#
# number of rings (size 3 to 8) (size 9 to 14) (size 15 to 20)
#    0.000    0.250    5.000    3.375    5.250    1.000 
#    0.000    0.000    0.000    0.000    0.000    0.000 
#    0.000    0.000    0.000    0.000    0.000    0.000 
#
# Total GULP energy -89523.133843 kJ/mol
# GULP energy per Si atom -5595.195865 kJ/mol
# Density = 2.410875 g / cm^3
# Si number density = 24.163750 Si / 1000 Ang^3
#
#
#
# Elastic Constant Matrix: (Units=GPa)
#
#
# Indices 1 2 3 4 5 6 
#
# 1 165.8465 56.2312 31.8111 -3.5631 -6.8089 4.6729
# 2 56.2312 122.3907 33.8987 -17.6631 -6.6132 14.7437
# 3 31.8111 33.8987 78.9382 -10.6453 15.9976 -11.4858
# 4 -3.5631 -17.6631 -10.6453 33.4937 -1.2455 6.0383
# 5 -6.8089 -6.6132 15.9976 -1.2455 32.8256 -4.9454
# 6 4.6729 14.7437 -11.4858 6.0383 -4.9454 31.0027
#
#
#
# Elastic Compliance Matrix: (Units=1/GPa)
#
#
# Indices 1 2 3 4 5 6 
#
# 1 0.007524 -0.002865 -0.002425 -0.001391 0.002103 -0.000064
# 2 -0.002865 0.013257 -0.005678 0.006583 0.003790 -0.008654
# 3 -0.002425 -0.005678 0.019447 0.001031 -0.009804 0.008506
# 4 -0.001391 0.006583 0.001031 0.035205 0.000467 -0.009321
# 5 0.002103 0.003790 -0.009804 0.000467 0.036455 -0.000027
# 6 -0.000064 -0.008654 0.008506 -0.009321 -0.000027 0.041343
#
#
# Mechanical properties :
#
#
# Convention : Reuss Voigt Hill
#
# Bulk Modulus (GPa) = 54.66656 67.89527 61.28092
# Shear Modulus (GPa) = 27.58408 35.81335 31.69872
#
# Velocity S-wave (km/s) = 3.38235 3.85400 3.62585
# Velocity P-wave (km/s) = 6.15842 6.92556 6.55323
#
# Compressibility (1/GPa) = 0.01829272
#
# Stress axis : x y z
#
# Youngs Moduli (GPa) = 132.90076 75.43461 51.42150
#
# Poissons Ratio (x) = 0.21611 0.12470
# Poissons Ratio (y) = 0.38074 0.29196
# Poissons Ratio (z) = 0.32230 0.42830
#
# Static dielectric constant tensor:
#      x y z
#    x 1.999700 -0.060250 -0.104870 
#    y -0.060250 1.964850 0.078150 
#    z -0.104870 0.078150 2.120530 
# 
# From -- ./inp_files/338184.got.cif
#   From: 2010.05.17/outbox.cif.g08.bks.cpg/sg2_170_cif.got.tgz:338184.got - 2010.06.03 11:33:40.
