data_PCOD9064622
_publ_section_title
;
Structure prediction by ZEFSAII (Michael W. Deem and Ramdas Pophale) SiO2 
 PCOD9064622
Probable space group: P -1
;
_chemical_formula_sum "Si O2"
_cell_formula_units_Z 14
_cell_length_a 14.818510
_cell_length_b 10.986690
_cell_length_c 6.114229
_cell_angle_alpha 87.412015
_cell_angle_beta 127.559963
_cell_angle_gamma 120.140088
_cell_volume 631.047021
_symmetry_space_group_name_H-M "P -1"
_symmetry_group_IT_number 2
_symmetry_cell_setting 'triclinic'
loop_
_space_group_symop_operation_xyz
x,y,z
-x,-y,-z
loop_
_atom_site_type_symbol
_atom_site_label
_atom_site_fract_x
_atom_site_fract_y
_atom_site_fract_z
Si Si1 0.985092 0.433785 0.232561
Si Si2 0.343912 0.345738 0.256550
Si Si3 0.799070 0.103235 0.401829
Si Si4 0.104714 0.285229 0.609038
Si Si5 0.698808 0.180793 0.629967
Si Si6 0.413910 0.113066 0.263696
Si Si7 0.855577 0.882766 0.668568
O O1 0.000000 0.500000 0.500000
O O2 0.091914 0.387547 0.410819
O O3 0.821584 0.283958 0.979753
O O4 0.000000 0.500000 0.000000
O O5 0.500000 0.500000 0.500000
O O6 0.361725 0.217615 0.208302
O O7 0.254359 0.272476 0.352218
O O8 0.245895 0.367227 0.955643
O O9 0.771221 0.202435 0.501604
O O10 0.960354 0.205322 0.542400
O O11 0.789777 0.972350 0.533852
O O12 0.677396 0.006633 0.052954
O O13 0.102783 0.156933 0.488917
O O14 0.581203 0.210232 0.454621
O O15 0.617576 0.001555 0.576695
O O16 0.000000 0.000000 0.000000
#
# Coordination Sequence:
#
# PCOD9064622 Si02
#       7
#     2   2   2   2   2   2   2
#     4  12  29  50  74 112 153 202 261 329 393 470
#     4  12  28  47  72 111 159 200 255 323 398 467
#     4  12  21  44  75 112 141 192 266 321 380 459
#     4  12  26  45  77 105 145 201 257 318 393 465
#     4  11  25  45  75 104 149 199 256 316 387 461
#     4  11  24  46  70 106 148 201 252 317 388 470
#     4  12  23  41  75 108 145 190 252 320 378 466
#
# _framework density 22.185352000000002
#
# number of rings (size 3 to 8) (size 9 to 14) (size 15 to 20)
#    0.000    0.286    5.714    3.429    4.000    0.571 
#    2.571    0.000    0.000    0.000    0.000    0.000 
#    0.000    0.000    0.000    0.000    0.000    0.000 
#
# Total GULP energy -78146.684555 kJ/mol
# GULP energy per Si atom -5581.906040 kJ/mol
# Density = 2.213486 g / cm^3
# Si number density = 22.185352 Si / 1000 Ang^3
#
#
#
# Elastic Constant Matrix: (Units=GPa)
#
#
# Indices 1 2 3 4 5 6 
#
# 1 140.5351 13.1369 52.0869 5.0344 8.7090 2.6256
# 2 13.1369 82.3392 34.5676 -10.9202 7.7711 15.4492
# 3 52.0869 34.5676 136.5353 6.0800 24.8772 12.5211
# 4 5.0344 -10.9202 6.0800 47.6867 -10.0241 6.6636
# 5 8.7090 7.7711 24.8772 -10.0241 39.9893 0.0062
# 6 2.6256 15.4492 12.5211 6.6636 0.0062 34.2911
#
#
#
# Elastic Compliance Matrix: (Units=1/GPa)
#
#
# Indices 1 2 3 4 5 6 
#
# 1 0.008315 -0.000224 -0.003164 -0.000619 0.000046 0.000740
# 2 -0.000224 0.015553 -0.003560 0.005081 0.000516 -0.006678
# 3 -0.003164 -0.003560 0.010810 -0.002923 -0.006077 -0.001532
# 4 -0.000619 0.005081 -0.002923 0.024930 0.007216 -0.006020
# 5 0.000046 0.000516 -0.006077 0.007216 0.030486 0.000575
# 6 0.000740 -0.006678 -0.001532 -0.006020 0.000575 0.033843
#
#
# Mechanical properties :
#
#
# Convention : Reuss Voigt Hill
#
# Bulk Modulus (GPa) = 48.11669 62.11027 55.11348
# Shear Modulus (GPa) = 34.53994 41.70129 38.12062
#
# Velocity S-wave (km/s) = 3.95001 4.34023 4.14971
# Velocity P-wave (km/s) = 6.52220 7.29202 6.91783
#
# Compressibility (1/GPa) = 0.02078281
#
# Stress axis : x y z
#
# Youngs Moduli (GPa) = 120.26794 64.29510 92.50395
#
# Poissons Ratio (x) = 0.01437 0.29268
# Poissons Ratio (y) = 0.02688 0.32934
# Poissons Ratio (z) = 0.38052 0.22891
#
# Static dielectric constant tensor:
#      x y z
#    x 1.811310 0.028280 -0.035360 
#    y 0.028280 1.893190 -0.035650 
#    z -0.035360 -0.035650 1.782050 
# 
# From -- ./inp_files/71209.got.cif
#   From: 2010.05.17/outbox.cif.g08.bks.cpg/sg2_36_cif.got.tgz:71209.got - 2010.06.03 11:33:40.
