data_PCOD9064198
_publ_section_title
;
Structure prediction by ZEFSAII (Michael W. Deem and Ramdas Pophale) SiO2 
 PCOD9064198
Probable space group: P -1
;
_chemical_formula_sum "Si O2"
_cell_formula_units_Z 16
_cell_length_a 15.205971
_cell_length_b 18.914228
_cell_length_c 25.824368
_cell_angle_alpha 161.578852
_cell_angle_beta 162.798751
_cell_angle_gamma 25.048219
_cell_volume 694.078877
_symmetry_space_group_name_H-M "P -1"
_symmetry_group_IT_number 2
_symmetry_cell_setting 'triclinic'
loop_
_space_group_symop_operation_xyz
x,y,z
-x,-y,-z
loop_
_atom_site_type_symbol
_atom_site_label
_atom_site_fract_x
_atom_site_fract_y
_atom_site_fract_z
Si Si1 0.742792 0.620412 0.409900
Si Si2 0.127803 0.862370 0.024200
Si Si3 0.768714 0.047291 0.226673
Si Si4 0.924573 0.744527 0.282182
Si Si5 0.786974 0.472398 0.607389
Si Si6 0.163954 0.376256 0.959663
Si Si7 0.520958 0.968861 0.407377
Si Si8 0.596365 0.477242 0.128272
O O1 0.834141 0.567696 0.365583
O O2 0.000000 0.500000 0.500000
O O3 0.664271 0.880398 0.552276
O O4 0.444633 0.520761 0.199494
O O5 0.304232 0.648361 0.952993
O O6 0.871991 0.726105 0.815521
O O7 0.356821 0.011753 0.289852
O O8 0.000000 0.000000 0.000000
O O9 0.755958 0.294717 0.418787
O O10 0.117474 0.012823 0.379562
O O11 0.741186 0.864129 0.130534
O O12 0.500000 0.000000 0.000000
O O13 0.029309 0.643100 0.215720
O O14 0.999520 0.639547 0.307106
O O15 0.572394 0.703475 0.056958
O O16 0.000000 0.000000 0.500000
O O17 0.500000 0.500000 0.500000
O O18 0.000000 0.500000 0.000000
O O19 0.435937 0.709641 0.188719
#
# Coordination Sequence:
#
# PCOD9064198 Si02
#       8
#     2   2   2   2   2   2   2   2
#     4  11  26  44  71 109 148 194 252 316 388 466
#     4  12  27  46  77 112 150 202 264 321 397 470
#     4  12  28  46  74 110 150 205 264 320 384 467
#     4  11  24  46  75 101 145 198 251 319 397 456
#     4  12  28  48  71 113 155 198 262 331 390 467
#     4  11  25  46  73 105 145 201 256 316 396 464
#     4  12  24  48  75 105 151 202 255 322 388 458
#     4  11  24  45  72 103 145 195 254 314 381 464
#
# _framework density 23.052136000000001
#
# number of rings (size 3 to 8) (size 9 to 14) (size 15 to 20)
#    0.000    0.500    5.000    2.250    5.250    2.000 
#    0.000    0.000    0.000    0.000    0.000    0.000 
#    0.000    0.000    0.000    0.000    0.000    0.000 
#
# Total GULP energy -89116.369858 kJ/mol
# GULP energy per Si atom -5569.773116 kJ/mol
# Density = 2.299967 g / cm^3
# Si number density = 23.052136 Si / 1000 Ang^3
#
#
#
# Elastic Constant Matrix: (Units=GPa)
#
#
# Indices 1 2 3 4 5 6 
#
# 1 86.0712 1.6923 34.2189 -8.9667 -10.7918 1.9696
# 2 1.6923 78.3762 35.5170 0.3396 -2.4862 17.5697
# 3 34.2189 35.5170 85.7591 -2.8676 -11.2387 4.8897
# 4 -8.9667 0.3396 -2.8676 33.3939 17.1233 -0.8498
# 5 -10.7918 -2.4862 -11.2387 17.1233 48.3356 3.8541
# 6 1.9696 17.5697 4.8897 -0.8498 3.8541 56.3890
#
#
#
# Elastic Compliance Matrix: (Units=1/GPa)
#
#
# Indices 1 2 3 4 5 6 
#
# 1 0.014712 0.002998 -0.006848 0.002843 0.000909 -0.000873
# 2 0.002998 0.017482 -0.008148 -0.000278 0.000160 -0.004860
# 3 -0.006848 -0.008148 0.018013 -0.001578 0.002719 0.001006
# 4 0.002843 -0.000278 -0.001578 0.037333 -0.013098 0.001582
# 5 0.000909 0.000160 0.002719 -0.013098 0.026357 -0.002316
# 6 -0.000873 -0.004860 0.001006 0.001582 -0.002316 0.019374
#
#
# Mechanical properties :
#
#
# Convention : Reuss Voigt Hill
#
# Bulk Modulus (GPa) = 38.14970 43.67367 40.91168
# Shear Modulus (GPa) = 30.11979 39.54227 34.83103
#
# Velocity S-wave (km/s) = 3.61861 4.14616 3.89133
# Velocity P-wave (km/s) = 5.83475 6.47361 6.16246
#
# Compressibility (1/GPa) = 0.02621253
#
# Stress axis : x y z
#
# Youngs Moduli (GPa) = 67.97183 57.20081 55.51415
#
# Poissons Ratio (x) = -0.17148 0.38015
# Poissons Ratio (y) = -0.20376 0.45231
# Poissons Ratio (z) = 0.46546 0.46605
#
# Static dielectric constant tensor:
#      x y z
#    x 2.052660 0.192890 -0.184780 
#    y 0.192890 1.949160 -0.082090 
#    z -0.184780 -0.082090 2.197280 
# 
# From -- ./inp_files/612217.got.cif
#   From: 2010.05.17/outbox.cif.g08.bks.cpg/sg2_307_cif.got.tgz:612217.got - 2010.06.03 11:33:40.
