data_PCOD9064592
_publ_section_title
;
Structure prediction by ZEFSAII (Michael W. Deem and Ramdas Pophale) SiO2 
 PCOD9064592
Probable space group: P -1
;
_chemical_formula_sum "Si O2"
_cell_formula_units_Z 16
_cell_length_a 11.684805
_cell_length_b 9.204024
_cell_length_c 12.586195
_cell_angle_alpha 129.879086
_cell_angle_beta 131.186681
_cell_angle_gamma 53.777469
_cell_volume 747.639846
_symmetry_space_group_name_H-M "P -1"
_symmetry_group_IT_number 2
_symmetry_cell_setting 'triclinic'
loop_
_space_group_symop_operation_xyz
x,y,z
-x,-y,-z
loop_
_atom_site_type_symbol
_atom_site_label
_atom_site_fract_x
_atom_site_fract_y
_atom_site_fract_z
Si Si1 0.344810 0.931733 0.403676
Si Si2 0.436598 0.771935 0.614290
Si Si3 0.356554 0.640081 0.850665
Si Si4 0.296274 0.638112 0.055552
Si Si5 0.672584 0.000187 0.146697
Si Si6 0.254392 0.463971 0.376494
Si Si7 0.060268 0.412711 0.882005
Si Si8 0.826817 0.636549 0.487526
O O1 0.388540 0.805171 0.477950
O O2 0.302104 0.805974 0.223058
O O3 0.500000 0.000000 0.500000
O O4 0.207303 0.130862 0.442701
O O5 0.355122 0.955655 0.724326
O O6 0.367483 0.600335 0.535017
O O7 0.628465 0.706184 0.704282
O O8 0.547021 0.549032 0.918666
O O9 0.294073 0.819113 0.813972
O O10 0.291315 0.456425 0.693676
O O11 0.307195 0.703484 0.971183
O O12 0.145711 0.558814 0.945578
O O13 0.812298 0.799642 0.125518
O O14 0.500000 0.000000 0.000000
O O15 0.207857 0.380681 0.417415
O O16 0.095651 0.587643 0.279465
O O17 0.000000 0.500000 0.000000
O O18 0.000000 0.500000 0.500000
#
# Coordination Sequence:
#
# PCOD9064592 Si02
#       8
#     2   2   2   2   2   2   2   2
#     4  12  25  44  75 103 137 190 239 283 350 419
#     4  11  25  44  74 102 139 183 245 284 345 425
#     4  11  24  46  73 103 140 182 239 289 349 418
#     4  11  25  46  72 105 140 185 236 292 347 424
#     4  12  26  43  74 105 138 187 235 288 354 423
#     4  11  24  46  70 101 140 186 228 299 350 411
#     4  12  27  45  70 104 147 182 232 295 359 416
#     4  12  26  45  70 106 145 183 231 294 355 414
#
# _framework density 21.400679
#
# number of rings (size 3 to 8) (size 9 to 14) (size 15 to 20)
#    0.000    0.500    5.000    2.250    7.000    3.500 
#    0.000    1.875    0.000    0.000    0.000    0.000 
#    0.000    0.000    0.000    0.000    0.000    0.000 
#
# Total GULP energy -89509.422322 kJ/mol
# GULP energy per Si atom -5594.338895 kJ/mol
# Density = 2.135197 g / cm^3
# Si number density = 21.400679 Si / 1000 Ang^3
#
#
#
# Elastic Constant Matrix: (Units=GPa)
#
#
# Indices 1 2 3 4 5 6 
#
# 1 106.8263 47.8151 26.4120 1.7992 -3.0631 -23.5119
# 2 47.8151 128.6711 36.0398 1.0681 -12.2645 -23.8029
# 3 26.4120 36.0398 87.8083 0.6014 -19.6258 -12.3974
# 4 1.7992 1.0681 0.6014 31.9174 -5.9259 -1.4307
# 5 -3.0631 -12.2645 -19.6258 -5.9259 34.3740 -0.6131
# 6 -23.5119 -23.8029 -12.3974 -1.4307 -0.6131 42.5498
#
#
#
# Elastic Compliance Matrix: (Units=1/GPa)
#
#
# Indices 1 2 3 4 5 6 
#
# 1 0.012259 -0.003316 -0.001996 -0.000583 -0.001254 0.004300
# 2 -0.003316 0.010499 -0.002328 0.000452 0.002260 0.003410
# 3 -0.001996 -0.002328 0.014986 0.001458 0.007837 0.002123
# 4 -0.000583 0.000452 0.001458 0.032614 0.006592 0.001547
# 5 -0.001254 0.002260 0.007837 0.006592 0.035461 0.003587
# 6 0.004300 0.003410 0.002123 0.001547 0.003587 0.028508
#
#
# Mechanical properties :
#
#
# Convention : Reuss Voigt Hill
#
# Bulk Modulus (GPa) = 44.51580 60.42662 52.47121
# Shear Modulus (GPa) = 31.82826 35.97083 33.89955
#
# Velocity S-wave (km/s) = 3.86068 4.10424 3.98432
# Velocity P-wave (km/s) = 6.38117 7.12438 6.76300
#
# Compressibility (1/GPa) = 0.02246393
#
# Stress axis : x y z
#
# Youngs Moduli (GPa) = 81.57449 95.25166 66.73071
#
# Poissons Ratio (x) = 0.31583 0.13317
# Poissons Ratio (y) = 0.27048 0.15536
# Poissons Ratio (z) = 0.16279 0.22176
#
# Static dielectric constant tensor:
#      x y z
#    x 1.788420 0.001730 0.014730 
#    y 0.001730 1.806850 0.003180 
#    z 0.014730 0.003180 1.811990 
# 
# From -- ./inp_files/299073.got.cif
#   From: 2010.05.17/outbox.cif.g08.bks.cpg/sg2_150_cif.got.tgz:299073.got - 2010.06.03 11:33:40.
