data_PCOD9064184
_publ_section_title
;
Structure prediction by ZEFSAII (Michael W. Deem and Ramdas Pophale) SiO2 
 PCOD9064184
Probable space group: P -1
;
_chemical_formula_sum "Si O2"
_cell_formula_units_Z 16
_cell_length_a 23.378247
_cell_length_b 9.440739
_cell_length_c 8.133042
_cell_angle_alpha 82.624698
_cell_angle_beta 125.338976
_cell_angle_gamma 141.433023
_cell_volume 703.808395
_symmetry_space_group_name_H-M "P -1"
_symmetry_group_IT_number 2
_symmetry_cell_setting 'triclinic'
loop_
_space_group_symop_operation_xyz
x,y,z
-x,-y,-z
loop_
_atom_site_type_symbol
_atom_site_label
_atom_site_fract_x
_atom_site_fract_y
_atom_site_fract_z
Si Si1 0.306122 0.161189 0.064547
Si Si2 0.295532 0.722669 0.333205
Si Si3 0.965503 0.842002 0.224158
Si Si4 0.018027 0.803025 0.673474
Si Si5 0.750230 0.653527 0.567046
Si Si6 0.856451 0.310508 0.707105
Si Si7 0.463779 0.658035 0.445967
Si Si8 0.668642 0.776201 0.257160
O O1 0.404539 0.476897 0.211085
O O2 0.410326 0.221618 0.292103
O O3 0.265329 0.052445 0.827700
O O4 0.155938 0.947978 0.921209
O O5 0.287251 0.579133 0.470311
O O6 0.222562 0.733682 0.283574
O O7 0.456080 0.052996 0.502323
O O8 0.192916 0.484769 0.051288
O O9 0.004649 0.818411 0.454693
O O10 0.970358 0.018893 0.251462
O O11 0.078496 0.020757 0.233574
O O12 0.892068 0.483726 0.591658
O O13 0.666268 0.555898 0.606900
O O14 0.685993 0.638051 0.321928
O O15 0.750338 0.998463 0.509026
O O16 0.000000 0.500000 0.000000
O O17 0.500000 0.500000 0.000000
#
# Coordination Sequence:
#
# PCOD9064184 Si02
#       8
#     2   2   2   2   2   2   2   2
#     4  11  24  45  72 100 148 182 240 294 373 424
#     4  12  26  46  71 106 144 190 248 295 363 437
#     4  11  25  45  74 103 143 188 242 304 367 423
#     4  11  25  45  72 106 140 189 242 302 361 430
#     4  12  24  46  72 105 142 196 233 299 364 433
#     4  12  28  45  75 110 148 189 251 302 359 438
#     4  11  26  44  73 106 140 192 239 297 362 446
#     4  12  26  47  72 105 148 193 239 301 372 432
#
# _framework density 22.733460999999998
#
# number of rings (size 3 to 8) (size 9 to 14) (size 15 to 20)
#    0.000    0.500    3.750    3.750    8.750    0.500 
#    0.000    3.750    0.000    0.000    0.000    0.000 
#    0.000    0.000    0.000    0.000    0.000    0.000 
#
# Total GULP energy -89354.206454 kJ/mol
# GULP energy per Si atom -5584.637903 kJ/mol
# Density = 2.268172 g / cm^3
# Si number density = 22.733461 Si / 1000 Ang^3
#
#
#
# Elastic Constant Matrix: (Units=GPa)
#
#
# Indices 1 2 3 4 5 6 
#
# 1 90.3374 23.9440 29.9979 -3.4407 4.3822 -6.2943
# 2 23.9440 106.1492 23.5964 7.5425 -18.4774 7.3738
# 3 29.9979 23.5964 89.0196 -2.8730 -5.4001 -5.0757
# 4 -3.4407 7.5425 -2.8730 31.9073 -7.2616 5.9048
# 5 4.3822 -18.4774 -5.4001 -7.2616 27.1330 1.7298
# 6 -6.2943 7.3738 -5.0757 5.9048 1.7298 29.0691
#
#
#
# Elastic Compliance Matrix: (Units=1/GPa)
#
#
# Indices 1 2 3 4 5 6 
#
# 1 0.013788 -0.003468 -0.003863 0.000041 -0.005571 0.003514
# 2 -0.003468 0.012534 -0.001903 -0.000633 0.008845 -0.004661
# 3 -0.003863 -0.001903 0.013313 0.001464 0.002271 0.001538
# 4 0.000041 -0.000633 0.001464 0.035195 0.009739 -0.007304
# 5 -0.005571 0.008845 0.002271 0.009739 0.047337 -0.007848
# 6 0.003514 -0.004661 0.001538 -0.007304 -0.007848 0.038563
#
#
# Mechanical properties :
#
#
# Convention : Reuss Voigt Hill
#
# Bulk Modulus (GPa) = 47.24641 48.95364 48.10002
# Shear Modulus (GPa) = 26.84484 31.48641 29.16562
#
# Velocity S-wave (km/s) = 3.44008 3.72563 3.58570
# Velocity P-wave (km/s) = 6.05035 6.33147 6.19251
#
# Compressibility (1/GPa) = 0.02116563
#
# Stress axis : x y z
#
# Youngs Moduli (GPa) = 72.52502 79.77987 75.11656
#
# Poissons Ratio (x) = 0.27668 0.29020
# Poissons Ratio (y) = 0.25152 0.14298
# Poissons Ratio (z) = 0.28019 0.15186
#
# Static dielectric constant tensor:
#      x y z
#    x 1.887170 0.042060 0.014860 
#    y 0.042060 1.885520 0.030440 
#    z 0.014860 0.030440 1.956740 
# 
# From -- ./inp_files/352209.got.cif
#   From: 2010.05.17/outbox.cif.g08.bks.cpg/sg2_177_cif.got.tgz:352209.got - 2010.06.03 11:33:40.
