data_PCOD9064000
_publ_section_title
;
Structure prediction by ZEFSAII (Michael W. Deem and Ramdas Pophale) SiO2 
 PCOD9064000
Probable space group: P -1
;
_chemical_formula_sum "Si O2"
_cell_formula_units_Z 14
_cell_length_a 8.853678
_cell_length_b 9.942164
_cell_length_c 12.569117
_cell_angle_alpha 108.495764
_cell_angle_beta 32.614334
_cell_angle_gamma 114.352306
_cell_volume 542.247524
_symmetry_space_group_name_H-M "P -1"
_symmetry_group_IT_number 2
_symmetry_cell_setting 'triclinic'
loop_
_space_group_symop_operation_xyz
x,y,z
-x,-y,-z
loop_
_atom_site_type_symbol
_atom_site_label
_atom_site_fract_x
_atom_site_fract_y
_atom_site_fract_z
Si Si1 0.705398 0.130717 0.254932
Si Si2 0.186880 0.889163 0.586534
Si Si3 0.640440 0.416093 0.310012
Si Si4 0.154572 0.650962 0.386951
Si Si5 0.798333 0.059930 0.953928
Si Si6 0.654758 0.523872 0.090245
Si Si7 0.348162 0.749673 0.086281
O O1 0.847343 0.193058 0.299734
O O2 0.522347 0.239509 0.350920
O O3 0.508095 0.973466 0.375428
O O4 0.870443 0.103836 0.044184
O O5 0.068290 0.776547 0.535221
O O6 0.035431 0.016203 0.730188
O O7 0.500000 0.500000 0.500000
O O8 0.592660 0.474830 0.237104
O O9 0.992867 0.438790 0.120170
O O10 0.497358 0.650571 0.191042
O O11 0.105487 0.675646 0.298851
O O12 0.000000 0.500000 0.500000
O O13 0.738721 0.196768 0.962214
O O14 0.537568 0.905580 0.064145
O O15 0.521623 0.384279 0.056424
#
# Coordination Sequence:
#
# PCOD9064000 Si02
#       7
#     2   2   2   2   2   2   2
#     4  11  24  45  69 102 138 183 236 300 353 421
#     4  11  26  43  71 105 138 185 240 293 355 421
#     4  11  26  45  75 102 141 188 239 299 355 418
#     4  12  27  46  73 108 148 192 238 292 357 434
#     4  11  24  47  72 100 143 184 236 293 358 423
#     4  11  26  46  69 106 143 183 241 295 354 418
#     4  11  25  46  70 102 141 191 231 290 360 430
#
# _framework density 25.818466999999998
#
# number of rings (size 3 to 8) (size 9 to 14) (size 15 to 20)
#    0.000    0.857    2.857    2.571    8.000    2.857 
#    0.000    0.000    0.000    0.000    0.000    0.000 
#    0.000    0.000    0.000    0.000    0.000    0.000 
#
# Total GULP energy -78256.896857 kJ/mol
# GULP energy per Si atom -5589.778347 kJ/mol
# Density = 2.575970 g / cm^3
# Si number density = 25.818467 Si / 1000 Ang^3
#
#
#
# Elastic Constant Matrix: (Units=GPa)
#
#
# Indices 1 2 3 4 5 6 
#
# 1 73.5848 16.6753 44.6592 -6.3657 27.6896 -10.8650
# 2 16.6753 93.4110 39.1811 -0.3785 18.0528 -13.5766
# 3 44.6592 39.1811 160.1137 7.4730 41.3321 7.2964
# 4 -6.3657 -0.3785 7.4730 54.8909 -2.0354 7.9330
# 5 27.6896 18.0528 41.3321 -2.0354 54.9721 5.5153
# 6 -10.8650 -13.5766 7.2964 7.9330 5.5153 34.7033
#
#
#
# Elastic Compliance Matrix: (Units=1/GPa)
#
#
# Indices 1 2 3 4 5 6 
#
# 1 0.020470 0.001007 -0.004292 0.001403 -0.008235 0.008693
# 2 0.001007 0.013422 -0.002982 -0.000499 -0.003378 0.006844
# 3 -0.004292 -0.002982 0.009320 -0.001401 -0.003558 -0.003584
# 4 0.001403 -0.000499 -0.001401 0.019223 0.001635 -0.004116
# 5 -0.008235 -0.003378 -0.003558 0.001635 0.026968 -0.007811
# 6 0.008693 0.006844 -0.003584 -0.004116 -0.007811 0.037150
#
#
# Mechanical properties :
#
#
# Convention : Reuss Voigt Hill
#
# Bulk Modulus (GPa) = 32.59731 58.68230 45.63980
# Shear Modulus (GPa) = 33.48671 44.01954 38.75313
#
# Velocity S-wave (km/s) = 3.60530 4.13360 3.87846
# Velocity P-wave (km/s) = 5.47576 6.74984 6.14590
#
# Compressibility (1/GPa) = 0.03067738
#
# Stress axis : x y z
#
# Youngs Moduli (GPa) = 48.85217 74.50509 107.30087
#
# Poissons Ratio (x) = -0.07499 0.46051
# Poissons Ratio (y) = -0.04917 0.31995
# Poissons Ratio (z) = 0.20966 0.22216
#
# Static dielectric constant tensor:
#      x y z
#    x 2.109860 0.048220 -0.117150 
#    y 0.048220 2.007620 -0.040530 
#    z -0.117150 -0.040530 2.062630 
# 
# From -- ./inp_files/369526.got.cif
#   From: 2010.05.17/outbox.cif.g08.bks.cpg/sg2_185_cif.got.tgz:369526.got - 2010.06.03 11:33:40.
