data_PCOD9064758
_publ_section_title
;
Structure prediction by ZEFSAII (Michael W. Deem and Ramdas Pophale) SiO2 
 PCOD9064758
Probable space group: P -1
;
_chemical_formula_sum "Si O2"
_cell_formula_units_Z 16
_cell_length_a 11.563026
_cell_length_b 11.763110
_cell_length_c 9.280206
_cell_angle_alpha 95.905636
_cell_angle_beta 62.983097
_cell_angle_gamma 48.258094
_cell_volume 665.030252
_symmetry_space_group_name_H-M "P -1"
_symmetry_group_IT_number 2
_symmetry_cell_setting 'triclinic'
loop_
_space_group_symop_operation_xyz
x,y,z
-x,-y,-z
loop_
_atom_site_type_symbol
_atom_site_label
_atom_site_fract_x
_atom_site_fract_y
_atom_site_fract_z
Si Si1 0.931667 0.626369 0.688420
Si Si2 0.331198 0.843371 0.803940
Si Si3 0.835021 0.531343 0.175098
Si Si4 0.131040 0.097427 0.402564
Si Si5 0.439169 0.273839 0.044001
Si Si6 0.860125 0.243219 0.084951
Si Si7 0.244752 0.649124 0.162904
Si Si8 0.592970 0.055185 0.503993
O O1 0.911809 0.769824 0.666136
O O2 0.000000 0.500000 0.500000
O O3 0.114885 0.485051 0.687544
O O4 0.697281 0.746862 0.894058
O O5 0.329897 0.709071 0.750646
O O6 0.357347 0.905962 0.660193
O O7 0.491620 0.757205 0.832272
O O8 0.079896 0.047900 0.015099
O O9 0.847930 0.387140 0.128516
O O10 0.600821 0.738530 0.284908
O O11 0.000000 0.500000 0.000000
O O12 0.899832 0.209290 0.600062
O O13 0.331996 0.884578 0.193126
O O14 0.218152 0.087529 0.504328
O O15 0.267996 0.494644 0.129409
O O16 0.857455 0.230728 0.910901
O O17 0.500000 0.500000 0.000000
O O18 0.500000 0.000000 0.500000
#
# Coordination Sequence:
#
# PCOD9064758 Si02
#       8
#     2   2   2   2   2   2   2   2
#     4  12  24  45  74 109 150 190 243 306 369 434
#     4  11  24  46  73 100 146 191 235 301 364 434
#     4  12  26  44  74 107 144 192 246 303 359 439
#     4  12  26  45  71 107 144 190 247 299 364 444
#     4  12  25  46  73 107 145 191 244 298 371 439
#     4  11  24  47  70 101 144 190 241 298 368 433
#     4  12  25  47  72 102 145 193 242 304 365 431
#     4  12  25  44  72 106 143 189 242 297 371 440
#
# _framework density 24.059054
#
# number of rings (size 3 to 8) (size 9 to 14) (size 15 to 20)
#    0.000    0.250    3.750    6.375    0.000    1.000 
#    0.000    2.500    0.000    0.000    0.000    0.000 
#    0.000    0.000    0.000    0.000    0.000    0.000 
#
# Total GULP energy -89519.347043 kJ/mol
# GULP energy per Si atom -5594.959190 kJ/mol
# Density = 2.400429 g / cm^3
# Si number density = 24.059054 Si / 1000 Ang^3
#
#
#
# Elastic Constant Matrix: (Units=GPa)
#
#
# Indices 1 2 3 4 5 6 
#
# 1 76.5715 18.5916 19.4358 -14.9571 -13.9722 1.8816
# 2 18.5916 124.6405 23.0579 -11.7235 -2.0108 -3.7756
# 3 19.4358 23.0579 111.0784 -3.3820 -14.6173 5.2541
# 4 -14.9571 -11.7235 -3.3820 52.7887 -1.6642 -0.9815
# 5 -13.9722 -2.0108 -14.6173 -1.6642 34.6584 -4.4066
# 6 1.8816 -3.7756 5.2541 -0.9815 -4.4066 53.8329
#
#
#
# Elastic Compliance Matrix: (Units=1/GPa)
#
#
# Indices 1 2 3 4 5 6 
#
# 1 0.015705 -0.001570 -0.001533 0.004187 0.005800 0.000042
# 2 -0.001570 0.008699 -0.001611 0.001378 -0.000641 0.000795
# 3 -0.001533 -0.001611 0.010093 -0.000051 0.003446 -0.000763
# 4 0.004187 0.001378 -0.000051 0.020531 0.002803 0.000559
# 5 0.005800 -0.000641 0.003446 0.002803 0.033018 0.002170
# 6 0.000042 0.000795 -0.000763 0.000559 0.002170 0.018893
#
#
# Mechanical properties :
#
#
# Convention : Reuss Voigt Hill
#
# Bulk Modulus (GPa) = 39.89105 48.27344 44.08224
# Shear Modulus (GPa) = 40.08849 45.00300 42.54575
#
# Velocity S-wave (km/s) = 4.08641 4.32965 4.20978
# Velocity P-wave (km/s) = 6.23550 6.71584 6.48012
#
# Compressibility (1/GPa) = 0.02506828
#
# Stress axis : x y z
#
# Youngs Moduli (GPa) = 63.67295 114.95981 99.07541
#
# Poissons Ratio (x) = 0.18053 0.15191
# Poissons Ratio (y) = 0.09999 0.15960
# Poissons Ratio (z) = 0.09763 0.18518
#
# Static dielectric constant tensor:
#      x y z
#    x 1.770620 -0.029530 0.042480 
#    y -0.029530 1.871150 0.052600 
#    z 0.042480 0.052600 1.968300 
# 
# From -- ./inp_files/262498.got.cif
#   From: 2010.05.17/outbox.cif.g08.bks.cpg/sg2_132_cif.got.tgz:262498.got - 2010.06.03 11:33:40.
