data_PCOD9064203
_publ_section_title
;
Structure prediction by ZEFSAII (Michael W. Deem and Ramdas Pophale) SiO2 
 PCOD9064203
Probable space group: P -1
;
_chemical_formula_sum "Si O2"
_cell_formula_units_Z 16
_cell_length_a 9.190399
_cell_length_b 15.231234
_cell_length_c 9.634160
_cell_angle_alpha 106.752994
_cell_angle_beta 44.959306
_cell_angle_gamma 79.139043
_cell_volume 743.364446
_symmetry_space_group_name_H-M "P -1"
_symmetry_group_IT_number 2
_symmetry_cell_setting 'triclinic'
loop_
_space_group_symop_operation_xyz
x,y,z
-x,-y,-z
loop_
_atom_site_type_symbol
_atom_site_label
_atom_site_fract_x
_atom_site_fract_y
_atom_site_fract_z
Si Si1 0.661404 0.525083 0.811198
Si Si2 0.850509 0.034908 0.475167
Si Si3 0.075416 0.237854 0.990103
Si Si4 0.483370 0.592990 0.653737
Si Si5 0.194888 0.314630 0.456176
Si Si6 0.357595 0.260789 0.021179
Si Si7 0.716511 0.858676 0.472592
Si Si8 0.141121 0.034195 0.019014
O O1 0.577131 0.536157 0.714758
O O2 0.593390 0.645028 0.956108
O O3 0.951634 0.427499 0.605728
O O4 0.500000 0.500000 0.000000
O O5 0.010891 0.050151 0.261537
O O6 0.819051 0.935282 0.416241
O O7 0.580719 0.149171 0.743821
O O8 0.000000 0.000000 0.500000
O O9 0.118393 0.308597 0.102364
O O10 0.098157 0.144580 0.032366
O O11 0.810457 0.304888 0.118915
O O12 0.281439 0.183561 0.702755
O O13 0.500000 0.500000 0.500000
O O14 0.640974 0.648635 0.559078
O O15 0.326898 0.239444 0.193543
O O16 0.135231 0.248154 0.572975
O O17 0.439149 0.937577 0.763468
O O18 0.000000 0.000000 0.000000
#
# Coordination Sequence:
#
# PCOD9064203 Si02
#       8
#     2   2   2   2   2   2   2   2
#     4  11  25  46  71 101 140 184 233 295 353 417
#     4  12  28  43  71 104 144 189 240 287 345 427
#     4  12  24  43  72 103 143 186 232 292 351 422
#     4  11  24  45  72 104 136 182 238 289 353 419
#     4  11  25  45  73 101 143 185 231 297 352 415
#     4  11  25  45  69 104 140 183 238 288 355 418
#     4  12  26  46  68 106 145 185 240 286 350 419
#     4  12  24  45  68  99 144 186 232 287 351 407
#
# _framework density 21.523762000000001
#
# number of rings (size 3 to 8) (size 9 to 14) (size 15 to 20)
#    0.000    0.500    2.500    6.375    7.000    3.000 
#    0.000    2.500    0.000    0.000    0.000    0.000 
#    0.000    0.000    0.000    0.000    0.000    0.000 
#
# Total GULP energy -89411.352261 kJ/mol
# GULP energy per Si atom -5588.209516 kJ/mol
# Density = 2.147477 g / cm^3
# Si number density = 21.523762 Si / 1000 Ang^3
#
#
#
# Elastic Constant Matrix: (Units=GPa)
#
#
# Indices 1 2 3 4 5 6 
#
# 1 137.1010 37.7793 36.9570 5.0759 15.4006 -5.7253
# 2 37.7793 124.2065 55.8593 -19.8228 21.6257 -20.3139
# 3 36.9570 55.8593 87.8796 -13.2468 16.0549 -3.5164
# 4 5.0759 -19.8228 -13.2468 38.7125 -4.4176 0.0126
# 5 15.4006 21.6257 16.0549 -4.4176 41.5008 5.9885
# 6 -5.7253 -20.3139 -3.5164 0.0126 5.9885 30.9031
#
#
#
# Elastic Compliance Matrix: (Units=1/GPa)
#
#
# Indices 1 2 3 4 5 6 
#
# 1 0.008822 -0.001436 -0.002899 -0.003094 -0.001837 0.000718
# 2 -0.001436 0.014833 -0.006695 0.004862 -0.005501 0.009787
# 3 -0.002899 -0.006695 0.017436 0.002748 -0.001504 -0.002664
# 4 -0.003094 0.004862 0.002748 0.029700 0.000300 0.002865
# 5 -0.001837 -0.005501 -0.001504 0.000300 0.029684 -0.009880
# 6 0.000718 0.009787 -0.002664 0.002865 -0.009880 0.040536
#
#
# Mechanical properties :
#
#
# Convention : Reuss Voigt Hill
#
# Bulk Modulus (GPa) = 52.54657 67.81982 60.18319
# Shear Modulus (GPa) = 29.51323 36.79605 33.15464
#
# Velocity S-wave (km/s) = 3.70698 4.13916 3.92902
# Velocity P-wave (km/s) = 6.54130 7.37707 6.97172
#
# Compressibility (1/GPa) = 0.01903074
#
# Stress axis : x y z
#
# Youngs Moduli (GPa) = 113.35309 67.41617 57.35100
#
# Poissons Ratio (x) = 0.09681 0.16628
# Poissons Ratio (y) = 0.16278 0.38397
# Poissons Ratio (z) = 0.32865 0.45136
#
# Static dielectric constant tensor:
#      x y z
#    x 1.780650 -0.123320 -0.005130 
#    y -0.123320 1.755060 0.148220 
#    z -0.005130 0.148220 1.886490 
# 
# From -- ./inp_files/208150.got.cif
#   From: 2010.05.17/outbox.cif.g08.bks.cpg/sg2_105_cif.got.tgz:208150.got - 2010.06.03 11:33:40.
