data_PCOD9064029
_publ_section_title
;
Structure prediction by ZEFSAII (Michael W. Deem and Ramdas Pophale) SiO2 
 PCOD9064029
Probable space group: P -1
;
_chemical_formula_sum "Si O2"
_cell_formula_units_Z 14
_cell_length_a 20.775031
_cell_length_b 13.772734
_cell_length_c 9.350634
_cell_angle_alpha 139.143423
_cell_angle_beta 31.044644
_cell_angle_gamma 153.260479
_cell_volume 620.358337
_symmetry_space_group_name_H-M "P -1"
_symmetry_group_IT_number 2
_symmetry_cell_setting 'triclinic'
loop_
_space_group_symop_operation_xyz
x,y,z
-x,-y,-z
loop_
_atom_site_type_symbol
_atom_site_label
_atom_site_fract_x
_atom_site_fract_y
_atom_site_fract_z
Si Si1 0.612344 0.912771 0.010421
Si Si2 0.280302 0.481827 0.728092
Si Si3 0.998847 0.821207 0.822548
Si Si4 0.743926 0.554195 0.754575
Si Si5 0.785186 0.808100 0.718756
Si Si6 0.202205 0.629762 0.802142
Si Si7 0.382831 0.055060 0.286924
O O1 0.717554 0.913519 0.932134
O O2 0.680597 0.964627 0.775750
O O3 0.422600 0.662780 0.086650
O O4 0.644366 0.111574 0.209226
O O5 0.289472 0.359050 0.455582
O O6 0.206004 0.561382 0.874441
O O7 0.477046 0.698027 0.652607
O O8 0.140631 0.326915 0.947624
O O9 0.910850 0.689836 0.695182
O O10 0.194656 0.911225 0.572610
O O11 0.000000 0.000000 0.000000
O O12 0.732277 0.702589 0.859584
O O13 0.755668 0.460306 0.490801
O O14 0.000000 0.000000 0.500000
O O15 0.000000 0.500000 0.000000
O O16 0.500000 0.000000 0.000000
#
# Coordination Sequence:
#
# PCOD9064029 Si02
#       7
#     2   2   2   2   2   2   2
#     4  12  23  44  72 101 143 185 239 299 356 429
#     4  11  25  47  72 102 144 187 237 297 359 426
#     4  12  27  47  77 107 142 193 245 295 361 430
#     4  11  25  44  69 105 137 186 242 295 360 423
#     4  11  24  46  69 101 142 186 240 298 354 424
#     4  11  24  45  69  99 138 187 235 292 356 428
#     4  12  26  46  72 109 147 185 239 300 362 426
#
# _framework density 22.567601
#
# number of rings (size 3 to 8) (size 9 to 14) (size 15 to 20)
#    0.000    0.571    2.857    6.000    2.000    2.857 
#   10.286    0.000    0.000    0.000    0.000    0.000 
#    0.000    0.000    0.000    0.000    0.000    0.000 
#
# Total GULP energy -78188.415998 kJ/mol
# GULP energy per Si atom -5584.886857 kJ/mol
# Density = 2.251624 g / cm^3
# Si number density = 22.567601 Si / 1000 Ang^3
#
#
#
# Elastic Constant Matrix: (Units=GPa)
#
#
# Indices 1 2 3 4 5 6 
#
# 1 90.0353 47.8325 24.5189 -7.4747 4.7568 -20.2288
# 2 47.8325 128.5530 33.3054 -11.1393 0.7640 -5.8747
# 3 24.5189 33.3054 46.1292 -15.3190 0.6232 -1.4889
# 4 -7.4747 -11.1393 -15.3190 37.4433 -0.8452 -1.2337
# 5 4.7568 0.7640 0.6232 -0.8452 36.4152 -1.4099
# 6 -20.2288 -5.8747 -1.4889 -1.2337 -1.4099 46.6862
#
#
#
# Elastic Compliance Matrix: (Units=1/GPa)
#
#
# Indices 1 2 3 4 5 6 
#
# 1 0.016421 -0.004438 -0.005311 -0.000045 -0.001717 0.006334
# 2 -0.004438 0.010814 -0.005449 0.000088 0.000420 -0.000721
# 3 -0.005311 -0.005449 0.031788 0.010278 0.000437 -0.001688
# 4 -0.000045 0.000088 0.010278 0.030981 0.000592 0.001156
# 5 -0.001717 0.000420 0.000437 0.000592 0.027690 0.000175
# 6 0.006334 -0.000721 -0.001688 0.001156 0.000175 0.024055
#
#
# Mechanical properties :
#
#
# Convention : Reuss Voigt Hill
#
# Bulk Modulus (GPa) = 34.93174 52.89236 43.91205
# Shear Modulus (GPa) = 27.51979 34.71299 31.11639
#
# Velocity S-wave (km/s) = 3.49583 3.92622 3.71726
# Velocity P-wave (km/s) = 5.63975 6.63640 6.15827
#
# Compressibility (1/GPa) = 0.02862726
#
# Stress axis : x y z
#
# Youngs Moduli (GPa) = 60.89714 92.47219 31.45831
#
# Poissons Ratio (x) = 0.41042 0.16708
# Poissons Ratio (y) = 0.27028 0.17140
# Poissons Ratio (z) = 0.32344 0.50384
#
# Static dielectric constant tensor:
#      x y z
#    x 2.226160 0.389610 -0.432130 
#    y 0.389610 2.258190 -0.386530 
#    z -0.432130 -0.386530 2.162690 
# 
# From -- ./inp_files/308491.got.cif
#   From: 2010.05.17/outbox.cif.g08.bks.cpg/sg2_155_cif.got.tgz:308491.got - 2010.06.03 11:33:40.
