data_PCOD9064091
_publ_section_title
;
Structure prediction by ZEFSAII (Michael W. Deem and Ramdas Pophale) SiO2 
 PCOD9064091
Probable space group: P -1
;
_chemical_formula_sum "Si O2"
_cell_formula_units_Z 12
_cell_length_a 9.303784
_cell_length_b 15.569463
_cell_length_c 12.075554
_cell_angle_alpha 153.141114
_cell_angle_beta 41.632198
_cell_angle_gamma 131.166706
_cell_volume 524.807477
_symmetry_space_group_name_H-M "P -1"
_symmetry_group_IT_number 2
_symmetry_cell_setting 'triclinic'
loop_
_space_group_symop_operation_xyz
x,y,z
-x,-y,-z
loop_
_atom_site_type_symbol
_atom_site_label
_atom_site_fract_x
_atom_site_fract_y
_atom_site_fract_z
Si Si1 0.216125 0.614697 0.497432
Si Si2 0.001392 0.625528 0.255745
Si Si3 0.425769 0.926448 0.636044
Si Si4 0.784625 0.969825 0.662046
Si Si5 0.505643 0.282795 0.870906
Si Si6 0.293219 0.620495 0.715733
O O1 0.214163 0.818835 0.674033
O O2 0.297283 0.635098 0.599002
O O3 0.000000 0.500000 0.500000
O O4 0.384707 0.484229 0.180817
O O5 0.912009 0.495242 0.255028
O O6 0.241708 0.694182 0.220886
O O7 0.845600 0.808129 0.530480
O O8 0.000000 0.500000 0.000000
O O9 0.517446 0.819256 0.350790
O O10 0.598692 0.909544 0.615642
O O11 0.403380 0.144799 0.863271
O O12 0.718057 0.169656 0.985150
O O13 0.000000 0.000000 0.500000
O O14 0.500000 0.500000 0.500000
#
# Coordination Sequence:
#
# PCOD9064091 Si02
#       6
#     2   2   2   2   2   2
#     4  12  28  44  67  99 143 182 223 284 356 405
#     4  12  23  43  73 101 138 180 235 286 334 415
#     4  11  24  45  70  97 136 175 235 283 331 417
#     4  12  24  42  74 103 132 182 233 278 344 407
#     4  11  25  44  71 100 133 184 234 281 341 408
#     4  12  27  45  68 106 145 178 226 289 352 402
#
# _framework density 22.865527
#
# number of rings (size 3 to 8) (size 9 to 14) (size 15 to 20)
#    0.000    0.333    3.333    5.500    2.333    4.667 
#    0.000    0.000    0.000    0.000    0.000    0.000 
#    0.000    0.000    0.000    0.000    0.000    0.000 
#
# Total GULP energy -67261.369362 kJ/mol
# GULP energy per Si atom -5605.114113 kJ/mol
# Density = 2.281348 g / cm^3
# Si number density = 22.865527 Si / 1000 Ang^3
#
#
#
# Elastic Constant Matrix: (Units=GPa)
#
#
# Indices 1 2 3 4 5 6 
#
# 1 70.7284 6.3636 27.8322 19.7951 6.2744 18.2198
# 2 6.3636 151.7805 0.9579 29.0005 -9.5761 6.5589
# 3 27.8322 0.9579 116.6382 27.6361 3.9898 6.2194
# 4 19.7951 29.0005 27.6361 28.8536 -3.3834 -0.0218
# 5 6.2744 -9.5761 3.9898 -3.3834 29.3220 1.4090
# 6 18.2198 6.5589 6.2194 -0.0218 1.4090 34.2765
#
#
#
# Elastic Compliance Matrix: (Units=1/GPa)
#
#
# Indices 1 2 3 4 5 6 
#
# 1 0.023060 0.002920 -0.000081 -0.019344 -0.005597 -0.012584
# 2 0.002920 0.009305 0.002697 -0.013868 0.000632 -0.003857
# 3 -0.000081 0.002697 0.012269 -0.014682 -0.002340 -0.002612
# 4 -0.019344 -0.013868 -0.014682 0.077087 0.009770 0.015247
# 5 -0.005597 0.000632 -0.002340 0.009770 0.036869 0.001769
# 6 -0.012584 -0.003857 -0.002612 0.015247 0.001769 0.037013
#
#
# Mechanical properties :
#
#
# Convention : Reuss Voigt Hill
#
# Bulk Modulus (GPa) = 17.95139 45.49497 31.72318
# Shear Modulus (GPa) = 24.61859 38.75663 31.68761
#
# Velocity S-wave (km/s) = 3.28482 4.12148 3.72671
# Velocity P-wave (km/s) = 4.71748 6.52601 5.69401
#
# Compressibility (1/GPa) = 0.05570599
#
# Stress axis : x y z
#
# Youngs Moduli (GPa) = 43.36594 107.46635 81.50747
#
# Poissons Ratio (x) = -0.31384 0.00658
# Poissons Ratio (y) = -0.12664 -0.21979
# Poissons Ratio (z) = 0.00350 -0.28979
#
# Static dielectric constant tensor:
#      x y z
#    x 1.810950 0.007010 -0.014040 
#    y 0.007010 1.895190 0.004500 
#    z -0.014040 0.004500 1.816170 
# 
# From -- ./inp_files/183702.got.cif
#   From: 2010.05.17/outbox.cif.g08.bks.cpg/sg2_92_cif.got.tgz:183702.got - 2010.06.03 11:33:40.
