data_PCOD9064062
_publ_section_title
;
Structure prediction by ZEFSAII (Michael W. Deem and Ramdas Pophale) SiO2 
 PCOD9064062
Probable space group: P -1
;
_chemical_formula_sum "Si O2"
_cell_formula_units_Z 16
_cell_length_a 25.447796
_cell_length_b 8.492286
_cell_length_c 9.006436
_cell_angle_alpha 76.241348
_cell_angle_beta 41.368680
_cell_angle_gamma 46.463506
_cell_volume 757.959497
_symmetry_space_group_name_H-M "P -1"
_symmetry_group_IT_number 2
_symmetry_cell_setting 'triclinic'
loop_
_space_group_symop_operation_xyz
x,y,z
-x,-y,-z
loop_
_atom_site_type_symbol
_atom_site_label
_atom_site_fract_x
_atom_site_fract_y
_atom_site_fract_z
Si Si1 0.680431 0.514775 0.708638
Si Si2 0.538182 0.476534 0.203040
Si Si3 0.698566 0.018112 0.204100
Si Si4 0.777253 0.605597 0.722048
Si Si5 0.502943 0.794220 0.765304
Si Si6 0.710965 0.622236 0.178215
Si Si7 0.963620 0.670647 0.895008
Si Si8 0.122041 0.872263 0.855443
O O1 0.755484 0.525612 0.643999
O O2 0.581381 0.748427 0.744891
O O3 0.776442 0.252301 0.462397
O O4 0.600569 0.526705 0.979286
O O5 0.651779 0.207223 0.123179
O O6 0.413971 0.747730 0.494077
O O7 0.486316 0.416472 0.221327
O O8 0.692320 0.840709 0.209039
O O9 0.842228 0.808419 0.019311
O O10 0.907143 0.499776 0.439420
O O11 0.769629 0.515347 0.911725
O O12 0.647290 0.922904 0.949748
O O13 0.575468 0.746149 0.474995
O O14 0.813556 0.371218 0.126469
O O15 0.000000 0.500000 0.000000
O O16 0.914723 0.918167 0.013070
O O17 0.000000 0.000000 0.000000
#
# Coordination Sequence:
#
# PCOD9064062 Si02
#       8
#     2   2   2   2   2   2   2   2
#     4  11  25  41  74  99 140 182 236 292 344 420
#     4  11  25  43  74 105 141 180 239 297 349 409
#     4  11  25  45  69 105 143 185 230 293 358 399
#     4  12  26  44  70 107 136 193 229 286 349 423
#     4  11  24  45  70 105 139 181 237 292 354 404
#     4  11  25  45  75  98 145 179 238 290 341 424
#     4  12  29  46  73 102 148 184 233 287 354 423
#     4  11  24  48  68 102 136 186 229 285 352 409
#
# _framework density 21.109309
#
# number of rings (size 3 to 8) (size 9 to 14) (size 15 to 20)
#    0.000    0.750    2.500    4.125   10.500    2.000 
#    0.000    0.000    0.000    0.000    0.000    0.000 
#    0.000    0.000    0.000    0.000    0.000    0.000 
#
# Total GULP energy -89365.616078 kJ/mol
# GULP energy per Si atom -5585.351005 kJ/mol
# Density = 2.106126 g / cm^3
# Si number density = 21.109309 Si / 1000 Ang^3
#
#
#
# Elastic Constant Matrix: (Units=GPa)
#
#
# Indices 1 2 3 4 5 6 
#
# 1 107.2876 23.4710 31.1017 9.2674 -16.3978 -15.2472
# 2 23.4710 80.3585 29.7347 5.3361 -0.2533 -18.4515
# 3 31.1017 29.7347 137.5397 1.2020 -13.2338 -19.6562
# 4 9.2674 5.3361 1.2020 31.7216 0.3729 0.0108
# 5 -16.3978 -0.2533 -13.2338 0.3729 34.1398 6.2146
# 6 -15.2472 -18.4515 -19.6562 0.0108 6.2146 28.1613
#
#
#
# Elastic Compliance Matrix: (Units=1/GPa)
#
#
# Indices 1 2 3 4 5 6 
#
# 1 0.011506 -0.001970 -0.001281 -0.003035 0.004492 0.003055
# 2 -0.001970 0.015874 -0.002044 -0.001983 -0.003166 0.008607
# 3 -0.001281 -0.002044 0.008713 0.000362 0.002090 0.003588
# 4 -0.003035 -0.001983 0.000362 0.032746 -0.001248 -0.002427
# 5 0.004492 -0.003166 0.002090 -0.001248 0.033254 -0.005521
# 6 0.003055 0.008607 0.003588 -0.002427 -0.005521 0.046527
#
#
# Mechanical properties :
#
#
# Convention : Reuss Voigt Hill
#
# Bulk Modulus (GPa) = 39.20834 54.86672 47.03753
# Shear Modulus (GPa) = 29.81360 34.86311 32.33836
#
# Velocity S-wave (km/s) = 3.76219 4.06834 3.91826
# Velocity P-wave (km/s) = 6.12262 6.93662 6.54229
#
# Compressibility (1/GPa) = 0.02550477
#
# Stress axis : x y z
#
# Youngs Moduli (GPa) = 86.91248 62.99724 114.77547
#
# Poissons Ratio (x) = 0.12408 0.14699
# Poissons Ratio (y) = 0.17118 0.23455
# Poissons Ratio (z) = 0.11130 0.12874
#
# Static dielectric constant tensor:
#      x y z
#    x 1.789540 -0.066700 0.010370 
#    y -0.066700 1.773480 -0.000830 
#    z 0.010370 -0.000830 1.766920 
# 
# From -- ./inp_files/356425.got.cif
#   From: 2010.05.17/outbox.cif.g08.bks.cpg/sg2_179_cif.got.tgz:356425.got - 2010.06.03 11:33:40.
