data_PCOD9064415
_publ_section_title
;
Structure prediction by ZEFSAII (Michael W. Deem and Ramdas Pophale) SiO2 
 PCOD9064415
Probable space group: P -1
;
_chemical_formula_sum "Si O2"
_cell_formula_units_Z 12
_cell_length_a 8.260878
_cell_length_b 8.837214
_cell_length_c 12.138466
_cell_angle_alpha 82.998772
_cell_angle_beta 129.029906
_cell_angle_gamma 125.281808
_cell_volume 519.464753
_symmetry_space_group_name_H-M "P -1"
_symmetry_group_IT_number 2
_symmetry_cell_setting 'triclinic'
loop_
_space_group_symop_operation_xyz
x,y,z
-x,-y,-z
loop_
_atom_site_type_symbol
_atom_site_label
_atom_site_fract_x
_atom_site_fract_y
_atom_site_fract_z
Si Si1 0.224770 0.188101 0.745822
Si Si2 0.276617 0.859213 0.508279
Si Si3 0.945730 0.036120 0.094444
Si Si4 0.556044 0.506683 0.687760
Si Si5 0.591729 0.067798 0.195119
Si Si6 0.133700 0.488717 0.362660
O O1 0.154567 0.143121 0.849122
O O2 0.456273 0.407516 0.774007
O O3 0.940420 0.107765 0.577296
O O4 0.313112 0.060081 0.764312
O O5 0.413484 0.893732 0.681022
O O6 0.124021 0.639431 0.413135
O O7 0.500000 0.000000 0.500000
O O8 0.695997 0.035722 0.975068
O O9 0.215693 0.251991 0.233777
O O10 0.000000 0.000000 0.000000
O O11 0.294424 0.445018 0.513890
O O12 0.689551 0.431838 0.681038
O O13 0.829929 0.286586 0.228214
#
# Coordination Sequence:
#
# PCOD9064415 Si02
#       6
#     2   2   2   2   2   2
#     4  12  26  46  74 106 140 190 241 286 349 430
#     4  12  25  43  73 110 140 183 245 290 344 421
#     4  12  28  49  70 104 151 184 230 299 362 414
#     4  11  25  46  75 104 142 188 238 288 357 420
#     4  12  25  47  73 103 146 188 230 295 359 412
#     4  11  24  45  75 105 144 184 235 298 350 412
#
# _framework density 23.100701000000001
#
# number of rings (size 3 to 8) (size 9 to 14) (size 15 to 20)
#    0.000    0.333    3.333    5.500    4.667    1.333 
#    3.000    0.000    0.000    0.000    0.000    0.000 
#    0.000    0.000    0.000    0.000    0.000    0.000 
#
# Total GULP energy -67201.694601 kJ/mol
# GULP energy per Si atom -5600.141217 kJ/mol
# Density = 2.304812 g / cm^3
# Si number density = 23.100701 Si / 1000 Ang^3
#
#
#
# Elastic Constant Matrix: (Units=GPa)
#
#
# Indices 1 2 3 4 5 6 
#
# 1 77.2562 30.0034 25.6307 -8.0894 -7.8784 24.8837
# 2 30.0034 80.2807 13.5630 -9.5710 -3.8283 33.6210
# 3 25.6307 13.5630 80.9142 -4.4696 -2.2974 14.9910
# 4 -8.0894 -9.5710 -4.4696 30.9655 7.1709 -9.6330
# 5 -7.8784 -3.8283 -2.2974 7.1709 47.0426 -9.8442
# 6 24.8837 33.6210 14.9910 -9.6330 -9.8442 46.6493
#
#
#
# Elastic Compliance Matrix: (Units=1/GPa)
#
#
# Indices 1 2 3 4 5 6 
#
# 1 0.017486 -0.003596 -0.003917 0.001049 0.001238 -0.004999
# 2 -0.003596 0.018787 0.000202 0.001661 -0.001769 -0.011717
# 3 -0.003917 0.000202 0.014055 0.000385 -0.000558 -0.002611
# 4 0.001049 0.001661 0.000385 0.035518 -0.004125 0.004583
# 5 0.001238 -0.001769 -0.000558 -0.004125 0.022922 0.004779
# 6 -0.004999 -0.011717 -0.002611 0.004583 0.004779 0.035342
#
#
# Mechanical properties :
#
#
# Convention : Reuss Voigt Hill
#
# Bulk Modulus (GPa) = 28.00551 41.87172 34.93861
# Shear Modulus (GPa) = 29.30258 36.21509 32.75883
#
# Velocity S-wave (km/s) = 3.56542 3.96372 3.76984
# Velocity P-wave (km/s) = 5.39437 6.25405 5.84005
#
# Compressibility (1/GPa) = 0.03570726
#
# Stress axis : x y z
#
# Youngs Moduli (GPa) = 57.18781 53.22921 71.14994
#
# Poissons Ratio (x) = 0.19139 0.27869
# Poissons Ratio (y) = 0.20562 -0.01439
# Poissons Ratio (z) = 0.22400 -0.01077
#
# Static dielectric constant tensor:
#      x y z
#    x 1.903410 0.009790 -0.026520 
#    y 0.009790 1.876410 -0.016070 
#    z -0.026520 -0.016070 1.815810 
# 
# From -- ./inp_files/152454.got.cif
#   From: 2010.05.17/outbox.cif.g08.bks.cpg/sg2_77_cif.got.tgz:152454.got - 2010.06.03 11:33:40.
