data_PCOD9064919
_publ_section_title
;
Structure prediction by ZEFSAII (Michael W. Deem and Ramdas Pophale) SiO2 
 PCOD9064919
Probable space group: P -1
;
_chemical_formula_sum "Si O2"
_cell_formula_units_Z 11
_cell_length_a 9.386088
_cell_length_b 9.068091
_cell_length_c 9.270964
_cell_angle_alpha 66.915947
_cell_angle_beta 133.208067
_cell_angle_gamma 83.278233
_cell_volume 432.911332
_symmetry_space_group_name_H-M "P -1"
_symmetry_group_IT_number 2
_symmetry_cell_setting 'triclinic'
loop_
_space_group_symop_operation_xyz
x,y,z
-x,-y,-z
loop_
_atom_site_type_symbol
_atom_site_label
_atom_site_fract_x
_atom_site_fract_y
_atom_site_fract_z
Si Si1 0.500000 0.000000 0.000000
Si Si2 0.873817 0.251184 0.797463
Si Si3 0.718482 0.720512 0.980308
Si Si4 0.808808 0.082432 0.552276
Si Si5 0.872016 0.292083 0.260608
Si Si6 0.491233 0.654665 0.236351
O O1 0.513419 0.833966 0.176999
O O2 0.358646 0.166995 0.965018
O O3 0.894804 0.089455 0.767091
O O4 0.727897 0.447261 0.518965
O O5 0.701172 0.303269 0.791724
O O6 0.116405 0.230583 0.006319
O O7 0.475417 0.795331 0.697638
O O8 0.856731 0.488065 0.187963
O O9 0.902349 0.180355 0.472822
O O10 0.919961 0.872282 0.636319
O O11 0.626734 0.346517 0.995840
#
# Coordination Sequence:
#
# PCOD9064919 Si02
#       6
#     1   2   2   2   2   2
#     4  12  26  44  78 106 146 194 254 286 378 438
#     4  11  27  48  77 107 158 189 247 308 379 427
#     4  12  26  45  75 112 143 199 243 309 364 450
#     4  11  24  47  72 111 147 201 242 312 361 447
#     4  11  24  46  76 103 158 189 253 303 369 434
#     4  11  25  51  74 112 148 201 243 310 366 451
#
# _framework density 25.40936
#
# number of rings (size 3 to 8) (size 9 to 14) (size 15 to 20)
#    0.000    0.727    3.636    2.727    5.091    5.091 
#    0.000    1.818    0.000    0.000    0.000    0.000 
#    0.000    0.000    0.000    0.000    0.000    0.000 
#
# Total GULP energy -61480.677872 kJ/mol
# GULP energy per Si atom -5589.152534 kJ/mol
# Density = 2.535153 g / cm^3
# Si number density = 25.409360 Si / 1000 Ang^3
#
#
#
# Elastic Constant Matrix: (Units=GPa)
#
#
# Indices 1 2 3 4 5 6 
#
# 1 97.9418 45.5264 12.2274 7.8055 -11.7714 -0.1099
# 2 45.5264 177.5130 10.5207 -31.8098 -8.1117 0.1455
# 3 12.2274 10.5207 54.3657 6.2141 -1.9089 -6.9490
# 4 7.8055 -31.8098 6.2141 45.7017 -2.8995 -14.5433
# 5 -11.7714 -8.1117 -1.9089 -2.8995 40.6269 2.4712
# 6 -0.1099 0.1455 -6.9490 -14.5433 2.4712 36.3702
#
#
#
# Elastic Compliance Matrix: (Units=1/GPa)
#
#
# Indices 1 2 3 4 5 6 
#
# 1 0.013110 -0.004130 -0.001764 -0.005560 0.002657 -0.002685
# 2 -0.004130 0.008116 -0.001123 0.007397 0.000738 0.002648
# 3 -0.001764 -0.001123 0.019625 -0.002248 -0.000147 0.002860
# 4 -0.005560 0.007397 -0.002248 0.032298 0.001314 0.012350
# 5 0.002657 0.000738 -0.000147 0.001314 0.025694 -0.001243
# 6 -0.002685 0.002648 0.002860 0.012350 -0.001243 0.033045
#
#
# Mechanical properties :
#
#
# Convention : Reuss Voigt Hill
#
# Bulk Modulus (GPa) = 37.28860 51.81882 44.55371
# Shear Modulus (GPa) = 32.28700 41.97617 37.13158
#
# Velocity S-wave (km/s) = 3.56852 4.06889 3.82689
# Velocity P-wave (km/s) = 5.62904 6.52015 6.09091
#
# Compressibility (1/GPa) = 0.02681785
#
# Stress axis : x y z
#
# Youngs Moduli (GPa) = 76.27948 123.20958 50.95492
#
# Poissons Ratio (x) = 0.50890 0.08986
# Poissons Ratio (y) = 0.31506 0.05721
# Poissons Ratio (z) = 0.13452 0.13833
#
# Static dielectric constant tensor:
#      x y z
#    x 1.960660 0.029170 -0.003950 
#    y 0.029170 1.970740 -0.015350 
#    z -0.003950 -0.015350 2.096400 
# 
# From -- ./inp_files/150546.got.cif
#   From: 2010.05.17/outbox.cif.g08.bks.cpg/sg2_76_cif.got.tgz:150546.got - 2010.06.03 11:33:40.
