data_PCOD9064399
_publ_section_title
;
Structure prediction by ZEFSAII (Michael W. Deem and Ramdas Pophale) SiO2 
 PCOD9064399
Probable space group: P -1
;
_chemical_formula_sum "Si O2"
_cell_formula_units_Z 14
_cell_length_a 5.177461
_cell_length_b 11.120151
_cell_length_c 11.389373
_cell_angle_alpha 119.462188
_cell_angle_beta 102.304561
_cell_angle_gamma 73.292586
_cell_volume 544.807026
_symmetry_space_group_name_H-M "P -1"
_symmetry_group_IT_number 2
_symmetry_cell_setting 'triclinic'
loop_
_space_group_symop_operation_xyz
x,y,z
-x,-y,-z
loop_
_atom_site_type_symbol
_atom_site_label
_atom_site_fract_x
_atom_site_fract_y
_atom_site_fract_z
Si Si1 0.685673 0.452197 0.878952
Si Si2 0.162207 0.008434 0.637261
Si Si3 0.520459 0.800356 0.708042
Si Si4 0.655118 0.287374 0.121389
Si Si5 0.937464 0.529517 0.643594
Si Si6 0.209097 0.310670 0.740357
Si Si7 0.124869 0.964683 0.125315
O O1 0.623497 0.598300 0.870103
O O2 0.003819 0.380246 0.862086
O O3 0.494456 0.352751 0.761925
O O4 0.500000 0.500000 0.000000
O O5 0.286306 0.144168 0.688694
O O6 0.023007 0.041210 0.767583
O O7 0.000000 0.000000 0.500000
O O8 0.344817 0.853434 0.603537
O O9 0.366231 0.818169 0.825323
O O10 0.649002 0.635807 0.649872
O O11 0.714189 0.910899 0.781903
O O12 0.878157 0.374753 0.225459
O O13 0.716798 0.196424 0.965149
O O14 0.010847 0.381025 0.648416
O O15 0.000000 0.500000 0.500000
O O16 0.000000 0.000000 0.000000
#
# Coordination Sequence:
#
# PCOD9064399 Si02
#       7
#     2   2   2   2   2   2   2
#     4  11  24  46  74 107 154 197 251 320 400 463
#     4  12  31  49  72 112 158 204 258 323 397 471
#     4  12  25  47  79 107 149 204 260 321 389 466
#     4  11  24  45  74 114 143 195 262 323 378 465
#     4  11  26  48  75 109 151 203 259 318 386 472
#     4  11  27  47  72 112 150 202 256 321 390 467
#     4  12  25  46  78 111 153 197 264 319 391 466
#
# _framework density 25.69717
#
# number of rings (size 3 to 8) (size 9 to 14) (size 15 to 20)
#    0.000    0.571    4.286    1.714    8.000    4.571 
#    0.000    0.000    0.000    0.000    0.000    0.000 
#    0.000    0.000    0.000    0.000    0.000    0.000 
#
# Total GULP energy -78094.884277 kJ/mol
# GULP energy per Si atom -5578.206020 kJ/mol
# Density = 2.563868 g / cm^3
# Si number density = 25.697170 Si / 1000 Ang^3
#
#
#
# Elastic Constant Matrix: (Units=GPa)
#
#
# Indices 1 2 3 4 5 6 
#
# 1 54.5846 7.9771 4.6480 -10.7946 -2.7916 0.3216
# 2 7.9771 149.5487 20.3270 -36.0480 2.2518 8.2208
# 3 4.6480 20.3270 87.3347 -28.3879 -7.0139 3.3725
# 4 -10.7946 -36.0480 -28.3879 40.6601 -4.2123 2.7473
# 5 -2.7916 2.2518 -7.0139 -4.2123 30.5679 -0.5005
# 6 0.3216 8.2208 3.3725 2.7473 -0.5005 44.9999
#
#
#
# Elastic Compliance Matrix: (Units=1/GPa)
#
#
# Indices 1 2 3 4 5 6 
#
# 1 0.019668 0.000425 0.001373 0.006918 0.003022 -0.000710
# 2 0.000425 0.008757 0.000933 0.008758 0.000779 -0.002199
# 3 0.001373 0.000933 0.015908 0.013007 0.005465 -0.002106
# 4 0.006918 0.008758 0.013007 0.044566 0.009027 -0.005245
# 5 0.003022 0.000779 0.005465 0.009027 0.035419 -0.000731
# 6 -0.000710 -0.002199 -0.002106 -0.005245 -0.000731 0.023099
#
#
# Mechanical properties :
#
#
# Convention : Reuss Voigt Hill
#
# Bulk Modulus (GPa) = 20.08154 39.70802 29.89478
# Shear Modulus (GPa) = 31.53537 40.47996 36.00767
#
# Velocity S-wave (km/s) = 3.50693 3.97327 3.74736
# Velocity P-wave (km/s) = 4.92237 6.04442 5.51202
#
# Compressibility (1/GPa) = 0.04979698
#
# Stress axis : x y z
#
# Youngs Moduli (GPa) = 50.84405 114.18889 62.86154
#
# Poissons Ratio (x) = -0.04858 -0.08632
# Poissons Ratio (y) = -0.02163 -0.05867
# Poissons Ratio (z) = -0.06982 -0.10657
#
# Static dielectric constant tensor:
#      x y z
#    x 2.221430 -0.077410 -0.044800 
#    y -0.077410 2.018710 0.021730 
#    z -0.044800 0.021730 2.055470 
# 
# From -- ./inp_files/365297.got.cif
#   From: 2010.05.17/outbox.cif.g08.bks.cpg/sg2_183_cif.got.tgz:365297.got - 2010.06.03 11:33:40.
