data_PCOD9064946
_publ_section_title
;
Structure prediction by ZEFSAII (Michael W. Deem and Ramdas Pophale) SiO2 
 PCOD9064946
Probable space group: P -1
;
_chemical_formula_sum "Si O2"
_cell_formula_units_Z 14
_cell_length_a 8.846159
_cell_length_b 20.616616
_cell_length_c 14.272113
_cell_angle_alpha 155.535559
_cell_angle_beta 31.751391
_cell_angle_gamma 134.537527
_cell_volume 534.831347
_symmetry_space_group_name_H-M "P -1"
_symmetry_group_IT_number 2
_symmetry_cell_setting 'triclinic'
loop_
_space_group_symop_operation_xyz
x,y,z
-x,-y,-z
loop_
_atom_site_type_symbol
_atom_site_label
_atom_site_fract_x
_atom_site_fract_y
_atom_site_fract_z
Si Si1 0.255558 0.349159 0.217017
Si Si2 0.213415 0.779916 0.381633
Si Si3 0.427914 0.199239 0.292755
Si Si4 0.336325 0.745108 0.961557
Si Si5 0.325183 0.095858 0.508520
Si Si6 0.500000 0.000000 0.500000
Si Si7 0.709226 0.254686 0.405223
Si Si8 0.500000 0.500000 0.000000
O O1 0.435381 0.384505 0.258003
O O2 0.000000 0.500000 0.500000
O O3 0.061058 0.236358 0.204624
O O4 0.492769 0.249947 0.882311
O O5 0.158725 0.975009 0.674018
O O6 0.293299 0.682095 0.307411
O O7 0.939828 0.736606 0.421640
O O8 0.525234 0.248915 0.205564
O O9 0.582148 0.268381 0.384996
O O10 0.500000 0.000000 0.000000
O O11 0.988185 0.750921 0.145806
O O12 0.300514 0.920433 0.260718
O O13 0.593463 0.119236 0.337030
O O14 0.365464 0.091284 0.591615
O O15 0.540446 0.427259 0.775912
#
# Coordination Sequence:
#
# PCOD9064946 Si02
#       8
#     2   2   2   2   2   1   2   1
#     4  12  27  50  75 108 154 210 265 317 387 482
#     4  12  27  48  76 113 158 202 261 327 393 468
#     4  12  27  47  78 118 157 199 261 331 399 468
#     4  11  25  46  74 113 159 193 259 326 397 464
#     4  11  24  46  76 115 152 202 256 331 396 457
#     4  12  24  42  82 114 150 206 258 326 396 456
#     4  12  27  48  77 113 153 208 263 318 396 472
#     4  12  26  52  74 108 158 208 260 316 386 480
#
# _framework density 26.176476999999998
#
# number of rings (size 3 to 8) (size 9 to 14) (size 15 to 20)
#    0.000    0.286    5.714    2.571    4.000    1.143 
#    2.571    0.714    0.000    0.000    0.000    0.000 
#    0.000    0.000    0.000    0.000    0.000    0.000 
#
# Total GULP energy -77956.807412 kJ/mol
# GULP energy per Si atom -5568.343387 kJ/mol
# Density = 2.611690 g / cm^3
# Si number density = 26.176477 Si / 1000 Ang^3
#
#
#
# Elastic Constant Matrix: (Units=GPa)
#
#
# Indices 1 2 3 4 5 6 
#
# 1 208.9159 39.3740 53.2537 -18.7535 -10.9220 -35.2763
# 2 39.3740 98.8101 28.7967 -26.4897 -32.4458 -23.1065
# 3 53.2537 28.7967 87.4588 -16.2252 -14.7455 -7.0208
# 4 -18.7535 -26.4897 -16.2252 40.8397 6.9003 -8.3730
# 5 -10.9220 -32.4458 -14.7455 6.9003 57.4389 1.6020
# 6 -35.2763 -23.1065 -7.0208 -8.3730 1.6020 45.2537
#
#
#
# Elastic Compliance Matrix: (Units=1/GPa)
#
#
# Indices 1 2 3 4 5 6 
#
# 1 0.006761 0.000494 -0.003186 0.003280 0.000196 0.005628
# 2 0.000494 0.019894 -0.001862 0.013436 0.008893 0.012425
# 3 -0.003186 -0.001862 0.014744 0.002735 0.001819 -0.000705
# 4 0.003280 0.013436 0.002735 0.038605 0.003808 0.016850
# 5 0.000196 0.008893 0.001819 0.003808 0.022343 0.004889
# 6 0.005628 0.012425 -0.000705 0.016850 0.004889 0.035664
#
#
# Mechanical properties :
#
#
# Convention : Reuss Voigt Hill
#
# Bulk Modulus (GPa) = 30.96755 70.89265 50.93010
# Shear Modulus (GPa) = 31.66912 46.95715 39.31314
#
# Velocity S-wave (km/s) = 3.48204 4.24000 3.87957
# Velocity P-wave (km/s) = 5.29359 7.14923 6.29022
#
# Compressibility (1/GPa) = 0.03229186
#
# Stress axis : x y z
#
# Youngs Moduli (GPa) = 147.91644 50.26697 67.82241
#
# Poissons Ratio (x) = -0.02485 0.21608
# Poissons Ratio (y) = -0.07312 0.12627
# Poissons Ratio (z) = 0.47125 0.09359
#
# Static dielectric constant tensor:
#      x y z
#    x 1.140210 -0.376790 -0.771570 
#    y -0.376790 1.819720 -0.399370 
#    z -0.771570 -0.399370 1.445880 
# 
# From -- ./inp_files/310657.got.cif
#   From: 2010.05.17/outbox.cif.g08.bks.cpg/sg2_156_cif.got.tgz:310657.got - 2010.06.03 11:33:40.
