data_PCOD9064916
_publ_section_title
;
Structure prediction by ZEFSAII (Michael W. Deem and Ramdas Pophale) SiO2 
 PCOD9064916
Probable space group: P -1
;
_chemical_formula_sum "Si O2"
_cell_formula_units_Z 16
_cell_length_a 11.035543
_cell_length_b 11.446918
_cell_length_c 6.363986
_cell_angle_alpha 79.168543
_cell_angle_beta 121.471726
_cell_angle_gamma 102.307879
_cell_volume 667.061821
_symmetry_space_group_name_H-M "P -1"
_symmetry_group_IT_number 2
_symmetry_cell_setting 'triclinic'
loop_
_space_group_symop_operation_xyz
x,y,z
-x,-y,-z
loop_
_atom_site_type_symbol
_atom_site_label
_atom_site_fract_x
_atom_site_fract_y
_atom_site_fract_z
Si Si1 0.239176 0.067390 0.263434
Si Si2 0.669876 0.524734 0.218369
Si Si3 0.854314 0.496433 0.008225
Si Si4 0.597942 0.282489 0.467247
Si Si5 0.321898 0.325492 0.440819
Si Si6 0.411468 0.922134 0.767123
Si Si7 0.211709 0.783326 0.973718
Si Si8 0.951442 0.016030 0.214702
O O1 0.247723 0.199056 0.326239
O O2 0.092188 0.987567 0.232453
O O3 0.362878 0.009320 0.514251
O O4 0.199011 0.058044 0.981719
O O5 0.805699 0.545032 0.174999
O O6 0.682992 0.398876 0.392867
O O7 0.675977 0.645256 0.321933
O O8 0.500000 0.500000 0.000000
O O9 0.811862 0.355654 0.048090
O O10 0.752763 0.566338 0.752337
O O11 0.000000 0.500000 0.000000
O O12 0.481120 0.331775 0.491330
O O13 0.526733 0.185344 0.265066
O O14 0.691818 0.210970 0.730737
O O15 0.282934 0.852724 0.812933
O O16 0.500000 0.000000 0.000000
O O17 0.073406 0.845458 0.876122
O O18 0.000000 0.000000 0.500000
#
# Coordination Sequence:
#
# PCOD9064916 Si02
#       8
#     2   2   2   2   2   2   2   2
#     4  11  26  46  69 111 150 202 265 322 400 480
#     4  12  25  48  77 111 153 214 261 318 403 479
#     4  12  27  48  76 115 151 200 266 327 392 476
#     4  12  25  45  76 111 155 204 264 325 396 478
#     4  12  27  46  75 111 157 203 259 327 395 479
#     4  12  27  43  75 116 152 204 264 333 402 475
#     4  12  24  47  74 108 154 200 261 328 402 463
#     4  11  24  46  75  99 150 207 262 322 404 477
#
# _framework density 23.985782
#
# number of rings (size 3 to 8) (size 9 to 14) (size 15 to 20)
#    0.000    0.250    6.250    2.625    3.500    2.500 
#    0.000    0.000    0.000    0.000    0.000    0.000 
#    0.000    0.000    0.000    0.000    0.000    0.000 
#
# Total GULP energy -89228.329261 kJ/mol
# GULP energy per Si atom -5576.770579 kJ/mol
# Density = 2.393119 g / cm^3
# Si number density = 23.985782 Si / 1000 Ang^3
#
#
#
# Elastic Constant Matrix: (Units=GPa)
#
#
# Indices 1 2 3 4 5 6 
#
# 1 133.9553 20.7383 35.0631 -3.7044 -16.6214 -21.0234
# 2 20.7383 123.5841 54.8747 14.7594 -3.8869 -25.1255
# 3 35.0631 54.8747 137.6015 4.4768 6.5974 -15.2630
# 4 -3.7044 14.7594 4.4768 50.1002 -19.9382 -5.0797
# 5 -16.6214 -3.8869 6.5974 -19.9382 35.4459 -1.4538
# 6 -21.0234 -25.1255 -15.2630 -5.0797 -1.4538 45.5308
#
#
#
# Elastic Compliance Matrix: (Units=1/GPa)
#
#
# Indices 1 2 3 4 5 6 
#
# 1 0.009948 0.000117 -0.002604 0.004539 0.007902 0.004544
# 2 0.000117 0.011016 -0.003894 -0.001999 0.001053 0.004638
# 3 -0.002604 -0.003894 0.009705 -0.001724 -0.004442 -0.000432
# 4 0.004539 -0.001999 -0.001724 0.028892 0.018656 0.004234
# 5 0.007902 0.001053 -0.004442 0.018656 0.043608 0.006215
# 6 0.004544 0.004638 -0.000432 0.004234 0.006215 0.027147
#
#
# Mechanical properties :
#
#
# Convention : Reuss Voigt Hill
#
# Bulk Modulus (GPa) = 55.84432 68.49923 62.17177
# Shear Modulus (GPa) = 33.54661 45.17970 39.36315
#
# Velocity S-wave (km/s) = 3.74385 4.34476 4.05545
# Velocity P-wave (km/s) = 6.48239 7.33413 6.92137
#
# Compressibility (1/GPa) = 0.01790693
#
# Stress axis : x y z
#
# Youngs Moduli (GPa) = 100.52502 90.77796 103.04014
#
# Poissons Ratio (x) = -0.01064 0.26833
# Poissons Ratio (y) = -0.01178 0.40123
# Poissons Ratio (z) = 0.26178 0.35348
#
# Static dielectric constant tensor:
#      x y z
#    x 2.014320 0.031280 -0.076350 
#    y 0.031280 1.878590 0.066020 
#    z -0.076350 0.066020 2.184480 
# 
# From -- ./inp_files/70168.got.cif
#   From: 2010.05.17/outbox.cif.g08.bks.cpg/sg2_36_cif.got.tgz:70168.got - 2010.06.03 11:33:40.
