data_PCOD9064249
_publ_section_title
;
Structure prediction by ZEFSAII (Michael W. Deem and Ramdas Pophale) SiO2 
 PCOD9064249
Probable space group: P -1
;
_chemical_formula_sum "Si O2"
_cell_formula_units_Z 14
_cell_length_a 28.842304
_cell_length_b 26.898942
_cell_length_c 9.018842
_cell_angle_alpha 149.590336
_cell_angle_beta 33.344331
_cell_angle_gamma 170.515462
_cell_volume 573.771530
_symmetry_space_group_name_H-M "P -1"
_symmetry_group_IT_number 2
_symmetry_cell_setting 'triclinic'
loop_
_space_group_symop_operation_xyz
x,y,z
-x,-y,-z
loop_
_atom_site_type_symbol
_atom_site_label
_atom_site_fract_x
_atom_site_fract_y
_atom_site_fract_z
Si Si1 0.514652 0.708252 0.635120
Si Si2 0.177629 0.610335 0.885872
Si Si3 0.327143 0.398993 0.645678
Si Si4 0.627836 0.290995 0.757405
Si Si5 0.021490 0.140325 0.270382
Si Si6 0.868082 0.657432 0.809692
Si Si7 0.970585 0.441083 0.595477
O O1 0.396823 0.512479 0.585890
O O2 0.332154 0.509117 0.459004
O O3 0.477811 0.775604 0.980325
O O4 0.805807 0.974672 0.503927
O O5 0.151749 0.471392 0.541928
O O6 0.063183 0.495819 0.062686
O O7 0.000000 0.500000 0.000000
O O8 0.500000 0.000000 0.000000
O O9 0.500000 0.500000 0.500000
O O10 0.382443 0.543920 0.997034
O O11 0.000000 0.000000 0.500000
O O12 0.885912 0.642517 0.897463
O O13 0.762943 0.333246 0.504999
O O14 0.331671 0.952243 0.585022
O O15 0.974054 0.107190 0.136540
O O16 0.000000 0.000000 0.000000
O O17 0.000000 0.500000 0.500000
#
# Coordination Sequence:
#
# PCOD9064249 Si02
#       7
#     2   2   2   2   2   2   2
#     4  11  25  43  67  98 136 174 230 284 347 414
#     4  12  25  46  69 105 145 182 235 288 343 422
#     4  11  24  45  72  98 133 183 235 283 347 425
#     4  11  25  46  66 100 137 188 233 276 340 427
#     4  12  26  46  70 104 141 177 232 300 360 408
#     4  11  26  45  73 103 141 190 229 288 355 411
#     4  12  25  45  70  99 142 181 234 286 342 404
#
# _framework density 24.399958999999999
#
# number of rings (size 3 to 8) (size 9 to 14) (size 15 to 20)
#    0.000    0.571    2.857    4.286    4.000    8.000 
#    0.000    0.000    0.000    0.000    0.000    0.000 
#    0.000    0.000    0.000    0.000    0.000    0.000 
#
# Total GULP energy -77978.613027 kJ/mol
# GULP energy per Si atom -5569.900930 kJ/mol
# Density = 2.434442 g / cm^3
# Si number density = 24.399959 Si / 1000 Ang^3
#
#
#
# Elastic Constant Matrix: (Units=GPa)
#
#
# Indices 1 2 3 4 5 6 
#
# 1 67.5263 38.6029 21.3394 -24.5493 -9.8384 -7.9578
# 2 38.6029 95.5219 23.4243 -30.6754 -17.8727 14.0396
# 3 21.3394 23.4243 172.7907 -39.6219 -21.0313 6.9571
# 4 -24.5493 -30.6754 -39.6219 43.6548 0.5289 -0.3482
# 5 -9.8384 -17.8727 -21.0313 0.5289 43.7304 -14.6164
# 6 -7.9578 14.0396 6.9571 -0.3482 -14.6164 57.7731
#
#
#
# Elastic Compliance Matrix: (Units=1/GPa)
#
#
# Indices 1 2 3 4 5 6 
#
# 1 0.022960 -0.006653 0.000329 0.008528 0.004482 0.005925
# 2 -0.006653 0.017427 0.001442 0.009722 0.004851 -0.004039
# 3 0.000329 0.001442 0.008021 0.008424 0.004381 -0.000112
# 4 0.008528 0.009722 0.008424 0.042067 0.009594 0.000479
# 5 0.004482 0.004851 0.004381 0.009594 0.030046 0.006570
# 6 0.005925 -0.004039 -0.000112 0.000479 0.006570 0.020785
#
#
# Mechanical properties :
#
#
# Convention : Reuss Voigt Hill
#
# Bulk Modulus (GPa) = 25.87795 55.84136 40.85965
# Shear Modulus (GPa) = 30.49664 45.86315 38.17990
#
# Velocity S-wave (km/s) = 3.53918 4.34019 3.95999
# Velocity P-wave (km/s) = 5.22779 6.93194 6.13928
#
# Compressibility (1/GPa) = 0.03864293
#
# Stress axis : x y z
#
# Youngs Moduli (GPa) = 43.55381 57.38087 124.67786
#
# Poissons Ratio (x) = 0.38176 -0.04100
# Poissons Ratio (y) = 0.28976 -0.17973
# Poissons Ratio (z) = -0.01432 -0.08272
#
# Static dielectric constant tensor:
#      x y z
#    x 2.333750 -0.016160 0.615100 
#    y -0.016160 2.058080 -0.017560 
#    z 0.615100 -0.017560 3.207500 
# 
# From -- ./inp_files/359075.got.cif
#   From: 2010.05.17/outbox.cif.g08.bks.cpg/sg2_180_cif.got.tgz:359075.got - 2010.06.03 11:33:40.
