data_PCOD9064631
_publ_section_title
;
Structure prediction by ZEFSAII (Michael W. Deem and Ramdas Pophale) SiO2 
 PCOD9064631
Probable space group: P -1
;
_chemical_formula_sum "Si O2"
_cell_formula_units_Z 16
_cell_length_a 15.608663
_cell_length_b 9.275739
_cell_length_c 25.804429
_cell_angle_alpha 47.658009
_cell_angle_beta 152.831966
_cell_angle_gamma 149.016792
_cell_volume 812.504870
_symmetry_space_group_name_H-M "P -1"
_symmetry_group_IT_number 2
_symmetry_cell_setting 'triclinic'
loop_
_space_group_symop_operation_xyz
x,y,z
-x,-y,-z
loop_
_atom_site_type_symbol
_atom_site_label
_atom_site_fract_x
_atom_site_fract_y
_atom_site_fract_z
Si Si1 0.190774 0.302684 0.257188
Si Si2 0.609662 0.287825 0.463198
Si Si3 0.301937 0.127252 0.121825
Si Si4 0.725372 0.264980 0.871690
Si Si5 0.350563 0.778948 0.617278
Si Si6 0.901006 0.359953 0.287111
Si Si7 0.676154 0.445570 0.622927
Si Si8 0.696118 0.623411 0.125721
O O1 0.426234 0.317158 0.381430
O O2 0.299269 0.552554 0.215901
O O3 0.160056 0.374383 0.279358
O O4 0.895619 0.967493 0.160435
O O5 0.575483 0.249065 0.392725
O O6 0.945076 0.576400 0.591399
O O7 0.500000 0.000000 0.500000
O O8 0.482783 0.207689 0.250943
O O9 0.505544 0.418197 0.123180
O O10 0.235415 0.878087 0.113885
O O11 0.000000 0.000000 0.000000
O O12 0.426177 0.978110 0.809558
O O13 0.000000 0.500000 0.000000
O O14 0.000000 0.500000 0.500000
O O15 0.465185 0.092952 0.603725
O O16 0.887024 0.583306 0.225820
O O17 0.100396 0.437610 0.329946
O O18 0.500000 0.500000 0.500000
O O19 0.500000 0.500000 0.000000
#
# Coordination Sequence:
#
# PCOD9064631 Si02
#       8
#     2   2   2   2   2   2   2   2
#     4  12  24  43  69 103 137 170 231 286 349 409
#     4  12  23  42  73  99 134 184 231 279 346 420
#     4  11  27  46  68 103 141 180 238 289 346 422
#     4  11  26  47  67  99 139 180 227 289 349 412
#     4  12  26  45  71 100 142 186 235 287 348 425
#     4  11  24  46  70  98 141 180 235 282 345 427
#     4  12  25  43  68 106 141 175 225 297 351 407
#     4  11  25  45  74  95 133 193 236 273 346 428
#
# _framework density 19.69219
#
# number of rings (size 3 to 8) (size 9 to 14) (size 15 to 20)
#    0.000    0.500    5.000    3.000    7.000    2.500 
#    0.000    1.875    0.000    0.000    0.000    0.000 
#    0.000    0.000    0.000    0.000    0.000    0.000 
#
# Total GULP energy -89489.620983 kJ/mol
# GULP energy per Si atom -5593.101311 kJ/mol
# Density = 1.964737 g / cm^3
# Si number density = 19.692190 Si / 1000 Ang^3
#
#
#
# Elastic Constant Matrix: (Units=GPa)
#
#
# Indices 1 2 3 4 5 6 
#
# 1 135.4496 44.1890 56.4351 6.5030 1.1096 1.9657
# 2 44.1890 121.7508 39.5579 14.0221 6.6951 -1.3364
# 3 56.4351 39.5579 138.0098 13.9030 -7.9297 5.0815
# 4 6.5030 14.0221 13.9030 41.0578 -6.6368 -6.4953
# 5 1.1096 6.6951 -7.9297 -6.6368 47.2993 -1.0218
# 6 1.9657 -1.3364 5.0815 -6.4953 -1.0218 27.7777
#
#
#
# Elastic Compliance Matrix: (Units=1/GPa)
#
#
# Indices 1 2 3 4 5 6 
#
# 1 0.009514 -0.002417 -0.003249 0.000336 -0.000381 -0.000131
# 2 -0.002417 0.010094 -0.001754 -0.002761 -0.002048 0.000257
# 3 -0.003249 -0.001754 0.009459 -0.002158 0.001564 -0.002032
# 4 0.000336 -0.002761 -0.002158 0.027719 0.004059 0.006869
# 5 -0.000381 -0.002048 0.001564 0.004059 0.022303 0.001412
# 6 -0.000131 0.000257 -0.002032 0.006869 0.001412 0.038052
#
#
# Mechanical properties :
#
#
# Convention : Reuss Voigt Hill
#
# Bulk Modulus (GPa) = 70.28299 75.06378 72.67338
# Shear Modulus (GPa) = 36.57068 40.22884 38.39976
#
# Velocity S-wave (km/s) = 4.31410 4.52473 4.42067
# Velocity P-wave (km/s) = 7.78354 8.09314 7.93985
#
# Compressibility (1/GPa) = 0.01422819
#
# Stress axis : x y z
#
# Youngs Moduli (GPa) = 105.11231 99.06953 105.71810
#
# Poissons Ratio (x) = 0.23941 0.34344
# Poissons Ratio (y) = 0.25402 0.18543
# Poissons Ratio (z) = 0.34147 0.17377
#
# Static dielectric constant tensor:
#      x y z
#    x 1.691830 0.042380 -0.038480 
#    y 0.042380 1.734360 -0.036240 
#    z -0.038480 -0.036240 1.738050 
# 
# From -- ./inp_files/223883.got.cif
#   From: 2010.05.17/outbox.cif.g08.bks.cpg/sg2_112_cif.got.tgz:223883.got - 2010.06.03 11:33:40.
