data_PCOD9064925
_publ_section_title
;
Structure prediction by ZEFSAII (Michael W. Deem and Ramdas Pophale) SiO2 
 PCOD9064925
Probable space group: P -1
;
_chemical_formula_sum "Si O2"
_cell_formula_units_Z 12
_cell_length_a 9.421817
_cell_length_b 12.865652
_cell_length_c 15.488161
_cell_angle_alpha 27.599971
_cell_angle_beta 36.861780
_cell_angle_gamma 45.906364
_cell_volume 521.198187
_symmetry_space_group_name_H-M "P -1"
_symmetry_group_IT_number 2
_symmetry_cell_setting 'triclinic'
loop_
_space_group_symop_operation_xyz
x,y,z
-x,-y,-z
loop_
_atom_site_type_symbol
_atom_site_label
_atom_site_fract_x
_atom_site_fract_y
_atom_site_fract_z
Si Si1 0.663882 0.927733 0.394905
Si Si2 0.858188 0.898759 0.754150
Si Si3 0.022371 0.188036 0.925079
Si Si4 0.058350 0.696382 0.472265
Si Si5 0.614423 0.707744 0.185669
Si Si6 0.687781 0.218619 0.473076
O O1 0.503576 0.805670 0.490796
O O2 0.873509 0.768096 0.437698
O O3 0.500000 0.000000 0.500000
O O4 0.797801 0.145363 0.128230
O O5 0.053510 0.762324 0.710646
O O6 0.991065 0.129510 0.554438
O O7 0.679866 0.996214 0.699587
O O8 0.743492 0.774090 0.983884
O O9 0.025632 0.436044 0.701772
O O10 0.250260 0.171624 0.889023
O O11 0.000000 0.000000 0.000000
O O12 0.337577 0.747705 0.281085
O O13 0.643467 0.442992 0.381602
#
# Coordination Sequence:
#
# PCOD9064925 Si02
#       6
#     2   2   2   2   2   2
#     4  12  27  50  71 110 151 188 240 303 362 432
#     4  11  24  46  76 106 138 194 241 292 360 434
#     4  12  28  46  75 109 148 189 242 305 362 425
#     4  12  26  47  73 104 146 190 239 295 365 426
#     4  12  25  46  76 105 145 190 243 299 357 431
#     4  11  25  46  75 105 146 187 244 294 359 435
#
# _framework density 23.023872000000001
#
# number of rings (size 3 to 8) (size 9 to 14) (size 15 to 20)
#    0.000    0.333    5.000    2.500    2.333    4.667 
#    0.000    0.000    0.000    0.000    0.000    0.000 
#    0.000    0.000    0.000    0.000    0.000    0.000 
#
# Total GULP energy -67218.302034 kJ/mol
# GULP energy per Si atom -5601.525170 kJ/mol
# Density = 2.297147 g / cm^3
# Si number density = 23.023872 Si / 1000 Ang^3
#
#
#
# Elastic Constant Matrix: (Units=GPa)
#
#
# Indices 1 2 3 4 5 6 
#
# 1 188.1851 51.3658 37.3559 3.8640 -6.8965 -7.7880
# 2 51.3658 103.9262 34.5700 9.8924 -14.1039 -8.9531
# 3 37.3559 34.5700 111.3021 14.1652 3.2642 1.3839
# 4 3.8640 9.8924 14.1652 40.3768 0.1919 1.4449
# 5 -6.8965 -14.1039 3.2642 0.1919 32.6997 -4.4653
# 6 -7.7880 -8.9531 1.3839 1.4449 -4.4653 35.5767
#
#
#
# Elastic Compliance Matrix: (Units=1/GPa)
#
#
# Indices 1 2 3 4 5 6 
#
# 1 0.006339 -0.002571 -0.001415 0.000488 0.000480 0.000836
# 2 -0.002571 0.013307 -0.003234 -0.002043 0.006045 0.003753
# 3 -0.001415 -0.003234 0.010935 -0.002829 -0.003016 -0.001813
# 4 0.000488 -0.002043 -0.002829 0.026270 -0.000851 -0.001471
# 5 0.000480 0.006045 -0.003016 -0.000851 0.034429 0.006099
# 6 0.000836 0.003753 -0.001813 -0.001471 0.006099 0.030132
#
#
# Mechanical properties :
#
#
# Convention : Reuss Voigt Hill
#
# Bulk Modulus (GPa) = 61.96035 72.22188 67.09111
# Shear Modulus (GPa) = 35.40258 40.40542 37.90400
#
# Velocity S-wave (km/s) = 3.92554 4.19374 4.06185
# Velocity P-wave (km/s) = 6.89320 7.40853 7.15551
#
# Compressibility (1/GPa) = 0.01613935
#
# Stress axis : x y z
#
# Youngs Moduli (GPa) = 157.75471 75.14852 91.44827
#
# Poissons Ratio (x) = 0.19324 0.12944
# Poissons Ratio (y) = 0.40565 0.29575
# Poissons Ratio (z) = 0.22329 0.24303
#
# Static dielectric constant tensor:
#      x y z
#    x 1.915980 -0.001510 0.024570 
#    y -0.001510 1.852690 0.015150 
#    z 0.024570 0.015150 1.866040 
# 
# From -- ./inp_files/302243.got.cif
#   From: 2010.05.17/outbox.cif.g08.bks.cpg/sg2_152_cif.got.tgz:302243.got - 2010.06.03 11:33:40.
