data_PCOD9064769
_publ_section_title
;
Structure prediction by ZEFSAII (Michael W. Deem and Ramdas Pophale) SiO2 
 PCOD9064769
Probable space group: P -1
;
_chemical_formula_sum "Si O2"
_cell_formula_units_Z 15
_cell_length_a 10.046121
_cell_length_b 9.700068
_cell_length_c 13.418045
_cell_angle_alpha 140.752164
_cell_angle_beta 56.587523
_cell_angle_gamma 120.794629
_cell_volume 681.425744
_symmetry_space_group_name_H-M "P -1"
_symmetry_group_IT_number 2
_symmetry_cell_setting 'triclinic'
loop_
_space_group_symop_operation_xyz
x,y,z
-x,-y,-z
loop_
_atom_site_type_symbol
_atom_site_label
_atom_site_fract_x
_atom_site_fract_y
_atom_site_fract_z
Si Si1 0.829853 0.349422 0.726425
Si Si2 0.887565 0.483390 0.438981
Si Si3 0.500000 0.500000 0.000000
Si Si4 0.261243 0.100554 0.205934
Si Si5 0.691248 0.896472 0.421937
Si Si6 0.377202 0.936637 0.668997
Si Si7 0.989412 0.270986 0.820733
Si Si8 0.525981 0.828708 0.033375
O O1 0.682950 0.480547 0.874815
O O2 0.989687 0.480415 0.683258
O O3 0.882451 0.260263 0.759803
O O4 0.763361 0.142239 0.567932
O O5 0.778453 0.677267 0.602340
O O6 0.772998 0.248882 0.349893
O O7 0.000000 0.500000 0.500000
O O8 0.548348 0.422055 0.052941
O O9 0.399481 0.984819 0.137851
O O10 0.330459 0.146376 0.091636
O O11 0.095596 0.927028 0.184559
O O12 0.531119 0.824246 0.512084
O O13 0.831474 0.756341 0.299361
O O14 0.652281 0.923419 0.337377
O O15 0.423336 0.103398 0.835002
O O16 0.000000 0.500000 0.000000
#
# Coordination Sequence:
#
# PCOD9064769 Si02
#       8
#     2   2   1   2   2   2   2   2
#     4  12  25  45  75  97 142 195 232 292 364 425
#     4  12  25  47  71 105 142 191 235 298 363 431
#     4  12  24  46  76 106 138 192 242 288 374 426
#     4  11  25  48  69 103 149 188 239 291 368 424
#     4  11  24  46  73 102 145 183 243 293 351 432
#     4  11  25  43  73 108 137 187 239 295 351 423
#     4  12  27  44  70 108 141 188 242 297 354 429
#     4  11  26  43  73 105 145 190 235 304 351 428
#
# _framework density 22.01267
#
# number of rings (size 3 to 8) (size 9 to 14) (size 15 to 20)
#    0.000    0.533    5.333    1.200    5.600    2.667 
#    0.000    2.000    0.000    0.000    0.000    0.000 
#    0.000    0.000    0.000    0.000    0.000    0.000 
#
# Total GULP energy -83711.351183 kJ/mol
# GULP energy per Si atom -5580.756746 kJ/mol
# Density = 2.196257 g / cm^3
# Si number density = 22.012670 Si / 1000 Ang^3
#
#
#
# Elastic Constant Matrix: (Units=GPa)
#
#
# Indices 1 2 3 4 5 6 
#
# 1 78.4713 1.6281 43.2078 -11.4074 -16.5612 -5.1760
# 2 1.6281 73.3161 35.9371 -27.5601 -2.6490 10.4228
# 3 43.2078 35.9371 115.4771 -22.2885 -24.9645 -0.8500
# 4 -11.4074 -27.5601 -22.2885 41.0888 2.2993 -2.2646
# 5 -16.5612 -2.6490 -24.9645 2.2993 54.1923 0.3942
# 6 -5.1760 10.4228 -0.8500 -2.2646 0.3942 46.8939
#
#
#
# Elastic Compliance Matrix: (Units=1/GPa)
#
#
# Indices 1 2 3 4 5 6 
#
# 1 0.017418 0.004303 -0.006555 0.004092 0.002333 0.001025
# 2 0.004303 0.021712 -0.006254 0.012208 -0.000995 -0.003866
# 3 -0.006555 -0.006254 0.014270 0.001545 0.004192 0.000965
# 4 0.004092 0.012208 0.001545 0.034406 0.001103 -0.000581
# 5 0.002333 -0.000995 0.004192 0.001103 0.020998 0.000431
# 6 0.001025 -0.003866 0.000965 -0.000581 0.000431 0.022283
#
#
# Mechanical properties :
#
#
# Convention : Reuss Voigt Hill
#
# Bulk Modulus (GPa) = 27.48088 47.64563 37.56326
# Shear Modulus (GPa) = 31.20506 40.86775 36.03641
#
# Velocity S-wave (km/s) = 3.76918 4.31345 4.05047
# Velocity P-wave (km/s) = 5.60834 6.81905 6.24312
#
# Compressibility (1/GPa) = 0.03638893
#
# Stress axis : x y z
#
# Youngs Moduli (GPa) = 57.41101 46.05647 70.07605
#
# Poissons Ratio (x) = -0.19818 0.45933
# Poissons Ratio (y) = -0.24704 0.43827
# Poissons Ratio (z) = 0.37631 0.28805
#
# Static dielectric constant tensor:
#      x y z
#    x 1.795890 -0.063370 -0.035620 
#    y -0.063370 1.650010 -0.102880 
#    z -0.035620 -0.102880 1.703650 
# 
# From -- ./inp_files/189840.got.cif
#   From: 2010.05.17/outbox.cif.g08.bks.cpg/sg2_95_cif.got.tgz:189840.got - 2010.06.03 11:33:40.
