data_PCOD9064715
_publ_section_title
;
Structure prediction by ZEFSAII (Michael W. Deem and Ramdas Pophale) SiO2 
 PCOD9064715
Probable space group: P -1
;
_chemical_formula_sum "Si O2"
_cell_formula_units_Z 15
_cell_length_a 14.193589
_cell_length_b 6.960105
_cell_length_c 12.617183
_cell_angle_alpha 138.262658
_cell_angle_beta 133.775191
_cell_angle_gamma 63.635101
_cell_volume 592.357032
_symmetry_space_group_name_H-M "P -1"
_symmetry_group_IT_number 2
_symmetry_cell_setting 'triclinic'
loop_
_space_group_symop_operation_xyz
x,y,z
-x,-y,-z
loop_
_atom_site_type_symbol
_atom_site_label
_atom_site_fract_x
_atom_site_fract_y
_atom_site_fract_z
Si Si1 0.685490 0.847663 0.611585
Si Si2 0.000000 0.500000 0.000000
Si Si3 0.396333 0.667302 0.362692
Si Si4 0.772484 0.823123 0.876284
Si Si5 0.616099 0.806525 0.028611
Si Si6 0.726792 0.448760 0.127144
Si Si7 0.012205 0.333141 0.690104
Si Si8 0.208359 0.604770 0.611648
O O1 0.542507 0.845932 0.554030
O O2 0.800452 0.894913 0.805367
O O3 0.683638 0.543899 0.428513
O O4 0.702905 0.105893 0.647031
O O5 0.895648 0.738369 0.000124
O O6 0.976281 0.390525 0.807799
O O7 0.336986 0.468698 0.330321
O O8 0.388954 0.442503 0.166588
O O9 0.702336 0.096799 0.971607
O O10 0.619320 0.637985 0.075009
O O11 0.745202 0.049438 0.215093
O O12 0.500000 0.000000 0.000000
O O13 0.787827 0.527939 0.322794
O O14 0.839371 0.519306 0.155715
O O15 0.923064 0.471495 0.590335
O O16 0.000000 0.000000 0.500000
#
# Coordination Sequence:
#
# PCOD9064715 Si02
#       8
#     2   1   2   2   2   2   2   2
#     4  11  25  45  72 108 145 196 248 310 375 447
#     4  12  28  46  82 110 150 204 254 316 378 454
#     4  11  24  46  72 103 151 191 250 311 376 444
#     4  12  25  47  73 108 147 197 248 311 378 449
#     4  12  24  46  74 108 150 194 252 306 372 463
#     4  12  27  47  78 107 149 203 249 314 388 450
#     4  12  26  50  76 109 151 198 256 315 382 452
#     4  12  25  48  75 110 147 196 256 312 376 457
#
# _framework density 25.322564
#
# number of rings (size 3 to 8) (size 9 to 14) (size 15 to 20)
#    0.000    0.267    6.667    2.400    0.000    4.267 
#    4.800    0.000    0.000    0.000    0.000    0.000 
#    0.000    0.000    0.000    0.000    0.000    0.000 
#
# Total GULP energy -83524.648941 kJ/mol
# GULP energy per Si atom -5568.309929 kJ/mol
# Density = 2.526493 g / cm^3
# Si number density = 25.322564 Si / 1000 Ang^3
#
#
#
# Elastic Constant Matrix: (Units=GPa)
#
#
# Indices 1 2 3 4 5 6 
#
# 1 49.4093 21.2975 11.2913 -14.2277 -14.8009 -2.1014
# 2 21.2975 220.7095 44.7541 -35.3665 -7.2261 -11.9073
# 3 11.2913 44.7541 72.7837 -9.9180 -26.4746 -1.5386
# 4 -14.2277 -35.3665 -9.9180 51.4045 8.7376 -0.3916
# 5 -14.8009 -7.2261 -26.4746 8.7376 40.1730 -1.8710
# 6 -2.1014 -11.9073 -1.5386 -0.3916 -1.8710 32.4726
#
#
#
# Elastic Compliance Matrix: (Units=1/GPa)
#
#
# Indices 1 2 3 4 5 6 
#
# 1 0.024575 -0.001437 0.000780 0.004549 0.008397 0.001639
# 2 -0.001437 0.006040 -0.003973 0.003469 -0.002731 0.001818
# 3 0.000780 -0.003973 0.020880 -0.000784 0.013520 0.000352
# 4 0.004549 0.003469 -0.000784 0.023514 -0.003256 0.001625
# 5 0.008397 -0.002731 0.013520 -0.003256 0.037219 0.002288
# 6 0.001639 0.001818 0.000352 0.001625 0.002288 0.031736
#
#
# Mechanical properties :
#
#
# Convention : Reuss Voigt Hill
#
# Bulk Modulus (GPa) = 23.67775 55.28758 39.48267
# Shear Modulus (GPa) = 29.88609 42.51401 36.20005
#
# Velocity S-wave (km/s) = 3.43915 4.10188 3.78505
# Velocity P-wave (km/s) = 5.01409 6.65692 5.89304
#
# Compressibility (1/GPa) = 0.04223374
#
# Stress axis : x y z
#
# Youngs Moduli (GPa) = 40.69139 165.57044 47.89355
#
# Poissons Ratio (x) = 0.23798 -0.03736
# Poissons Ratio (y) = 0.05849 0.19029
# Poissons Ratio (z) = -0.03174 0.65784
#
# Static dielectric constant tensor:
#      x y z
#    x 2.093800 -0.027350 0.056610 
#    y -0.027350 2.049700 -0.002350 
#    z 0.056610 -0.002350 2.429750 
# 
# From -- ./inp_files/442349.got.cif
#   From: 2010.05.17/outbox.cif.g08.bks.cpg/sg2_222_cif.got.tgz:442349.got - 2010.06.03 11:33:40.
