data_PCOD9064384
_publ_section_title
;
Structure prediction by ZEFSAII (Michael W. Deem and Ramdas Pophale) SiO2 
 PCOD9064384
Probable space group: P -1
;
_chemical_formula_sum "Si O2"
_cell_formula_units_Z 12
_cell_length_a 6.358544
_cell_length_b 8.378089
_cell_length_c 13.730637
_cell_angle_alpha 133.433440
_cell_angle_beta 67.164918
_cell_angle_gamma 97.625168
_cell_volume 479.609752
_symmetry_space_group_name_H-M "P -1"
_symmetry_group_IT_number 2
_symmetry_cell_setting 'triclinic'
loop_
_space_group_symop_operation_xyz
x,y,z
-x,-y,-z
loop_
_atom_site_type_symbol
_atom_site_label
_atom_site_fract_x
_atom_site_fract_y
_atom_site_fract_z
Si Si1 0.358594 0.386616 0.168817
Si Si2 0.597160 0.040279 0.763670
Si Si3 0.946136 0.301371 0.491652
Si Si4 0.684803 0.925728 0.352828
Si Si5 0.117422 0.597177 0.111739
Si Si6 0.271263 0.931017 0.945344
O O1 0.209482 0.583603 0.342260
O O2 0.279038 0.437561 0.092717
O O3 0.626494 0.311812 0.126237
O O4 0.293531 0.143715 0.098654
O O5 0.734947 0.213448 0.862127
O O6 0.440847 0.156290 0.751585
O O7 0.425642 0.943324 0.825628
O O8 0.800608 0.853685 0.600180
O O9 0.796487 0.141067 0.397783
O O10 0.000000 0.500000 0.500000
O O11 0.500000 0.000000 0.500000
O O12 0.897227 0.735018 0.268363
O O13 0.000000 0.500000 0.000000
O O14 0.000000 0.000000 0.000000
#
# Coordination Sequence:
#
# PCOD9064384 Si02
#       6
#     2   2   2   2   2   2
#     4  11  25  46  71 105 150 193 249 304 370 441
#     4  11  25  48  75 107 150 190 254 310 367 453
#     4  11  24  45  74 108 150 198 245 303 383 448
#     4  11  25  43  74 113 150 192 249 308 374 451
#     4  11  26  48  77 106 146 198 251 306 377 440
#     4  11  27  45  71 106 151 196 249 304 370 439
#
# _framework density 25.020340999999998
#
# number of rings (size 3 to 8) (size 9 to 14) (size 15 to 20)
#    0.000    1.000    1.667    3.000    2.333   15.333 
#    0.000    0.833    0.000    0.000    0.000    0.000 
#    0.000    0.000    0.000    0.000    0.000    0.000 
#
# Total GULP energy -67092.219261 kJ/mol
# GULP energy per Si atom -5591.018272 kJ/mol
# Density = 2.496339 g / cm^3
# Si number density = 25.020341 Si / 1000 Ang^3
#
#
#
# Elastic Constant Matrix: (Units=GPa)
#
#
# Indices 1 2 3 4 5 6 
#
# 1 168.1938 61.4342 75.7193 -2.6165 -31.6310 -15.4120
# 2 61.4342 106.9594 29.5258 -1.7539 -11.6209 -15.4195
# 3 75.7193 29.5258 138.4273 -5.8262 -28.5336 -12.7782
# 4 -2.6165 -1.7539 -5.8262 44.8285 -0.5799 0.2008
# 5 -31.6310 -11.6209 -28.5336 -0.5799 67.7260 12.6298
# 6 -15.4120 -15.4195 -12.7782 0.2008 12.6298 50.8439
#
#
#
# Elastic Compliance Matrix: (Units=1/GPa)
#
#
# Indices 1 2 3 4 5 6 
#
# 1 0.009670 -0.004217 -0.003947 -0.000087 0.002103 0.000138
# 2 -0.004217 0.012121 -0.000125 0.000196 -0.000401 0.002465
# 3 -0.003947 -0.000125 0.009978 0.001087 0.002214 0.000719
# 4 -0.000087 0.000196 0.001087 0.022459 0.000632 0.000060
# 5 0.002103 -0.000401 0.002214 0.000632 0.017215 -0.003206
# 6 0.000138 0.002465 0.000719 0.000060 -0.003206 0.021434
#
#
# Mechanical properties :
#
#
# Convention : Reuss Voigt Hill
#
# Bulk Modulus (GPa) = 65.83466 82.99325 74.41395
# Shear Modulus (GPa) = 43.66015 49.13977 46.39996
#
# Velocity S-wave (km/s) = 4.18183 4.43650 4.31105
# Velocity P-wave (km/s) = 7.04887 7.71270 7.38824
#
# Compressibility (1/GPa) = 0.01518957
#
# Stress axis : x y z
#
# Youngs Moduli (GPa) = 103.41495 82.49925 100.21679
#
# Poissons Ratio (x) = 0.34794 0.39558
# Poissons Ratio (y) = 0.43615 0.01256
# Poissons Ratio (z) = 0.40820 0.01034
#
# Static dielectric constant tensor:
#      x y z
#    x 2.136190 0.000850 -0.014480 
#    y 0.000850 2.001880 -0.003280 
#    z -0.014480 -0.003280 2.008870 
# 
# From -- ./inp_files/134656.got.cif
#   From: 2010.05.17/outbox.cif.g08.bks.cpg/sg2_68_cif.got.tgz:134656.got - 2010.06.03 11:33:40.
