data_PCOD9064331
_publ_section_title
;
Structure prediction by ZEFSAII (Michael W. Deem and Ramdas Pophale) SiO2 
 PCOD9064331
Probable space group: P -1
;
_chemical_formula_sum "Si O2"
_cell_formula_units_Z 14
_cell_length_a 7.603171
_cell_length_b 11.120534
_cell_length_c 13.785569
_cell_angle_alpha 149.919691
_cell_angle_beta 111.941198
_cell_angle_gamma 72.906047
_cell_volume 540.808760
_symmetry_space_group_name_H-M "P -1"
_symmetry_group_IT_number 2
_symmetry_cell_setting 'triclinic'
loop_
_space_group_symop_operation_xyz
x,y,z
-x,-y,-z
loop_
_atom_site_type_symbol
_atom_site_label
_atom_site_fract_x
_atom_site_fract_y
_atom_site_fract_z
Si Si1 0.232339 0.916489 0.099758
Si Si2 0.271173 0.448789 0.424703
Si Si3 0.663384 0.220073 0.174395
Si Si4 0.642857 0.722926 0.097548
Si Si5 0.702912 0.028696 0.507224
Si Si6 0.859945 0.301532 0.882790
Si Si7 0.697432 0.555583 0.791039
O O1 0.446344 0.847761 0.125480
O O2 0.110503 0.763180 0.045471
O O3 0.223950 0.202064 0.299583
O O4 0.205619 0.842478 0.931052
O O5 0.500000 0.500000 0.500000
O O6 0.222974 0.681255 0.639429
O O7 0.214704 0.410442 0.274036
O O8 0.531236 0.429613 0.258181
O O9 0.500000 0.000000 0.000000
O O10 0.730322 0.844577 0.297766
O O11 0.661380 0.439509 0.927272
O O12 0.734169 0.735385 0.015964
O O13 0.847639 0.058278 0.647703
O O14 0.730237 0.287537 0.642448
O O15 0.500000 0.000000 0.500000
O O16 0.000000 0.500000 0.000000
#
# Coordination Sequence:
#
# PCOD9064331 Si02
#       7
#     2   2   2   2   2   2   2
#     4  11  20  34  59  89 121 155 198 249 294 353
#     4  10  18  30  50  89 127 147 185 251 307 344
#     4  10  18  27  49  86 125 149 182 245 306 341
#     4  10  21  37  61  86 113 157 203 250 296 344
#     4  11  22  35  62  87 117 157 203 253 298 346
#     4  11  26  42  57  87 127 162 200 245 301 358
#     4   9  20  30  50  88 125 143 185 246 306 345
#
# _framework density 25.887153999999999
#
# number of rings (size 3 to 8) (size 9 to 14) (size 15 to 20)
#    0.000    1.714    4.286    2.143    6.000    0.571 
#    0.000    0.000    0.000    3.429    0.000    7.000 
#    0.000    0.000    0.000    0.000    0.000    0.000 
#
# Total GULP energy -78098.269477 kJ/mol
# GULP energy per Si atom -5578.447820 kJ/mol
# Density = 2.582823 g / cm^3
# Si number density = 25.887154 Si / 1000 Ang^3
#
#
#
# Elastic Constant Matrix: (Units=GPa)
#
#
# Indices 1 2 3 4 5 6 
#
# 1 81.1051 32.6963 31.5959 -7.2324 6.0115 28.7114
# 2 32.6963 158.8386 81.4767 -18.2425 -6.6239 46.1176
# 3 31.5959 81.4767 187.3909 -49.7625 -30.1247 35.3572
# 4 -7.2324 -18.2425 -49.7625 61.4502 7.5988 -9.8393
# 5 6.0115 -6.6239 -30.1247 7.5988 24.8541 -3.8861
# 6 28.7114 46.1176 35.3572 -9.8393 -3.8861 47.2371
#
#
#
# Elastic Compliance Matrix: (Units=1/GPa)
#
#
# Indices 1 2 3 4 5 6 
#
# 1 0.017284 0.000175 -0.002780 -0.000589 -0.008800 -0.009442
# 2 0.000175 0.010154 -0.003646 -0.000813 -0.002708 -0.007683
# 3 -0.002780 -0.003646 0.010860 0.005913 0.010939 -0.000748
# 4 -0.000589 -0.000813 0.005913 0.020821 0.000904 0.001137
# 5 -0.008800 -0.002708 0.010939 0.000904 0.055335 0.004545
# 6 -0.009442 -0.007683 -0.000748 0.001137 0.004545 0.035581
#
#
# Mechanical properties :
#
#
# Convention : Reuss Voigt Hill
#
# Bulk Modulus (GPa) = 38.76377 79.87473 59.31925
# Shear Modulus (GPa) = 29.21643 45.47932 37.34787
#
# Velocity S-wave (km/s) = 3.36312 4.19600 3.80243
# Velocity P-wave (km/s) = 5.48520 7.37545 6.49941
#
# Compressibility (1/GPa) = 0.02579728
#
# Stress axis : x y z
#
# Youngs Moduli (GPa) = 57.85559 98.47938 92.07824
#
# Poissons Ratio (x) = -0.01722 0.25594
# Poissons Ratio (y) = -0.01012 0.33573
# Poissons Ratio (z) = 0.16082 0.35907
#
# Static dielectric constant tensor:
#      x y z
#    x 2.253200 -0.035800 0.017290 
#    y -0.035800 2.100030 -0.116440 
#    z 0.017290 -0.116440 2.112980 
# 
# From -- ./inp_files/357607.got.cif
#   From: 2010.05.17/outbox.cif.g08.bks.cpg/sg2_179_cif.got.tgz:357607.got - 2010.06.03 11:33:40.
