data_PCOD9064981
_publ_section_title
;
Structure prediction by ZEFSAII (Michael W. Deem and Ramdas Pophale) SiO2 
 PCOD9064981
Probable space group: P -1
;
_chemical_formula_sum "Si O2"
_cell_formula_units_Z 12
_cell_length_a 12.072085
_cell_length_b 7.919980
_cell_length_c 5.752824
_cell_angle_alpha 68.961242
_cell_angle_beta 68.296648
_cell_angle_gamma 94.022098
_cell_volume 463.733242
_symmetry_space_group_name_H-M "P -1"
_symmetry_group_IT_number 2
_symmetry_cell_setting 'triclinic'
loop_
_space_group_symop_operation_xyz
x,y,z
-x,-y,-z
loop_
_atom_site_type_symbol
_atom_site_label
_atom_site_fract_x
_atom_site_fract_y
_atom_site_fract_z
Si Si1 0.550808 0.695797 0.984443
Si Si2 0.761589 0.764864 0.114702
Si Si3 0.304536 0.999950 0.579972
Si Si4 0.692780 0.347227 0.546875
Si Si5 0.913544 0.297966 0.673453
Si Si6 0.955912 0.128656 0.227676
O O1 0.580272 0.873166 0.705884
O O2 0.500000 0.500000 0.000000
O O3 0.683400 0.696745 0.982009
O O4 0.448986 0.698829 0.254380
O O5 0.692672 0.911561 0.211858
O O6 0.746216 0.567872 0.356922
O O7 0.902180 0.870575 0.919539
O O8 0.294726 0.787562 0.613094
O O9 0.169451 0.032291 0.591618
O O10 0.772972 0.295145 0.722069
O O11 0.954878 0.211795 0.445629
O O12 0.000000 0.500000 0.500000
O O13 0.931015 0.228473 0.954900
#
# Coordination Sequence:
#
# PCOD9064981 Si02
#       6
#     2   2   2   2   2   2
#     4  12  28  50  76 113 154 207 262 317 394 463
#     4  12  27  50  78 112 157 202 253 331 390 464
#     4  11  28  50  75 115 149 208 260 321 388 465
#     4  11  26  50  78 109 155 204 261 321 383 473
#     4  11  24  46  78 117 153 209 257 315 396 459
#     4  11  27  47  80 118 157 200 263 323 393 466
#
# _framework density 25.876947999999999
#
# number of rings (size 3 to 8) (size 9 to 14) (size 15 to 20)
#    0.000    0.667    3.333    2.000   11.667    1.333 
#    0.000    0.000    0.000    0.000    0.000    0.000 
#    0.000    0.000    0.000    0.000    0.000    0.000 
#
# Total GULP energy -67028.883934 kJ/mol
# GULP energy per Si atom -5585.740328 kJ/mol
# Density = 2.581805 g / cm^3
# Si number density = 25.876948 Si / 1000 Ang^3
#
#
#
# Elastic Constant Matrix: (Units=GPa)
#
#
# Indices 1 2 3 4 5 6 
#
# 1 99.5166 23.6379 46.2255 0.3601 -19.2354 9.4116
# 2 23.6379 145.4791 75.6047 -7.7348 -12.7300 20.2885
# 3 46.2255 75.6047 163.5530 -4.0880 -6.5003 -3.2236
# 4 0.3601 -7.7348 -4.0880 35.9845 0.4434 -5.7941
# 5 -19.2354 -12.7300 -6.5003 0.4434 58.2044 -3.5257
# 6 9.4116 20.2885 -3.2236 -5.7941 -3.5257 38.0540
#
#
#
# Elastic Compliance Matrix: (Units=1/GPa)
#
#
# Indices 1 2 3 4 5 6 
#
# 1 0.012757 0.000738 -0.003898 -0.001052 0.003726 -0.003694
# 2 0.000738 0.010368 -0.005037 0.000682 0.001587 -0.005886
# 3 -0.003898 -0.005037 0.009611 0.000783 -0.001051 0.004486
# 4 -0.001052 0.000682 0.000783 0.028734 -0.000068 0.004332
# 5 0.003726 0.001587 -0.001051 -0.000068 0.018634 -0.000141
# 6 -0.003694 -0.005886 0.004486 0.004332 -0.000141 0.031357
#
#
# Mechanical properties :
#
#
# Convention : Reuss Voigt Hill
#
# Bulk Modulus (GPa) = 61.19280 77.72055 69.45667
# Shear Modulus (GPa) = 37.50905 43.98728 40.74817
#
# Velocity S-wave (km/s) = 3.81138 4.12741 3.97254
# Velocity P-wave (km/s) = 6.56261 7.26732 6.92393
#
# Compressibility (1/GPa) = 0.01634179
#
# Stress axis : x y z
#
# Youngs Moduli (GPa) = 78.38711 96.45413 104.05220
#
# Poissons Ratio (x) = -0.07119 0.40558
# Poissons Ratio (y) = -0.05786 0.52412
# Poissons Ratio (z) = 0.30554 0.48585
#
# Static dielectric constant tensor:
#      x y z
#    x 2.070330 -0.123140 0.079640 
#    y -0.123140 2.141750 0.031880 
#    z 0.079640 0.031880 2.122870 
# 
# From -- ./inp_files/25038.got.cif
#   From: 2010.05.17/outbox.cif.g08.bks.cpg/sg2_13_cif.got.tgz:25038.got - 2010.06.03 11:33:40.
