data_PCOD9064047
_publ_section_title
;
Structure prediction by ZEFSAII (Michael W. Deem and Ramdas Pophale) SiO2 
 PCOD9064047
Probable space group: P -1
;
_chemical_formula_sum "Si O2"
_cell_formula_units_Z 14
_cell_length_a 18.228474
_cell_length_b 11.570900
_cell_length_c 13.073816
_cell_angle_alpha 48.961864
_cell_angle_beta 157.479610
_cell_angle_gamma 142.812300
_cell_volume 599.708088
_symmetry_space_group_name_H-M "P -1"
_symmetry_group_IT_number 2
_symmetry_cell_setting 'triclinic'
loop_
_space_group_symop_operation_xyz
x,y,z
-x,-y,-z
loop_
_atom_site_type_symbol
_atom_site_label
_atom_site_fract_x
_atom_site_fract_y
_atom_site_fract_z
Si Si1 0.595248 0.770601 0.304134
Si Si2 0.550003 0.656815 0.888665
Si Si3 0.965423 0.551115 0.284491
Si Si4 0.157251 0.390007 0.355087
Si Si5 0.067000 0.779592 0.482766
Si Si6 0.386410 0.904186 0.520403
Si Si7 0.643349 0.293477 0.753111
O O1 0.811076 0.770388 0.541565
O O2 0.495365 0.703728 0.330882
O O3 0.338058 0.598967 0.009868
O O4 0.703128 0.999197 0.307552
O O5 0.362899 0.534079 0.623549
O O6 0.515457 0.816524 0.780920
O O7 0.500000 0.500000 0.000000
O O8 0.842338 0.778218 0.166769
O O9 0.104544 0.701899 0.472792
O O10 0.013373 0.394703 0.439813
O O11 0.088239 0.701429 0.258499
O O12 0.243401 0.525680 0.285472
O O13 0.879949 0.305632 0.078493
O O14 0.500000 0.000000 0.500000
O O15 0.445272 0.082005 0.560894
#
# Coordination Sequence:
#
# PCOD9064047 Si02
#       7
#     2   2   2   2   2   2   2
#     4  12  24  46  73 109 143 190 246 300 370 435
#     4  12  24  46  72 104 148 188 245 306 360 433
#     4  11  24  45  70 103 147 189 238 306 357 435
#     4  11  25  47  70 107 148 194 241 309 360 436
#     4  11  24  45  70 102 147 191 239 298 369 433
#     4  12  24  46  74 105 144 198 242 300 370 433
#     4  11  25  45  72 105 150 191 247 299 367 433
#
# _framework density 23.344691000000001
#
# number of rings (size 3 to 8) (size 9 to 14) (size 15 to 20)
#    0.000    0.571    5.714    2.571    2.000    0.000 
#    5.143    3.571    0.000    0.000    0.000    0.000 
#    0.000    0.000    0.000    0.000    0.000    0.000 
#
# Total GULP energy -78265.903355 kJ/mol
# GULP energy per Si atom -5590.421668 kJ/mol
# Density = 2.329156 g / cm^3
# Si number density = 23.344691 Si / 1000 Ang^3
#
#
#
# Elastic Constant Matrix: (Units=GPa)
#
#
# Indices 1 2 3 4 5 6 
#
# 1 61.2614 2.0642 5.9381 -0.2408 -4.3108 -8.3634
# 2 2.0642 108.3498 7.8080 15.7563 -3.6461 -5.1914
# 3 5.9381 7.8080 76.9028 5.7246 2.0929 -2.7186
# 4 -0.2408 15.7563 5.7246 37.0250 -1.5548 2.8677
# 5 -4.3108 -3.6461 2.0929 -1.5548 27.8378 0.3411
# 6 -8.3634 -5.1914 -2.7186 2.8677 0.3411 39.8500
#
#
#
# Elastic Compliance Matrix: (Units=1/GPa)
#
#
# Indices 1 2 3 4 5 6 
#
# 1 0.017113 0.000002 -0.001284 0.000154 0.002713 0.003470
# 2 0.000002 0.010004 -0.000676 -0.004227 0.001106 0.001552
# 3 -0.001284 -0.000676 0.013376 -0.001902 -0.001408 0.000704
# 4 0.000154 -0.004227 -0.001902 0.029371 0.001288 -0.002773
# 5 0.002713 0.001106 -0.001408 0.001288 0.036663 0.000211
# 6 0.003470 0.001552 0.000704 -0.002773 0.000211 0.026270
#
#
# Mechanical properties :
#
#
# Convention : Reuss Voigt Hill
#
# Bulk Modulus (GPa) = 27.34083 30.90385 29.12234
# Shear Modulus (GPa) = 33.57784 36.32280 34.95032
#
# Velocity S-wave (km/s) = 3.79667 3.94881 3.87349
# Velocity P-wave (km/s) = 5.56389 5.83589 5.70151
#
# Compressibility (1/GPa) = 0.03657533
#
# Stress axis : x y z
#
# Youngs Moduli (GPa) = 58.43468 99.95686 74.76038
#
# Poissons Ratio (x) = -0.00016 0.09601
# Poissons Ratio (y) = -0.00009 0.05057
# Poissons Ratio (z) = 0.07504 0.06762
#
# Static dielectric constant tensor:
#      x y z
#    x 1.924430 0.022460 0.038980 
#    y 0.022460 1.863370 0.010660 
#    z 0.038980 0.010660 1.944080 
# 
# From -- ./inp_files/285231.got.cif
#   From: 2010.05.17/outbox.cif.g08.bks.cpg/sg2_143_cif.got.tgz:285231.got - 2010.06.03 11:33:40.
