data_PCOD9064419
_publ_section_title
;
Structure prediction by ZEFSAII (Michael W. Deem and Ramdas Pophale) SiO2 
 PCOD9064419
Probable space group: P -1
;
_chemical_formula_sum "Si O2"
_cell_formula_units_Z 14
_cell_length_a 9.096878
_cell_length_b 5.180080
_cell_length_c 12.705987
_cell_angle_alpha 118.746949
_cell_angle_beta 86.827257
_cell_angle_gamma 93.587915
_cell_volume 523.698393
_symmetry_space_group_name_H-M "P -1"
_symmetry_group_IT_number 2
_symmetry_cell_setting 'triclinic'
loop_
_space_group_symop_operation_xyz
x,y,z
-x,-y,-z
loop_
_atom_site_type_symbol
_atom_site_label
_atom_site_fract_x
_atom_site_fract_y
_atom_site_fract_z
Si Si1 0.649977 0.717038 0.226399
Si Si2 0.899604 0.297747 0.172262
Si Si3 0.179231 0.201388 0.398899
Si Si4 0.366588 0.893298 0.150527
Si Si5 0.865253 0.206535 0.395412
Si Si6 0.426641 0.305414 0.557715
Si Si7 0.219877 0.255152 0.049731
O O1 0.789206 0.516117 0.163006
O O2 0.531128 0.813195 0.164654
O O3 0.566315 0.558308 0.299147
O O4 0.722534 0.010300 0.333470
O O5 0.898822 0.348027 0.306271
O O6 0.066993 0.308664 0.127855
O O7 0.831047 0.971694 0.084187
O O8 0.156410 0.555405 0.465125
O O9 0.264054 0.207890 0.506175
O O10 0.017855 0.048325 0.378052
O O11 0.282668 0.061917 0.280833
O O12 0.286239 0.572496 0.077649
O O13 0.335124 0.088013 0.087071
O O14 0.500000 0.500000 0.500000
O O15 0.500000 0.000000 0.500000
#
# Coordination Sequence:
#
# PCOD9064419 Si02
#       7
#     2   2   2   2   2   2   2
#     4  12  28  45  78 110 156 194 256 313 379 447
#     4  11  26  49  79 106 154 197 259 313 376 446
#     4  11  24  45  75 106 155 191 253 305 375 457
#     4  12  28  48  77 111 152 199 252 313 380 447
#     4  11  25  47  72 114 147 202 249 312 376 449
#     4  12  26  44  70 107 148 194 234 296 372 441
#     4  11  29  51  77 110 149 205 255 313 375 449
#
# _framework density 26.732944
#
# number of rings (size 3 to 8) (size 9 to 14) (size 15 to 20)
#    0.000    0.571    4.286    1.714    6.000    4.000 
#    2.571    0.000    0.000    0.000    0.000    0.000 
#    0.000    0.000    0.000    0.000    0.000    0.000 
#
# Total GULP energy -78418.513713 kJ/mol
# GULP energy per Si atom -5601.322408 kJ/mol
# Density = 2.667210 g / cm^3
# Si number density = 26.732944 Si / 1000 Ang^3
#
#
#
# Elastic Constant Matrix: (Units=GPa)
#
#
# Indices 1 2 3 4 5 6 
#
# 1 176.6256 41.2863 38.2410 2.5402 4.6728 -25.0446
# 2 41.2863 131.0639 39.1589 -2.7697 -2.6444 -20.0280
# 3 38.2410 39.1589 123.9571 6.8405 9.8988 -9.4774
# 4 2.5402 -2.7697 6.8405 43.6635 -6.2885 9.8683
# 5 4.6728 -2.6444 9.8988 -6.2885 39.9511 10.1043
# 6 -25.0446 -20.0280 -9.4774 9.8683 10.1043 45.7716
#
#
#
# Elastic Compliance Matrix: (Units=1/GPa)
#
#
# Indices 1 2 3 4 5 6 
#
# 1 0.006795 -0.001299 -0.001205 -0.001338 -0.001694 0.003563
# 2 -0.001299 0.009167 -0.002402 0.000586 0.000814 0.002497
# 3 -0.001205 -0.002402 0.009701 -0.002404 -0.003185 0.001520
# 4 -0.001338 0.000586 -0.002404 0.026249 0.006991 -0.008176
# 5 -0.001694 0.000814 -0.003185 0.006991 0.029512 -0.009252
# 6 0.003563 0.002497 0.001520 -0.008176 -0.009252 0.029010
#
#
# Mechanical properties :
#
#
# Convention : Reuss Voigt Hill
#
# Bulk Modulus (GPa) = 63.07894 74.33546 68.70720
# Shear Modulus (GPa) = 39.83179 46.74127 43.28653
#
# Velocity S-wave (km/s) = 3.86422 4.18599 4.02832
# Velocity P-wave (km/s) = 6.59976 7.15754 6.88430
#
# Compressibility (1/GPa) = 0.01585315
#
# Stress axis : x y z
#
# Youngs Moduli (GPa) = 147.15966 109.08767 103.08383
#
# Poissons Ratio (x) = 0.14167 0.12417
# Poissons Ratio (y) = 0.19112 0.24758
# Poissons Ratio (z) = 0.17726 0.26200
#
# Static dielectric constant tensor:
#      x y z
#    x 1.653220 0.385960 0.079260 
#    y 0.385960 1.975910 -0.074350 
#    z 0.079260 -0.074350 2.083190 
# 
# From -- ./inp_files/488784.got.cif
#   From: 2010.05.17/outbox.cif.g08.bks.cpg/sg2_245_cif.got.tgz:488784.got - 2010.06.03 11:33:40.
