data_PCOD9064247
_publ_section_title
;
Structure prediction by ZEFSAII (Michael W. Deem and Ramdas Pophale) SiO2 
 PCOD9064247
Probable space group: P -1
;
_chemical_formula_sum "Si O2"
_cell_formula_units_Z 12
_cell_length_a 9.090507
_cell_length_b 18.876594
_cell_length_c 7.253123
_cell_angle_alpha 108.313599
_cell_angle_beta 99.710762
_cell_angle_gamma 28.095673
_cell_volume 539.820398
_symmetry_space_group_name_H-M "P -1"
_symmetry_group_IT_number 2
_symmetry_cell_setting 'triclinic'
loop_
_space_group_symop_operation_xyz
x,y,z
-x,-y,-z
loop_
_atom_site_type_symbol
_atom_site_label
_atom_site_fract_x
_atom_site_fract_y
_atom_site_fract_z
Si Si1 0.304608 0.403392 0.392746
Si Si2 0.363746 0.638920 0.310925
Si Si3 0.772743 0.940951 0.959132
Si Si4 0.508260 0.586784 0.878476
Si Si5 0.728681 0.086715 0.377853
Si Si6 0.333862 0.995185 0.425825
O O1 0.387206 0.442248 0.552334
O O2 0.318749 0.423068 0.201021
O O3 0.578920 0.221444 0.346274
O O4 0.000000 0.500000 0.500000
O O5 0.328669 0.565481 0.246140
O O6 0.027942 0.828034 0.435402
O O7 0.490515 0.605472 0.109046
O O8 0.133607 0.747343 0.863946
O O9 0.676624 0.016749 0.802429
O O10 0.500000 0.000000 0.000000
O O11 0.802329 0.991686 0.161669
O O12 0.513508 0.136681 0.522606
O O13 0.500000 0.000000 0.500000
O O14 0.000000 0.000000 0.500000
#
# Coordination Sequence:
#
# PCOD9064247 Si02
#       6
#     2   2   2   2   2   2
#     4  12  28  44  68 102 144 184 226 285 360 417
#     4  11  24  46  70  99 138 183 232 290 348 414
#     4  12  24  42  74 105 131 186 238 288 354 416
#     4  11  24  45  72  97 139 180 235 287 346 418
#     4  12  25  47  69 102 143 180 234 292 356 410
#     4  12  24  43  71 102 138 181 238 292 344 420
#
# _framework density 22.229614999999999
#
# number of rings (size 3 to 8) (size 9 to 14) (size 15 to 20)
#    0.000    0.333    6.667    0.500    4.667    4.667 
#    0.000    0.000    0.000    0.000    0.000    0.000 
#    0.000    0.000    0.000    0.000    0.000    0.000 
#
# Total GULP energy -67060.777275 kJ/mol
# GULP energy per Si atom -5588.398106 kJ/mol
# Density = 2.217902 g / cm^3
# Si number density = 22.229615 Si / 1000 Ang^3
#
#
#
# Elastic Constant Matrix: (Units=GPa)
#
#
# Indices 1 2 3 4 5 6 
#
# 1 101.9185 13.1493 57.7003 5.6003 -9.2651 9.6462
# 2 13.1493 37.8714 32.0519 -3.9212 -7.3064 20.8737
# 3 57.7003 32.0519 131.2708 -26.5855 -7.7260 20.8807
# 4 5.6003 -3.9212 -26.5855 38.6961 3.0803 -12.5120
# 5 -9.2651 -7.3064 -7.7260 3.0803 48.3952 -12.5682
# 6 9.6462 20.8737 20.8807 -12.5120 -12.5682 37.9579
#
#
#
# Elastic Compliance Matrix: (Units=1/GPa)
#
#
# Indices 1 2 3 4 5 6 
#
# 1 0.015314 0.003319 -0.008755 -0.009109 0.001752 -0.003323
# 2 0.003319 0.047066 -0.011399 -0.011356 0.000394 -0.024068
# 3 -0.008755 -0.011399 0.016169 0.012392 -0.000709 0.003449
# 4 -0.009109 -0.011356 0.012392 0.039267 -0.000181 0.014627
# 5 0.001752 0.000394 -0.000709 -0.000181 0.022834 0.007229
# 6 -0.003323 -0.024068 0.003449 0.014627 0.007229 0.045743
#
#
# Mechanical properties :
#
#
# Convention : Reuss Voigt Hill
#
# Bulk Modulus (GPa) = 22.28218 52.98486 37.63352
# Shear Modulus (GPa) = 21.27454 36.22045 28.74749
#
# Velocity S-wave (km/s) = 3.09696 4.04093 3.60002
# Velocity P-wave (km/s) = 4.77845 6.75716 5.85204
#
# Compressibility (1/GPa) = 0.04487891
#
# Stress axis : x y z
#
# Youngs Moduli (GPa) = 65.29812 21.24676 61.84810
#
# Poissons Ratio (x) = -0.07051 0.54147
# Poissons Ratio (y) = -0.21671 0.70501
# Poissons Ratio (z) = 0.57168 0.24219
#
# Static dielectric constant tensor:
#      x y z
#    x 1.710980 0.047820 0.024950 
#    y 0.047820 1.835470 -0.027680 
#    z 0.024950 -0.027680 1.798470 
# 
# From -- ./inp_files/134348.got.cif
#   From: 2010.05.17/outbox.cif.g08.bks.cpg/sg2_68_cif.got.tgz:134348.got - 2010.06.03 11:33:40.
