data_PCOD9064369
_publ_section_title
;
Structure prediction by ZEFSAII (Michael W. Deem and Ramdas Pophale) SiO2 
 PCOD9064369
Probable space group: P -1
;
_chemical_formula_sum "Si O2"
_cell_formula_units_Z 16
_cell_length_a 12.485229
_cell_length_b 12.011674
_cell_length_c 13.570284
_cell_angle_alpha 32.616396
_cell_angle_beta 122.052720
_cell_angle_gamma 124.232779
_cell_volume 899.501688
_symmetry_space_group_name_H-M "P -1"
_symmetry_group_IT_number 2
_symmetry_cell_setting 'triclinic'
loop_
_space_group_symop_operation_xyz
x,y,z
-x,-y,-z
loop_
_atom_site_type_symbol
_atom_site_label
_atom_site_fract_x
_atom_site_fract_y
_atom_site_fract_z
Si Si1 0.976072 0.239133 0.401333
Si Si2 0.698243 0.121880 0.579036
Si Si3 0.567200 0.831925 0.547441
Si Si4 0.821559 0.770743 0.652638
Si Si5 0.229802 0.556026 0.950639
Si Si6 0.207655 0.213957 0.016058
Si Si7 0.509212 0.596050 0.042985
Si Si8 0.075390 0.494672 0.641127
O O1 0.870574 0.306361 0.227926
O O2 0.985045 0.387263 0.390624
O O3 0.109632 0.270413 0.383268
O O4 0.916080 0.988667 0.580514
O O5 0.567063 0.108768 0.587638
O O6 0.777732 0.356545 0.413139
O O7 0.643830 0.994732 0.547301
O O8 0.796166 0.009117 0.767250
O O9 0.677744 0.810596 0.540868
O O10 0.518094 0.604096 0.747665
O O11 0.806552 0.578636 0.866627
O O12 0.220219 0.382856 0.986901
O O13 0.381860 0.687565 0.926691
O O14 0.343648 0.263396 0.984514
O O15 0.093679 0.266640 0.855733
O O16 0.500000 0.500000 0.000000
O O17 0.000000 0.500000 0.500000
#
# Coordination Sequence:
#
# PCOD9064369 Si02
#       8
#     2   2   2   2   2   2   2   2
#     4  10  20  31  51  68 103 138 161 194 249 296
#     4  11  19  30  51  76 103 130 157 209 253 290
#     4  10  18  27  50  78 109 121 154 206 254 303
#     4  10  18  32  46  77 105 128 158 194 249 313
#     4   9  17  27  44  73 105 126 153 194 246 306
#     4  10  18  30  48  73 101 130 164 201 252 297
#     4   9  14  25  42  74 103 127 148 195 258 306
#     4  11  23  37  50  71 100 135 177 207 237 286
#
# _framework density 17.787627000000001
#
# number of rings (size 3 to 8) (size 9 to 14) (size 15 to 20)
#    0.000    2.000    6.250    0.375    1.750    0.500 
#    0.000    0.000    0.000    0.750    0.000    0.875 
#    0.000    0.000    0.000    0.000    0.000    0.000 
#
# Total GULP energy -89153.745007 kJ/mol
# GULP energy per Si atom -5572.109063 kJ/mol
# Density = 1.774714 g / cm^3
# Si number density = 17.787627 Si / 1000 Ang^3
#
#
#
# Elastic Constant Matrix: (Units=GPa)
#
#
# Indices 1 2 3 4 5 6 
#
# 1 142.7514 21.0666 22.8788 6.8476 -0.9725 -8.8112
# 2 21.0666 17.7862 15.0057 4.3722 1.2847 -6.3293
# 3 22.8788 15.0057 70.1283 4.3040 8.9968 -8.6706
# 4 6.8476 4.3722 4.3040 19.9484 5.7146 -3.6933
# 5 -0.9725 1.2847 8.9968 5.7146 28.7441 -5.5519
# 6 -8.8112 -6.3293 -8.6706 -3.6933 -5.5519 8.3107
#
#
#
# Elastic Compliance Matrix: (Units=1/GPa)
#
#
# Indices 1 2 3 4 5 6 
#
# 1 0.008598 -0.008513 -0.000832 -0.000912 0.001579 0.002415
# 2 -0.008513 0.098196 -0.012160 -0.008815 0.011913 0.057112
# 3 -0.000832 -0.012160 0.018440 0.001461 -0.004207 0.006935
# 4 -0.000912 -0.008815 0.001461 0.057059 -0.008874 0.013273
# 5 0.001579 0.011913 -0.004207 -0.008874 0.043467 0.031451
# 6 0.002415 0.057112 0.006935 0.013273 0.031451 0.200526
#
#
# Mechanical properties :
#
#
# Convention : Reuss Voigt Hill
#
# Bulk Modulus (GPa) = 12.16182 38.72980 25.44581
# Shear Modulus (GPa) = 10.06637 22.84831 16.45734
#
# Velocity S-wave (km/s) = 2.38149 3.58789 3.04503
# Velocity P-wave (km/s) = 3.79658 6.24377 5.16714
#
# Compressibility (1/GPa) = 0.08222455
#
# Stress axis : x y z
#
# Youngs Moduli (GPa) = 116.30127 10.18376 54.22887
#
# Poissons Ratio (x) = 0.08670 0.04510
# Poissons Ratio (y) = 0.99010 0.65942
# Poissons Ratio (z) = 0.09672 0.12383
#
# Static dielectric constant tensor:
#      x y z
#    x 1.645620 0.017850 0.028630 
#    y 0.017850 1.499420 -0.037220 
#    z 0.028630 -0.037220 1.662940 
# 
# From -- ./inp_files/268342.got.cif
#   From: 2010.05.17/outbox.cif.g08.bks.cpg/sg2_135_cif.got.tgz:268342.got - 2010.06.03 11:33:40.
