data_PCOD9064971
_publ_section_title
;
Structure prediction by ZEFSAII (Michael W. Deem and Ramdas Pophale) SiO2 
 PCOD9064971
Probable space group: P -1
;
_chemical_formula_sum "Si O2"
_cell_formula_units_Z 14
_cell_length_a 8.802731
_cell_length_b 8.315709
_cell_length_c 9.193621
_cell_angle_alpha 78.186584
_cell_angle_beta 105.062486
_cell_angle_gamma 110.824416
_cell_volume 602.684187
_symmetry_space_group_name_H-M "P -1"
_symmetry_group_IT_number 2
_symmetry_cell_setting 'triclinic'
loop_
_space_group_symop_operation_xyz
x,y,z
-x,-y,-z
loop_
_atom_site_type_symbol
_atom_site_label
_atom_site_fract_x
_atom_site_fract_y
_atom_site_fract_z
Si Si1 0.372168 0.590374 0.013033
Si Si2 0.178945 0.799408 0.812351
Si Si3 0.606764 0.269078 0.686553
Si Si4 0.760940 0.885105 0.447861
Si Si5 0.837353 0.039628 0.756933
Si Si6 0.901803 0.580584 0.571206
Si Si7 0.926735 0.754684 0.006838
O O1 0.422562 0.672636 0.168900
O O2 0.192863 0.439895 0.001717
O O3 0.500000 0.500000 0.000000
O O4 0.339469 0.737923 0.876906
O O5 0.031430 0.660089 0.716375
O O6 0.097800 0.797935 0.950261
O O7 0.214483 0.977470 0.701394
O O8 0.435384 0.208551 0.568772
O O9 0.688753 0.116530 0.732919
O O10 0.741389 0.432341 0.616354
O O11 0.843847 0.737316 0.469702
O O12 0.831483 0.982228 0.598479
O O13 0.831360 0.875402 0.886492
O O14 0.007438 0.184378 0.826864
O O15 0.000000 0.500000 0.500000
#
# Coordination Sequence:
#
# PCOD9064971 Si02
#       7
#     2   2   2   2   2   2   2
#     4  12  28  49  75 110 151 195 254 309 377 438
#     4  12  25  49  77 108 148 196 256 305 365 448
#     4  12  26  48  76 107 157 196 245 308 379 437
#     4  12  28  47  75 115 154 193 245 311 376 440
#     4  11  24  46  78 107 146 197 248 304 367 442
#     4  12  27  48  78 111 149 197 253 301 372 448
#     4  11  24  48  82 102 148 197 254 308 367 438
#
# _framework density 23.229417000000002
#
# number of rings (size 3 to 8) (size 9 to 14) (size 15 to 20)
#    0.000    0.286    4.286    3.429    6.000    2.857 
#    2.571    0.000    0.000    0.000    0.000    0.000 
#    0.000    0.000    0.000    0.000    0.000    0.000 
#
# Total GULP energy -78472.953367 kJ/mol
# GULP energy per Si atom -5605.210955 kJ/mol
# Density = 2.317655 g / cm^3
# Si number density = 23.229417 Si / 1000 Ang^3
#
#
#
# Elastic Constant Matrix: (Units=GPa)
#
#
# Indices 1 2 3 4 5 6 
#
# 1 136.8514 52.9645 57.3573 -20.7741 7.7036 -38.7844
# 2 52.9645 97.1622 48.8486 -5.4368 4.8596 -27.0855
# 3 57.3573 48.8486 101.9307 -15.5729 13.2167 -16.9759
# 4 -20.7741 -5.4368 -15.5729 22.6830 -2.7379 13.0975
# 5 7.7036 4.8596 13.2167 -2.7379 33.0897 -1.3959
# 6 -38.7844 -27.0855 -16.9759 13.0975 -1.3959 58.6212
#
#
#
# Elastic Compliance Matrix: (Units=1/GPa)
#
#
# Indices 1 2 3 4 5 6 
#
# 1 0.012158 -0.003253 -0.003730 0.005299 -0.000244 0.004271
# 2 -0.003253 0.016119 -0.006070 -0.006050 0.000521 0.004902
# 3 -0.003730 -0.006070 0.016042 0.006956 -0.004168 -0.002280
# 4 0.005299 -0.006050 0.006956 0.058355 0.001271 -0.010283
# 5 -0.000244 0.000521 -0.004168 0.001271 0.031944 -0.000652
# 6 0.004271 0.004902 -0.002280 -0.010283 -0.000652 0.023771
#
#
# Mechanical properties :
#
#
# Convention : Reuss Voigt Hill
#
# Bulk Modulus (GPa) = 54.90501 72.69835 63.80168
# Shear Modulus (GPa) = 26.23779 34.66370 30.45075
#
# Velocity S-wave (km/s) = 3.36446 3.86713 3.62452
# Velocity P-wave (km/s) = 6.22737 7.16264 6.71131
#
# Compressibility (1/GPa) = 0.01821327
#
# Stress axis : x y z
#
# Youngs Moduli (GPa) = 82.25046 62.03972 62.33730
#
# Poissons Ratio (x) = 0.20181 0.23252
# Poissons Ratio (y) = 0.26755 0.37837
# Poissons Ratio (z) = 0.30679 0.37656
#
# Static dielectric constant tensor:
#      x y z
#    x 1.843820 -0.029530 0.027370 
#    y -0.029530 1.870880 0.000020 
#    z 0.027370 0.000020 1.782890 
# 
# From -- ./inp_files/158203.got.cif
#   From: 2010.05.17/outbox.cif.g08.bks.cpg/sg2_80_cif.got.tgz:158203.got - 2010.06.03 11:33:40.
