data_PCOD9064495
_publ_section_title
;
Structure prediction by ZEFSAII (Michael W. Deem and Ramdas Pophale) SiO2 
 PCOD9064495
Probable space group: P -1
;
_chemical_formula_sum "Si O2"
_cell_formula_units_Z 13
_cell_length_a 9.143896
_cell_length_b 9.539625
_cell_length_c 11.870832
_cell_angle_alpha 136.086307
_cell_angle_beta 57.761846
_cell_angle_gamma 93.633199
_cell_volume 508.521568
_symmetry_space_group_name_H-M "P -1"
_symmetry_group_IT_number 2
_symmetry_cell_setting 'triclinic'
loop_
_space_group_symop_operation_xyz
x,y,z
-x,-y,-z
loop_
_atom_site_type_symbol
_atom_site_label
_atom_site_fract_x
_atom_site_fract_y
_atom_site_fract_z
Si Si1 0.500000 0.500000 0.500000
Si Si2 0.955100 0.238906 0.221437
Si Si3 0.370010 0.161126 0.421454
Si Si4 0.178402 0.292028 0.968788
Si Si5 0.579990 0.506913 0.097079
Si Si6 0.179792 0.010746 0.598302
Si Si7 0.187241 0.020753 0.229702
O O1 0.711629 0.386292 0.426295
O O2 0.410155 0.370885 0.536860
O O3 0.098138 0.142900 0.217012
O O4 0.029453 0.367644 0.180466
O O5 0.000000 0.000000 0.000000
O O6 0.287419 0.141998 0.323660
O O7 0.595712 0.916414 0.199985
O O8 0.226681 0.151037 0.567864
O O9 0.222312 0.475896 0.996423
O O10 0.119272 0.162763 0.825775
O O11 0.397897 0.754682 0.369227
O O12 0.500000 0.500000 0.000000
O O13 0.646383 0.268110 0.002127
O O14 0.006930 0.954781 0.610711
#
# Coordination Sequence:
#
# PCOD9064495 Si02
#       7
#     1   2   2   2   2   2   2
#     4  12  28  50  76 104 156 210 242 312 386 454
#     4  12  27  50  72 106 155 197 259 301 376 449
#     4  11  24  46  75 111 151 193 254 311 370 446
#     4  11  24  50  72 111 154 202 247 308 372 459
#     4  11  24  45  79 113 148 197 246 308 387 433
#     4  11  24  46  76 111 155 196 252 311 368 447
#     4  12  26  47  77 115 148 196 251 325 361 447
#
# _framework density 25.564305000000001
#
# number of rings (size 3 to 8) (size 9 to 14) (size 15 to 20)
#    0.000    0.615    6.154    2.308    2.154    5.538 
#    0.000    0.000    0.000    0.000    0.000    0.000 
#    0.000    0.000    0.000    0.000    0.000    0.000 
#
# Total GULP energy -72611.664208 kJ/mol
# GULP energy per Si atom -5585.512631 kJ/mol
# Density = 2.550612 g / cm^3
# Si number density = 25.564305 Si / 1000 Ang^3
#
#
#
# Elastic Constant Matrix: (Units=GPa)
#
#
# Indices 1 2 3 4 5 6 
#
# 1 114.7648 7.7703 5.5422 -4.4950 -2.3264 -26.9165
# 2 7.7703 101.6656 27.2503 2.3164 9.5722 -12.8225
# 3 5.5422 27.2503 47.9867 3.3773 -9.1117 -7.6771
# 4 -4.4950 2.3164 3.3773 28.8108 -1.9240 -5.1231
# 5 -2.3264 9.5722 -9.1117 -1.9240 34.5270 -3.3767
# 6 -26.9165 -12.8225 -7.6771 -5.1231 -3.3767 63.4393
#
#
#
# Elastic Compliance Matrix: (Units=1/GPa)
#
#
# Indices 1 2 3 4 5 6 
#
# 1 0.009893 -0.000330 -0.000186 0.002455 0.001274 0.004374
# 2 -0.000330 0.012684 -0.008018 -0.000301 -0.005561 0.001133
# 3 -0.000186 -0.008018 0.027680 -0.001625 0.009623 0.002031
# 4 0.002455 -0.000301 -0.001625 0.036133 0.002207 0.003819
# 5 0.001274 -0.005561 0.009623 0.002207 0.033502 0.002542
# 6 0.004374 0.001133 0.002031 0.003819 0.002542 0.018538
#
#
# Mechanical properties :
#
#
# Convention : Reuss Voigt Hill
#
# Bulk Modulus (GPa) = 30.13143 38.39361 34.26252
# Shear Modulus (GPa) = 30.01901 40.27904 35.14903
#
# Velocity S-wave (km/s) = 3.43046 3.97369 3.71202
# Velocity P-wave (km/s) = 5.24431 6.00871 5.63948
#
# Compressibility (1/GPa) = 0.03318794
#
# Stress axis : x y z
#
# Youngs Moduli (GPa) = 101.08504 78.84021 36.12659
#
# Poissons Ratio (x) = 0.02605 0.00672
# Poissons Ratio (y) = 0.03340 0.28967
# Poissons Ratio (z) = 0.01881 0.63215
#
# Static dielectric constant tensor:
#      x y z
#    x 1.959650 -0.041370 -0.013840 
#    y -0.041370 2.042320 0.056120 
#    z -0.013840 0.056120 2.068250 
# 
# From -- ./inp_files/380515.got.cif
#   From: 2010.05.17/outbox.cif.g08.bks.cpg/sg2_191_cif.got.tgz:380515.got - 2010.06.03 11:33:40.
