data_PCOD9064515
_publ_section_title
;
Structure prediction by ZEFSAII (Michael W. Deem and Ramdas Pophale) SiO2 
 PCOD9064515
Probable space group: P -1
;
_chemical_formula_sum "Si O2"
_cell_formula_units_Z 16
_cell_length_a 11.571970
_cell_length_b 16.722685
_cell_length_c 8.852966
_cell_angle_alpha 146.890283
_cell_angle_beta 52.168784
_cell_angle_gamma 127.068188
_cell_volume 723.220275
_symmetry_space_group_name_H-M "P -1"
_symmetry_group_IT_number 2
_symmetry_cell_setting 'triclinic'
loop_
_space_group_symop_operation_xyz
x,y,z
-x,-y,-z
loop_
_atom_site_type_symbol
_atom_site_label
_atom_site_fract_x
_atom_site_fract_y
_atom_site_fract_z
Si Si1 0.051126 0.650771 0.787055
Si Si2 0.399215 0.129498 0.399153
Si Si3 0.088832 0.899617 0.670906
Si Si4 0.411529 0.852136 0.425172
Si Si5 0.644278 0.221079 0.133430
Si Si6 0.611356 0.416744 0.188283
Si Si7 0.917570 0.620622 0.184990
Si Si8 0.899614 0.899054 0.293954
O O1 0.228290 0.685770 0.717132
O O2 0.000000 0.500000 0.500000
O O3 0.979738 0.647464 0.007330
O O4 0.995808 0.788236 0.971627
O O5 0.524119 0.141409 0.447391
O O6 0.478977 0.206760 0.309186
O O7 0.254462 0.191402 0.656073
O O8 0.338376 0.950905 0.146855
O O9 0.233150 0.850663 0.553457
O O10 0.969545 0.765091 0.477591
O O11 0.150316 0.001214 0.638332
O O12 0.000000 0.000000 0.000000
O O13 0.500000 0.000000 0.500000
O O14 0.448334 0.702358 0.083466
O O15 0.664482 0.304199 0.089137
O O16 0.500000 0.500000 0.500000
O O17 0.744580 0.543088 0.216386
O O18 0.000000 0.500000 0.000000
O O19 0.000000 0.000000 0.500000
#
# Coordination Sequence:
#
# PCOD9064515 Si02
#       8
#     2   2   2   2   2   2   2   2
#     4  12  28  46  72 103 142 188 239 297 362 425
#     4  11  25  43  75 101 142 184 235 298 352 412
#     4  12  28  44  78 112 139 191 251 295 359 434
#     4  12  24  48  71 103 147 186 239 300 351 423
#     4  11  24  46  67 104 140 184 234 289 360 419
#     4  12  28  45  73 104 149 192 236 290 367 435
#     4  12  25  49  71  99 150 190 233 300 363 421
#     4  12  24  47  71 103 141 185 244 294 348 426
#
# _framework density 22.123273999999999
#
# number of rings (size 3 to 8) (size 9 to 14) (size 15 to 20)
#    0.000    0.250    7.500    0.000    8.750    1.000 
#    0.000    1.250    0.000    0.000    0.000    0.000 
#    0.000    0.000    0.000    0.000    0.000    0.000 
#
# Total GULP energy -89459.835242 kJ/mol
# GULP energy per Si atom -5591.239703 kJ/mol
# Density = 2.207292 g / cm^3
# Si number density = 22.123274 Si / 1000 Ang^3
#
#
#
# Elastic Constant Matrix: (Units=GPa)
#
#
# Indices 1 2 3 4 5 6 
#
# 1 66.3034 1.6814 15.5355 6.0958 11.1442 4.1609
# 2 1.6814 98.9648 17.5530 -3.0146 7.9852 17.0738
# 3 15.5355 17.5530 138.0431 16.3612 20.2040 21.3424
# 4 6.0958 -3.0146 16.3612 38.9679 10.9492 -1.5385
# 5 11.1442 7.9852 20.2040 10.9492 37.6676 6.4434
# 6 4.1609 17.0738 21.3424 -1.5385 6.4434 33.8459
#
#
#
# Elastic Compliance Matrix: (Units=1/GPa)
#
#
# Indices 1 2 3 4 5 6 
#
# 1 0.016108 0.000330 -0.001050 -0.001005 -0.003844 -0.000799
# 2 0.000330 0.011238 -0.000615 0.001359 -0.001701 -0.004936
# 3 -0.001050 -0.000615 0.008939 -0.003089 -0.002628 -0.004838
# 4 -0.001005 0.001359 -0.003089 0.029531 -0.007633 0.004181
# 5 -0.003844 -0.001701 -0.002628 -0.007633 0.032274 -0.003503
# 6 -0.000799 -0.004936 -0.004838 0.004181 -0.003503 0.036042
#
#
# Mechanical properties :
#
#
# Convention : Reuss Voigt Hill
#
# Bulk Modulus (GPa) = 29.74753 41.42789 35.58771
# Shear Modulus (GPa) = 33.78203 39.99902 36.89052
#
# Velocity S-wave (km/s) = 3.91191 4.25668 4.08793
# Velocity P-wave (km/s) = 5.82061 6.55177 6.19698
#
# Compressibility (1/GPa) = 0.03361623
#
# Stress axis : x y z
#
# Youngs Moduli (GPa) = 62.07953 88.98080 111.86711
#
# Poissons Ratio (x) = -0.02935 0.11741
# Poissons Ratio (y) = -0.02048 0.06881
# Poissons Ratio (z) = 0.06516 0.05473
#
# Static dielectric constant tensor:
#      x y z
#    x 1.971630 0.132280 -0.075120 
#    y 0.132280 1.942480 -0.046780 
#    z -0.075120 -0.046780 1.824290 
# 
# From -- ./inp_files/280221.got.cif
#   From: 2010.05.17/outbox.cif.g08.bks.cpg/sg2_141_cif.got.tgz:280221.got - 2010.06.03 11:33:40.
