data_PCOD9064393
_publ_section_title
;
Structure prediction by ZEFSAII (Michael W. Deem and Ramdas Pophale) SiO2 
 PCOD9064393
Probable space group: P -1
;
_chemical_formula_sum "Si O2"
_cell_formula_units_Z 14
_cell_length_a 11.602081
_cell_length_b 9.733751
_cell_length_c 9.235280
_cell_angle_alpha 114.250611
_cell_angle_beta 60.156649
_cell_angle_gamma 69.278041
_cell_volume 584.267261
_symmetry_space_group_name_H-M "P -1"
_symmetry_group_IT_number 2
_symmetry_cell_setting 'triclinic'
loop_
_space_group_symop_operation_xyz
x,y,z
-x,-y,-z
loop_
_atom_site_type_symbol
_atom_site_label
_atom_site_fract_x
_atom_site_fract_y
_atom_site_fract_z
Si Si1 0.576485 0.277788 0.816046
Si Si2 0.528131 0.153014 0.069193
Si Si3 0.704605 0.663033 0.183103
Si Si4 0.969019 0.045991 0.367930
Si Si5 0.348779 0.955916 0.731381
Si Si6 0.040437 0.744952 0.982333
Si Si7 0.098084 0.574210 0.543428
O O1 0.399478 0.334987 0.882325
O O2 0.751980 0.158408 0.549426
O O3 0.500000 0.500000 0.000000
O O4 0.634914 0.139671 0.862259
O O5 0.319907 0.386791 0.298258
O O6 0.622616 0.088677 0.137145
O O7 0.500000 0.000000 0.000000
O O8 0.709360 0.832012 0.203001
O O9 0.895889 0.435294 0.020075
O O10 0.550046 0.765141 0.451091
O O11 0.973949 0.217524 0.399094
O O12 0.000000 0.000000 0.500000
O O13 0.100831 0.840623 0.089296
O O14 0.159751 0.023942 0.837969
O O15 0.086037 0.624976 0.746481
O O16 0.000000 0.500000 0.500000
#
# Coordination Sequence:
#
# PCOD9064393 Si02
#       7
#     2   2   2   2   2   2   2
#     4  12  25  48  74 105 153 202 252 314 380 453
#     4  12  25  47  75 111 152 200 258 317 382 457
#     4  11  24  46  73 109 152 201 251 314 379 456
#     4  12  29  50  77 115 158 205 259 321 390 460
#     4  11  24  45  74 110 153 198 252 312 383 453
#     4  12  26  49  78 116 156 198 261 320 388 461
#     4  12  29  51  77 114 158 206 257 321 392 461
#
# _framework density 23.961637
#
# number of rings (size 3 to 8) (size 9 to 14) (size 15 to 20)
#    0.000    0.286    5.714    2.571    4.000    1.143 
#    2.571    2.143    0.000    0.000    0.000    0.000 
#    0.000    0.000    0.000    0.000    0.000    0.000 
#
# Total GULP energy -78018.212519 kJ/mol
# GULP energy per Si atom -5572.729466 kJ/mol
# Density = 2.390710 g / cm^3
# Si number density = 23.961637 Si / 1000 Ang^3
#
#
#
# Elastic Constant Matrix: (Units=GPa)
#
#
# Indices 1 2 3 4 5 6 
#
# 1 8.7519 -21.1790 26.3643 -16.3611 18.8848 -74.4162
# 2 -21.1790 93.2104 22.6644 -13.5488 20.5519 -56.5755
# 3 26.3643 22.6644 103.1569 -9.9357 21.2612 1.7823
# 4 -16.3611 -13.5488 -9.9357 38.9604 -6.1397 -4.0800
# 5 18.8848 20.5519 21.2612 -6.1397 48.4631 1.0325
# 6 -74.4162 -56.5755 1.7823 -4.0800 1.0325 20.0759
#
#
#
# Elastic Compliance Matrix: (Units=1/GPa)
#
#
# Indices 1 2 3 4 5 6 
#
# 1 0.002301 -0.006492 0.000493 -0.001991 0.001607 -0.010299
# 2 -0.006492 0.007528 0.000160 -0.000490 -0.000732 -0.002928
# 3 0.000493 0.000160 0.010701 0.002470 -0.004686 0.002071
# 4 -0.001991 -0.000490 0.002470 0.025377 0.003200 -0.003987
# 5 0.001607 -0.000732 -0.004686 0.003200 0.022699 0.003794
# 6 -0.010299 -0.002928 0.002071 -0.003987 0.003794 0.002195
#
#
# Mechanical properties :
#
#
# Convention : Reuss Voigt Hill
#
# Bulk Modulus (GPa) = 112.98987 28.97986 70.98486
# Shear Modulus (GPa) = 58.52820 33.31785 45.92302
#
# Velocity S-wave (km/s) = 4.94761 3.73294 4.38256
# Velocity P-wave (km/s) = 8.93842 5.54079 7.43625
#
# Compressibility (1/GPa) = 0.00885035
#
# Stress axis : x y z
#
# Youngs Moduli (GPa) = 434.67037 132.84153 93.45207
#
# Poissons Ratio (x) = 0.86245 -0.04610
# Poissons Ratio (y) = 2.82201 -0.01492
# Poissons Ratio (z) = -0.21442 -0.02121
#
# Static dielectric constant tensor:
#      x y z
#    x 2.023960 0.011290 0.008360 
#    y 0.011290 1.693050 0.160270 
#    z 0.008360 0.160270 1.771730 
# 
# From -- ./inp_files/244869.got.cif
#   From: 2010.05.17/outbox.cif.g08.bks.cpg/sg2_123_cif.got.tgz:244869.got - 2010.06.03 11:33:40.
