data_PCOD9064546
_publ_section_title
;
Structure prediction by ZEFSAII (Michael W. Deem and Ramdas Pophale) SiO2 
 PCOD9064546
Probable space group: P -1
;
_chemical_formula_sum "Si O2"
_cell_formula_units_Z 16
_cell_length_a 9.127692
_cell_length_b 21.558851
_cell_length_c 12.338943
_cell_angle_alpha 160.758938
_cell_angle_beta 66.051173
_cell_angle_gamma 109.958489
_cell_volume 724.159531
_symmetry_space_group_name_H-M "P -1"
_symmetry_group_IT_number 2
_symmetry_cell_setting 'triclinic'
loop_
_space_group_symop_operation_xyz
x,y,z
-x,-y,-z
loop_
_atom_site_type_symbol
_atom_site_label
_atom_site_fract_x
_atom_site_fract_y
_atom_site_fract_z
Si Si1 0.275982 0.205026 0.309894
Si Si2 0.148742 0.482940 0.346490
Si Si3 0.821808 0.952034 0.464013
Si Si4 0.925844 0.428383 0.726665
Si Si5 0.334272 0.821982 0.534540
Si Si6 0.525276 0.451419 0.540656
Si Si7 0.697618 0.798295 0.448472
Si Si8 0.382062 0.852485 0.326764
O O1 0.419997 0.291853 0.348201
O O2 0.311607 0.173016 0.373458
O O3 0.106030 0.342722 0.568011
O O4 0.272737 0.998950 0.920775
O O5 0.097205 0.589476 0.425206
O O6 0.289466 0.572299 0.514615
O O7 0.000000 0.500000 0.500000
O O8 0.191954 0.258071 0.929163
O O9 0.726919 0.960898 0.621532
O O10 0.751290 0.111645 0.664726
O O11 0.000000 0.000000 0.500000
O O12 0.790118 0.326201 0.657826
O O13 0.860295 0.647836 0.133574
O O14 0.522339 0.742770 0.374100
O O15 0.326595 0.893780 0.532622
O O16 0.500000 0.500000 0.500000
O O17 0.457386 0.636305 0.936649
O O18 0.500000 0.000000 0.500000
#
# Coordination Sequence:
#
# PCOD9064546 Si02
#       8
#     2   2   2   2   2   2   2   2
#     4  12  27  43  70 106 138 177 232 288 343 407
#     4  11  25  45  69  99 141 179 224 283 340 409
#     4  11  27  42  71 102 136 180 226 281 341 407
#     4  11  25  45  68 100 135 185 230 280 351 402
#     4  12  25  45  72  98 139 183 229 285 344 410
#     4  12  26  44  71 102 138 182 228 282 342 409
#     4  11  24  46  68  98 138 181 231 279 344 413
#     4  12  23  46  70  98 135 181 231 276 343 409
#
# _framework density 22.094579
#
# number of rings (size 3 to 8) (size 9 to 14) (size 15 to 20)
#    0.000    0.500    2.500    5.250    8.750    1.000 
#    0.000    0.000    0.000    0.000    0.000    0.000 
#    0.000    0.000    0.000    0.000    0.000    0.000 
#
# Total GULP energy -89452.855839 kJ/mol
# GULP energy per Si atom -5590.803490 kJ/mol
# Density = 2.204429 g / cm^3
# Si number density = 22.094579 Si / 1000 Ang^3
#
#
#
# Elastic Constant Matrix: (Units=GPa)
#
#
# Indices 1 2 3 4 5 6 
#
# 1 140.7930 45.8852 -14.5196 -1.2337 -5.6618 3.6360
# 2 45.8852 168.9107 -15.7718 -25.9220 11.0074 -21.6482
# 3 -14.5196 -15.7718 27.3459 -3.7787 -3.8679 -2.3171
# 4 -1.2337 -25.9220 -3.7787 24.8489 1.1710 3.7414
# 5 -5.6618 11.0074 -3.8679 1.1710 29.9876 -0.9834
# 6 3.6360 -21.6482 -2.3171 3.7414 -0.9834 36.9715
#
#
#
# Elastic Compliance Matrix: (Units=1/GPa)
#
#
# Indices 1 2 3 4 5 6 
#
# 1 0.008458 -0.002765 0.002892 -0.001865 0.002992 -0.002001
# 2 -0.002765 0.009619 0.005405 0.010116 -0.003583 0.005124
# 3 0.002892 0.005405 0.043758 0.011566 0.003904 0.004556
# 4 -0.001865 0.010116 0.011566 0.052467 -0.004576 0.001400
# 5 0.002992 -0.003583 0.003904 -0.004576 0.035885 -0.000730
# 6 -0.002001 0.005124 0.004556 0.001400 -0.000730 0.030369
#
#
# Mechanical properties :
#
#
# Convention : Reuss Voigt Hill
#
# Bulk Modulus (GPa) = 13.71805 40.91526 27.31666
# Shear Modulus (GPa) = 25.80084 39.79197 32.79641
#
# Velocity S-wave (km/s) = 3.42094 4.24840 3.85692
# Velocity P-wave (km/s) = 4.67183 6.52868 5.67669
#
# Compressibility (1/GPa) = 0.07289664
#
# Stress axis : x y z
#
# Youngs Moduli (GPa) = 118.23531 103.96373 22.85322
#
# Poissons Ratio (x) = 0.28748 -0.06609
# Poissons Ratio (y) = 0.32694 -0.12351
# Poissons Ratio (z) = -0.34192 -0.56189
#
# Static dielectric constant tensor:
#      x y z
#    x 1.759630 0.017450 0.031130 
#    y 0.017450 1.854520 0.034470 
#    z 0.031130 0.034470 1.831860 
# 
# From -- ./inp_files/244916.got.cif
#   From: 2010.05.17/outbox.cif.g08.bks.cpg/sg2_123_cif.got.tgz:244916.got - 2010.06.03 11:33:40.
