data_PCOD9064232
_publ_section_title
;
Structure prediction by ZEFSAII (Michael W. Deem and Ramdas Pophale) SiO2 
 PCOD9064232
Probable space group: P -1
;
_chemical_formula_sum "Si O2"
_cell_formula_units_Z 14
_cell_length_a 15.035327
_cell_length_b 23.905628
_cell_length_c 29.652206
_cell_angle_alpha 9.879120
_cell_angle_beta 159.764521
_cell_angle_gamma 160.299176
_cell_volume 605.638709
_symmetry_space_group_name_H-M "P -1"
_symmetry_group_IT_number 2
_symmetry_cell_setting 'triclinic'
loop_
_space_group_symop_operation_xyz
x,y,z
-x,-y,-z
loop_
_atom_site_type_symbol
_atom_site_label
_atom_site_fract_x
_atom_site_fract_y
_atom_site_fract_z
Si Si1 0.539096 0.165441 0.453594
Si Si2 0.076348 0.261656 0.761990
Si Si3 0.822283 0.628788 0.011540
Si Si4 0.522981 0.944217 0.244622
Si Si5 0.512453 0.723859 0.942184
Si Si6 0.270056 0.158026 0.747944
Si Si7 0.949595 0.864027 0.439771
O O1 0.786182 0.468259 0.349038
O O2 0.518526 0.333279 0.261910
O O3 0.246843 0.122181 0.370626
O O4 0.604791 0.816961 0.773473
O O5 0.000000 0.500000 0.500000
O O6 0.807736 0.971185 0.877511
O O7 0.314015 0.093136 0.999160
O O8 0.684827 0.308799 0.167894
O O9 0.993912 0.496842 0.235024
O O10 0.013416 0.926581 0.835586
O O11 0.365105 0.554695 0.490437
O O12 0.775948 0.949521 0.329808
O O13 0.587797 0.143590 0.164665
O O14 0.205772 0.143360 0.675523
O O15 0.500000 0.000000 0.000000
#
# Coordination Sequence:
#
# PCOD9064232 Si02
#       7
#     2   2   2   2   2   2   2
#     4  11  24  45  72 107 147 192 245 301 356 440
#     4  11  25  44  72 108 145 193 245 302 368 428
#     4  12  25  46  76 104 149 194 246 303 358 433
#     4  11  26  46  73 102 153 187 250 302 355 447
#     4  11  24  47  72 105 144 198 242 301 371 421
#     4  12  26  49  73 106 146 193 242 305 367 430
#     4  12  27  45  73 113 142 193 252 292 374 428
#
# _framework density 23.116092999999999
#
# number of rings (size 3 to 8) (size 9 to 14) (size 15 to 20)
#    0.000    0.571    2.857    5.571    4.000    4.000 
#    0.000    0.000    0.000    0.000    0.000    0.000 
#    0.000    0.000    0.000    0.000    0.000    0.000 
#
# Total GULP energy -78245.740828 kJ/mol
# GULP energy per Si atom -5588.981488 kJ/mol
# Density = 2.306348 g / cm^3
# Si number density = 23.116093 Si / 1000 Ang^3
#
#
#
# Elastic Constant Matrix: (Units=GPa)
#
#
# Indices 1 2 3 4 5 6 
#
# 1 85.2669 54.3271 52.8480 8.0780 -7.9518 10.0652
# 2 54.3271 120.1691 54.0470 2.3230 0.3768 9.2482
# 3 52.8480 54.0470 162.6725 14.1493 -16.0062 4.0084
# 4 8.0780 2.3230 14.1493 51.2896 0.5089 -6.5721
# 5 -7.9518 0.3768 -16.0062 0.5089 42.4683 6.6105
# 6 10.0652 9.2482 4.0084 -6.5721 6.6105 40.7119
#
#
#
# Elastic Compliance Matrix: (Units=1/GPa)
#
#
# Indices 1 2 3 4 5 6 
#
# 1 0.019061 -0.006789 -0.003357 -0.002271 0.002965 -0.003688
# 2 -0.006789 0.012402 -0.002213 0.001089 -0.002167 -0.000393
# 3 -0.003357 -0.002213 0.008385 -0.001735 0.002603 -0.000196
# 4 -0.002271 0.001089 -0.001735 0.020838 -0.001988 0.004171
# 5 0.002965 -0.002167 0.002603 -0.001988 0.025908 -0.005025
# 6 -0.003688 -0.000393 -0.000196 0.004171 -0.005025 0.027072
#
#
# Mechanical properties :
#
#
# Convention : Reuss Voigt Hill
#
# Bulk Modulus (GPa) = 66.09322 76.72806 71.41064
# Shear Modulus (GPa) = 34.86052 40.68639 37.77345
#
# Velocity S-wave (km/s) = 3.88759 4.19989 4.04676
# Velocity P-wave (km/s) = 6.98606 7.53547 7.26596
#
# Compressibility (1/GPa) = 0.01513015
#
# Stress axis : x y z
#
# Youngs Moduli (GPa) = 52.46347 80.62988 119.26095
#
# Poissons Ratio (x) = 0.54741 0.40031
# Poissons Ratio (y) = 0.35618 0.26396
# Poissons Ratio (z) = 0.17610 0.17846
#
# Static dielectric constant tensor:
#      x y z
#    x 2.341020 -0.566170 -0.279250 
#    y -0.566170 2.641080 0.406430 
#    z -0.279250 0.406430 2.097860 
# 
# From -- ./inp_files/623701.got.cif
#   From: 2010.05.17/outbox.cif.g08.bks.cpg/sg2_312_cif.got.tgz:623701.got - 2010.06.03 11:33:40.
