data_PCOD9064307
_publ_section_title
;
Structure prediction by ZEFSAII (Michael W. Deem and Ramdas Pophale) SiO2 
 PCOD9064307
Probable space group: P -1
;
_chemical_formula_sum "Si O2"
_cell_formula_units_Z 16
_cell_length_a 13.029169
_cell_length_b 16.369275
_cell_length_c 8.813814
_cell_angle_alpha 51.757943
_cell_angle_beta 148.801519
_cell_angle_gamma 131.717091
_cell_volume 720.792222
_symmetry_space_group_name_H-M "P -1"
_symmetry_group_IT_number 2
_symmetry_cell_setting 'triclinic'
loop_
_space_group_symop_operation_xyz
x,y,z
-x,-y,-z
loop_
_atom_site_type_symbol
_atom_site_label
_atom_site_fract_x
_atom_site_fract_y
_atom_site_fract_z
Si Si1 0.970696 0.506702 0.132263
Si Si2 0.721078 0.030405 0.844265
Si Si3 0.177693 0.161213 0.150862
Si Si4 0.384969 0.716857 0.036080
Si Si5 0.322376 0.370777 0.288222
Si Si6 0.552081 0.106430 0.839874
Si Si7 0.320052 0.204872 0.937513
Si Si8 0.367496 0.458969 0.728742
O O1 0.189990 0.513948 0.468327
O O2 0.807906 0.391472 0.109928
O O3 0.873925 0.600238 0.933909
O O4 0.000000 0.500000 0.000000
O O5 0.683351 0.097012 0.867330
O O6 0.500000 0.000000 0.500000
O O7 0.929235 0.097738 0.933448
O O8 0.773490 0.922189 0.097964
O O9 0.237667 0.284820 0.145717
O O10 0.327520 0.111479 0.494121
O O11 0.267665 0.172107 0.083112
O O12 0.572473 0.683150 0.389936
O O13 0.339234 0.793406 0.021213
O O14 0.460376 0.766279 0.909325
O O15 0.497290 0.479191 0.316415
O O16 0.500000 0.000000 0.000000
O O17 0.284921 0.325771 0.749512
O O18 0.500000 0.500000 0.000000
#
# Coordination Sequence:
#
# PCOD9064307 Si02
#       8
#     2   2   2   2   2   2   2   2
#     4  12  25  42  75 101 143 198 234 293 371 424
#     4  12  27  48  75 102 143 188 240 296 358 434
#     4  11  27  46  74 103 145 190 232 304 359 425
#     4  11  24  45  73 108 146 186 242 304 351 439
#     4  11  24  48  69 104 147 184 245 294 362 425
#     4  11  25  48  71 105 140 184 240 296 357 428
#     4  12  24  46  72 106 145 186 240 297 356 426
#     4  12  26  46  70 107 149 185 241 305 350 438
#
# _framework density 22.197797999999999
#
# number of rings (size 3 to 8) (size 9 to 14) (size 15 to 20)
#    0.000    0.500    6.250    1.500    1.750    4.000 
#    0.000    0.000    0.000    0.000    0.000    0.000 
#    0.000    0.000    0.000    0.000    0.000    0.000 
#
# Total GULP energy -89193.482066 kJ/mol
# GULP energy per Si atom -5574.592629 kJ/mol
# Density = 2.214727 g / cm^3
# Si number density = 22.197798 Si / 1000 Ang^3
#
#
#
# Elastic Constant Matrix: (Units=GPa)
#
#
# Indices 1 2 3 4 5 6 
#
# 1 148.7593 19.1340 20.6767 -0.7361 15.4810 -2.9668
# 2 19.1340 63.4407 6.5594 -19.6776 10.3716 5.9141
# 3 20.6767 6.5594 74.8568 -4.2700 17.5036 -2.4699
# 4 -0.7361 -19.6776 -4.2700 31.1625 -5.8810 9.7763
# 5 15.4810 10.3716 17.5036 -5.8810 20.4371 -12.1819
# 6 -2.9668 5.9141 -2.4699 9.7763 -12.1819 50.4387
#
#
#
# Elastic Compliance Matrix: (Units=1/GPa)
#
#
# Indices 1 2 3 4 5 6 
#
# 1 0.007584 -0.002117 -0.000993 -0.002127 -0.004441 -0.000015
# 2 -0.002117 0.024135 0.002215 0.015830 -0.013447 -0.009162
# 3 -0.000993 0.002215 0.017415 0.001766 -0.017131 -0.003945
# 4 -0.002127 0.015830 0.001766 0.045475 -0.001439 -0.011057
# 5 -0.004441 -0.013447 -0.017131 -0.001439 0.086243 0.021585
# 6 -0.000015 -0.009162 -0.003945 -0.011057 0.021585 0.028063
#
#
# Mechanical properties :
#
#
# Convention : Reuss Voigt Hill
#
# Bulk Modulus (GPa) = 21.12184 42.19967 31.66075
# Shear Modulus (GPa) = 22.07651 36.45344 29.26498
#
# Velocity S-wave (km/s) = 3.15705 4.05681 3.63488
# Velocity P-wave (km/s) = 4.77757 6.40279 5.64893
#
# Compressibility (1/GPa) = 0.04734435
#
# Stress axis : x y z
#
# Youngs Moduli (GPa) = 131.85820 41.43380 57.42102
#
# Poissons Ratio (x) = 0.08772 0.05700
# Poissons Ratio (y) = 0.27916 -0.12719
# Poissons Ratio (z) = 0.13089 -0.09178
#
# Static dielectric constant tensor:
#      x y z
#    x 1.810630 -0.052410 0.043250 
#    y -0.052410 1.913620 -0.102060 
#    z 0.043250 -0.102060 1.920770 
# 
# From -- ./inp_files/279169.got.cif
#   From: 2010.05.17/outbox.cif.g08.bks.cpg/sg2_140_cif.got.tgz:279169.got - 2010.06.03 11:33:40.
