data_PCOD9064279
_publ_section_title
;
Structure prediction by ZEFSAII (Michael W. Deem and Ramdas Pophale) SiO2 
 PCOD9064279
Probable space group: P -1
;
_chemical_formula_sum "Si O2"
_cell_formula_units_Z 16
_cell_length_a 27.299587
_cell_length_b 12.774963
_cell_length_c 6.537311
_cell_angle_alpha 120.493855
_cell_angle_beta 50.341913
_cell_angle_gamma 155.060021
_cell_volume 722.074471
_symmetry_space_group_name_H-M "P -1"
_symmetry_group_IT_number 2
_symmetry_cell_setting 'triclinic'
loop_
_space_group_symop_operation_xyz
x,y,z
-x,-y,-z
loop_
_atom_site_type_symbol
_atom_site_label
_atom_site_fract_x
_atom_site_fract_y
_atom_site_fract_z
Si Si1 0.284047 0.515402 0.610901
Si Si2 0.613380 0.264170 0.848587
Si Si3 0.160293 0.478068 0.228382
Si Si4 0.432281 0.596649 0.622427
Si Si5 0.232481 0.088329 0.837226
Si Si6 0.370053 0.209735 0.969565
Si Si7 0.919268 0.976497 0.602022
Si Si8 0.153704 0.747695 0.415068
O O1 0.380942 0.741125 0.413651
O O2 0.358558 0.560003 0.622905
O O3 0.199219 0.282252 0.465972
O O4 0.193506 0.460474 0.915772
O O5 0.747589 0.433649 0.758322
O O6 0.577454 0.342564 0.082766
O O7 0.500000 0.000000 0.000000
O O8 0.184230 0.660444 0.312139
O O9 0.010530 0.206573 0.434061
O O10 0.350979 0.337744 0.627418
O O11 0.570803 0.793531 0.345379
O O12 0.288208 0.158549 0.984696
O O13 0.170131 0.865747 0.680301
O O14 0.127974 0.020974 0.080759
O O15 0.500000 0.500000 0.000000
O O16 0.266152 0.980261 0.182219
O O17 0.000000 0.000000 0.500000
O O18 0.000000 0.500000 0.500000
#
# Coordination Sequence:
#
# PCOD9064279 Si02
#       8
#     2   2   2   2   2   2   2   2
#     4  11  24  45  73 104 140 180 238 303 361 433
#     4  11  26  43  71 105 145 181 234 306 369 429
#     4  11  27  44  69 106 141 190 236 291 370 429
#     4  11  25  44  74 107 138 187 242 304 363 431
#     4  12  27  48  75 107 150 188 251 305 359 439
#     4  12  27  47  78 107 142 196 248 300 368 445
#     4  12  23  46  76 102 137 186 240 300 362 430
#     4  12  31  48  70 109 153 200 244 301 370 440
#
# _framework density 22.158380000000001
#
# number of rings (size 3 to 8) (size 9 to 14) (size 15 to 20)
#    0.000    0.500    3.750    3.000    8.750    3.000 
#    0.000    0.000    0.000    0.000    0.000    0.000 
#    0.000    0.000    0.000    0.000    0.000    0.000 
#
# Total GULP energy -89501.431925 kJ/mol
# GULP energy per Si atom -5593.839495 kJ/mol
# Density = 2.210795 g / cm^3
# Si number density = 22.158380 Si / 1000 Ang^3
#
#
#
# Elastic Constant Matrix: (Units=GPa)
#
#
# Indices 1 2 3 4 5 6 
#
# 1 58.5980 18.2662 18.4928 2.8228 -3.3340 -13.5070
# 2 18.2662 109.9814 34.1571 -7.0331 5.2669 -16.2565
# 3 18.4928 34.1571 117.3490 -4.3943 -3.2026 -9.1858
# 4 2.8228 -7.0331 -4.3943 44.1746 -11.0522 2.3579
# 5 -3.3340 5.2669 -3.2026 -11.0522 43.0473 -3.3390
# 6 -13.5070 -16.2565 -9.1858 2.3579 -3.3390 34.1480
#
#
#
# Elastic Compliance Matrix: (Units=1/GPa)
#
#
# Indices 1 2 3 4 5 6 
#
# 1 0.020051 -0.001869 -0.002104 -0.001722 0.001707 0.006761
# 2 -0.001869 0.010852 -0.002574 0.001127 -0.001099 0.003549
# 3 -0.002104 -0.002574 0.009717 0.000951 0.001166 0.000605
# 4 -0.001722 0.001127 0.000951 0.024584 0.006034 -0.000996
# 5 0.001707 -0.001099 0.001166 0.006034 0.025329 0.002526
# 6 0.006761 0.003549 0.000605 -0.000996 0.002526 0.034126
#
#
# Mechanical properties :
#
#
# Convention : Reuss Voigt Hill
#
# Bulk Modulus (GPa) = 36.33138 47.52896 41.93017
# Shear Modulus (GPa) = 34.03006 38.60813 36.31909
#
# Velocity S-wave (km/s) = 3.92313 4.17870 4.05293
# Velocity P-wave (km/s) = 6.07891 6.69166 6.39263
#
# Compressibility (1/GPa) = 0.02752442
#
# Stress axis : x y z
#
# Youngs Moduli (GPa) = 49.87366 92.15247 102.91038
#
# Poissons Ratio (x) = 0.17224 0.21656
# Poissons Ratio (y) = 0.09322 0.26490
# Poissons Ratio (z) = 0.10495 0.23721
#
# Static dielectric constant tensor:
#      x y z
#    x 2.037100 0.090990 0.112810 
#    y 0.090990 1.910080 0.049650 
#    z 0.112810 0.049650 1.931710 
# 
# From -- ./inp_files/126907.got.cif
#   From: 2010.05.17/outbox.cif.g08.bks.cpg/sg2_64_cif.got.tgz:126907.got - 2010.06.03 11:33:40.
