data_PCOD9064849
_publ_section_title
;
Structure prediction by ZEFSAII (Michael W. Deem and Ramdas Pophale) SiO2 
 PCOD9064849
Probable space group: P -1
;
_chemical_formula_sum "Si O2"
_cell_formula_units_Z 16
_cell_length_a 8.231140
_cell_length_b 12.553327
_cell_length_c 8.946138
_cell_angle_alpha 129.202957
_cell_angle_beta 93.866985
_cell_angle_gamma 85.103907
_cell_volume 713.596663
_symmetry_space_group_name_H-M "P -1"
_symmetry_group_IT_number 2
_symmetry_cell_setting 'triclinic'
loop_
_space_group_symop_operation_xyz
x,y,z
-x,-y,-z
loop_
_atom_site_type_symbol
_atom_site_label
_atom_site_fract_x
_atom_site_fract_y
_atom_site_fract_z
Si Si1 0.354009 0.077056 0.649177
Si Si2 0.901001 0.146625 0.122326
Si Si3 0.870069 0.665662 0.238680
Si Si4 0.914516 0.437810 0.296325
Si Si5 0.345631 0.522947 0.123343
Si Si6 0.454723 0.884192 0.002955
Si Si7 0.819117 0.197045 0.519293
Si Si8 0.464005 0.602672 0.715077
O O1 0.273685 0.211328 0.677198
O O2 0.440606 0.122158 0.847229
O O3 0.500000 0.000000 0.500000
O O4 0.234295 0.954972 0.574580
O O5 0.982114 0.275936 0.159406
O O6 0.856679 0.191490 0.334699
O O7 0.739101 0.115710 0.989461
O O8 0.000000 0.000000 0.000000
O O9 0.914635 0.562177 0.287952
O O10 0.025820 0.759185 0.334979
O O11 0.811266 0.549978 0.016164
O O12 0.721819 0.411894 0.263492
O O13 0.000000 0.500000 0.500000
O O14 0.309828 0.678071 0.322946
O O15 0.406719 0.430808 0.181150
O O16 0.500000 0.500000 0.000000
O O17 0.492186 0.750645 0.788007
O O18 0.500000 0.000000 0.000000
O O19 0.500000 0.500000 0.500000
#
# Coordination Sequence:
#
# PCOD9064849 Si02
#       8
#     2   2   2   2   2   2   2   2
#     4  12  28  48  78 110 156 204 255 317 390 459
#     4  11  26  49  76 111 157 201 252 317 384 457
#     4  12  26  50  73 111 156 202 252 322 386 462
#     4  11  24  46  74 108 148 197 256 309 387 453
#     4  12  24  48  76 109 146 199 250 316 375 456
#     4  11  24  47  71 108 143 194 262 308 371 454
#     4  12  27  50  74 113 155 199 260 312 391 461
#     4  11  25  43  73 103 145 188 253 311 372 438
#
# _framework density 22.42163
#
# number of rings (size 3 to 8) (size 9 to 14) (size 15 to 20)
#    0.000    0.500    5.000    3.000    1.750    1.000 
#    4.500    0.000    0.000    0.000    0.000    0.000 
#    0.000    0.000    0.000    0.000    0.000    0.000 
#
# Total GULP energy -89079.264297 kJ/mol
# GULP energy per Si atom -5567.454019 kJ/mol
# Density = 2.237060 g / cm^3
# Si number density = 22.421630 Si / 1000 Ang^3
#
#
#
# Elastic Constant Matrix: (Units=GPa)
#
#
# Indices 1 2 3 4 5 6 
#
# 1 71.1425 43.1323 47.5242 6.6665 22.2116 -14.5853
# 2 43.1323 167.4830 63.2984 36.3226 6.1837 -17.7383
# 3 47.5242 63.2984 133.1202 27.0808 14.1078 -12.2662
# 4 6.6665 36.3226 27.0808 50.8073 -7.8304 6.0635
# 5 22.2116 6.1837 14.1078 -7.8304 53.5249 3.7026
# 6 -14.5853 -17.7383 -12.2662 6.0635 3.7026 37.2060
#
#
#
# Elastic Compliance Matrix: (Units=1/GPa)
#
#
# Indices 1 2 3 4 5 6 
#
# 1 0.023558 -0.002907 -0.005431 -0.000262 -0.008528 0.006950
# 2 -0.002907 0.008975 -0.001716 -0.005610 -0.000443 0.003532
# 3 -0.005431 -0.001716 0.011512 -0.004616 -0.001378 0.001738
# 4 -0.000262 -0.005610 -0.004616 0.028380 0.006790 -0.009600
# 5 -0.008528 -0.000443 -0.001378 0.006790 0.024150 -0.007519
# 6 0.006950 0.003532 0.001738 -0.009600 -0.007519 0.034172
#
#
# Mechanical properties :
#
#
# Convention : Reuss Voigt Hill
#
# Bulk Modulus (GPa) = 41.77380 75.51727 58.64553
# Shear Modulus (GPa) = 31.47947 42.82704 37.15326
#
# Velocity S-wave (km/s) = 3.75103 4.37518 4.07508
# Velocity P-wave (km/s) = 6.11815 7.69913 6.95372
#
# Compressibility (1/GPa) = 0.02393845
#
# Stress axis : x y z
#
# Youngs Moduli (GPa) = 42.44756 111.41960 86.86530
#
# Poissons Ratio (x) = 0.32386 0.47174
# Poissons Ratio (y) = 0.12338 0.14908
# Poissons Ratio (z) = 0.23052 0.19122
#
# Static dielectric constant tensor:
#      x y z
#    x 1.689820 -0.127140 -0.154230 
#    y -0.127140 1.753460 -0.029870 
#    z -0.154230 -0.029870 1.718340 
# 
# From -- ./inp_files/190907.got.cif
#   From: 2010.05.17/outbox.cif.g08.bks.cpg/sg2_96_cif.got.tgz:190907.got - 2010.06.03 11:33:40.
