data_PCOD9064799
_publ_section_title
;
Structure prediction by ZEFSAII (Michael W. Deem and Ramdas Pophale) SiO2 
 PCOD9064799
Probable space group: P -1
;
_chemical_formula_sum "Si O2"
_cell_formula_units_Z 16
_cell_length_a 6.182246
_cell_length_b 11.745415
_cell_length_c 11.887553
_cell_angle_alpha 91.284509
_cell_angle_beta 124.600558
_cell_angle_gamma 99.318424
_cell_volume 694.158891
_symmetry_space_group_name_H-M "P -1"
_symmetry_group_IT_number 2
_symmetry_cell_setting 'triclinic'
loop_
_space_group_symop_operation_xyz
x,y,z
-x,-y,-z
loop_
_atom_site_type_symbol
_atom_site_label
_atom_site_fract_x
_atom_site_fract_y
_atom_site_fract_z
Si Si1 0.697038 0.195789 0.103759
Si Si2 0.454426 0.415196 0.322245
Si Si3 0.118759 0.025750 0.910583
Si Si4 0.681522 0.008765 0.433602
Si Si5 0.169318 0.742447 0.604176
Si Si6 0.578896 0.665104 0.442197
Si Si7 0.020037 0.637081 0.984726
Si Si8 0.231235 0.813939 0.250785
O O1 0.771473 0.249437 0.246777
O O2 0.747308 0.299835 0.030705
O O3 0.883598 0.102362 0.137861
O O4 0.406524 0.111753 0.010000
O O5 0.732990 0.373301 0.403379
O O6 0.488344 0.553274 0.334313
O O7 0.349317 0.375647 0.414698
O O8 0.254766 0.358488 0.163524
O O9 0.964327 0.098448 0.784577
O O10 0.000000 0.000000 0.000000
O O11 0.664354 0.137183 0.392300
O O12 0.500000 0.000000 0.500000
O O13 0.502942 0.907838 0.300265
O O14 0.000000 0.000000 0.500000
O O15 0.861058 0.736389 0.483003
O O16 0.344934 0.737237 0.374988
O O17 0.082355 0.721069 0.113036
O O18 0.000000 0.500000 0.000000
#
# Coordination Sequence:
#
# PCOD9064799 Si02
#       8
#     2   2   2   2   2   2   2   2
#     4  11  26  45  74 108 150 202 258 321 398 483
#     4  11  25  48  75 101 147 202 254 322 393 475
#     4  11  24  46  73 107 152 199 251 320 402 475
#     4  12  29  48  75 118 166 207 259 334 406 483
#     4  12  25  45  74 106 146 203 260 317 400 483
#     4  11  24  48  73 106 147 197 258 319 395 477
#     4  12  25  48  75 108 154 199 257 332 398 475
#     4  12  25  45  77 113 150 201 257 329 399 470
#
# _framework density 23.049475999999999
#
# number of rings (size 3 to 8) (size 9 to 14) (size 15 to 20)
#    0.000    0.500    5.000    2.625    5.250    0.000 
#    2.250    3.750    0.000    0.000    0.000    0.000 
#    0.000    0.000    0.000    0.000    0.000    0.000 
#
# Total GULP energy -89222.629694 kJ/mol
# GULP energy per Si atom -5576.414356 kJ/mol
# Density = 2.299701 g / cm^3
# Si number density = 23.049476 Si / 1000 Ang^3
#
#
#
# Elastic Constant Matrix: (Units=GPa)
#
#
# Indices 1 2 3 4 5 6 
#
# 1 64.9133 31.3512 10.5524 -1.4750 2.1071 -3.5631
# 2 31.3512 153.2687 28.0095 1.0653 1.2159 5.0750
# 3 10.5524 28.0095 82.4181 15.0993 21.2037 3.3420
# 4 -1.4750 1.0653 15.0993 38.4010 -1.3660 3.5879
# 5 2.1071 1.2159 21.2037 -1.3660 29.3375 -5.2834
# 6 -3.5631 5.0750 3.3420 3.5879 -5.2834 39.0921
#
#
#
# Elastic Compliance Matrix: (Units=1/GPa)
#
#
# Indices 1 2 3 4 5 6 
#
# 1 0.017402 -0.003369 -0.001482 0.001163 0.000393 0.002097
# 2 -0.003369 0.007734 -0.002794 0.000904 0.001819 -0.000909
# 3 -0.001482 -0.002794 0.018282 -0.007423 -0.013790 -0.002518
# 4 0.001163 0.000904 -0.007423 0.029319 0.006393 -0.001204
# 5 0.000393 0.001819 -0.013790 0.006393 0.045423 0.006531
# 6 0.002097 -0.000909 -0.002518 -0.001204 0.006531 0.027098
#
#
# Mechanical properties :
#
#
# Convention : Reuss Voigt Hill
#
# Bulk Modulus (GPa) = 35.55157 48.93625 42.24391
# Shear Modulus (GPa) = 29.42474 36.74524 33.08499
#
# Velocity S-wave (km/s) = 3.57682 3.99706 3.79276
# Velocity P-wave (km/s) = 5.70225 6.52526 6.12759
#
# Compressibility (1/GPa) = 0.02812816
#
# Stress axis : x y z
#
# Youngs Moduli (GPa) = 57.46411 129.30564 54.69759
#
# Poissons Ratio (x) = 0.43568 0.08106
# Poissons Ratio (y) = 0.19362 0.15280
# Poissons Ratio (z) = 0.08516 0.36122
#
# Static dielectric constant tensor:
#      x y z
#    x 2.286790 -0.204780 -0.098240 
#    y -0.204780 1.975220 0.044150 
#    z -0.098240 0.044150 1.911680 
# 
# From -- ./inp_files/364655.got.cif
#   From: 2010.05.17/outbox.cif.g08.bks.cpg/sg2_183_cif.got.tgz:364655.got - 2010.06.03 11:33:40.
