data_PCOD9064082
_publ_section_title
;
Structure prediction by ZEFSAII (Michael W. Deem and Ramdas Pophale) SiO2 
 PCOD9064082
Probable space group: P -1
;
_chemical_formula_sum "Si O2"
_cell_formula_units_Z 14
_cell_length_a 9.112136
_cell_length_b 8.873728
_cell_length_c 8.394060
_cell_angle_alpha 94.826632
_cell_angle_beta 70.994739
_cell_angle_gamma 115.784357
_cell_volume 576.520855
_symmetry_space_group_name_H-M "P -1"
_symmetry_group_IT_number 2
_symmetry_cell_setting 'triclinic'
loop_
_space_group_symop_operation_xyz
x,y,z
-x,-y,-z
loop_
_atom_site_type_symbol
_atom_site_label
_atom_site_fract_x
_atom_site_fract_y
_atom_site_fract_z
Si Si1 0.541074 0.559099 0.807335
Si Si2 0.400559 0.804864 0.992116
Si Si3 0.794304 0.715125 0.253521
Si Si4 0.224705 0.950405 0.638983
Si Si5 0.604906 0.171981 0.648492
Si Si6 0.951771 0.310677 0.062804
Si Si7 0.172844 0.481045 0.484654
O O1 0.401610 0.414129 0.731547
O O2 0.730360 0.593006 0.679751
O O3 0.500000 0.500000 0.000000
O O4 0.493949 0.718156 0.844103
O O5 0.373488 0.743685 0.179504
O O6 0.222994 0.780723 0.979161
O O7 0.500000 0.000000 0.000000
O O8 0.828861 0.898745 0.316048
O O9 0.860923 0.627405 0.354591
O O10 0.896353 0.730175 0.056732
O O11 0.411905 0.037523 0.669733
O O12 0.269627 0.914927 0.441990
O O13 0.099784 0.777466 0.754089
O O14 0.678962 0.330656 0.518108
O O15 0.000000 0.500000 0.000000
O O16 0.000000 0.500000 0.500000
#
# Coordination Sequence:
#
# PCOD9064082 Si02
#       7
#     2   2   2   2   2   2   2
#     4  12  26  47  78 113 155 207 262 317 392 467
#     4  12  25  46  75 110 154 202 253 321 388 463
#     4  12  26  47  78 110 155 208 264 320 395 467
#     4  11  25  44  72 108 152 204 257 320 384 469
#     4  11  24  45  70 109 153 199 256 318 390 454
#     4  12  25  47  75 113 155 204 262 320 394 464
#     4  12  27  49  76 111 159 202 262 325 389 469
#
# _framework density 24.283595999999999
#
# number of rings (size 3 to 8) (size 9 to 14) (size 15 to 20)
#    0.000    0.286    5.714    2.571    2.000    1.143 
#    2.571    1.429    0.000    0.000    0.000    0.000 
#    0.000    0.000    0.000    0.000    0.000    0.000 
#
# Total GULP energy -78196.573721 kJ/mol
# GULP energy per Si atom -5585.469551 kJ/mol
# Density = 2.422833 g / cm^3
# Si number density = 24.283596 Si / 1000 Ang^3
#
#
#
# Elastic Constant Matrix: (Units=GPa)
#
#
# Indices 1 2 3 4 5 6 
#
# 1 113.8831 14.3239 34.3747 -0.2388 -19.2490 7.9524
# 2 14.3239 133.5312 19.4968 -2.3175 -14.2730 0.6657
# 3 34.3747 19.4968 118.9756 4.3352 -31.6985 -12.1109
# 4 -0.2388 -2.3175 4.3352 47.3741 -11.3856 -3.2850
# 5 -19.2490 -14.2730 -31.6985 -11.3856 47.7824 2.0930
# 6 7.9524 0.6657 -12.1109 -3.2850 2.0930 34.3448
#
#
#
# Elastic Compliance Matrix: (Units=1/GPa)
#
#
# Indices 1 2 3 4 5 6 
#
# 1 0.010291 -0.000420 -0.002575 0.000662 0.002618 -0.003379
# 2 -0.000420 0.007862 -0.000721 0.000888 0.001928 -0.000342
# 3 -0.002575 -0.000721 0.011345 0.000715 0.006256 0.004298
# 4 0.000662 0.000888 0.000715 0.022744 0.006344 0.001871
# 5 0.002618 0.001928 0.006256 0.006344 0.028201 0.000451
# 6 -0.003379 -0.000342 0.004298 0.001871 0.000451 0.031573
#
#
# Mechanical properties :
#
#
# Convention : Reuss Voigt Hill
#
# Bulk Modulus (GPa) = 45.31553 55.86452 50.59002
# Shear Modulus (GPa) = 39.43129 45.77990 42.60559
#
# Velocity S-wave (km/s) = 4.03399 4.34662 4.19322
# Velocity P-wave (km/s) = 6.35601 6.94592 6.65750
#
# Compressibility (1/GPa) = 0.02206749
#
# Stress axis : x y z
#
# Youngs Moduli (GPa) = 97.17438 127.18875 88.14135
#
# Poissons Ratio (x) = 0.05339 0.22697
# Poissons Ratio (y) = 0.04079 0.06352
# Poissons Ratio (z) = 0.25023 0.09166
#
# Static dielectric constant tensor:
#      x y z
#    x 1.950420 -0.045710 0.063090 
#    y -0.045710 2.054880 -0.071830 
#    z 0.063090 -0.071830 2.144430 
# 
# From -- ./inp_files/159136.got.cif
#   From: 2010.05.17/outbox.cif.g08.bks.cpg/sg2_80_cif.got.tgz:159136.got - 2010.06.03 11:33:40.
