data_PCOD9064470
_publ_section_title
;
Structure prediction by ZEFSAII (Michael W. Deem and Ramdas Pophale) SiO2 
 PCOD9064470
Probable space group: P -1
;
_chemical_formula_sum "Si O2"
_cell_formula_units_Z 12
_cell_length_a 9.615364
_cell_length_b 8.818803
_cell_length_c 11.779006
_cell_angle_alpha 142.084443
_cell_angle_beta 54.979198
_cell_angle_gamma 127.333599
_cell_volume 478.620340
_symmetry_space_group_name_H-M "P -1"
_symmetry_group_IT_number 2
_symmetry_cell_setting 'triclinic'
loop_
_space_group_symop_operation_xyz
x,y,z
-x,-y,-z
loop_
_atom_site_type_symbol
_atom_site_label
_atom_site_fract_x
_atom_site_fract_y
_atom_site_fract_z
Si Si1 0.841912 0.577477 0.560000
Si Si2 0.994414 0.596766 0.262882
Si Si3 0.393876 0.659194 0.070491
Si Si4 0.941584 0.035893 0.922677
Si Si5 0.789341 0.745089 0.259686
Si Si6 0.502316 0.760014 0.579556
O O1 0.913769 0.681156 0.462579
O O2 0.672185 0.335468 0.472874
O O3 0.000000 0.500000 0.500000
O O4 0.802126 0.791470 0.785639
O O5 0.958222 0.728100 0.243478
O O6 0.199443 0.617235 0.194680
O O7 0.888959 0.296543 0.109128
O O8 0.486077 0.969278 0.204504
O O9 0.500000 0.500000 0.000000
O O10 0.336492 0.519561 0.893748
O O11 0.117907 0.086255 0.791094
O O12 0.000000 0.000000 0.000000
O O13 0.669189 0.829868 0.456806
O O14 0.500000 0.500000 0.500000
#
# Coordination Sequence:
#
# PCOD9064470 Si02
#       6
#     2   2   2   2   2   2
#     4  12  27  45  76 108 152 201 255 320 382 463
#     4  11  25  49  77 109 149 208 255 314 390 458
#     4  11  28  48  76 113 157 200 258 321 387 459
#     4  11  24  45  77 109 145 198 257 313 384 456
#     4  11  27  49  80 110 155 205 261 318 382 468
#     4  12  29  49  75 117 156 203 259 322 388 454
#
# _framework density 25.072064000000001
#
# number of rings (size 3 to 8) (size 9 to 14) (size 15 to 20)
#    0.000    0.667    3.333    3.000   11.667    4.000 
#    0.000    0.000    0.000    0.000    0.000    0.000 
#    0.000    0.000    0.000    0.000    0.000    0.000 
#
# Total GULP energy -67169.459879 kJ/mol
# GULP energy per Si atom -5597.454990 kJ/mol
# Density = 2.501500 g / cm^3
# Si number density = 25.072064 Si / 1000 Ang^3
#
#
#
# Elastic Constant Matrix: (Units=GPa)
#
#
# Indices 1 2 3 4 5 6 
#
# 1 147.3575 40.2594 35.3107 6.3824 2.6225 -7.0349
# 2 40.2594 91.6492 37.7110 3.7463 2.0540 -19.1507
# 3 35.3107 37.7110 152.8866 28.2950 29.6435 -14.9279
# 4 6.3824 3.7463 28.2950 63.7401 7.8892 9.1570
# 5 2.6225 2.0540 29.6435 7.8892 37.0047 -1.0265
# 6 -7.0349 -19.1507 -14.9279 9.1570 -1.0265 38.9065
#
#
#
# Elastic Compliance Matrix: (Units=1/GPa)
#
#
# Indices 1 2 3 4 5 6 
#
# 1 0.007887 -0.003086 -0.001213 -0.000067 0.000583 -0.000527
# 2 -0.003086 0.014498 -0.002551 -0.000449 0.001713 0.005750
# 3 -0.001213 -0.002551 0.009705 -0.003629 -0.006692 0.002926
# 4 -0.000067 -0.000449 -0.003629 0.018331 -0.001137 -0.005970
# 5 0.000583 0.001713 -0.006692 -0.001137 0.032477 -0.000495
# 6 -0.000527 0.005750 0.002926 -0.005970 -0.000495 0.030953
#
#
# Mechanical properties :
#
#
# Convention : Reuss Voigt Hill
#
# Bulk Modulus (GPa) = 54.37506 68.71730 61.54618
# Shear Modulus (GPa) = 37.40269 46.50440 41.95354
#
# Velocity S-wave (km/s) = 3.86658 4.31145 4.09506
# Velocity P-wave (km/s) = 6.45512 7.22857 6.85276
#
# Compressibility (1/GPa) = 0.01839078
#
# Stress axis : x y z
#
# Youngs Moduli (GPa) = 126.78564 68.97498 103.04059
#
# Poissons Ratio (x) = 0.21287 0.12495
# Poissons Ratio (y) = 0.39129 0.26284
# Poissons Ratio (z) = 0.15375 0.17594
#
# Static dielectric constant tensor:
#      x y z
#    x 1.950470 0.021840 -0.021100 
#    y 0.021840 2.096370 0.030230 
#    z -0.021100 0.030230 2.044440 
# 
# From -- ./inp_files/383656.got.cif
#   From: 2010.05.17/outbox.cif.g08.bks.cpg/sg2_192_cif.got.tgz:383656.got - 2010.06.03 11:33:40.
