data_PCOD9064181
_publ_section_title
;
Structure prediction by ZEFSAII (Michael W. Deem and Ramdas Pophale) SiO2 
 PCOD9064181
Probable space group: P -1
;
_chemical_formula_sum "Si O2"
_cell_formula_units_Z 16
_cell_length_a 6.846210
_cell_length_b 18.440954
_cell_length_c 6.478521
_cell_angle_alpha 89.528629
_cell_angle_beta 116.838605
_cell_angle_gamma 70.318849
_cell_volume 674.557728
_symmetry_space_group_name_H-M "P -1"
_symmetry_group_IT_number 2
_symmetry_cell_setting 'triclinic'
loop_
_space_group_symop_operation_xyz
x,y,z
-x,-y,-z
loop_
_atom_site_type_symbol
_atom_site_label
_atom_site_fract_x
_atom_site_fract_y
_atom_site_fract_z
Si Si1 0.405542 0.674161 0.474876
Si Si2 0.092076 0.903465 0.885461
Si Si3 0.181969 0.467498 0.780958
Si Si4 0.281064 0.588564 0.116054
Si Si5 0.779800 0.957452 0.117708
Si Si6 0.800012 0.678941 0.970529
Si Si7 0.019659 0.195805 0.497641
Si Si8 0.545580 0.777140 0.226948
O O1 0.364910 0.596141 0.391829
O O2 0.626538 0.663643 0.725093
O O3 0.176867 0.732991 0.481356
O O4 0.452843 0.716222 0.291631
O O5 0.088039 0.834830 0.740033
O O6 0.109463 0.978033 0.778366
O O7 0.334548 0.861807 0.128747
O O8 0.868489 0.932229 0.928023
O O9 0.464023 0.430796 0.867434
O O10 0.000000 0.500000 0.500000
O O11 0.823757 0.469474 0.046439
O O12 0.122177 0.396242 0.840831
O O13 0.050207 0.671429 0.991192
O O14 0.875344 0.879708 0.301365
O O15 0.500000 0.000000 0.000000
O O16 0.653906 0.751343 0.048821
O O17 0.236089 0.219562 0.538671
#
# Coordination Sequence:
#
# PCOD9064181 Si02
#       8
#     2   2   2   2   2   2   2   2
#     4  12  26  44  70 104 139 184 237 287 350 417
#     4  11  25  45  69 102 139 179 236 286 343 421
#     4  11  26  48  72 105 142 184 234 286 347 419
#     4  11  25  45  73 102 139 183 231 285 348 413
#     4  11  24  45  72 100 141 182 236 286 344 412
#     4  12  26  45  73 102 139 183 231 289 348 416
#     4  12  25  44  71 100 139 188 227 290 352 403
#     4  12  25  44  67 103 138 179 236 285 343 422
#
# _framework density 23.719244
#
# number of rings (size 3 to 8) (size 9 to 14) (size 15 to 20)
#    0.000    0.500    6.250    1.500    0.000    7.500 
#    0.000    0.000    0.000    0.000    0.000    0.000 
#    0.000    0.000    0.000    0.000    0.000    0.000 
#
# Total GULP energy -89377.239865 kJ/mol
# GULP energy per Si atom -5586.077492 kJ/mol
# Density = 2.366526 g / cm^3
# Si number density = 23.719244 Si / 1000 Ang^3
#
#
#
# Elastic Constant Matrix: (Units=GPa)
#
#
# Indices 1 2 3 4 5 6 
#
# 1 140.7870 36.5428 20.6839 -4.0241 16.9147 -25.3142
# 2 36.5428 94.9800 17.6540 11.4600 -6.7904 -15.3017
# 3 20.6839 17.6540 65.8218 -4.0715 19.4122 -4.2552
# 4 -4.0241 11.4600 -4.0715 46.5404 1.4740 -2.1372
# 5 16.9147 -6.7904 19.4122 1.4740 23.6334 5.3324
# 6 -25.3142 -15.3017 -4.2552 -2.1372 5.3324 52.6728
#
#
#
# Elastic Compliance Matrix: (Units=1/GPa)
#
#
# Indices 1 2 3 4 5 6 
#
# 1 0.010471 -0.004763 0.001983 0.002861 -0.011826 0.005122
# 2 -0.004763 0.015289 -0.007033 -0.005234 0.013913 -0.000037
# 3 0.001983 -0.007033 0.024193 0.004956 -0.024418 0.003537
# 4 0.002861 -0.005234 0.004956 0.023862 -0.009606 0.002196
# 5 -0.011826 0.013913 -0.024418 -0.009606 0.078118 -0.011912
# 6 0.005122 -0.000037 0.003537 0.002196 -0.011912 0.023017
#
#
# Mechanical properties :
#
#
# Convention : Reuss Voigt Hill
#
# Bulk Modulus (GPa) = 32.97534 50.15003 41.56269
# Shear Modulus (GPa) = 24.42776 39.68320 32.05548
#
# Velocity S-wave (km/s) = 3.21264 4.09472 3.68020
# Velocity P-wave (km/s) = 5.26251 6.59884 5.96819
#
# Compressibility (1/GPa) = 0.03032569
#
# Stress axis : x y z
#
# Youngs Moduli (GPa) = 95.49736 65.40810 41.33499
#
# Poissons Ratio (x) = 0.31153 -0.08195
# Poissons Ratio (y) = 0.45484 0.29072
# Poissons Ratio (z) = -0.18934 0.46004
#
# Static dielectric constant tensor:
#      x y z
#    x 1.925990 0.015600 -0.010380 
#    y 0.015600 1.889070 0.027350 
#    z -0.010380 0.027350 1.904900 
# 
# From -- ./inp_files/13351.got.cif
#   From: 2010.05.17/outbox.cif.g08.bks.cpg/sg2_7_cif.got.tgz:13351.got - 2010.06.03 11:33:40.
