data_PCOD9064112
_publ_section_title
;
Structure prediction by ZEFSAII (Michael W. Deem and Ramdas Pophale) SiO2 
 PCOD9064112
Probable space group: P -1
;
_chemical_formula_sum "Si O2"
_cell_formula_units_Z 16
_cell_length_a 17.768272
_cell_length_b 9.266348
_cell_length_c 12.443178
_cell_angle_alpha 118.499019
_cell_angle_beta 31.771816
_cell_angle_gamma 131.192660
_cell_volume 793.841655
_symmetry_space_group_name_H-M "P -1"
_symmetry_group_IT_number 2
_symmetry_cell_setting 'triclinic'
loop_
_space_group_symop_operation_xyz
x,y,z
-x,-y,-z
loop_
_atom_site_type_symbol
_atom_site_label
_atom_site_fract_x
_atom_site_fract_y
_atom_site_fract_z
Si Si1 0.337337 0.013793 0.182807
Si Si2 0.617601 0.726787 0.410814
Si Si3 0.523858 0.534617 0.855208
Si Si4 0.820465 0.277740 0.921126
Si Si5 0.784801 0.405683 0.444654
Si Si6 0.217278 0.379010 0.004379
Si Si7 0.350525 0.813690 0.679448
Si Si8 0.819030 0.113413 0.444295
O O1 0.386061 0.234719 0.194720
O O2 0.254737 0.899834 0.133143
O O3 0.219068 0.908348 0.391585
O O4 0.500000 0.000000 0.000000
O O5 0.500000 0.500000 0.500000
O O6 0.468961 0.747265 0.556505
O O7 0.722822 0.896026 0.431475
O O8 0.744023 0.738185 0.170804
O O9 0.641684 0.456267 0.646471
O O10 0.500000 0.500000 0.000000
O O11 0.348901 0.435189 0.963006
O O12 0.762841 0.426249 0.004761
O O13 0.024871 0.405658 0.707173
O O14 0.752358 0.191374 0.092517
O O15 0.778649 0.323068 0.304378
O O16 0.753864 0.238507 0.507914
O O17 0.021234 0.238774 0.225956
O O18 0.500000 0.000000 0.500000
#
# Coordination Sequence:
#
# PCOD9064112 Si02
#       8
#     2   2   2   2   2   2   2   2
#     4  12  25  46  73 100 138 183 230 275 344 419
#     4  12  22  43  71 100 138 177 235 278 340 408
#     4  12  27  45  70 102 138 181 228 283 346 405
#     4  11  26  45  70 100 138 187 230 279 345 411
#     4  11  26  46  69 101 141 180 229 287 343 404
#     4  11  24  45  71 102 137 182 231 287 336 414
#     4  12  24  43  71 101 137 180 227 285 349 402
#     4  11  26  45  71 103 138 184 232 277 344 411
#
# _framework density 20.155154
#
# number of rings (size 3 to 8) (size 9 to 14) (size 15 to 20)
#    0.000    0.500    5.000    3.000    3.500    1.500 
#    2.250    0.000    0.000    0.000    0.000    0.000 
#    0.000    0.000    0.000    0.000    0.000    0.000 
#
# Total GULP energy -89351.737663 kJ/mol
# GULP energy per Si atom -5584.483604 kJ/mol
# Density = 2.010928 g / cm^3
# Si number density = 20.155154 Si / 1000 Ang^3
#
#
#
# Elastic Constant Matrix: (Units=GPa)
#
#
# Indices 1 2 3 4 5 6 
#
# 1 95.9384 41.1503 0.9181 -7.2372 5.9659 -14.9265
# 2 41.1503 104.9323 48.0851 -12.8675 7.2733 25.5112
# 3 0.9181 48.0851 -64.2135 -10.9129 0.9121 -140.1132
# 4 -7.2372 -12.8675 -10.9129 27.2968 1.4349 8.0220
# 5 5.9659 7.2733 0.9121 1.4349 45.2722 -17.8895
# 6 -14.9265 25.5112 -140.1132 8.0220 -17.8895 -95.0781
#
#
#
# Elastic Compliance Matrix: (Units=1/GPa)
#
#
# Indices 1 2 3 4 5 6 
#
# 1 0.012105 -0.003760 -0.001225 0.001238 -0.001304 -0.000755
# 2 -0.003760 0.010466 0.000345 0.003147 -0.000042 0.003164
# 3 -0.001225 0.000345 0.009335 0.007334 -0.005020 -0.011909
# 4 0.001238 0.003147 0.007334 0.043278 -0.004430 -0.005672
# 5 -0.001304 -0.000042 -0.005020 -0.004430 0.023606 0.002776
# 6 -0.000755 0.003164 -0.011909 -0.005672 0.002776 0.006999
#
#
# Mechanical properties :
#
#
# Convention : Reuss Voigt Hill
#
# Bulk Modulus (GPa) = 44.19584 35.21824 39.70704
# Shear Modulus (GPa) = 40.77943 -1.40157 19.68893
#
# Velocity S-wave (km/s) = 4.50296 -0.83480 3.12888
# Velocity P-wave (km/s) = 7.00078 4.07214 5.72684
#
# Compressibility (1/GPa) = 0.02262656
#
# Stress axis : x y z
#
# Youngs Moduli (GPa) = 82.61083 95.54581 107.11937
#
# Poissons Ratio (x) = 0.35927 0.13119
# Poissons Ratio (y) = 0.31064 -0.03695
# Poissons Ratio (z) = 0.10118 -0.03296
#
# Static dielectric constant tensor:
#      x y z
#    x 1.697320 -0.028190 0.058970 
#    y -0.028190 1.550830 0.152590 
#    z 0.058970 0.152590 1.573630 
# 
# From -- ./inp_files/208538.got.cif
#   From: 2010.05.17/outbox.cif.g08.bks.cpg/sg2_105_cif.got.tgz:208538.got - 2010.06.03 11:33:40.
