data_PCOD9064852
_publ_section_title
;
Structure prediction by ZEFSAII (Michael W. Deem and Ramdas Pophale) SiO2 
 PCOD9064852
Probable space group: P -1
;
_chemical_formula_sum "Si O2"
_cell_formula_units_Z 16
_cell_length_a 14.825556
_cell_length_b 19.845161
_cell_length_c 5.540115
_cell_angle_alpha 103.593530
_cell_angle_beta 111.001613
_cell_angle_gamma 23.839391
_cell_volume 596.150733
_symmetry_space_group_name_H-M "P -1"
_symmetry_group_IT_number 2
_symmetry_cell_setting 'triclinic'
loop_
_space_group_symop_operation_xyz
x,y,z
-x,-y,-z
loop_
_atom_site_type_symbol
_atom_site_label
_atom_site_fract_x
_atom_site_fract_y
_atom_site_fract_z
Si Si1 0.239491 0.227863 0.335875
Si Si2 0.290197 0.392915 0.952816
Si Si3 0.051062 0.744422 0.319871
Si Si4 0.495575 0.314424 0.574745
Si Si5 0.511831 0.890219 0.024232
Si Si6 0.298811 0.687419 0.057924
Si Si7 0.996801 0.933918 0.598030
Si Si8 0.947064 0.283929 0.176115
O O1 0.375004 0.151246 0.147069
O O2 0.991483 0.432727 0.229364
O O3 0.852540 0.789883 0.725114
O O4 0.381775 0.151362 0.654213
O O5 0.381584 0.372203 0.778661
O O6 0.330261 0.401840 0.261609
O O7 0.424365 0.232356 0.985163
O O8 0.115846 0.666130 0.565185
O O9 0.067640 0.815833 0.434665
O O10 0.771545 0.917470 0.137143
O O11 0.197297 0.616774 0.129350
O O12 0.590539 0.332199 0.661145
O O13 0.729867 0.110665 0.600040
O O14 0.500000 0.500000 0.000000
O O15 0.209116 0.803088 0.880601
O O16 0.054895 0.799583 0.917844
O O17 0.000000 0.000000 0.500000
#
# Coordination Sequence:
#
# PCOD9064852 Si02
#       8
#     2   2   2   2   2   2   2   2
#     4  12  26  46  70 102 143 192 232 300 359 423
#     4  12  26  45  73 107 142 181 244 295 362 422
#     4  11  25  44  72 102 141 185 237 297 348 423
#     4  12  25  45  77 107 146 193 240 295 359 436
#     4  12  25  44  73 101 143 182 244 296 358 413
#     4  11  26  46  73 109 150 191 236 299 370 438
#     4  11  24  46  74 109 145 193 246 297 359 437
#     4  11  26  46  68 101 145 185 240 287 354 433
#
# _framework density 26.838850000000001
#
# number of rings (size 3 to 8) (size 9 to 14) (size 15 to 20)
#    0.000    0.500    1.250    6.375    3.500    6.000 
#    0.000    5.625    0.000    0.000    0.000    0.000 
#    0.000    0.000    0.000    0.000    0.000    0.000 
#
# Total GULP energy -89241.998757 kJ/mol
# GULP energy per Si atom -5577.624922 kJ/mol
# Density = 2.677776 g / cm^3
# Si number density = 26.838850 Si / 1000 Ang^3
#
#
#
# Elastic Constant Matrix: (Units=GPa)
#
#
# Indices 1 2 3 4 5 6 
#
# 1 151.5964 9.5474 51.7056 18.1462 -9.1476 1.5798
# 2 9.5474 82.7308 38.5375 -5.7974 -24.4590 -4.2920
# 3 51.7056 38.5375 224.8330 28.5382 -15.2150 -0.0282
# 4 18.1462 -5.7974 28.5382 60.8034 3.8044 -2.6043
# 5 -9.1476 -24.4590 -15.2150 3.8044 57.6395 9.5429
# 6 1.5798 -4.2920 -0.0282 -2.6043 9.5429 32.8313
#
#
#
# Elastic Compliance Matrix: (Units=1/GPa)
#
#
# Indices 1 2 3 4 5 6 
#
# 1 0.007343 -0.000049 -0.001405 -0.001634 0.001011 -0.000785
# 2 -0.000049 0.015065 -0.002492 0.002302 0.005483 0.000559
# 3 -0.001405 -0.002492 0.005541 -0.002472 0.000441 -0.000578
# 4 -0.001634 0.002302 -0.002472 0.018508 -0.001536 0.002292
# 5 0.001011 0.005483 0.000441 -0.001536 0.020973 -0.005549
# 6 -0.000785 0.000559 -0.000578 0.002292 -0.005549 0.032364
#
#
# Mechanical properties :
#
#
# Convention : Reuss Voigt Hill
#
# Bulk Modulus (GPa) = 49.85484 73.19345 61.52415
# Shear Modulus (GPa) = 43.71682 54.21281 48.96481
#
# Velocity S-wave (km/s) = 4.04030 4.49925 4.27593
# Velocity P-wave (km/s) = 6.35463 7.37032 6.88124
#
# Compressibility (1/GPa) = 0.02005823
#
# Stress axis : x y z
#
# Youngs Moduli (GPa) = 136.17612 66.37860 180.45977
#
# Poissons Ratio (x) = 0.00327 0.25347
# Poissons Ratio (y) = 0.00672 0.44969
# Poissons Ratio (z) = 0.19127 0.16541
#
# Static dielectric constant tensor:
#      x y z
#    x 2.249520 -0.076000 -0.065740 
#    y -0.076000 2.282470 0.138550 
#    z -0.065740 0.138550 2.211650 
# 
# From -- ./inp_files/113119.got.cif
#   From: 2010.05.17/outbox.cif.g08.bks.cpg/sg2_57_cif.got.tgz:113119.got - 2010.06.03 11:33:40.
