data_PCOD9064696
_publ_section_title
;
Structure prediction by ZEFSAII (Michael W. Deem and Ramdas Pophale) SiO2 
 PCOD9064696
Probable space group: P -1
;
_chemical_formula_sum "Si O2"
_cell_formula_units_Z 15
_cell_length_a 14.931820
_cell_length_b 6.606653
_cell_length_c 8.270632
_cell_angle_alpha 118.341896
_cell_angle_beta 77.050715
_cell_angle_gamma 123.797308
_cell_volume 595.849547
_symmetry_space_group_name_H-M "P -1"
_symmetry_group_IT_number 2
_symmetry_cell_setting 'triclinic'
loop_
_space_group_symop_operation_xyz
x,y,z
-x,-y,-z
loop_
_atom_site_type_symbol
_atom_site_label
_atom_site_fract_x
_atom_site_fract_y
_atom_site_fract_z
Si Si1 0.500000 0.000000 0.000000
Si Si2 0.181484 0.825021 0.189525
Si Si3 0.991960 0.252633 0.158442
Si Si4 0.374253 0.905813 0.346455
Si Si5 0.260351 0.966526 0.863300
Si Si6 0.403657 0.389103 0.711950
Si Si7 0.314146 0.596363 0.560080
Si Si8 0.912746 0.800683 0.583522
O O1 0.433771 0.900994 0.161412
O O2 0.515071 0.309259 0.143088
O O3 0.076698 0.522604 0.128491
O O4 0.258129 0.859072 0.321380
O O5 0.140024 0.031184 0.271775
O O6 0.255936 0.911075 0.034597
O O7 0.035283 0.290598 0.337697
O O8 0.868261 0.170617 0.171207
O O9 0.000000 0.000000 0.000000
O O10 0.433272 0.181501 0.535981
O O11 0.348756 0.663195 0.386932
O O12 0.341652 0.865942 0.742775
O O13 0.316851 0.236460 0.833680
O O14 0.348951 0.437003 0.596191
O O15 0.185110 0.450270 0.559325
O O16 0.000000 0.000000 0.500000
#
# Coordination Sequence:
#
# PCOD9064696 Si02
#       8
#     1   2   2   2   2   2   2   2
#     4  12  28  48  84 104 142 182 246 308 378 434
#     4  12  25  45  69 104 146 193 242 289 355 429
#     4  12  26  40  66 105 147 192 244 289 343 431
#     4  11  26  49  74 109 143 188 243 301 366 434
#     4  11  26  42  71 104 146 192 242 293 352 429
#     4  11  26  50  75 109 142 188 237 304 369 434
#     4  11  24  46  72 100 147 187 233 295 363 426
#     4  12  25  39  69 103 144 197 233 285 347 423
#
# _framework density 25.174142
#
# number of rings (size 3 to 8) (size 9 to 14) (size 15 to 20)
#    0.000    0.533    4.000    3.200    9.333    1.600 
#    0.000    8.000    0.000    0.000    0.000    0.000 
#    0.000    0.000    0.000    0.000    0.000    0.000 
#
# Total GULP energy -83565.460114 kJ/mol
# GULP energy per Si atom -5571.030674 kJ/mol
# Density = 2.511684 g / cm^3
# Si number density = 25.174142 Si / 1000 Ang^3
#
#
#
# Elastic Constant Matrix: (Units=GPa)
#
#
# Indices 1 2 3 4 5 6 
#
# 1 106.2376 28.5516 -2.6327 -2.4017 24.5863 0.5343
# 2 28.5516 128.5935 29.9085 -40.8314 2.8645 -5.9684
# 3 -2.6327 29.9085 70.0680 -31.8163 -20.2615 -5.5384
# 4 -2.4017 -40.8314 -31.8163 62.3897 -7.3520 -2.7540
# 5 24.5863 2.8645 -20.2615 -7.3520 29.2297 -2.3435
# 6 0.5343 -5.9684 -5.5384 -2.7540 -2.3435 39.7817
#
#
#
# Elastic Compliance Matrix: (Units=1/GPa)
#
#
# Indices 1 2 3 4 5 6 
#
# 1 0.014564 -0.003836 -0.007373 -0.008140 -0.019313 -0.003499
# 2 -0.003836 0.011097 0.000147 0.007822 0.004412 0.002538
# 3 -0.007373 0.000147 0.035931 0.022959 0.037584 0.008927
# 4 -0.008140 0.007822 0.022959 0.036699 0.031939 0.008901
# 5 -0.019313 0.004412 0.037584 0.031939 0.085184 0.013383
# 6 -0.003499 0.002538 0.008927 0.008901 0.013383 0.028212
#
#
# Mechanical properties :
#
#
# Convention : Reuss Voigt Hill
#
# Bulk Modulus (GPa) = 25.33627 46.28375 35.81001
# Shear Modulus (GPa) = 20.24572 42.88502 31.56537
#
# Velocity S-wave (km/s) = 2.83897 4.13187 3.54486
# Velocity P-wave (km/s) = 4.56427 6.41782 5.56871
#
# Compressibility (1/GPa) = 0.03946911
#
# Stress axis : x y z
#
# Youngs Moduli (GPa) = 68.66143 90.11476 27.83126
#
# Poissons Ratio (x) = 0.34565 0.20520
# Poissons Ratio (y) = 0.26336 -0.00410
# Poissons Ratio (z) = 0.50624 -0.01327
#
# Static dielectric constant tensor:
#      x y z
#    x 1.976810 -0.091460 0.140360 
#    y -0.091460 1.915120 0.142450 
#    z 0.140360 0.142450 2.273670 
# 
# From -- ./inp_files/88567.got.cif
#   From: 2010.05.17/outbox.cif.g08.bks.cpg/sg2_45_cif.got.tgz:88567.got - 2010.06.03 11:33:40.
