data_PCOD9064702
_publ_section_title
;
Structure prediction by ZEFSAII (Michael W. Deem and Ramdas Pophale) SiO2 
 PCOD9064702
Probable space group: P -1
;
_chemical_formula_sum "Si O2"
_cell_formula_units_Z 14
_cell_length_a 7.410983
_cell_length_b 17.863393
_cell_length_c 12.026229
_cell_angle_alpha 30.263569
_cell_angle_beta 118.706576
_cell_angle_gamma 133.026359
_cell_volume 560.305284
_symmetry_space_group_name_H-M "P -1"
_symmetry_group_IT_number 2
_symmetry_cell_setting 'triclinic'
loop_
_space_group_symop_operation_xyz
x,y,z
-x,-y,-z
loop_
_atom_site_type_symbol
_atom_site_label
_atom_site_fract_x
_atom_site_fract_y
_atom_site_fract_z
Si Si1 0.208169 0.672612 0.419677
Si Si2 0.575497 0.614511 0.077532
Si Si3 0.332224 0.048005 0.046052
Si Si4 0.608354 0.642843 0.453359
Si Si5 0.072348 0.366756 0.150286
Si Si6 0.291737 0.989623 0.372379
Si Si7 0.065324 0.649992 0.114845
O O1 0.465585 0.697524 0.427442
O O2 0.000000 0.500000 0.500000
O O3 0.251139 0.867197 0.183684
O O4 0.073103 0.571219 0.627909
O O5 0.397553 0.498520 0.280387
O O6 0.380556 0.491786 0.078375
O O7 0.849760 0.653549 0.109009
O O8 0.653599 0.817125 0.835246
O O9 0.647285 0.211573 0.929612
O O10 0.289535 0.984202 0.244583
O O11 0.229270 0.159597 0.820217
O O12 0.500000 0.500000 0.500000
O O13 0.941071 0.297658 0.080099
O O14 0.969993 0.193742 0.422699
O O15 0.000000 0.500000 0.000000
O O16 0.500000 0.000000 0.500000
#
# Coordination Sequence:
#
# PCOD9064702 Si02
#       7
#     2   2   2   2   2   2   2
#     4  11  25  44  72 106 141 191 243 290 362 430
#     4  11  26  45  68 110 142 184 244 298 361 423
#     4  12  24  47  77 105 145 199 236 291 372 425
#     4  11  24  46  72 101 150 181 239 304 351 432
#     4  12  24  44  70  98 144 188 238 296 357 425
#     4  12  24  44  72 104 142 190 241 289 363 432
#     4  11  25  44  72 101 148 186 240 302 352 436
#
# _framework density 24.98638
#
# number of rings (size 3 to 8) (size 9 to 14) (size 15 to 20)
#    0.000    0.571    5.714    1.714    0.000    4.000 
#    2.571    1.429    0.000    0.000    0.000    0.000 
#    0.000    0.000    0.000    0.000    0.000    0.000 
#
# Total GULP energy -78027.832204 kJ/mol
# GULP energy per Si atom -5573.416586 kJ/mol
# Density = 2.492951 g / cm^3
# Si number density = 24.986380 Si / 1000 Ang^3
#
#
#
# Elastic Constant Matrix: (Units=GPa)
#
#
# Indices 1 2 3 4 5 6 
#
# 1 54.1162 30.0113 44.5424 1.8823 -2.2273 -1.4048
# 2 30.0113 75.1666 44.0311 -4.5628 -13.6381 9.0522
# 3 44.5424 44.0311 253.2123 -13.6722 3.1754 -21.4825
# 4 1.8823 -4.5628 -13.6722 52.2611 -9.6767 -1.1289
# 5 -2.2273 -13.6381 3.1754 -9.6767 40.3142 11.3824
# 6 -1.4048 9.0522 -21.4825 -1.1289 11.3824 30.9807
#
#
#
# Elastic Compliance Matrix: (Units=1/GPa)
#
#
# Indices 1 2 3 4 5 6 
#
# 1 0.026421 -0.010216 -0.002700 -0.003126 -0.003520 0.003490
# 2 -0.010216 0.023654 -0.003496 0.003543 0.012601 -0.014299
# 3 -0.002700 -0.003496 0.005628 0.000785 -0.003292 0.006040
# 4 -0.003126 0.003543 0.000785 0.020942 0.006643 -0.002310
# 5 -0.003520 0.012601 -0.003292 0.006643 0.036136 -0.019159
# 6 0.003490 -0.014299 0.006040 -0.002310 -0.019159 0.047757
#
#
# Mechanical properties :
#
#
# Convention : Reuss Voigt Hill
#
# Bulk Modulus (GPa) = 43.70753 68.85163 56.27958
# Shear Modulus (GPa) = 24.87701 42.30523 33.59112
#
# Velocity S-wave (km/s) = 3.15877 4.11923 3.67055
# Velocity P-wave (km/s) = 5.55286 7.08799 6.36686
#
# Compressibility (1/GPa) = 0.02287935
#
# Stress axis : x y z
#
# Youngs Moduli (GPa) = 37.84880 42.27648 177.67765
#
# Poissons Ratio (x) = 0.43190 0.47969
# Poissons Ratio (y) = 0.38667 0.62115
# Poissons Ratio (z) = 0.10218 0.14779
#
# Static dielectric constant tensor:
#      x y z
#    x 2.094490 -0.004950 -0.138790 
#    y -0.004950 1.389450 -0.943180 
#    z -0.138790 -0.943180 0.493900 
# 
# From -- ./inp_files/402682.got.cif
#   From: 2010.05.17/outbox.cif.g08.bks.cpg/sg2_202_cif.got.tgz:402682.got - 2010.06.03 11:33:40.
