data_PCOD9064377
_publ_section_title
;
Structure prediction by ZEFSAII (Michael W. Deem and Ramdas Pophale) SiO2 
 PCOD9064377
Probable space group: P -1
;
_chemical_formula_sum "Si O2"
_cell_formula_units_Z 16
_cell_length_a 17.708684
_cell_length_b 9.702715
_cell_length_c 11.544486
_cell_angle_alpha 127.866231
_cell_angle_beta 150.722466
_cell_angle_gamma 61.137217
_cell_volume 758.642969
_symmetry_space_group_name_H-M "P -1"
_symmetry_group_IT_number 2
_symmetry_cell_setting 'triclinic'
loop_
_space_group_symop_operation_xyz
x,y,z
-x,-y,-z
loop_
_atom_site_type_symbol
_atom_site_label
_atom_site_fract_x
_atom_site_fract_y
_atom_site_fract_z
Si Si1 0.382721 0.091129 0.557504
Si Si2 0.585930 0.257068 0.725603
Si Si3 0.131868 0.645708 0.206780
Si Si4 0.939719 0.801939 0.849791
Si Si5 0.085051 0.517749 0.744704
Si Si6 0.334613 0.983843 0.709082
Si Si7 0.644326 0.623072 0.701775
Si Si8 0.136034 0.151924 0.717414
O O1 0.538744 0.196271 0.762280
O O2 0.244954 0.206227 0.404257
O O3 0.363982 0.908133 0.365193
O O4 0.365378 0.040720 0.644554
O O5 0.431598 0.308043 0.480701
O O6 0.731647 0.410131 0.990723
O O7 0.254293 0.781480 0.509555
O O8 0.236231 0.519211 0.217128
O O9 0.000000 0.500000 0.000000
O O10 0.026894 0.774451 0.070678
O O11 0.004087 0.659814 0.781183
O O12 0.000000 0.000000 0.000000
O O13 0.065295 0.329570 0.683845
O O14 0.000000 0.500000 0.500000
O O15 0.222052 0.095396 0.687714
O O16 0.500000 0.000000 0.000000
O O17 0.500000 0.500000 0.500000
O O18 0.730017 0.787225 0.975395
O O19 0.000000 0.000000 0.500000
#
# Coordination Sequence:
#
# PCOD9064377 Si02
#       8
#     2   2   2   2   2   2   2   2
#     4  11  24  45  74 107 144 190 246 304 366 442
#     4  11  24  45  75 108 141 195 250 301 368 442
#     4  12  25  44  72 104 138 187 247 300 355 436
#     4  12  22  46  72 102 141 186 244 301 359 431
#     4  12  26  45  70 104 147 191 238 301 376 436
#     4  12  26  45  70 107 149 189 240 308 373 429
#     4  12  22  46  77 102 142 191 252 302 360 441
#     4  12  27  47  72 109 150 192 243 307 375 437
#
# _framework density 21.09029
#
# number of rings (size 3 to 8) (size 9 to 14) (size 15 to 20)
#    0.000    0.250    5.000    4.500    0.000    3.000 
#    0.000    1.250    0.000    0.000    0.000    0.000 
#    0.000    0.000    0.000    0.000    0.000    0.000 
#
# Total GULP energy -89303.516824 kJ/mol
# GULP energy per Si atom -5581.469802 kJ/mol
# Density = 2.104229 g / cm^3
# Si number density = 21.090290 Si / 1000 Ang^3
#
#
#
# Elastic Constant Matrix: (Units=GPa)
#
#
# Indices 1 2 3 4 5 6 
#
# 1 97.5396 59.3332 57.5700 -1.0609 24.4452 -4.1366
# 2 59.3332 129.7596 48.5109 14.5768 16.0026 2.5570
# 3 57.5700 48.5109 154.7178 11.6507 13.6638 17.1608
# 4 -1.0609 14.5768 11.6507 41.0860 1.6583 2.9583
# 5 24.4452 16.0026 13.6638 1.6583 33.2285 5.5706
# 6 -4.1366 2.5570 17.1608 2.9583 5.5706 35.1420
#
#
#
# Elastic Compliance Matrix: (Units=1/GPa)
#
#
# Indices 1 2 3 4 5 6 
#
# 1 0.020899 -0.006636 -0.005842 0.004485 -0.011207 0.007195
# 2 -0.006636 0.011476 -0.000728 -0.003970 0.000008 -0.000928
# 3 -0.005842 -0.000728 0.009474 -0.002265 0.001763 -0.005350
# 4 0.004485 -0.003970 -0.002265 0.026580 -0.001777 -0.000033
# 5 -0.011207 0.000008 0.001763 -0.001777 0.039078 -0.008226
# 6 0.007195 -0.000928 -0.005350 -0.000033 -0.008226 0.033290
#
#
# Mechanical properties :
#
#
# Convention : Reuss Voigt Hill
#
# Bulk Modulus (GPa) = 64.77600 79.20502 71.99051
# Shear Modulus (GPa) = 29.00992 36.33149 32.67070
#
# Velocity S-wave (km/s) = 3.71281 4.15500 3.94011
# Velocity P-wave (km/s) = 7.01144 7.78816 7.40998
#
# Compressibility (1/GPa) = 0.01543782
#
# Stress axis : x y z
#
# Youngs Moduli (GPa) = 47.84812 87.13631 105.55543
#
# Poissons Ratio (x) = 0.57822 0.61665
# Poissons Ratio (y) = 0.31751 0.07684
# Poissons Ratio (z) = 0.27953 0.06343
#
# Static dielectric constant tensor:
#      x y z
#    x 1.813510 0.032260 -0.028970 
#    y 0.032260 1.763340 0.007740 
#    z -0.028970 0.007740 1.752080 
# 
# From -- ./inp_files/462528.got.cif
#   From: 2010.05.17/outbox.cif.g08.bks.cpg/sg2_232_cif.got.tgz:462528.got - 2010.06.03 11:33:40.
