data_PCOD9064613
_publ_section_title
;
Structure prediction by ZEFSAII (Michael W. Deem and Ramdas Pophale) SiO2 
 PCOD9064613
Probable space group: P -1
;
_chemical_formula_sum "Si O2"
_cell_formula_units_Z 14
_cell_length_a 9.368400
_cell_length_b 8.858283
_cell_length_c 11.133773
_cell_angle_alpha 69.328522
_cell_angle_beta 56.378499
_cell_angle_gamma 51.343680
_cell_volume 600.794576
_symmetry_space_group_name_H-M "P -1"
_symmetry_group_IT_number 2
_symmetry_cell_setting 'triclinic'
loop_
_space_group_symop_operation_xyz
x,y,z
-x,-y,-z
loop_
_atom_site_type_symbol
_atom_site_label
_atom_site_fract_x
_atom_site_fract_y
_atom_site_fract_z
Si Si1 0.664968 0.310430 0.554196
Si Si2 0.863234 0.907643 0.086980
Si Si3 0.739361 0.850538 0.904785
Si Si4 0.510695 0.521595 0.785728
Si Si5 0.870221 0.872544 0.585309
Si Si6 0.204982 0.540890 0.104921
Si Si7 0.531464 0.858134 0.632604
O O1 0.500000 0.500000 0.500000
O O2 0.554483 0.352158 0.723514
O O3 0.885666 0.276237 0.494721
O O4 0.755460 0.092535 0.524443
O O5 0.973253 0.718505 0.172191
O O6 0.636241 0.041732 0.210065
O O7 0.850912 0.844100 0.976561
O O8 0.000000 0.000000 0.000000
O O9 0.822118 0.910835 0.738259
O O10 0.774435 0.650883 0.897434
O O11 0.500000 0.000000 0.000000
O O12 0.677026 0.471169 0.826023
O O13 0.509435 0.682463 0.660235
O O14 0.307397 0.592152 0.935624
O O15 0.751531 0.785547 0.606771
O O16 0.500000 0.000000 0.500000
#
# Coordination Sequence:
#
# PCOD9064613 Si02
#       7
#     2   2   2   2   2   2   2
#     4  11  27  46  72 105 151 198 243 304 381 455
#     4  12  27  45  76 110 144 195 248 311 372 444
#     4  12  24  47  72 101 146 185 251 305 367 442
#     4  11  24  46  70 104 144 189 247 304 369 438
#     4  11  26  47  72 106 146 196 244 308 377 435
#     4  11  25  44  74 104 141 192 251 311 368 433
#     4  12  26  47  72 108 150 189 245 304 371 453
#
# _framework density 23.302472999999999
#
# number of rings (size 3 to 8) (size 9 to 14) (size 15 to 20)
#    0.000    0.571    4.286    2.143    8.000    4.000 
#    0.000    0.000    0.000    0.000    0.000    0.000 
#    0.000    0.000    0.000    0.000    0.000    0.000 
#
# Total GULP energy -78182.808526 kJ/mol
# GULP energy per Si atom -5584.486323 kJ/mol
# Density = 2.324944 g / cm^3
# Si number density = 23.302473 Si / 1000 Ang^3
#
#
#
# Elastic Constant Matrix: (Units=GPa)
#
#
# Indices 1 2 3 4 5 6 
#
# 1 98.7516 21.9980 2.5584 -5.7377 13.1116 -10.4142
# 2 21.9980 114.7929 -3.7242 -8.3206 1.8020 -12.5516
# 3 2.5584 -3.7242 68.6135 -11.4689 10.6250 -10.3477
# 4 -5.7377 -8.3206 -11.4689 33.7416 4.9422 -5.2454
# 5 13.1116 1.8020 10.6250 4.9422 33.8590 5.9157
# 6 -10.4142 -12.5516 -10.3477 -5.2454 5.9157 38.1909
#
#
#
# Elastic Compliance Matrix: (Units=1/GPa)
#
#
# Indices 1 2 3 4 5 6 
#
# 1 0.012016 -0.001288 0.001961 0.004146 -0.006676 0.004988
# 2 -0.001288 0.009820 0.002207 0.003925 -0.002046 0.004330
# 3 0.001961 0.002207 0.019367 0.010424 -0.010137 0.009510
# 4 0.004146 0.003925 0.010424 0.038700 -0.012929 0.012563
# 5 -0.006676 -0.002046 -0.010137 -0.012929 0.039594 -0.013148
# 6 0.004988 0.004330 0.009510 0.012563 -0.013148 0.035306
#
#
# Mechanical properties :
#
#
# Convention : Reuss Voigt Hill
#
# Bulk Modulus (GPa) = 21.29343 35.98028 28.63685
# Shear Modulus (GPa) = 30.35856 38.58002 34.46929
#
# Velocity S-wave (km/s) = 3.61335 4.07334 3.85022
# Velocity P-wave (km/s) = 5.15423 6.13163 5.66405
#
# Compressibility (1/GPa) = 0.04696285
#
# Stress axis : x y z
#
# Youngs Moduli (GPa) = 83.22265 101.83381 51.63315
#
# Poissons Ratio (x) = 0.13120 -0.10126
# Poissons Ratio (y) = 0.10722 -0.11395
# Poissons Ratio (z) = -0.16321 -0.22475
#
# Static dielectric constant tensor:
#      x y z
#    x 1.949210 0.026140 0.042630 
#    y 0.026140 2.023580 -0.025760 
#    z 0.042630 -0.025760 1.889460 
# 
# From -- ./inp_files/381594.got.cif
#   From: 2010.05.17/outbox.cif.g08.bks.cpg/sg2_191_cif.got.tgz:381594.got - 2010.06.03 11:33:40.
