data_PCOD9064856
_publ_section_title
;
Structure prediction by ZEFSAII (Michael W. Deem and Ramdas Pophale) SiO2 
 PCOD9064856
Probable space group: P -1
;
_chemical_formula_sum "Si O2"
_cell_formula_units_Z 16
_cell_length_a 10.964798
_cell_length_b 16.779735
_cell_length_c 7.571113
_cell_angle_alpha 49.759289
_cell_angle_beta 129.145926
_cell_angle_gamma 136.452166
_cell_volume 696.471270
_symmetry_space_group_name_H-M "P -1"
_symmetry_group_IT_number 2
_symmetry_cell_setting 'triclinic'
loop_
_space_group_symop_operation_xyz
x,y,z
-x,-y,-z
loop_
_atom_site_type_symbol
_atom_site_label
_atom_site_fract_x
_atom_site_fract_y
_atom_site_fract_z
Si Si1 0.813053 0.482745 0.276090
Si Si2 0.931216 0.145067 0.415356
Si Si3 0.684947 0.997252 0.716039
Si Si4 0.058510 0.404059 0.142118
Si Si5 0.568010 0.731502 0.850554
Si Si6 0.354705 0.456715 0.636248
Si Si7 0.649793 0.966954 0.130803
Si Si8 0.342875 0.261558 0.478756
O O1 0.652283 0.341044 0.292152
O O2 0.727431 0.529022 0.275578
O O3 0.000000 0.500000 0.500000
O O4 0.854710 0.557929 0.026718
O O5 0.144411 0.198771 0.482923
O O6 0.859454 0.094251 0.617932
O O7 0.809221 0.034957 0.325627
O O8 0.901746 0.259038 0.199223
O O9 0.639335 0.862804 0.811519
O O10 0.500000 0.000000 0.500000
O O11 0.721855 0.015956 0.930699
O O12 0.199407 0.417780 0.402730
O O13 0.000000 0.500000 0.000000
O O14 0.668851 0.743599 0.738520
O O15 0.591388 0.642730 0.131666
O O16 0.524846 0.595385 0.553077
O O17 0.573388 0.821741 0.275359
O O18 0.500000 0.000000 0.000000
#
# Coordination Sequence:
#
# PCOD9064856 Si02
#       8
#     2   2   2   2   2   2   2   2
#     4  11  24  46  74 110 154 199 246 311 375 449
#     4  12  28  50  75 111 150 193 255 307 375 454
#     4  12  28  49  76 111 147 199 256 311 375 450
#     4  12  28  46  77 112 151 196 253 312 381 455
#     4  11  25  48  80 110 157 197 257 312 380 453
#     4  11  26  49  76 115 151 199 249 316 384 447
#     4  12  27  49  77 105 149 205 248 310 373 444
#     4  11  25  51  77 110 157 198 248 311 385 451
#
# _framework density 22.972953
#
# number of rings (size 3 to 8) (size 9 to 14) (size 15 to 20)
#    0.000    0.500    3.750    3.375    7.000    4.500 
#    0.000    0.000    0.000    0.000    0.000    0.000 
#    0.000    0.000    0.000    0.000    0.000    0.000 
#
# Total GULP energy -89669.375427 kJ/mol
# GULP energy per Si atom -5604.335964 kJ/mol
# Density = 2.292067 g / cm^3
# Si number density = 22.972953 Si / 1000 Ang^3
#
#
#
# Elastic Constant Matrix: (Units=GPa)
#
#
# Indices 1 2 3 4 5 6 
#
# 1 122.2882 36.7973 64.0532 -12.6680 -23.0808 5.1084
# 2 36.7973 65.5931 27.1101 -22.5806 -6.0729 -0.5453
# 3 64.0532 27.1101 127.9753 -15.9236 -18.1288 3.0100
# 4 -12.6680 -22.5806 -15.9236 51.0559 -12.4241 -1.0628
# 5 -23.0808 -6.0729 -18.1288 -12.4241 62.6421 3.6026
# 6 5.1084 -0.5453 3.0100 -1.0628 3.6026 32.9574
#
#
#
# Elastic Compliance Matrix: (Units=1/GPa)
#
#
# Indices 1 2 3 4 5 6 
#
# 1 0.012890 -0.004865 -0.004925 0.000202 0.003005 -0.001951
# 2 -0.004865 0.021381 -0.000848 0.008408 0.001629 0.001278
# 3 -0.004925 -0.000848 0.010996 0.002252 0.001754 -0.000374
# 4 0.000202 0.008408 0.002252 0.025671 0.006632 0.000005
# 5 0.003005 0.001629 0.001754 0.006632 0.019195 -0.002483
# 6 -0.001951 0.001278 -0.000374 0.000005 -0.002483 0.030971
#
#
# Mechanical properties :
#
#
# Convention : Reuss Voigt Hill
#
# Bulk Modulus (GPa) = 41.67867 63.53086 52.60476
# Shear Modulus (GPa) = 33.25028 41.85747 37.55388
#
# Velocity S-wave (km/s) = 3.80855 4.27316 4.04753
# Velocity P-wave (km/s) = 6.12552 7.21534 6.69265
#
# Compressibility (1/GPa) = 0.02399309
#
# Stress axis : x y z
#
# Youngs Moduli (GPa) = 77.57890 46.77122 90.94440
#
# Poissons Ratio (x) = 0.22752 0.44786
# Poissons Ratio (y) = 0.37739 0.07708
# Poissons Ratio (z) = 0.38204 0.03964
#
# Static dielectric constant tensor:
#      x y z
#    x 1.879540 0.006850 0.015520 
#    y 0.006850 1.845370 -0.000740 
#    z 0.015520 -0.000740 1.855370 
# 
# From -- ./inp_files/317493.got.cif
#   From: 2010.05.17/outbox.cif.g08.bks.cpg/sg2_159_cif.got.tgz:317493.got - 2010.06.03 11:33:40.
