data_PCOD9064559
_publ_section_title
;
Structure prediction by ZEFSAII (Michael W. Deem and Ramdas Pophale) SiO2 
 PCOD9064559
Probable space group: P -1
;
_chemical_formula_sum "Si O2"
_cell_formula_units_Z 16
_cell_length_a 10.120404
_cell_length_b 15.482578
_cell_length_c 20.526596
_cell_angle_alpha 160.839772
_cell_angle_beta 62.624655
_cell_angle_gamma 127.853976
_cell_volume 739.024528
_symmetry_space_group_name_H-M "P -1"
_symmetry_group_IT_number 2
_symmetry_cell_setting 'triclinic'
loop_
_space_group_symop_operation_xyz
x,y,z
-x,-y,-z
loop_
_atom_site_type_symbol
_atom_site_label
_atom_site_fract_x
_atom_site_fract_y
_atom_site_fract_z
Si Si1 0.534703 0.780807 0.877565
Si Si2 0.442988 0.233735 0.680635
Si Si3 0.199276 0.238633 0.658239
Si Si4 0.543098 0.685536 0.552037
Si Si5 0.193870 0.978970 0.675545
Si Si6 0.674518 0.999682 0.193314
Si Si7 0.925753 0.218183 0.178005
Si Si8 0.007065 0.812391 0.202340
O O1 0.352798 0.558982 0.808732
O O2 0.545958 0.557095 0.663292
O O3 0.500000 0.000000 0.000000
O O4 0.733286 0.025935 0.043558
O O5 0.305328 0.089169 0.545786
O O6 0.500000 0.000000 0.500000
O O7 0.368895 0.206099 0.750176
O O8 0.585656 0.631753 0.923055
O O9 0.136521 0.250054 0.753167
O O10 0.000000 0.000000 0.500000
O O11 0.500000 0.500000 0.500000
O O12 0.463184 0.899593 0.718450
O O13 0.768229 0.892805 0.637481
O O14 0.076121 0.609023 0.405815
O O15 0.268114 0.980884 0.730981
O O16 0.071219 0.115779 0.792340
O O17 0.864888 0.234483 0.276113
O O18 0.000000 0.000000 0.000000
O O19 0.000000 0.500000 0.000000
#
# Coordination Sequence:
#
# PCOD9064559 Si02
#       8
#     2   2   2   2   2   2   2   2
#     4  12  26  46  74 104 145 190 245 299 360 432
#     4  11  25  44  72 102 142 184 239 298 354 430
#     4  11  24  46  69 103 140 185 243 295 358 430
#     4  12  26  45  74 106 146 190 237 300 370 428
#     4  11  25  44  69 104 142 185 239 292 357 429
#     4  12  25  47  72 104 145 186 241 298 359 433
#     4  12  26  47  71 102 142 188 241 298 358 429
#     4  11  25  44  69 102 143 185 234 299 358 432
#
# _framework density 21.65016
#
# number of rings (size 3 to 8) (size 9 to 14) (size 15 to 20)
#    0.000    0.500    2.500    6.000    5.250    2.000 
#    0.000    0.000    0.000    0.000    0.000    0.000 
#    0.000    0.000    0.000    0.000    0.000    0.000 
#
# Total GULP energy -89143.837357 kJ/mol
# GULP energy per Si atom -5571.489835 kJ/mol
# Density = 2.160088 g / cm^3
# Si number density = 21.650160 Si / 1000 Ang^3
#
#
#
# Elastic Constant Matrix: (Units=GPa)
#
#
# Indices 1 2 3 4 5 6 
#
# 1 186.0877 28.7242 48.4830 5.2960 -18.9997 -27.4101
# 2 28.7242 89.9846 4.9409 15.7660 4.4663 -16.7142
# 3 48.4830 4.9409 86.3406 7.2867 -7.5326 -6.4297
# 4 5.2960 15.7660 7.2867 31.1905 -0.1423 1.5206
# 5 -18.9997 4.4663 -7.5326 -0.1423 45.6957 -2.6727
# 6 -27.4101 -16.7142 -6.4297 1.5206 -2.6727 36.1463
#
#
#
# Elastic Compliance Matrix: (Units=1/GPa)
#
#
# Indices 1 2 3 4 5 6 
#
# 1 0.007501 -0.001517 -0.003537 0.000110 0.002952 0.004571
# 2 -0.001517 0.013952 0.000958 -0.007302 -0.001528 0.005666
# 3 -0.003537 0.000958 0.013874 -0.003142 0.000737 0.000416
# 4 0.000110 -0.007302 -0.003142 0.036730 0.000040 -0.005394
# 5 0.002952 -0.001528 0.000737 0.000040 0.023581 0.003405
# 6 0.004571 0.005666 0.000416 -0.005394 0.003405 0.034304
#
#
# Mechanical properties :
#
#
# Convention : Reuss Voigt Hill
#
# Bulk Modulus (GPa) = 36.85102 58.52324 47.68713
# Shear Modulus (GPa) = 33.97230 41.29082 37.63156
#
# Velocity S-wave (km/s) = 3.96554 4.37187 4.17365
# Velocity P-wave (km/s) = 6.16648 7.25081 6.73052
#
# Compressibility (1/GPa) = 0.02713629
#
# Stress axis : x y z
#
# Youngs Moduli (GPa) = 133.31674 71.67311 72.07968
#
# Poissons Ratio (x) = 0.10872 0.25491
# Poissons Ratio (y) = 0.20223 -0.06907
# Poissons Ratio (z) = 0.47148 -0.06868
#
# Static dielectric constant tensor:
#      x y z
#    x -3.250290 2.277290 2.353040 
#    y 2.277290 1.261680 -0.947000 
#    z 2.353040 -0.947000 0.779760 
# 
# From -- ./inp_files/590532.got.cif
#   From: 2010.05.17/outbox.cif.g08.bks.cpg/sg2_296_cif.got.tgz:590532.got - 2010.06.03 11:33:40.
