data_PCOD9064284
_publ_section_title
;
Structure prediction by ZEFSAII (Michael W. Deem and Ramdas Pophale) SiO2 
 PCOD9064284
Probable space group: P -1
;
_chemical_formula_sum "Si O2"
_cell_formula_units_Z 14
_cell_length_a 23.163431
_cell_length_b 14.531337
_cell_length_c 14.559764
_cell_angle_alpha 149.865199
_cell_angle_beta 19.914247
_cell_angle_gamma 159.821678
_cell_volume 569.265882
_symmetry_space_group_name_H-M "P -1"
_symmetry_group_IT_number 2
_symmetry_cell_setting 'triclinic'
loop_
_space_group_symop_operation_xyz
x,y,z
-x,-y,-z
loop_
_atom_site_type_symbol
_atom_site_label
_atom_site_fract_x
_atom_site_fract_y
_atom_site_fract_z
Si Si1 0.410277 0.894717 0.437711
Si Si2 0.485256 0.431589 0.065968
Si Si3 0.391620 0.135537 0.336932
Si Si4 0.952450 0.745060 0.342595
Si Si5 0.857318 0.466960 0.820402
Si Si6 0.047712 0.171264 0.160382
Si Si7 0.293354 0.683455 0.798530
O O1 0.107007 0.661937 0.678934
O O2 0.500000 0.000000 0.500000
O O3 0.522367 0.129164 0.399907
O O4 0.521773 0.795760 0.137924
O O5 0.293792 0.438044 0.388788
O O6 0.500000 0.500000 0.000000
O O7 0.697711 0.623381 0.988592
O O8 0.556353 0.252905 0.283141
O O9 0.253456 0.828292 0.265518
O O10 0.593743 0.356107 0.149377
O O11 0.149835 0.053078 0.659841
O O12 0.894337 0.620928 0.221144
O O13 0.000000 0.000000 0.500000
O O14 0.143914 0.751734 0.103003
O O15 0.948010 0.630519 0.730491
O O16 0.000000 0.000000 0.000000
#
# Coordination Sequence:
#
# PCOD9064284 Si02
#       7
#     2   2   2   2   2   2   2
#     4  12  25  45  74 106 149 200 250 309 375 449
#     4  12  27  45  70 107 148 192 245 309 377 439
#     4  11  24  47  76 106 138 194 251 302 369 445
#     4  11  25  44  66 108 144 193 242 302 374 443
#     4  11  26  45  75 106 142 196 252 301 371 444
#     4  12  26  49  72 106 152 191 243 312 374 447
#     4  11  24  45  73 104 147 194 249 307 375 445
#
# _framework density 24.593077999999998
#
# number of rings (size 3 to 8) (size 9 to 14) (size 15 to 20)
#    0.000    0.571    4.286    3.000    8.000    0.571 
#    0.000    0.000    0.000    0.000    0.000    0.000 
#    0.000    0.000    0.000    0.000    0.000    0.000 
#
# Total GULP energy -77956.496477 kJ/mol
# GULP energy per Si atom -5568.321177 kJ/mol
# Density = 2.453710 g / cm^3
# Si number density = 24.593078 Si / 1000 Ang^3
#
#
#
# Elastic Constant Matrix: (Units=GPa)
#
#
# Indices 1 2 3 4 5 6 
#
# 1 127.9869 83.7392 119.1747 6.8580 -88.1151 126.7476
# 2 83.7392 212.3484 200.8149 33.9607 -106.5787 157.7718
# 3 119.1747 200.8149 411.8875 34.6026 -174.0550 269.6203
# 4 6.8580 33.9607 34.6026 43.5849 -13.9188 28.5984
# 5 -88.1151 -106.5787 -174.0550 -13.9188 133.9799 -166.6285
# 6 126.7476 157.7718 269.6203 28.5984 -166.6285 258.8590
#
#
#
# Elastic Compliance Matrix: (Units=1/GPa)
#
#
# Indices 1 2 3 4 5 6 
#
# 1 0.016390 -0.001847 0.002020 0.003058 0.003180 -0.007294
# 2 -0.001847 0.010345 -0.002889 -0.004456 0.002187 -0.000492
# 3 0.002020 -0.002889 0.008614 0.000509 0.000026 -0.008240
# 4 0.003058 -0.004456 0.000509 0.027562 -0.004712 -0.005391
# 5 0.003180 0.002187 0.000026 -0.004712 0.039405 0.022968
# 6 -0.007294 -0.000492 -0.008240 -0.005391 0.022968 0.031696
#
#
# Mechanical properties :
#
#
# Convention : Reuss Voigt Hill
#
# Bulk Modulus (GPa) = 33.42586 173.29782 103.36184
# Shear Modulus (GPa) = 33.46341 110.51769 71.99055
#
# Velocity S-wave (km/s) = 3.69275 6.71089 5.41629
# Velocity P-wave (km/s) = 5.63941 11.43098 9.01305
#
# Compressibility (1/GPa) = 0.02991695
#
# Stress axis : x y z
#
# Youngs Moduli (GPa) = 61.01262 96.66085 116.09403
#
# Poissons Ratio (x) = 0.17855 -0.23451
# Poissons Ratio (y) = 0.11270 0.33539
# Poissons Ratio (z) = -0.12324 0.27925
#
# Static dielectric constant tensor:
#      x y z
#    x 1.834450 -0.025210 0.020940 
#    y -0.025210 2.164160 0.014910 
#    z 0.020940 0.014910 2.137190 
# 
# From -- ./inp_files/543050.got.cif
#   From: 2010.05.17/outbox.cif.g08.bks.cpg/sg2_272_cif.got.tgz:543050.got - 2010.06.03 11:33:40.
