data_PCOD9064677
_publ_section_title
;
Structure prediction by ZEFSAII (Michael W. Deem and Ramdas Pophale) SiO2 
 PCOD9064677
Probable space group: P -1
;
_chemical_formula_sum "Si O2"
_cell_formula_units_Z 14
_cell_length_a 20.054395
_cell_length_b 7.571304
_cell_length_c 6.853887
_cell_angle_alpha 86.274610
_cell_angle_beta 113.298222
_cell_angle_gamma 46.929328
_cell_volume 604.932539
_symmetry_space_group_name_H-M "P -1"
_symmetry_group_IT_number 2
_symmetry_cell_setting 'triclinic'
loop_
_space_group_symop_operation_xyz
x,y,z
-x,-y,-z
loop_
_atom_site_type_symbol
_atom_site_label
_atom_site_fract_x
_atom_site_fract_y
_atom_site_fract_z
Si Si1 0.676838 0.191125 0.245967
Si Si2 0.168839 0.540289 0.751194
Si Si3 0.112491 0.185504 0.231761
Si Si4 0.252213 0.059164 0.070455
Si Si5 0.026063 0.972014 0.255212
Si Si6 0.594402 0.720061 0.001299
Si Si7 0.455773 0.739404 0.576618
O O1 0.582754 0.268640 0.259652
O O2 0.797784 0.904610 0.501562
O O3 0.682386 0.137207 0.028040
O O4 0.648633 0.452650 0.203496
O O5 0.160004 0.366747 0.852609
O O6 0.090062 0.817894 0.769702
O O7 0.113958 0.665287 0.466140
O O8 0.299900 0.350322 0.912473
O O9 0.078881 0.068317 0.309097
O O10 0.192790 0.024856 0.141350
O O11 0.000000 0.500000 0.000000
O O12 0.338306 0.009015 0.310334
O O13 0.000000 0.000000 0.000000
O O14 0.538587 0.742180 0.737427
O O15 0.500000 0.000000 0.000000
O O16 0.500000 0.500000 0.500000
#
# Coordination Sequence:
#
# PCOD9064677 Si02
#       7
#     2   2   2   2   2   2   2
#     4  11  25  46  72 103 148 188 247 298 367 441
#     4  11  26  46  67 108 140 190 237 299 369 428
#     4  11  24  46  71 108 136 191 243 299 367 441
#     4  11  25  44  75 103 143 189 245 296 364 444
#     4  11  26  45  71 100 150 180 239 304 366 427
#     4  12  26  46  73 104 150 195 240 302 372 428
#     4  11  25  45  72 103 141 191 245 296 351 437
#
# _framework density 23.143076000000001
#
# number of rings (size 3 to 8) (size 9 to 14) (size 15 to 20)
#    0.000    0.857    4.286    1.286    6.000    2.286 
#    0.000    0.000    0.000    0.000    0.000    0.000 
#    0.000    0.000    0.000    0.000    0.000    0.000 
#
# Total GULP energy -78172.262130 kJ/mol
# GULP energy per Si atom -5583.733009 kJ/mol
# Density = 2.309040 g / cm^3
# Si number density = 23.143076 Si / 1000 Ang^3
#
#
#
# Elastic Constant Matrix: (Units=GPa)
#
#
# Indices 1 2 3 4 5 6 
#
# 1 58.8748 24.3703 15.1408 -0.8639 -12.1697 -25.0836
# 2 24.3703 96.0539 49.7869 3.4401 9.4772 -13.4450
# 3 15.1408 49.7869 150.2398 -2.7790 -10.6224 -10.7618
# 4 -0.8639 3.4401 -2.7790 43.4766 3.4332 -12.2626
# 5 -12.1697 9.4772 -10.6224 3.4332 40.9213 -6.5684
# 6 -25.0836 -13.4450 -10.7618 -12.2626 -6.5684 37.7272
#
#
#
# Elastic Compliance Matrix: (Units=1/GPa)
#
#
# Indices 1 2 3 4 5 6 
#
# 1 0.034166 -0.008168 0.002388 0.007456 0.016176 0.025726
# 2 -0.008168 0.015512 -0.005144 -0.002063 -0.007727 -0.003386
# 3 0.002388 -0.005144 0.008733 0.001661 0.004605 0.003587
# 4 0.007456 -0.002063 0.001661 0.027138 0.003106 0.014058
# 5 0.016176 -0.007727 0.004605 0.003106 0.034596 0.016348
# 6 0.025726 -0.003386 0.003587 0.014058 0.016348 0.050842
#
#
# Mechanical properties :
#
#
# Convention : Reuss Voigt Hill
#
# Bulk Modulus (GPa) = 27.35073 53.75161 40.55117
# Shear Modulus (GPa) = 24.38738 38.81637 31.60188
#
# Velocity S-wave (km/s) = 3.24970 4.09985 3.69928
# Velocity P-wave (km/s) = 5.09161 6.75928 5.98383
#
# Compressibility (1/GPa) = 0.03656209
#
# Stress axis : x y z
#
# Youngs Moduli (GPa) = 29.26907 64.46625 114.50333
#
# Poissons Ratio (x) = 0.52658 -0.27344
# Poissons Ratio (y) = 0.23908 0.58904
# Poissons Ratio (z) = -0.06990 0.33163
#
# Static dielectric constant tensor:
#      x y z
#    x -0.007600 -0.246800 -0.424180 
#    y -0.246800 1.882410 -0.101560 
#    z -0.424180 -0.101560 1.792130 
# 
# From -- ./inp_files/38709.got.cif
#   From: 2010.05.17/outbox.cif.g08.bks.cpg/sg2_20_cif.got.tgz:38709.got - 2010.06.03 11:33:40.
