data_PCOD9064630
_publ_section_title
;
Structure prediction by ZEFSAII (Michael W. Deem and Ramdas Pophale) SiO2 
 PCOD9064630
Probable space group: P -1
;
_chemical_formula_sum "Si O2"
_cell_formula_units_Z 16
_cell_length_a 14.951301
_cell_length_b 12.224138
_cell_length_c 8.644525
_cell_angle_alpha 128.766524
_cell_angle_beta 127.370150
_cell_angle_gamma 41.706831
_cell_volume 789.400203
_symmetry_space_group_name_H-M "P -1"
_symmetry_group_IT_number 2
_symmetry_cell_setting 'triclinic'
loop_
_space_group_symop_operation_xyz
x,y,z
-x,-y,-z
loop_
_atom_site_type_symbol
_atom_site_label
_atom_site_fract_x
_atom_site_fract_y
_atom_site_fract_z
Si Si1 0.632297 0.981513 0.187592
Si Si2 0.062555 0.830835 0.313577
Si Si3 0.072498 0.322955 0.826141
Si Si4 0.590913 0.310451 0.017209
Si Si5 0.583579 0.848042 0.330459
Si Si6 0.125461 0.310501 0.506775
Si Si7 0.892809 0.971548 0.941304
Si Si8 0.632573 0.311833 0.424210
O O1 0.619103 0.158376 0.321319
O O2 0.769364 0.838395 0.104187
O O3 0.625065 0.924763 0.303315
O O4 0.500000 0.000000 0.000000
O O5 0.227056 0.736603 0.387324
O O6 0.036124 0.718742 0.294521
O O7 0.000000 0.000000 0.500000
O O8 0.968913 0.883421 0.107761
O O9 0.101653 0.320352 0.674538
O O10 0.000000 0.500000 0.000000
O O11 0.634659 0.320296 0.246814
O O12 0.500000 0.500000 0.000000
O O13 0.497700 0.235721 0.866425
O O14 0.738863 0.155483 0.957769
O O15 0.739047 0.704467 0.423869
O O16 0.500000 0.000000 0.500000
O O17 0.121408 0.160770 0.289843
O O18 0.000000 0.500000 0.500000
O O19 0.000000 0.000000 0.000000
O O20 0.500000 0.500000 0.500000
#
# Coordination Sequence:
#
# PCOD9064630 Si02
#       8
#     2   2   2   2   2   2   2   2
#     4  11  24  46  70  97 142 183 236 287 347 419
#     4  12  24  47  73  98 143 189 242 292 352 421
#     4  11  25  43  72 104 136 182 237 290 348 420
#     4  12  28  47  71 110 146 185 237 295 361 429
#     4  11  25  45  72  99 141 187 232 288 355 421
#     4  11  26  44  70 105 140 183 234 289 356 422
#     4  12  27  46  72 102 144 189 234 294 357 420
#     4  12  29  46  72 108 143 191 239 294 360 420
#
# _framework density 20.268554000000002
#
# number of rings (size 3 to 8) (size 9 to 14) (size 15 to 20)
#    0.000    0.500    5.000    1.500    8.750    1.000 
#    0.000    0.000    0.000    0.000    0.000    0.000 
#    0.000    0.000    0.000    0.000    0.000    0.000 
#
# Total GULP energy -89211.701380 kJ/mol
# GULP energy per Si atom -5575.731336 kJ/mol
# Density = 2.022242 g / cm^3
# Si number density = 20.268554 Si / 1000 Ang^3
#
#
#
# Elastic Constant Matrix: (Units=GPa)
#
#
# Indices 1 2 3 4 5 6 
#
# 1 129.9110 66.6266 42.2359 11.7919 14.0123 -22.1387
# 2 66.6266 150.4839 47.1389 20.0421 5.2971 -35.6932
# 3 42.2359 47.1389 102.3529 15.9294 -0.0522 -22.5016
# 4 11.7919 20.0421 15.9294 42.1559 -4.8124 -0.8448
# 5 14.0123 5.2971 -0.0522 -4.8124 45.6039 -4.9821
# 6 -22.1387 -35.6932 -22.5016 -0.8448 -4.9821 45.2665
#
#
#
# Elastic Compliance Matrix: (Units=1/GPa)
#
#
# Indices 1 2 3 4 5 6 
#
# 1 0.010910 -0.003637 -0.002530 -0.000681 -0.002909 0.000878
# 2 -0.003637 0.010532 -0.001592 -0.003255 0.000171 0.005693
# 3 -0.002530 -0.001592 0.012926 -0.003217 0.001073 0.003991
# 4 -0.000681 -0.003255 -0.003217 0.026947 0.003027 -0.003663
# 5 -0.002909 0.000171 0.001073 0.003027 0.023327 0.001869
# 6 0.000878 0.005693 0.003991 -0.003663 0.001869 0.029131
#
#
# Mechanical properties :
#
#
# Convention : Reuss Voigt Hill
#
# Bulk Modulus (GPa) = 53.04527 77.19450 65.11989
# Shear Modulus (GPa) = 36.88057 41.72168 39.30112
#
# Velocity S-wave (km/s) = 4.27030 4.54193 4.40821
# Velocity P-wave (km/s) = 7.10929 8.10395 7.62286
#
# Compressibility (1/GPa) = 0.01885182
#
# Stress axis : x y z
#
# Youngs Moduli (GPa) = 91.65577 94.95187 77.36527
#
# Poissons Ratio (x) = 0.34532 0.19571
# Poissons Ratio (y) = 0.33333 0.12313
# Poissons Ratio (z) = 0.23186 0.15112
#
# Static dielectric constant tensor:
#      x y z
#    x 1.700030 -0.027200 0.008740 
#    y -0.027200 1.712570 -0.023720 
#    z 0.008740 -0.023720 1.691490 
# 
# From -- ./inp_files/187769.got.cif
#   From: 2010.05.17/outbox.cif.g08.bks.cpg/sg2_94_cif.got.tgz:187769.got - 2010.06.03 11:33:40.
