data_PCOD9064404
_publ_section_title
;
Structure prediction by ZEFSAII (Michael W. Deem and Ramdas Pophale) SiO2 
 PCOD9064404
Probable space group: P -1
;
_chemical_formula_sum "Si O2"
_cell_formula_units_Z 16
_cell_length_a 13.958906
_cell_length_b 10.044458
_cell_length_c 9.812016
_cell_angle_alpha 117.306838
_cell_angle_beta 90.412798
_cell_angle_gamma 137.516709
_cell_volume 675.021399
_symmetry_space_group_name_H-M "P -1"
_symmetry_group_IT_number 2
_symmetry_cell_setting 'triclinic'
loop_
_space_group_symop_operation_xyz
x,y,z
-x,-y,-z
loop_
_atom_site_type_symbol
_atom_site_label
_atom_site_fract_x
_atom_site_fract_y
_atom_site_fract_z
Si Si1 0.767449 0.037441 0.574999
Si Si2 0.496467 0.236251 0.309555
Si Si3 0.160700 0.261348 0.290815
Si Si4 0.620180 0.251155 0.916391
Si Si5 0.118407 0.486009 0.201689
Si Si6 0.755065 0.924563 0.950951
Si Si7 0.627865 0.801744 0.175286
Si Si8 0.943081 0.820264 0.291361
O O1 0.832432 0.284795 0.644888
O O2 0.925253 0.147679 0.687132
O O3 0.620751 0.871095 0.609846
O O4 0.697917 0.871268 0.359557
O O5 0.691540 0.525487 0.492897
O O6 0.460994 0.015455 0.171141
O O7 0.421036 0.238455 0.188678
O O8 0.136860 0.384874 0.270172
O O9 0.223675 0.218928 0.162602
O O10 0.989459 0.973227 0.226591
O O11 0.750898 0.386490 0.857146
O O12 0.473696 0.174104 0.828203
O O13 0.747437 0.502240 0.141451
O O14 0.919253 0.224561 0.029357
O O15 0.762895 0.967754 0.131228
O O16 0.500000 0.500000 0.000000
O O17 0.000000 0.000000 0.500000
#
# Coordination Sequence:
#
# PCOD9064404 Si02
#       8
#     2   2   2   2   2   2   2   2
#     4  11  24  48  69  99 139 182 227 274 349 409
#     4  11  24  45  74  98 134 184 227 282 336 410
#     4  12  25  43  71 105 132 176 239 282 332 404
#     4  11  24  48  69  99 139 182 227 274 349 409
#     4  11  24  45  74  98 134 184 227 282 336 410
#     4  12  25  43  70 103 137 176 229 285 337 402
#     4  12  27  41  68 100 140 178 224 286 346 397
#     4  12  27  43  70 100 139 181 228 284 341 403
#
# _framework density 23.702953999999998
#
# number of rings (size 3 to 8) (size 9 to 14) (size 15 to 20)
#    0.000    0.500    2.500    5.250    7.000    5.000 
#    4.500    0.000    0.000    0.000    0.000    0.000 
#    0.000    0.000    0.000    0.000    0.000    0.000 
#
# Total GULP energy -89699.578141 kJ/mol
# GULP energy per Si atom -5606.223634 kJ/mol
# Density = 2.364900 g / cm^3
# Si number density = 23.702954 Si / 1000 Ang^3
#
#
#
# Elastic Constant Matrix: (Units=GPa)
#
#
# Indices 1 2 3 4 5 6 
#
# 1 65.5512 23.4436 18.9603 3.7813 -5.2763 -3.3681
# 2 23.4436 73.1760 14.0407 9.1085 -11.8880 -9.2172
# 3 18.9603 14.0407 86.7213 -3.9624 12.1716 1.5903
# 4 3.7813 9.1085 -3.9624 36.7953 2.8463 1.1804
# 5 -5.2763 -11.8880 12.1716 2.8463 29.2424 1.9954
# 6 -3.3681 -9.2172 1.5903 1.1804 1.9954 35.9803
#
#
#
# Elastic Compliance Matrix: (Units=1/GPa)
#
#
# Indices 1 2 3 4 5 6 
#
# 1 0.018293 -0.004333 -0.003832 -0.001491 0.003235 0.000641
# 2 -0.004333 0.018244 -0.003488 -0.005222 0.008313 0.004133
# 3 -0.003832 -0.003488 0.014284 0.003486 -0.008289 -0.001538
# 4 -0.001491 -0.005222 0.003486 0.029579 -0.006569 -0.002237
# 5 0.003235 0.008313 -0.008289 -0.006569 0.042204 0.000674
# 6 0.000641 0.004133 -0.001538 -0.002237 0.000674 0.029016
#
#
# Mechanical properties :
#
#
# Convention : Reuss Voigt Hill
#
# Bulk Modulus (GPa) = 36.34248 37.59310 36.96779
# Shear Modulus (GPa) = 27.15964 31.67054 29.41509
#
# Velocity S-wave (km/s) = 3.38869 3.65929 3.52659
# Velocity P-wave (km/s) = 5.53866 5.80934 5.67561
#
# Compressibility (1/GPa) = 0.02751601
#
# Stress axis : x y z
#
# Youngs Moduli (GPa) = 54.66667 54.81200 70.00603
#
# Poissons Ratio (x) = 0.23752 0.26825
# Poissons Ratio (y) = 0.23689 0.24415
# Poissons Ratio (z) = 0.20947 0.19116
#
# Static dielectric constant tensor:
#      x y z
#    x 1.874520 0.049730 -0.010330 
#    y 0.049730 1.978220 -0.045910 
#    z -0.010330 -0.045910 1.938510 
# 
# From -- ./inp_files/299262.got.cif
#   From: 2010.05.17/outbox.cif.g08.bks.cpg/sg2_150_cif.got.tgz:299262.got - 2010.06.03 11:33:40.
