data_PCOD9064611
_publ_section_title
;
Structure prediction by ZEFSAII (Michael W. Deem and Ramdas Pophale) SiO2 
 PCOD9064611
Probable space group: P -1
;
_chemical_formula_sum "Si O2"
_cell_formula_units_Z 16
_cell_length_a 12.256588
_cell_length_b 8.901799
_cell_length_c 9.885097
_cell_angle_alpha 95.181267
_cell_angle_beta 104.123002
_cell_angle_gamma 51.234369
_cell_volume 812.730790
_symmetry_space_group_name_H-M "P -1"
_symmetry_group_IT_number 2
_symmetry_cell_setting 'triclinic'
loop_
_space_group_symop_operation_xyz
x,y,z
-x,-y,-z
loop_
_atom_site_type_symbol
_atom_site_label
_atom_site_fract_x
_atom_site_fract_y
_atom_site_fract_z
Si Si1 0.106006 0.846568 0.633231
Si Si2 0.456486 0.981596 0.133786
Si Si3 0.420496 0.650916 0.106417
Si Si4 0.116995 0.976772 0.941379
Si Si5 0.433112 0.626259 0.622654
Si Si6 0.124811 0.301879 0.097641
Si Si7 0.063460 0.321756 0.399957
Si Si8 0.608061 0.989720 0.424163
O O1 0.099708 0.954062 0.776007
O O2 0.270225 0.712047 0.618205
O O3 0.043278 0.732786 0.633195
O O4 0.000000 0.000000 0.500000
O O5 0.298778 0.187556 0.136318
O O6 0.449596 0.805911 0.131704
O O7 0.579509 0.927474 0.271073
O O8 0.500000 0.000000 0.000000
O O9 0.464707 0.523685 0.241757
O O10 0.500000 0.500000 0.000000
O O11 0.257731 0.777517 0.022861
O O12 0.121930 0.145751 0.002460
O O13 0.000000 0.000000 0.000000
O O14 0.500000 0.500000 0.500000
O O15 0.431532 0.805593 0.608382
O O16 0.081915 0.341719 0.247003
O O17 0.000000 0.500000 0.000000
O O18 0.227069 0.150490 0.486206
O O19 0.000000 0.500000 0.500000
O O20 0.500000 0.000000 0.500000
#
# Coordination Sequence:
#
# PCOD9064611 Si02
#       8
#     2   2   2   2   2   2   2   2
#     4  12  27  48  73 105 145 190 242 299 359 428
#     4  11  26  43  74 103 146 189 233 299 357 423
#     4  11  24  46  70 104 140 182 246 288 354 429
#     4  11  25  46  73  99 143 186 233 298 353 419
#     4  12  28  44  74 105 142 191 239 296 361 430
#     4  11  27  47  70 106 141 188 243 291 359 431
#     4  12  29  48  73 106 147 191 240 299 364 432
#     4  12  26  50  69 103 149 189 238 295 364 427
#
# _framework density 19.686716000000001
#
# number of rings (size 3 to 8) (size 9 to 14) (size 15 to 20)
#    0.000    0.500    5.000    1.500   12.250    2.000 
#    0.000    0.000    0.000    0.000    0.000    0.000 
#    0.000    0.000    0.000    0.000    0.000    0.000 
#
# Total GULP energy -89276.117094 kJ/mol
# GULP energy per Si atom -5579.757318 kJ/mol
# Density = 1.964191 g / cm^3
# Si number density = 19.686716 Si / 1000 Ang^3
#
#
#
# Elastic Constant Matrix: (Units=GPa)
#
#
# Indices 1 2 3 4 5 6 
#
# 1 102.0380 42.0571 47.8357 2.4019 -6.1142 -8.7494
# 2 42.0571 136.8031 75.8334 -9.4257 -4.9210 -14.7676
# 3 47.8357 75.8334 215.6575 -2.7621 -8.2509 -7.0490
# 4 2.4019 -9.4257 -2.7621 48.0266 -2.6659 -3.7065
# 5 -6.1142 -4.9210 -8.2509 -2.6659 39.8482 0.4346
# 6 -8.7494 -14.7676 -7.0490 -3.7065 0.4346 24.7929
#
#
#
# Elastic Compliance Matrix: (Units=1/GPa)
#
#
# Indices 1 2 3 4 5 6 
#
# 1 0.011885 -0.002550 -0.001644 -0.000972 0.001081 0.002044
# 2 -0.002550 0.010393 -0.002885 0.002396 0.000402 0.004821
# 3 -0.001644 -0.002885 0.006018 -0.000151 0.000634 -0.000621
# 4 -0.000972 0.002396 -0.000151 0.021746 0.001524 0.004266
# 5 0.001081 0.000402 0.000634 0.001524 0.025538 0.000582
# 6 0.002044 0.004821 -0.000621 0.004266 0.000582 0.044378
#
#
# Mechanical properties :
#
#
# Convention : Reuss Voigt Hill
#
# Bulk Modulus (GPa) = 70.73165 87.32788 79.02977
# Shear Modulus (GPa) = 36.01566 41.78504 38.90035
#
# Velocity S-wave (km/s) = 4.28184 4.61206 4.45001
# Velocity P-wave (km/s) = 7.77510 8.53326 8.16298
#
# Compressibility (1/GPa) = 0.01413794
#
# Stress axis : x y z
#
# Youngs Moduli (GPa) = 84.14101 96.21751 166.16187
#
# Poissons Ratio (x) = 0.24535 0.27314
# Poissons Ratio (y) = 0.21455 0.47943
# Poissons Ratio (z) = 0.13831 0.27762
#
# Static dielectric constant tensor:
#      x y z
#    x 1.691000 0.029140 0.048420 
#    y 0.029140 1.700450 0.055680 
#    z 0.048420 0.055680 1.700320 
# 
# From -- ./inp_files/206918.got.cif
#   From: 2010.05.17/outbox.cif.g08.bks.cpg/sg2_104_cif.got.tgz:206918.got - 2010.06.03 11:33:40.
