data_PCOD9064366
_publ_section_title
;
Structure prediction by ZEFSAII (Michael W. Deem and Ramdas Pophale) SiO2 
 PCOD9064366
Probable space group: P -1
;
_chemical_formula_sum "Si O2"
_cell_formula_units_Z 16
_cell_length_a 14.671444
_cell_length_b 11.065478
_cell_length_c 5.691492
_cell_angle_alpha 66.958622
_cell_angle_beta 119.435640
_cell_angle_gamma 85.581445
_cell_volume 697.427080
_symmetry_space_group_name_H-M "P -1"
_symmetry_group_IT_number 2
_symmetry_cell_setting 'triclinic'
loop_
_space_group_symop_operation_xyz
x,y,z
-x,-y,-z
loop_
_atom_site_type_symbol
_atom_site_label
_atom_site_fract_x
_atom_site_fract_y
_atom_site_fract_z
Si Si1 0.308976 0.526268 0.833136
Si Si2 0.598741 0.405032 0.541510
Si Si3 0.041253 0.276687 0.297500
Si Si4 0.376019 0.985020 0.558906
Si Si5 0.189141 0.737397 0.849936
Si Si6 0.754530 0.000785 0.124383
Si Si7 0.927295 0.467467 0.635545
Si Si8 0.530535 0.772219 0.614551
O O1 0.397969 0.529720 0.752453
O O2 0.261730 0.688621 0.742935
O O3 0.194121 0.513088 0.618818
O O4 0.372793 0.377575 0.150990
O O5 0.500000 0.500000 0.500000
O O6 0.572799 0.261205 0.609979
O O7 0.723316 0.385617 0.796561
O O8 0.142579 0.141251 0.591399
O O9 0.083258 0.406599 0.295111
O O10 0.932057 0.274450 0.304787
O O11 0.989069 0.315168 0.941225
O O12 0.319949 0.985169 0.741303
O O13 0.425692 0.111645 0.528460
O O14 0.478153 0.841791 0.744110
O O15 0.299680 0.005147 0.202092
O O16 0.191239 0.877278 0.867097
O O17 0.000000 0.500000 0.500000
#
# Coordination Sequence:
#
# PCOD9064366 Si02
#       8
#     2   2   2   2   2   2   2   2
#     4  12  25  43  74 106 140 190 239 301 369 432
#     4  12  25  43  69 104 144 190 240 296 365 430
#     4  11  26  45  73 105 141 193 235 306 364 432
#     4  11  28  49  72 109 143 196 243 304 356 443
#     4  12  25  46  68 105 143 188 242 302 358 439
#     4  12  28  49  76 104 148 192 249 295 371 427
#     4  11  24  45  74 105 146 178 244 300 362 435
#     4  11  25  45  72 103 147 190 243 300 367 427
#
# _framework density 22.941464
#
# number of rings (size 3 to 8) (size 9 to 14) (size 15 to 20)
#    0.000    0.500    5.000    2.250    5.250    4.000 
#    0.000    1.875    0.000    0.000    0.000    0.000 
#    0.000    0.000    0.000    0.000    0.000    0.000 
#
# Total GULP energy -89077.961533 kJ/mol
# GULP energy per Si atom -5567.372596 kJ/mol
# Density = 2.288925 g / cm^3
# Si number density = 22.941464 Si / 1000 Ang^3
#
#
#
# Elastic Constant Matrix: (Units=GPa)
#
#
# Indices 1 2 3 4 5 6 
#
# 1 86.4534 4.5315 17.0088 3.6526 -7.5619 2.8714
# 2 4.5315 97.0847 10.3945 -9.4365 8.1182 5.6517
# 3 17.0088 10.3945 75.8171 -6.3726 19.1781 -2.0633
# 4 3.6526 -9.4365 -6.3726 29.4131 1.1231 12.3990
# 5 -7.5619 8.1182 19.1781 1.1231 37.2027 4.5430
# 6 2.8714 5.6517 -2.0633 12.3990 4.5430 24.1314
#
#
#
# Elastic Compliance Matrix: (Units=1/GPa)
#
#
# Indices 1 2 3 4 5 6 
#
# 1 0.013100 -0.000724 -0.004440 -0.002367 0.005372 -0.001564
# 2 -0.000724 0.011444 -0.000577 0.005966 -0.001873 -0.005356
# 3 -0.004440 -0.000577 0.017149 0.003539 -0.009992 0.002192
# 4 -0.002367 0.005966 0.003539 0.047527 -0.002007 -0.024855
# 5 0.005372 -0.001873 -0.009992 -0.002007 0.034385 -0.006497
# 6 -0.001564 -0.005356 0.002192 -0.024855 -0.006497 0.057062
#
#
# Mechanical properties :
#
#
# Convention : Reuss Voigt Hill
#
# Bulk Modulus (GPa) = 33.10037 35.91386 34.50712
# Shear Modulus (GPa) = 24.72536 33.31078 29.01807
#
# Velocity S-wave (km/s) = 3.28648 3.81463 3.56037
# Velocity P-wave (km/s) = 5.37223 5.92372 5.65470
#
# Compressibility (1/GPa) = 0.03021114
#
# Stress axis : x y z
#
# Youngs Moduli (GPa) = 76.33436 87.38059 58.31111
#
# Poissons Ratio (x) = 0.06329 0.25890
# Poissons Ratio (y) = 0.05529 0.03365
# Poissons Ratio (z) = 0.33893 0.05042
#
# Static dielectric constant tensor:
#      x y z
#    x 1.832160 -0.145190 0.098210 
#    y -0.145190 2.014780 0.208380 
#    z 0.098210 0.208380 1.648590 
# 
# From -- ./inp_files/81153.got.cif
#   From: 2010.05.17/outbox.cif.g08.bks.cpg/sg2_41_cif.got.tgz:81153.got - 2010.06.03 11:33:40.
