data_PCOD9064113
_publ_section_title
;
Structure prediction by ZEFSAII (Michael W. Deem and Ramdas Pophale) SiO2 
 PCOD9064113
Probable space group: P -1
;
_chemical_formula_sum "Si O2"
_cell_formula_units_Z 12
_cell_length_a 8.851936
_cell_length_b 9.474706
_cell_length_c 12.736401
_cell_angle_alpha 105.923616
_cell_angle_beta 142.161224
_cell_angle_gamma 90.843624
_cell_volume 579.630301
_symmetry_space_group_name_H-M "P -1"
_symmetry_group_IT_number 2
_symmetry_cell_setting 'triclinic'
loop_
_space_group_symop_operation_xyz
x,y,z
-x,-y,-z
loop_
_atom_site_type_symbol
_atom_site_label
_atom_site_fract_x
_atom_site_fract_y
_atom_site_fract_z
Si Si1 0.244070 0.168194 0.147412
Si Si2 0.129908 0.487553 0.177417
Si Si3 0.395919 0.632827 0.999745
Si Si4 0.032866 0.176922 0.573237
Si Si5 0.600930 0.164741 0.156109
Si Si6 0.646162 0.162590 0.543490
O O1 0.221255 0.338398 0.188942
O O2 0.355890 0.164851 0.092292
O O3 0.453985 0.154701 0.341371
O O4 0.000000 0.000000 0.000000
O O5 0.317154 0.671863 0.344065
O O6 0.000000 0.500000 0.000000
O O7 0.888387 0.432403 0.115247
O O8 0.643860 0.736403 0.231489
O O9 0.500000 0.500000 0.000000
O O10 0.349415 0.709511 0.882911
O O11 0.852601 0.205756 0.384885
O O12 0.916698 0.184890 0.629294
O O13 0.000000 0.000000 0.500000
O O14 0.500000 0.000000 0.000000
O O15 0.500000 0.000000 0.500000
#
# Coordination Sequence:
#
# PCOD9064113 Si02
#       6
#     2   2   2   2   2   2
#     4  11  25  44  70 104 140 180 231 283 347 417
#     4  12  26  46  69 103 139 182 232 286 351 411
#     4  12  25  46  71 100 144 177 230 295 345 412
#     4  11  25  44  72 105 133 182 239 278 348 415
#     4  11  24  45  71 102 138 183 231 284 344 414
#     4  11  26  46  70  99 139 185 230 287 347 412
#
# _framework density 20.702852
#
# number of rings (size 3 to 8) (size 9 to 14) (size 15 to 20)
#    0.000    0.667    3.333    3.500    7.000    2.000 
#    3.000    0.000    0.000    0.000    0.000    0.000 
#    0.000    0.000    0.000    0.000    0.000    0.000 
#
# Total GULP energy -66821.587954 kJ/mol
# GULP energy per Si atom -5568.465663 kJ/mol
# Density = 2.065573 g / cm^3
# Si number density = 20.702852 Si / 1000 Ang^3
#
#
#
# Elastic Constant Matrix: (Units=GPa)
#
#
# Indices 1 2 3 4 5 6 
#
# 1 122.7981 62.2182 6.9628 1.5716 -14.7428 13.9205
# 2 62.2182 146.1739 13.6117 1.3314 -9.6040 13.6473
# 3 6.9628 13.6117 76.6336 12.0443 -6.2935 15.7419
# 4 1.5716 1.3314 12.0443 50.0602 -0.4226 -13.9450
# 5 -14.7428 -9.6040 -6.2935 -0.4226 32.2547 -0.4221
# 6 13.9205 13.6473 15.7419 -13.9450 -0.4221 45.7515
#
#
#
# Elastic Compliance Matrix: (Units=1/GPa)
#
#
# Indices 1 2 3 4 5 6 
#
# 1 0.011040 -0.004258 0.000801 -0.001139 0.003884 -0.002676
# 2 -0.004258 0.008874 -0.000893 -0.000189 0.000505 -0.001097
# 3 0.000801 -0.000893 0.015748 -0.005748 0.003004 -0.007120
# 4 -0.001139 -0.000189 -0.005748 0.024095 -0.001255 0.009713
# 5 0.003884 0.000505 0.003004 -0.001255 0.033467 -0.002440
# 6 -0.002676 -0.001097 -0.007120 0.009713 -0.002440 0.028386
#
#
# Mechanical properties :
#
#
# Convention : Reuss Voigt Hill
#
# Bulk Modulus (GPa) = 37.09028 56.79899 46.94464
# Shear Modulus (GPa) = 35.89450 43.13416 39.51433
#
# Velocity S-wave (km/s) = 4.16840 4.56948 4.37354
# Velocity P-wave (km/s) = 6.41263 7.43875 6.94467
#
# Compressibility (1/GPa) = 0.02696124
#
# Stress axis : x y z
#
# Youngs Moduli (GPa) = 90.58162 112.68717 63.50141
#
# Poissons Ratio (x) = 0.47985 -0.05085
# Poissons Ratio (y) = 0.38572 0.05669
# Poissons Ratio (z) = -0.07254 0.10061
#
# Static dielectric constant tensor:
#      x y z
#    x 1.156940 -0.658760 -0.610440 
#    y -0.658760 1.040740 -0.734100 
#    z -0.610440 -0.734100 0.922370 
# 
# From -- ./inp_files/152503.got.cif
#   From: 2010.05.17/outbox.cif.g08.bks.cpg/sg2_77_cif.got.tgz:152503.got - 2010.06.03 11:33:40.
