data_PCOD9064956
_publ_section_title
;
Structure prediction by ZEFSAII (Michael W. Deem and Ramdas Pophale) SiO2 
 PCOD9064956
Probable space group: P -1
;
_chemical_formula_sum "Si O2"
_cell_formula_units_Z 12
_cell_length_a 5.863901
_cell_length_b 17.099166
_cell_length_c 8.179900
_cell_angle_alpha 48.838982
_cell_angle_beta 57.829850
_cell_angle_gamma 86.532173
_cell_volume 465.448619
_symmetry_space_group_name_H-M "P -1"
_symmetry_group_IT_number 2
_symmetry_cell_setting 'triclinic'
loop_
_space_group_symop_operation_xyz
x,y,z
-x,-y,-z
loop_
_atom_site_type_symbol
_atom_site_label
_atom_site_fract_x
_atom_site_fract_y
_atom_site_fract_z
Si Si1 0.482906 0.761883 0.173558
Si Si2 0.789123 0.973715 0.953169
Si Si3 0.158882 0.405701 0.422002
Si Si4 0.800562 0.617482 0.194786
Si Si5 0.614293 0.344066 0.150192
Si Si6 0.604566 0.899549 0.625441
O O1 0.704168 0.717356 0.068454
O O2 0.154658 0.655714 0.472136
O O3 0.635101 0.835437 0.173251
O O4 0.475658 0.850849 0.920042
O O5 0.035191 0.038743 0.627718
O O6 0.500000 0.000000 0.000000
O O7 0.000000 0.000000 0.000000
O O8 0.060767 0.368486 0.696046
O O9 0.380997 0.354251 0.349457
O O10 0.327946 0.545506 0.144191
O O11 0.500000 0.500000 0.500000
O O12 0.043247 0.619260 0.972227
O O13 0.509582 0.215839 0.289185
O O14 0.500000 0.000000 0.500000
#
# Coordination Sequence:
#
# PCOD9064956 Si02
#       6
#     2   2   2   2   2   2
#     4  12  26  49  78 108 154 205 265 326 398 485
#     4  12  29  50  77 114 157 210 269 333 397 476
#     4  11  25  49  74 115 153 204 259 332 399 475
#     4  12  24  44  75 113 154 198 255 322 405 469
#     4  11  24  46  77 108 158 201 262 325 398 478
#     4  12  26  50  80 111 157 216 269 327 406 487
#
# _framework density 25.781582
#
# number of rings (size 3 to 8) (size 9 to 14) (size 15 to 20)
#    0.000    0.333    3.333    5.000    4.667    2.000 
#    3.000    0.000    0.000    0.000    0.000    0.000 
#    0.000    0.000    0.000    0.000    0.000    0.000 
#
# Total GULP energy -67099.911799 kJ/mol
# GULP energy per Si atom -5591.659317 kJ/mol
# Density = 2.572290 g / cm^3
# Si number density = 25.781582 Si / 1000 Ang^3
#
#
#
# Elastic Constant Matrix: (Units=GPa)
#
#
# Indices 1 2 3 4 5 6 
#
# 1 118.0869 78.5354 36.6381 -10.1607 -24.5306 -19.9826
# 2 78.5354 170.7045 48.1316 -16.7216 -16.0092 -32.3371
# 3 36.6381 48.1316 96.3151 -18.1945 -0.5841 -10.5368
# 4 -10.1607 -16.7216 -18.1945 55.5146 -9.4758 -6.5079
# 5 -24.5306 -16.0092 -0.5841 -9.4758 64.3524 -0.7815
# 6 -19.9826 -32.3371 -10.5368 -6.5079 -0.7815 69.3745
#
#
#
# Elastic Compliance Matrix: (Units=1/GPa)
#
#
# Indices 1 2 3 4 5 6 
#
# 1 0.013618 -0.004816 -0.002371 0.001147 0.004159 0.001472
# 2 -0.004816 0.009499 -0.002275 0.001705 0.000793 0.002864
# 3 -0.002371 -0.002275 0.013052 0.003067 -0.000893 0.000517
# 4 0.001147 0.001705 0.003067 0.020846 0.004003 0.003592
# 5 0.004159 0.000793 -0.000893 0.004003 0.017927 0.002009
# 6 0.001472 0.002864 0.000517 0.003592 0.002009 0.016612
#
#
# Mechanical properties :
#
#
# Convention : Reuss Voigt Hill
#
# Bulk Modulus (GPa) = 57.98297 79.07963 68.53130
# Shear Modulus (GPa) = 43.01987 52.63506 47.82746
#
# Velocity S-wave (km/s) = 4.08932 4.52328 4.31176
# Velocity P-wave (km/s) = 6.69594 7.61706 7.17130
#
# Compressibility (1/GPa) = 0.01724644
#
# Stress axis : x y z
#
# Youngs Moduli (GPa) = 73.43044 105.27585 76.61883
#
# Poissons Ratio (x) = 0.50696 0.18165
# Poissons Ratio (y) = 0.35361 0.17429
# Poissons Ratio (z) = 0.17409 0.23948
#
# Static dielectric constant tensor:
#      x y z
#    x 2.250190 0.084000 -0.034920 
#    y 0.084000 2.052680 -0.025210 
#    z -0.034920 -0.025210 2.039630 
# 
# From -- ./inp_files/28032.got.cif
#   From: 2010.05.17/outbox.cif.g08.bks.cpg/sg2_15_cif.got.tgz:28032.got - 2010.06.03 11:33:40.
