data_PCOD9064061
_publ_section_title
;
Structure prediction by ZEFSAII (Michael W. Deem and Ramdas Pophale) SiO2 
 PCOD9064061
Probable space group: P -1
;
_chemical_formula_sum "Si O2"
_cell_formula_units_Z 12
_cell_length_a 8.921970
_cell_length_b 7.900898
_cell_length_c 11.840217
_cell_angle_alpha 121.698603
_cell_angle_beta 138.215613
_cell_angle_gamma 52.865216
_cell_volume 438.888856
_symmetry_space_group_name_H-M "P -1"
_symmetry_group_IT_number 2
_symmetry_cell_setting 'triclinic'
loop_
_space_group_symop_operation_xyz
x,y,z
-x,-y,-z
loop_
_atom_site_type_symbol
_atom_site_label
_atom_site_fract_x
_atom_site_fract_y
_atom_site_fract_z
Si Si1 0.786078 0.376644 0.096165
Si Si2 0.495848 0.136405 0.426712
Si Si3 0.781356 0.166570 0.780429
Si Si4 0.825797 0.743431 0.129630
Si Si5 0.558795 0.205709 0.244578
Si Si6 0.006886 0.733597 0.585727
O O1 0.909341 0.548836 0.197213
O O2 0.875334 0.253222 0.220726
O O3 0.500000 0.500000 0.000000
O O4 0.813233 0.242261 0.949781
O O5 0.293847 0.039046 0.302962
O O6 0.753320 0.929496 0.488874
O O7 0.543290 0.274635 0.603488
O O8 0.449317 0.248053 0.320959
O O9 0.986661 0.197346 0.824025
O O10 0.658503 0.953409 0.177882
O O11 0.649876 0.682275 0.923525
O O12 0.799121 0.254509 0.390043
O O13 0.000000 0.500000 0.500000
#
# Coordination Sequence:
#
# PCOD9064061 Si02
#       6
#     2   2   2   2   2   2
#     4  12  25  47  72  99 138 180 234 281 341 412
#     4  11  26  45  68 103 141 181 227 278 347 405
#     4  11  26  45  70 101 141 181 227 288 339 401
#     4  11  24  45  70 105 132 183 234 276 341 402
#     4  11  24  45  74  99 136 184 229 279 336 416
#     4  12  25  43  73 103 135 181 230 281 337 406
#
# _framework density 27.341775999999999
#
# number of rings (size 3 to 8) (size 9 to 14) (size 15 to 20)
#    0.000    0.667    3.333    4.000    4.667    4.000 
#    0.000    1.667    0.000    0.000    0.000    0.000 
#    0.000    0.000    0.000    0.000    0.000    0.000 
#
# Total GULP energy -67160.455021 kJ/mol
# GULP energy per Si atom -5596.704585 kJ/mol
# Density = 2.727954 g / cm^3
# Si number density = 27.341776 Si / 1000 Ang^3
#
#
#
# Elastic Constant Matrix: (Units=GPa)
#
#
# Indices 1 2 3 4 5 6 
#
# 1 163.5090 0.8311 19.3829 -10.6257 12.6398 18.0225
# 2 0.8311 66.6822 -0.7630 -7.2357 16.0737 6.3450
# 3 19.3829 -0.7630 104.4774 10.7291 -2.4282 -0.0610
# 4 -10.6257 -7.2357 10.7291 30.6003 4.6393 9.1263
# 5 12.6398 16.0737 -2.4282 4.6393 65.0965 -6.3851
# 6 18.0225 6.3450 -0.0610 9.1263 -6.3851 43.7420
#
#
#
# Elastic Compliance Matrix: (Units=1/GPa)
#
#
# Indices 1 2 3 4 5 6 
#
# 1 0.007462 0.001627 -0.002012 0.005562 -0.002801 -0.004883
# 2 0.001627 0.017760 -0.001107 0.007746 -0.005856 -0.005719
# 3 -0.002012 -0.001107 0.010557 -0.005644 0.001698 0.002430
# 4 0.005562 0.007746 -0.005644 0.043652 -0.007653 -0.013648
# 5 -0.002801 -0.005856 0.001698 -0.007653 0.018580 0.006315
# 6 -0.004883 -0.005719 0.002430 -0.013648 0.006315 0.029475
#
#
# Mechanical properties :
#
#
# Convention : Reuss Voigt Hill
#
# Bulk Modulus (GPa) = 30.49131 41.50784 35.99958
# Shear Modulus (GPa) = 35.36032 48.90224 42.13128
#
# Velocity S-wave (km/s) = 3.60011 4.23372 3.92970
# Velocity P-wave (km/s) = 5.33453 6.25406 5.81250
#
# Compressibility (1/GPa) = 0.03279623
#
# Stress axis : x y z
#
# Youngs Moduli (GPa) = 134.00708 56.30705 94.72327
#
# Poissons Ratio (x) = -0.09163 0.19056
# Poissons Ratio (y) = -0.21808 0.10487
# Poissons Ratio (z) = 0.26958 0.06234
#
# Static dielectric constant tensor:
#      x y z
#    x 2.101110 -0.093030 -0.056130 
#    y -0.093030 2.291650 0.062000 
#    z -0.056130 0.062000 2.145800 
# 
# From -- ./inp_files/184753.got.cif
#   From: 2010.05.17/outbox.cif.g08.bks.cpg/sg2_93_cif.got.tgz:184753.got - 2010.06.03 11:33:40.
