data_PCOD9064222
_publ_section_title
;
Structure prediction by ZEFSAII (Michael W. Deem and Ramdas Pophale) SiO2 
 PCOD9064222
Probable space group: P -1
;
_chemical_formula_sum "Si O2"
_cell_formula_units_Z 13
_cell_length_a 11.279080
_cell_length_b 11.964652
_cell_length_c 10.927947
_cell_angle_alpha 94.145538
_cell_angle_beta 54.375008
_cell_angle_gamma 140.357861
_cell_volume 526.325535
_symmetry_space_group_name_H-M "P -1"
_symmetry_group_IT_number 2
_symmetry_cell_setting 'triclinic'
loop_
_space_group_symop_operation_xyz
x,y,z
-x,-y,-z
loop_
_atom_site_type_symbol
_atom_site_label
_atom_site_fract_x
_atom_site_fract_y
_atom_site_fract_z
Si Si1 0.771933 0.376480 0.875990
Si Si2 0.349224 0.964894 0.920275
Si Si3 0.801277 0.131371 0.387919
Si Si4 0.725229 0.565111 0.436982
Si Si5 0.145803 0.975542 0.406257
Si Si6 0.000000 0.500000 0.000000
Si Si7 0.779511 0.945135 0.190076
O O1 0.918795 0.581443 0.729137
O O2 0.036109 0.528597 0.832861
O O3 0.662510 0.198422 0.840834
O O4 0.464290 0.196842 0.139391
O O5 0.032377 0.765742 0.179049
O O6 0.246429 0.783892 0.893489
O O7 0.380607 0.090714 0.821386
O O8 0.767422 0.022004 0.515589
O O9 0.500000 0.000000 0.500000
O O10 0.948775 0.153279 0.193075
O O11 0.500000 0.500000 0.500000
O O12 0.499688 0.304256 0.579775
O O13 0.865308 0.707661 0.490984
O O14 0.000000 0.000000 0.500000
O O15 0.000000 0.000000 0.000000
#
# Coordination Sequence:
#
# PCOD9064222 Si02
#       7
#     2   2   2   2   2   1   2
#     4  11  26  48  75 111 155 197 263 323 386 464
#     4  11  26  47  73 112 146 202 255 318 388 460
#     4  12  28  50  79 113 157 210 262 323 397 473
#     4  11  24  45  72 105 150 194 255 316 381 461
#     4  11  27  45  75 114 149 203 261 322 388 467
#     4  12  24  48  76 106 154 204 258 312 394 468
#     4  12  26  44  74 108 152 201 253 317 392 457
#
# _framework density 24.699541
#
# number of rings (size 3 to 8) (size 9 to 14) (size 15 to 20)
#    0.000    0.615    3.077    3.231   10.769    0.615 
#    0.000    1.538    0.000    0.000    0.000    0.000 
#    0.000    0.000    0.000    0.000    0.000    0.000 
#
# Total GULP energy -72382.873310 kJ/mol
# GULP energy per Si atom -5567.913332 kJ/mol
# Density = 2.464332 g / cm^3
# Si number density = 24.699541 Si / 1000 Ang^3
#
#
#
# Elastic Constant Matrix: (Units=GPa)
#
#
# Indices 1 2 3 4 5 6 
#
# 1 170.0078 62.2995 56.7956 3.6757 22.8711 -2.3162
# 2 62.2995 200.0084 26.1910 -0.4351 -4.4413 8.3759
# 3 56.7956 26.1910 72.9130 -7.1801 13.4188 -6.7480
# 4 3.6757 -0.4351 -7.1801 46.4332 -14.2978 10.2809
# 5 22.8711 -4.4413 13.4188 -14.2978 40.6816 -3.1397
# 6 -2.3162 8.3759 -6.7480 10.2809 -3.1397 46.7946
#
#
#
# Elastic Compliance Matrix: (Units=1/GPa)
#
#
# Indices 1 2 3 4 5 6 
#
# 1 0.009400 -0.002281 -0.005920 -0.003213 -0.004678 0.000412
# 2 -0.002281 0.005935 -0.000829 0.001189 0.002515 -0.001388
# 3 -0.005920 -0.000829 0.019445 0.002349 -0.002196 0.001996
# 4 -0.003213 0.001189 0.002349 0.026399 0.010041 -0.005159
# 5 -0.004678 0.002515 -0.002196 0.010041 0.031656 -0.001081
# 6 0.000412 -0.001388 0.001996 -0.005159 -0.001081 0.022988
#
#
# Mechanical properties :
#
#
# Convention : Reuss Voigt Hill
#
# Bulk Modulus (GPa) = 59.81146 81.50016 70.65581
# Shear Modulus (GPa) = 35.85325 46.62473 41.23899
#
# Velocity S-wave (km/s) = 3.81409 4.34945 4.09054
# Velocity P-wave (km/s) = 6.60792 7.63491 7.13990
#
# Compressibility (1/GPa) = 0.01671920
#
# Stress axis : x y z
#
# Youngs Moduli (GPa) = 106.38112 168.48054 51.42772
#
# Poissons Ratio (x) = 0.38428 0.30446
# Poissons Ratio (y) = 0.24264 0.04266
# Poissons Ratio (z) = 0.62980 0.13975
#
# Static dielectric constant tensor:
#      x y z
#    x 1.891950 -0.184800 0.028090 
#    y -0.184800 1.484110 0.107220 
#    z 0.028090 0.107220 2.002180 
# 
# From -- ./inp_files/425943.got.cif
#   From: 2010.05.17/outbox.cif.g08.bks.cpg/sg2_213_cif.got.tgz:425943.got - 2010.06.03 11:33:40.
