data_PCOD9064757
_publ_section_title
;
Structure prediction by ZEFSAII (Michael W. Deem and Ramdas Pophale) SiO2 
 PCOD9064757
Probable space group: P -1
;
_chemical_formula_sum "Si O2"
_cell_formula_units_Z 16
_cell_length_a 8.894101
_cell_length_b 11.029712
_cell_length_c 8.809541
_cell_angle_alpha 82.066556
_cell_angle_beta 98.353039
_cell_angle_gamma 118.200204
_cell_volume 751.161838
_symmetry_space_group_name_H-M "P -1"
_symmetry_group_IT_number 2
_symmetry_cell_setting 'triclinic'
loop_
_space_group_symop_operation_xyz
x,y,z
-x,-y,-z
loop_
_atom_site_type_symbol
_atom_site_label
_atom_site_fract_x
_atom_site_fract_y
_atom_site_fract_z
Si Si1 0.761197 0.579447 0.609366
Si Si2 0.072588 0.580610 0.152215
Si Si3 0.972671 0.868347 0.420729
Si Si4 0.410283 0.863890 0.114603
Si Si5 0.715146 0.506532 0.275099
Si Si6 0.384747 0.272893 0.214245
Si Si7 0.348721 0.993613 0.378863
Si Si8 0.702207 0.773865 0.134749
O O1 0.846878 0.499608 0.724215
O O2 0.875631 0.728186 0.524100
O O3 0.688236 0.491911 0.456955
O O4 0.663863 0.623972 0.715411
O O5 0.222825 0.730427 0.095546
O O6 0.911259 0.568770 0.232716
O O7 0.000000 0.500000 0.000000
O O8 0.869499 0.859397 0.250660
O O9 0.000000 0.000000 0.500000
O O10 0.160742 0.887060 0.419650
O O11 0.550978 0.808662 0.156031
O O12 0.381659 0.936360 0.241099
O O13 0.500000 0.000000 0.000000
O O14 0.589584 0.361581 0.203256
O O15 0.655297 0.617669 0.194060
O O16 0.352512 0.140797 0.332032
O O17 0.286931 0.219165 0.048671
O O18 0.500000 0.000000 0.500000
#
# Coordination Sequence:
#
# PCOD9064757 Si02
#       8
#     2   2   2   2   2   2   2   2
#     4  11  25  44  73 103 141 192 239 300 362 435
#     4  12  27  46  74 107 148 190 246 306 364 436
#     4  11  24  48  70 106 144 193 238 297 365 437
#     4  12  26  48  70 107 145 191 242 301 368 424
#     4  11  25  45  73 103 146 186 244 299 369 432
#     4  12  24  45  70 108 139 196 238 300 366 430
#     4  12  28  44  71 106 148 190 244 296 364 436
#     4  11  24  46  73 100 144 186 241 301 357 436
#
# _framework density 21.300336999999999
#
# number of rings (size 3 to 8) (size 9 to 14) (size 15 to 20)
#    0.000    0.500    2.500    5.625    5.250    1.500 
#    2.250    0.000    0.000    0.000    0.000    0.000 
#    0.000    0.000    0.000    0.000    0.000    0.000 
#
# Total GULP energy -89253.807812 kJ/mol
# GULP energy per Si atom -5578.362988 kJ/mol
# Density = 2.125186 g / cm^3
# Si number density = 21.300337 Si / 1000 Ang^3
#
#
#
# Elastic Constant Matrix: (Units=GPa)
#
#
# Indices 1 2 3 4 5 6 
#
# 1 130.5767 31.7802 32.7343 -1.3788 -12.6512 7.3471
# 2 31.7802 107.0943 36.7518 7.1510 15.0531 14.3106
# 3 32.7343 36.7518 103.6008 8.1443 6.1153 12.5650
# 4 -1.3788 7.1510 8.1443 30.7826 -10.1049 8.0752
# 5 -12.6512 15.0531 6.1153 -10.1049 36.9746 3.1715
# 6 7.3471 14.3106 12.5650 8.0752 3.1715 43.3189
#
#
#
# Elastic Compliance Matrix: (Units=1/GPa)
#
#
# Indices 1 2 3 4 5 6 
#
# 1 0.009745 -0.003010 -0.002566 0.004156 0.006218 -0.001144
# 2 -0.003010 0.012554 -0.002584 -0.004143 -0.006706 -0.001624
# 3 -0.002566 -0.002584 0.011947 -0.003141 -0.002540 -0.001405
# 4 0.004156 -0.004143 -0.003141 0.041501 0.015597 -0.007303
# 5 0.006218 -0.006706 -0.002540 0.015597 0.036904 -0.003712
# 6 -0.001144 -0.001624 -0.001405 -0.007303 -0.003712 0.025856
#
#
# Mechanical properties :
#
#
# Convention : Reuss Voigt Hill
#
# Bulk Modulus (GPa) = 55.78541 60.42272 58.10407
# Shear Modulus (GPa) = 31.09402 38.21557 34.65480
#
# Velocity S-wave (km/s) = 3.82486 4.24031 4.03794
# Velocity P-wave (km/s) = 6.76409 7.23894 7.00554
#
# Compressibility (1/GPa) = 0.01792583
#
# Stress axis : x y z
#
# Youngs Moduli (GPa) = 102.61744 79.65783 83.70175
#
# Poissons Ratio (x) = 0.23975 0.21481
# Poissons Ratio (y) = 0.30885 0.21627
# Poissons Ratio (z) = 0.26335 0.20583
#
# Static dielectric constant tensor:
#      x y z
#    x 1.774300 0.007040 0.003300 
#    y 0.007040 1.737850 0.023570 
#    z 0.003300 0.023570 1.791210 
# 
# From -- ./inp_files/177943.got.cif
#   From: 2010.05.17/outbox.cif.g08.bks.cpg/sg2_89_cif.got.tgz:177943.got - 2010.06.03 11:33:40.
