data_PCOD9064494
_publ_section_title
;
Structure prediction by ZEFSAII (Michael W. Deem and Ramdas Pophale) SiO2 
 PCOD9064494
Probable space group: P -1
;
_chemical_formula_sum "Si O2"
_cell_formula_units_Z 15
_cell_length_a 10.932223
_cell_length_b 8.206908
_cell_length_c 10.010182
_cell_angle_alpha 131.702317
_cell_angle_beta 119.553094
_cell_angle_gamma 69.466566
_cell_volume 582.947805
_symmetry_space_group_name_H-M "P -1"
_symmetry_group_IT_number 2
_symmetry_cell_setting 'triclinic'
loop_
_space_group_symop_operation_xyz
x,y,z
-x,-y,-z
loop_
_atom_site_type_symbol
_atom_site_label
_atom_site_fract_x
_atom_site_fract_y
_atom_site_fract_z
Si Si1 0.380324 0.701194 0.706744
Si Si2 0.770132 0.363094 0.161349
Si Si3 0.657279 0.603578 0.707326
Si Si4 0.162369 0.014553 0.637248
Si Si5 0.073063 0.282273 0.976666
Si Si6 0.689574 0.809344 0.442219
Si Si7 0.000000 0.000000 0.000000
Si Si8 0.637004 0.276972 0.770049
O O1 0.352503 0.730597 0.862974
O O2 0.535513 0.771709 0.786614
O O3 0.385329 0.468590 0.503456
O O4 0.238939 0.800122 0.618524
O O5 0.791582 0.590915 0.376888
O O6 0.901923 0.197112 0.126962
O O7 0.707838 0.395068 0.997153
O O8 0.668045 0.410394 0.721816
O O9 0.813443 0.690986 0.829760
O O10 0.160687 0.183143 0.848579
O O11 0.260265 0.082610 0.607966
O O12 0.000000 0.000000 0.500000
O O13 0.971240 0.115703 0.898861
O O14 0.000000 0.500000 0.000000
O O15 0.531203 0.725654 0.302844
O O16 0.681824 0.017691 0.650319
#
# Coordination Sequence:
#
# PCOD9064494 Si02
#       8
#     2   2   2   2   2   2   1   2
#     4  11  25  46  73 110 149 190 248 332 382 457
#     4  12  26  48  75 110 155 195 260 324 388 458
#     4  11  24  48  78 110 155 196 255 319 398 471
#     4  12  26  47  70 102 149 200 252 314 390 460
#     4  12  27  49  77 107 152 212 255 320 392 468
#     4  11  25  45  78 109 145 204 256 312 396 462
#     4  12  28  48  70 112 152 202 270 312 376 482
#     4  11  24  45  79 112 152 197 253 322 393 483
#
# _framework density 25.731293000000001
#
# number of rings (size 3 to 8) (size 9 to 14) (size 15 to 20)
#    0.000    0.533    4.000    3.600    3.733    2.667 
#    0.000    2.000    0.000    0.000    0.000    0.000 
#    0.000    0.000    0.000    0.000    0.000    0.000 
#
# Total GULP energy -83560.260172 kJ/mol
# GULP energy per Si atom -5570.684011 kJ/mol
# Density = 2.567273 g / cm^3
# Si number density = 25.731293 Si / 1000 Ang^3
#
#
#
# Elastic Constant Matrix: (Units=GPa)
#
#
# Indices 1 2 3 4 5 6 
#
# 1 93.3815 20.7372 30.8892 1.8750 -23.1485 -32.5573
# 2 20.7372 117.7031 35.4750 7.9552 -15.0370 -33.5834
# 3 30.8892 35.4750 73.5348 1.4140 -24.0482 -12.2654
# 4 1.8750 7.9552 1.4140 43.5761 -10.4510 -16.3378
# 5 -23.1485 -15.0370 -24.0482 -10.4510 56.6086 -1.4703
# 6 -32.5573 -33.5834 -12.2654 -16.3378 -1.4703 41.3671
#
#
#
# Elastic Compliance Matrix: (Units=1/GPa)
#
#
# Indices 1 2 3 4 5 6 
#
# 1 0.022198 0.005200 -0.004213 0.010252 0.011208 0.024890
# 2 0.005200 0.013879 -0.004629 0.004615 0.005114 0.015992
# 3 -0.004213 -0.004629 0.019277 0.001507 0.005500 -0.000567
# 4 0.010252 0.004615 0.001507 0.034676 0.013147 0.026425
# 5 0.011208 0.005114 0.005500 0.013147 0.028911 0.020824
# 6 0.024890 0.015992 -0.000567 0.026425 0.020824 0.067755
#
#
# Mechanical properties :
#
#
# Convention : Reuss Voigt Hill
#
# Bulk Modulus (GPa) = 20.80304 50.98024 35.89164
# Shear Modulus (GPa) = 23.80898 41.47824 32.64361
#
# Velocity S-wave (km/s) = 3.04516 4.01930 3.56565
# Velocity P-wave (km/s) = 4.52397 6.43391 5.56154
#
# Compressibility (1/GPa) = 0.04806990
#
# Stress axis : x y z
#
# Youngs Moduli (GPa) = 45.04862 72.04998 51.87538
#
# Poissons Ratio (x) = -0.37463 0.21856
# Poissons Ratio (y) = -0.23424 0.24012
# Poissons Ratio (z) = 0.18980 0.33350
#
# Static dielectric constant tensor:
#      x y z
#    x 1.926910 0.162570 -0.010220 
#    y 0.162570 2.166230 0.091300 
#    z -0.010220 0.091300 1.977160 
# 
# From -- ./inp_files/241578.got.cif
#   From: 2010.05.17/outbox.cif.g08.bks.cpg/sg2_121_cif.got.tgz:241578.got - 2010.06.03 11:33:40.
