data_PCOD9064298
_publ_section_title
;
Structure prediction by ZEFSAII (Michael W. Deem and Ramdas Pophale) SiO2 
 PCOD9064298
Probable space group: P -1
;
_chemical_formula_sum "Si O2"
_cell_formula_units_Z 14
_cell_length_a 5.155023
_cell_length_b 21.803915
_cell_length_c 9.685781
_cell_angle_alpha 33.455129
_cell_angle_beta 102.564941
_cell_angle_gamma 91.085456
_cell_volume 558.424569
_symmetry_space_group_name_H-M "P -1"
_symmetry_group_IT_number 2
_symmetry_cell_setting 'triclinic'
loop_
_space_group_symop_operation_xyz
x,y,z
-x,-y,-z
loop_
_atom_site_type_symbol
_atom_site_label
_atom_site_fract_x
_atom_site_fract_y
_atom_site_fract_z
Si Si1 0.717089 0.819250 0.473093
Si Si2 0.450519 0.579970 0.616899
Si Si3 0.138758 0.032817 0.319919
Si Si4 0.139357 0.388973 0.627223
Si Si5 0.425284 0.192257 0.220894
Si Si6 0.822095 0.402658 0.151912
Si Si7 0.209914 0.936522 0.024197
O O1 0.723438 0.772944 0.715994
O O2 0.971503 0.726083 0.604723
O O3 0.697470 0.955987 0.229526
O O4 0.455253 0.836141 0.309341
O O5 0.685755 0.610296 0.494266
O O6 0.360022 0.604224 0.721543
O O7 0.152702 0.631112 0.412514
O O8 0.615382 0.441582 0.923300
O O9 0.314344 0.111894 0.252338
O O10 0.941936 0.102650 0.046183
O O11 0.290691 0.903841 0.519187
O O12 0.000000 0.000000 0.500000
O O13 0.000000 0.500000 0.500000
O O14 0.372840 0.304744 0.910761
O O15 0.000000 0.500000 0.000000
O O16 0.000000 0.000000 0.000000
#
# Coordination Sequence:
#
# PCOD9064298 Si02
#       7
#     2   2   2   2   2   2   2
#     4  11  25  46  72 110 143 197 257 308 385 453
#     4  11  26  49  72 113 149 201 253 311 378 454
#     4  11  24  46  69 105 145 196 247 311 385 448
#     4  12  27  48  76 111 153 197 259 311 381 457
#     4  11  26  44  73 104 147 197 251 309 383 455
#     4  11  25  48  76 107 157 198 254 318 386 455
#     4  11  24  45  73 106 146 191 256 316 376 456
#
# _framework density 25.070532
#
# number of rings (size 3 to 8) (size 9 to 14) (size 15 to 20)
#    0.000    0.857    4.286    1.286    2.000    6.857 
#    0.000    0.000    0.000    0.000    0.000    0.000 
#    0.000    0.000    0.000    0.000    0.000    0.000 
#
# Total GULP energy -78046.481819 kJ/mol
# GULP energy per Si atom -5574.748701 kJ/mol
# Density = 2.501347 g / cm^3
# Si number density = 25.070532 Si / 1000 Ang^3
#
#
#
# Elastic Constant Matrix: (Units=GPa)
#
#
# Indices 1 2 3 4 5 6 
#
# 1 95.8857 28.0072 30.6700 -3.7007 12.2488 -25.4632
# 2 28.0072 82.9171 55.5299 8.2032 7.8877 -19.7424
# 3 30.6700 55.5299 131.4933 17.6175 15.8492 -3.3841
# 4 -3.7007 8.2032 17.6175 49.0111 -0.2567 5.1735
# 5 12.2488 7.8877 15.8492 -0.2567 43.4055 5.5323
# 6 -25.4632 -19.7424 -3.3841 5.1735 5.5323 52.5968
#
#
#
# Elastic Compliance Matrix: (Units=1/GPa)
#
#
# Indices 1 2 3 4 5 6 
#
# 1 0.013711 -0.001517 -0.002153 0.001393 -0.003586 0.006170
# 2 -0.001517 0.019170 -0.007249 -0.001384 -0.001215 0.006259
# 3 -0.002153 -0.007249 0.011743 -0.002917 -0.002061 -0.002504
# 4 0.001393 -0.001384 -0.002917 0.022043 0.001353 -0.002343
# 5 -0.003586 -0.001215 -0.002061 0.001353 0.025689 -0.005159
# 6 0.006170 0.006259 -0.002504 -0.002343 -0.005159 0.024961
#
#
# Mechanical properties :
#
#
# Convention : Reuss Voigt Hill
#
# Bulk Modulus (GPa) = 43.88560 59.85672 51.87116
# Shear Modulus (GPa) = 34.07141 42.07528 38.07334
#
# Velocity S-wave (km/s) = 3.69049 4.10112 3.90121
# Velocity P-wave (km/s) = 5.97516 6.80829 6.40528
#
# Compressibility (1/GPa) = 0.02278652
#
# Stress axis : x y z
#
# Youngs Moduli (GPa) = 72.93325 52.16554 85.15647
#
# Poissons Ratio (x) = 0.07913 0.18335
# Poissons Ratio (y) = 0.11064 0.61727
# Poissons Ratio (z) = 0.15703 0.37813
#
# Static dielectric constant tensor:
#      x y z
#    x 2.157120 0.092740 0.066790 
#    y 0.092740 1.945460 -0.068150 
#    z 0.066790 -0.068150 2.030850 
# 
# From -- ./inp_files/141032.got.cif
#   From: 2010.05.17/outbox.cif.g08.bks.cpg/sg2_71_cif.got.tgz:141032.got - 2010.06.03 11:33:40.
