data_PCOD9064560
_publ_section_title
;
Structure prediction by ZEFSAII (Michael W. Deem and Ramdas Pophale) SiO2 
 PCOD9064560
Probable space group: P -1
;
_chemical_formula_sum "Si O2"
_cell_formula_units_Z 16
_cell_length_a 12.366386
_cell_length_b 9.280550
_cell_length_c 10.988409
_cell_angle_alpha 123.876449
_cell_angle_beta 93.029324
_cell_angle_gamma 50.712341
_cell_volume 716.562242
_symmetry_space_group_name_H-M "P -1"
_symmetry_group_IT_number 2
_symmetry_cell_setting 'triclinic'
loop_
_space_group_symop_operation_xyz
x,y,z
-x,-y,-z
loop_
_atom_site_type_symbol
_atom_site_label
_atom_site_fract_x
_atom_site_fract_y
_atom_site_fract_z
Si Si1 0.134476 0.267624 0.257992
Si Si2 0.165579 0.244012 0.648872
Si Si3 0.386294 0.102305 0.391334
Si Si4 0.732936 0.586931 0.088938
Si Si5 0.348598 0.092382 0.971101
Si Si6 0.950673 0.025810 0.867777
Si Si7 0.123794 0.904593 0.569185
Si Si8 0.438546 0.383082 0.409627
O O1 0.253986 0.208466 0.333921
O O2 0.985508 0.561787 0.356569
O O3 0.074201 0.149060 0.235197
O O4 0.235690 0.131868 0.077232
O O5 0.320892 0.103912 0.513169
O O6 0.160158 0.407725 0.821835
O O7 0.169956 0.051082 0.618033
O O8 0.400672 0.294385 0.475426
O O9 0.551946 0.824713 0.231303
O O10 0.743060 0.648256 0.982077
O O11 0.792423 0.323539 0.981514
O O12 0.423453 0.873405 0.776478
O O13 0.500000 0.000000 0.000000
O O14 0.061019 0.958753 0.730138
O O15 0.000000 0.000000 0.000000
O O16 0.277778 0.601743 0.427737
O O17 0.000000 0.000000 0.500000
O O18 0.500000 0.500000 0.500000
#
# Coordination Sequence:
#
# PCOD9064560 Si02
#       8
#     2   2   2   2   2   2   2   2
#     4  12  24  44  74  98 142 193 234 295 357 429
#     4  12  25  43  72 102 142 188 238 295 357 424
#     4  11  24  46  69 103 141 188 239 288 363 429
#     4  11  25  44  72 101 142 184 240 294 353 435
#     4  11  24  47  73 105 141 187 234 294 365 426
#     4  12  28  46  70 108 146 186 241 301 362 421
#     4  12  27  45  70 104 141 184 242 300 354 428
#     4  11  25  43  73 104 145 184 234 298 360 429
#
# _framework density 22.328834000000001
#
# number of rings (size 3 to 8) (size 9 to 14) (size 15 to 20)
#    0.000    0.500    3.750    5.250    5.250    2.500 
#    0.000    0.000    0.000    0.000    0.000    0.000 
#    0.000    0.000    0.000    0.000    0.000    0.000 
#
# Total GULP energy -89572.087755 kJ/mol
# GULP energy per Si atom -5598.255485 kJ/mol
# Density = 2.227801 g / cm^3
# Si number density = 22.328834 Si / 1000 Ang^3
#
#
#
# Elastic Constant Matrix: (Units=GPa)
#
#
# Indices 1 2 3 4 5 6 
#
# 1 120.7644 43.4612 31.2495 -12.5614 -9.2750 34.9801
# 2 43.4612 142.1053 28.2499 6.0708 -3.1272 12.8289
# 3 31.2495 28.2499 57.7509 -7.5559 -10.9200 21.1614
# 4 -12.5614 6.0708 -7.5559 44.2814 0.9279 1.5296
# 5 -9.2750 -3.1272 -10.9200 0.9279 33.0773 -9.5984
# 6 34.9801 12.8289 21.1614 1.5296 -9.5984 55.9955
#
#
#
# Elastic Compliance Matrix: (Units=1/GPa)
#
#
# Indices 1 2 3 4 5 6 
#
# 1 0.012062 -0.002815 -0.002388 0.003597 0.000485 -0.006003
# 2 -0.002815 0.008604 -0.003566 -0.002608 -0.000768 0.001075
# 3 -0.002388 -0.003566 0.024041 0.004015 0.005071 -0.006017
# 4 0.003597 -0.002608 0.004015 0.024771 0.000292 -0.003794
# 5 0.000485 -0.000768 0.005071 0.000292 0.033008 0.003607
# 6 -0.006003 0.001075 -0.006017 -0.003794 0.003607 0.024358
#
#
# Mechanical properties :
#
#
# Convention : Reuss Voigt Hill
#
# Bulk Modulus (GPa) = 36.80551 58.50465 47.65508
# Shear Modulus (GPa) = 32.58629 41.18150 36.88390
#
# Velocity S-wave (km/s) = 3.82433 4.29921 4.06871
# Velocity P-wave (km/s) = 6.00165 7.13460 6.59251
#
# Compressibility (1/GPa) = 0.02716984
#
# Stress axis : x y z
#
# Youngs Moduli (GPa) = 82.90645 116.21908 41.59538
#
# Poissons Ratio (x) = 0.32720 0.09931
# Poissons Ratio (y) = 0.23342 0.14832
# Poissons Ratio (z) = 0.19795 0.41441
#
# Static dielectric constant tensor:
#      x y z
#    x 1.753000 -0.031620 -0.079390 
#    y -0.031620 1.847190 -0.056080 
#    z -0.079390 -0.056080 1.748410 
# 
# From -- ./inp_files/419737.got.cif
#   From: 2010.05.17/outbox.cif.g08.bks.cpg/sg2_210_cif.got.tgz:419737.got - 2010.06.03 11:33:40.
