data_PCOD9064801
_publ_section_title
;
Structure prediction by ZEFSAII (Michael W. Deem and Ramdas Pophale) SiO2 
 PCOD9064801
Probable space group: P -1
;
_chemical_formula_sum "Si O2"
_cell_formula_units_Z 12
_cell_length_a 14.404216
_cell_length_b 8.936452
_cell_length_c 11.891681
_cell_angle_alpha 54.410441
_cell_angle_beta 148.626472
_cell_angle_gamma 139.388190
_cell_volume 508.755076
_symmetry_space_group_name_H-M "P -1"
_symmetry_group_IT_number 2
_symmetry_cell_setting 'triclinic'
loop_
_space_group_symop_operation_xyz
x,y,z
-x,-y,-z
loop_
_atom_site_type_symbol
_atom_site_label
_atom_site_fract_x
_atom_site_fract_y
_atom_site_fract_z
Si Si1 0.936319 0.150281 0.813130
Si Si2 0.772190 0.420716 0.230088
Si Si3 0.580952 0.759009 0.442965
Si Si4 0.750425 0.868538 0.139124
Si Si5 0.185812 0.764426 0.116865
Si Si6 0.839608 0.070961 0.384159
O O1 0.827372 0.209296 0.773324
O O2 0.142226 0.387782 0.862438
O O3 0.776068 0.973940 0.626527
O O4 0.000000 0.000000 0.000000
O O5 0.721950 0.190024 0.226305
O O6 0.000000 0.500000 0.500000
O O7 0.523821 0.323836 0.061941
O O8 0.500000 0.500000 0.500000
O O9 0.396088 0.794402 0.265367
O O10 0.678480 0.823058 0.390018
O O11 0.908560 0.788653 0.358307
O O12 0.837767 0.033056 0.267455
O O13 0.825314 0.040838 0.036056
O O14 0.000000 0.500000 0.000000
#
# Coordination Sequence:
#
# PCOD9064801 Si02
#       6
#     2   2   2   2   2   2
#     4  12  27  48  73 111 148 194 251 308 380 445
#     4  12  25  47  73 106 149 189 246 311 372 444
#     4  12  26  47  73 106 151 198 251 310 374 448
#     4  11  25  45  74 108 144 196 250 305 374 452
#     4  12  25  46  74 109 150 197 248 309 376 449
#     4  11  24  46  73 108 144 195 254 301 377 444
#
# _framework density 23.586988999999999
#
# number of rings (size 3 to 8) (size 9 to 14) (size 15 to 20)
#    0.000    0.333    3.333    5.000    4.667    2.000 
#    3.000    0.000    0.000    0.000    0.000    0.000 
#    0.000    0.000    0.000    0.000    0.000    0.000 
#
# Total GULP energy -66941.411506 kJ/mol
# GULP energy per Si atom -5578.450959 kJ/mol
# Density = 2.353330 g / cm^3
# Si number density = 23.586989 Si / 1000 Ang^3
#
#
#
# Elastic Constant Matrix: (Units=GPa)
#
#
# Indices 1 2 3 4 5 6 
#
# 1 116.1364 33.3418 24.3681 0.5239 5.4358 2.7505
# 2 33.3418 135.3549 42.0135 -11.3343 6.2959 25.1497
# 3 24.3681 42.0135 80.8763 4.4684 31.7106 7.3379
# 4 0.5239 -11.3343 4.4684 41.1750 -2.3954 4.5458
# 5 5.4358 6.2959 31.7106 -2.3954 44.0209 -10.9220
# 6 2.7505 25.1497 7.3379 4.5458 -10.9220 48.6544
#
#
#
# Elastic Compliance Matrix: (Units=1/GPa)
#
#
# Indices 1 2 3 4 5 6 
#
# 1 0.009586 -0.001909 -0.002381 -0.000448 0.001048 0.001081
# 2 -0.001909 0.010674 -0.005463 0.004163 0.001733 -0.004585
# 3 -0.002381 -0.005463 0.023095 -0.004529 -0.016766 -0.003865
# 4 -0.000448 0.004163 -0.004529 0.026475 0.003379 -0.003158
# 5 0.001048 0.001733 -0.016766 0.003379 0.036972 0.009557
# 6 0.001081 -0.004585 -0.003865 -0.003158 0.009557 0.025886
#
#
# Mechanical properties :
#
#
# Convention : Reuss Voigt Hill
#
# Bulk Modulus (GPa) = 41.93270 59.09051 50.51160
# Shear Modulus (GPa) = 31.22219 42.27967 36.75093
#
# Velocity S-wave (km/s) = 3.64222 4.23839 3.95156
# Velocity P-wave (km/s) = 5.95854 7.00417 6.50241
#
# Compressibility (1/GPa) = 0.02384774
#
# Stress axis : x y z
#
# Youngs Moduli (GPa) = 104.32314 93.68555 43.30002
#
# Poissons Ratio (x) = 0.17889 0.10308
# Poissons Ratio (y) = 0.19920 0.23656
# Poissons Ratio (z) = 0.24835 0.51182
#
# Static dielectric constant tensor:
#      x y z
#    x 1.933400 -0.021770 0.151770 
#    y -0.021770 1.886770 0.063410 
#    z 0.151770 0.063410 1.968780 
# 
# From -- ./inp_files/173516.got.cif
#   From: 2010.05.17/outbox.cif.g08.bks.cpg/sg2_87_cif.got.tgz:173516.got - 2010.06.03 11:33:40.
