data_PCOD9064859
_publ_section_title
;
Structure prediction by ZEFSAII (Michael W. Deem and Ramdas Pophale) SiO2 
 PCOD9064859
Probable space group: P -1
;
_chemical_formula_sum "Si O2"
_cell_formula_units_Z 14
_cell_length_a 22.376429
_cell_length_b 5.861823
_cell_length_c 11.350220
_cell_angle_alpha 93.374900
_cell_angle_beta 32.668050
_cell_angle_gamma 113.948201
_cell_volume 601.719184
_symmetry_space_group_name_H-M "P -1"
_symmetry_group_IT_number 2
_symmetry_cell_setting 'triclinic'
loop_
_space_group_symop_operation_xyz
x,y,z
-x,-y,-z
loop_
_atom_site_type_symbol
_atom_site_label
_atom_site_fract_x
_atom_site_fract_y
_atom_site_fract_z
Si Si1 0.522892 0.864489 0.569476
Si Si2 0.069722 0.846552 0.415110
Si Si3 0.491083 0.067605 0.877879
Si Si4 0.024839 0.857041 0.121080
Si Si5 0.237783 0.211940 0.560435
Si Si6 0.265699 0.189283 0.898079
Si Si7 0.818080 0.196305 0.553623
O O1 0.383731 0.516722 0.766468
O O2 0.663554 0.900313 0.308007
O O3 0.500000 0.000000 0.500000
O O4 0.527998 0.963750 0.697678
O O5 0.118750 0.913450 0.470463
O O6 0.000000 0.500000 0.500000
O O7 0.000000 0.000000 0.500000
O O8 0.205413 0.994736 0.108202
O O9 0.607568 0.438340 0.676389
O O10 0.500000 0.000000 0.000000
O O11 0.314459 0.867731 0.156423
O O12 0.881312 0.785465 0.305462
O O13 0.952159 0.538099 0.296546
O O14 0.141520 0.992565 0.824442
O O15 0.131599 0.121564 0.047741
O O16 0.259517 0.024389 0.435992
#
# Coordination Sequence:
#
# PCOD9064859 Si02
#       7
#     2   2   2   2   2   2   2
#     4  11  27  49  74 109 154 208 268 329 409 496
#     4  12  28  48  80 119 161 208 268 344 417 486
#     4  12  27  48  78 112 162 211 275 336 409 491
#     4  11  24  46  74 111 145 201 264 329 405 483
#     4  11  26  47  72 108 155 208 261 327 409 495
#     4  11  26  46  79 107 152 206 263 332 409 483
#     4  12  26  46  76 110 155 208 267 335 411 484
#
# _framework density 23.266667000000002
#
# number of rings (size 3 to 8) (size 9 to 14) (size 15 to 20)
#    0.000    0.571    2.857    3.429    8.000    4.571 
#    0.000    0.000    0.000    0.000    0.000    0.000 
#    0.000    0.000    0.000    0.000    0.000    0.000 
#
# Total GULP energy -78009.684465 kJ/mol
# GULP energy per Si atom -5572.120319 kJ/mol
# Density = 2.321371 g / cm^3
# Si number density = 23.266667 Si / 1000 Ang^3
#
#
#
# Elastic Constant Matrix: (Units=GPa)
#
#
# Indices 1 2 3 4 5 6 
#
# 1 140.4322 23.3024 52.5118 17.4299 12.7090 -13.4532
# 2 23.3024 98.6213 68.4713 -22.4177 5.0149 36.6172
# 3 52.5118 68.4713 178.4132 -5.2563 39.3711 -12.8190
# 4 17.4299 -22.4177 -5.2563 80.5320 17.2233 -26.1948
# 5 12.7090 5.0149 39.3711 17.2233 43.5592 -3.6605
# 6 -13.4532 36.6172 -12.8190 -26.1948 -3.6605 71.3335
#
#
#
# Elastic Compliance Matrix: (Units=1/GPa)
#
#
# Indices 1 2 3 4 5 6 
#
# 1 0.008460 -0.001699 -0.001875 -0.002046 0.000348 0.001397
# 2 -0.001699 0.022468 -0.010409 0.000319 0.006074 -0.013296
# 3 -0.001875 -0.010409 0.013214 0.003294 -0.010827 0.008018
# 4 -0.002046 0.000319 0.003294 0.016893 -0.008609 0.005804
# 5 0.000348 0.006074 -0.010827 -0.008609 0.034811 -0.006373
# 6 0.001397 -0.013296 0.008018 0.005804 -0.006373 0.024352
#
#
# Mechanical properties :
#
#
# Convention : Reuss Voigt Hill
#
# Bulk Modulus (GPa) = 61.81687 78.44864 70.13275
# Shear Modulus (GPa) = 32.56129 57.29700 44.92915
#
# Velocity S-wave (km/s) = 3.74502 4.96786 4.39914
# Velocity P-wave (km/s) = 6.73252 8.16680 7.48410
#
# Compressibility (1/GPa) = 0.01617681
#
# Stress axis : x y z
#
# Youngs Moduli (GPa) = 118.20127 44.50708 75.67791
#
# Poissons Ratio (x) = 0.07562 0.14188
# Poissons Ratio (y) = 0.20082 0.78773
# Poissons Ratio (z) = 0.22160 0.46327
#
# Static dielectric constant tensor:
#      x y z
#    x 1.611830 0.437900 -0.217540 
#    y 0.437900 1.407140 0.333840 
#    z -0.217540 0.333840 1.738630 
# 
# From -- ./inp_files/473425.got.cif
#   From: 2010.05.17/outbox.cif.g08.bks.cpg/sg2_237_cif.got.tgz:473425.got - 2010.06.03 11:33:40.
