data_PCOD9064634
_publ_section_title
;
Structure prediction by ZEFSAII (Michael W. Deem and Ramdas Pophale) SiO2 
 PCOD9064634
Probable space group: P -1
;
_chemical_formula_sum "Si O2"
_cell_formula_units_Z 16
_cell_length_a 7.856311
_cell_length_b 10.188485
_cell_length_c 12.365949
_cell_angle_alpha 46.596459
_cell_angle_beta 94.108805
_cell_angle_gamma 90.205159
_cell_volume 715.862147
_symmetry_space_group_name_H-M "P -1"
_symmetry_group_IT_number 2
_symmetry_cell_setting 'triclinic'
loop_
_space_group_symop_operation_xyz
x,y,z
-x,-y,-z
loop_
_atom_site_type_symbol
_atom_site_label
_atom_site_fract_x
_atom_site_fract_y
_atom_site_fract_z
Si Si1 0.457222 0.698508 0.435248
Si Si2 0.460180 0.562338 0.082261
Si Si3 0.050904 0.998999 0.875613
Si Si4 0.978342 0.792192 0.638257
Si Si5 0.411639 0.203929 0.396459
Si Si6 0.067046 0.670364 0.472154
Si Si7 0.537504 0.033166 0.105505
Si Si8 0.907420 0.324534 0.069128
O O1 0.500000 0.500000 0.500000
O O2 0.591685 0.754153 0.500021
O O3 0.270652 0.677844 0.487160
O O4 0.456728 0.870747 0.258178
O O5 0.501539 0.381729 0.256053
O O6 0.500000 0.500000 0.000000
O O7 0.257666 0.614185 0.043059
O O8 0.531914 0.759743 0.991380
O O9 0.255474 0.986516 0.867706
O O10 0.983730 0.165818 0.704842
O O11 0.986174 0.820778 0.916348
O O12 0.000000 0.000000 0.000000
O O13 0.779288 0.783948 0.667647
O O14 0.003029 0.687947 0.583811
O O15 0.110119 0.748941 0.767647
O O16 0.000000 0.000000 0.500000
O O17 0.500000 0.000000 0.500000
O O18 0.000000 0.500000 0.500000
O O19 0.500000 0.000000 0.000000
O O20 0.000000 0.500000 0.000000
#
# Coordination Sequence:
#
# PCOD9064634 Si02
#       8
#     2   2   2   2   2   2   2   2
#     4  12  26  46  70 102 143 184 238 290 362 427
#     4  11  26  43  68 102 139 183 235 285 351 422
#     4  11  25  44  71 103 139 184 243 290 350 424
#     4  12  25  46  73 101 147 187 241 293 353 426
#     4  12  26  44  71 105 142 186 234 292 356 423
#     4  12  27  45  73 104 137 188 238 293 356 427
#     4  11  24  46  70  99 143 184 231 297 355 421
#     4  11  25  46  70 101 140 188 234 292 352 413
#
# _framework density 22.350670999999998
#
# number of rings (size 3 to 8) (size 9 to 14) (size 15 to 20)
#    0.000    0.500    2.500    5.250    7.000    3.000 
#    0.000    0.000    0.000    0.000    0.000    0.000 
#    0.000    0.000    0.000    0.000    0.000    0.000 
#
# Total GULP energy -89247.082922 kJ/mol
# GULP energy per Si atom -5577.942683 kJ/mol
# Density = 2.229980 g / cm^3
# Si number density = 22.350671 Si / 1000 Ang^3
#
#
#
# Elastic Constant Matrix: (Units=GPa)
#
#
# Indices 1 2 3 4 5 6 
#
# 1 62.8810 -4.2514 -9.0354 -13.3022 2.5158 -4.2693
# 2 -4.2514 187.8395 58.7838 -22.1370 -3.2557 -5.0546
# 3 -9.0354 58.7838 144.5894 -18.1320 2.4315 -11.8641
# 4 -13.3022 -22.1370 -18.1320 52.2263 4.6057 -1.0141
# 5 2.5158 -3.2557 2.4315 4.6057 32.6379 1.2572
# 6 -4.2693 -5.0546 -11.8641 -1.0141 1.2572 33.3154
#
#
#
# Elastic Compliance Matrix: (Units=1/GPa)
#
#
# Indices 1 2 3 4 5 6 
#
# 1 0.017734 0.000517 0.001921 0.005677 -0.002387 0.003298
# 2 0.000517 0.006292 -0.002265 0.001976 0.000468 0.000257
# 3 0.001921 -0.002265 0.008575 0.002700 -0.001513 0.003095
# 4 0.005677 0.001976 0.002700 0.022755 -0.003761 0.002823
# 5 -0.002387 0.000468 -0.001513 -0.003761 0.031594 -0.002080
# 6 0.003298 0.000257 0.003095 0.002823 -0.002080 0.031745
#
#
# Mechanical properties :
#
#
# Convention : Reuss Voigt Hill
#
# Bulk Modulus (GPa) = 30.35172 54.03378 42.19275
# Shear Modulus (GPa) = 38.66043 46.95677 42.80860
#
# Velocity S-wave (km/s) = 4.16350 4.58854 4.38118
# Velocity P-wave (km/s) = 6.05989 7.23194 6.67170
#
# Compressibility (1/GPa) = 0.03294706
#
# Stress axis : x y z
#
# Youngs Moduli (GPa) = 56.38746 158.93098 116.61884
#
# Poissons Ratio (x) = -0.08212 -0.22401
# Poissons Ratio (y) = -0.02914 0.26412
# Poissons Ratio (z) = -0.10831 0.35994
#
# Static dielectric constant tensor:
#      x y z
#    x 1.650810 0.006110 -0.185980 
#    y 0.006110 1.829070 -0.003860 
#    z -0.185980 -0.003860 1.739080 
# 
# From -- ./inp_files/184407.got.cif
#   From: 2010.05.17/outbox.cif.g08.bks.cpg/sg2_93_cif.got.tgz:184407.got - 2010.06.03 11:33:40.
