data_PCOD9064250
_publ_section_title
;
Structure prediction by ZEFSAII (Michael W. Deem and Ramdas Pophale) SiO2 
 PCOD9064250
Probable space group: P -1
;
_chemical_formula_sum "Si O2"
_cell_formula_units_Z 14
_cell_length_a 9.637854
_cell_length_b 9.295658
_cell_length_c 9.285403
_cell_angle_alpha 69.264855
_cell_angle_beta 105.534713
_cell_angle_gamma 58.148241
_cell_volume 541.904818
_symmetry_space_group_name_H-M "P -1"
_symmetry_group_IT_number 2
_symmetry_cell_setting 'triclinic'
loop_
_space_group_symop_operation_xyz
x,y,z
-x,-y,-z
loop_
_atom_site_type_symbol
_atom_site_label
_atom_site_fract_x
_atom_site_fract_y
_atom_site_fract_z
Si Si1 0.099490 0.370814 0.384298
Si Si2 0.598259 0.321356 0.969135
Si Si3 0.331703 0.238405 0.919989
Si Si4 0.145951 0.206609 0.132456
Si Si5 0.715386 0.499316 0.749195
Si Si6 0.655082 0.257425 0.567379
Si Si7 0.047166 0.086135 0.611919
O O1 0.116971 0.284202 0.259080
O O2 0.246245 0.408636 0.405522
O O3 0.109256 0.209187 0.536091
O O4 0.882806 0.603769 0.268267
O O5 0.777548 0.102337 0.172450
O O6 0.500000 0.500000 0.000000
O O7 0.420656 0.338456 0.878133
O O8 0.691018 0.340542 0.852767
O O9 0.282451 0.226355 0.075080
O O10 0.500000 0.000000 0.000000
O O11 0.254712 0.960007 0.251711
O O12 0.926552 0.368384 0.940576
O O13 0.473803 0.712243 0.616553
O O14 0.500000 0.500000 0.500000
O O15 0.843696 0.223028 0.595313
O O16 0.000000 0.000000 0.500000
#
# Coordination Sequence:
#
# PCOD9064250 Si02
#       7
#     2   2   2   2   2   2   2
#     4  11  24  46  72 102 141 183 239 288 353 429
#     4  12  24  44  74 104 140 191 239 287 361 424
#     4  11  26  44  72 104 141 182 236 300 358 416
#     4  11  24  47  71 103 141 186 239 288 352 431
#     4  11  24  45  72  98 136 189 232 289 352 415
#     4  12  28  44  69 103 146 184 236 293 356 416
#     4  12  24  45  70 107 140 183 242 296 342 431
#
# _framework density 25.834796000000001
#
# number of rings (size 3 to 8) (size 9 to 14) (size 15 to 20)
#    0.000    0.571    2.857    6.000    6.000    3.429 
#    0.000    1.429    0.000    0.000    0.000    0.000 
#    0.000    0.000    0.000    0.000    0.000    0.000 
#
# Total GULP energy -78088.569995 kJ/mol
# GULP energy per Si atom -5577.755000 kJ/mol
# Density = 2.577599 g / cm^3
# Si number density = 25.834796 Si / 1000 Ang^3
#
#
#
# Elastic Constant Matrix: (Units=GPa)
#
#
# Indices 1 2 3 4 5 6 
#
# 1 225.2439 39.2562 62.7831 -15.3310 -31.7339 16.2775
# 2 39.2562 107.8330 18.2064 -33.6129 -11.1164 -0.1516
# 3 62.7831 18.2064 157.7429 -37.0319 -21.0788 -6.4155
# 4 -15.3310 -33.6129 -37.0319 35.6942 9.3000 4.7916
# 5 -31.7339 -11.1164 -21.0788 9.3000 57.9871 -18.1424
# 6 16.2775 -0.1516 -6.4155 4.7916 -18.1424 40.0377
#
#
#
# Elastic Compliance Matrix: (Units=1/GPa)
#
#
# Indices 1 2 3 4 5 6 
#
# 1 0.005696 -0.002236 -0.002410 -0.002370 0.001670 -0.001670
# 2 -0.002236 0.014514 0.002892 0.015795 -0.000079 -0.000499
# 3 -0.002410 0.002892 0.009913 0.011278 0.001649 0.001977
# 4 -0.002370 0.015795 0.011278 0.055698 -0.005013 -0.006107
# 5 0.001670 -0.000079 0.001649 -0.005013 0.022844 0.010536
# 6 -0.001670 -0.000499 0.001977 -0.006107 0.010536 0.031475
#
#
# Mechanical properties :
#
#
# Convention : Reuss Voigt Hill
#
# Bulk Modulus (GPa) = 37.57275 81.25679 59.41477
# Shear Modulus (GPa) = 32.78276 51.44876 42.11576
#
# Velocity S-wave (km/s) = 3.56608 4.46741 4.04195
# Velocity P-wave (km/s) = 5.61524 7.62437 6.69560
#
# Compressibility (1/GPa) = 0.02661504
#
# Stress axis : x y z
#
# Youngs Moduli (GPa) = 175.57230 68.89950 100.87575
#
# Poissons Ratio (x) = 0.15403 0.24312
# Poissons Ratio (y) = 0.39251 -0.29172
# Poissons Ratio (z) = 0.42314 -0.19925
#
# Static dielectric constant tensor:
#      x y z
#    x 2.204370 0.439910 0.127650 
#    y 0.439910 3.163570 0.507170 
#    z 0.127650 0.507170 2.245210 
# 
# From -- ./inp_files/381403.got.cif
#   From: 2010.05.17/outbox.cif.g08.bks.cpg/sg2_191_cif.got.tgz:381403.got - 2010.06.03 11:33:40.
