data_PCOD9064215
_publ_section_title
;
Structure prediction by ZEFSAII (Michael W. Deem and Ramdas Pophale) SiO2 
 PCOD9064215
Probable space group: P -1
;
_chemical_formula_sum "Si O2"
_cell_formula_units_Z 16
_cell_length_a 17.386362
_cell_length_b 5.386397
_cell_length_c 11.273089
_cell_angle_alpha 112.274339
_cell_angle_beta 127.675214
_cell_angle_gamma 52.448418
_cell_volume 662.425626
_symmetry_space_group_name_H-M "P -1"
_symmetry_group_IT_number 2
_symmetry_cell_setting 'triclinic'
loop_
_space_group_symop_operation_xyz
x,y,z
-x,-y,-z
loop_
_atom_site_type_symbol
_atom_site_label
_atom_site_fract_x
_atom_site_fract_y
_atom_site_fract_z
Si Si1 0.017026 0.489321 0.870859
Si Si2 0.743999 0.706512 0.970546
Si Si3 0.388420 0.330506 0.973060
Si Si4 0.685973 0.667774 0.339204
Si Si5 0.195976 0.889094 0.221131
Si Si6 0.388612 0.827029 0.246265
Si Si7 0.371097 0.634084 0.550943
Si Si8 0.951020 0.365609 0.532216
O O1 0.971063 0.390558 0.696390
O O2 0.934353 0.862632 0.832417
O O3 0.000000 0.500000 0.000000
O O4 0.151763 0.244178 0.938503
O O5 0.801059 0.358845 0.911487
O O6 0.632208 0.913061 0.823103
O O7 0.707007 0.728222 0.073481
O O8 0.353798 0.455374 0.831692
O O9 0.396254 0.557501 0.116895
O O10 0.500000 0.000000 0.000000
O O11 0.664254 0.507014 0.400099
O O12 0.816483 0.553159 0.424615
O O13 0.627745 0.046234 0.364581
O O14 0.273899 0.000162 0.247617
O O15 0.274936 0.720137 0.377645
O O16 0.499310 0.651917 0.400321
O O17 0.000000 0.500000 0.500000
O O18 0.000000 0.000000 0.500000
#
# Coordination Sequence:
#
# PCOD9064215 Si02
#       8
#     2   2   2   2   2   2   2   2
#     4  12  26  49  80 112 151 205 262 322 390 470
#     4  11  26  43  75 108 146 192 256 321 380 451
#     4  11  24  45  72 104 150 194 251 305 383 460
#     4  12  27  47  75 109 146 202 248 304 385 461
#     4  11  26  48  73 106 148 198 255 314 386 457
#     4  11  25  45  71 112 144 198 252 318 376 456
#     4  12  27  46  75 106 151 195 252 305 377 454
#     4  12  29  51  79 113 158 203 258 325 391 460
#
# _framework density 24.153654
#
# number of rings (size 3 to 8) (size 9 to 14) (size 15 to 20)
#    0.000    0.500    3.750    3.000    8.750    2.500 
#    0.000    0.000    0.000    0.000    0.000    0.000 
#    0.000    0.000    0.000    0.000    0.000    0.000 
#
# Total GULP energy -89233.169936 kJ/mol
# GULP energy per Si atom -5577.073121 kJ/mol
# Density = 2.409868 g / cm^3
# Si number density = 24.153654 Si / 1000 Ang^3
#
#
#
# Elastic Constant Matrix: (Units=GPa)
#
#
# Indices 1 2 3 4 5 6 
#
# 1 69.3744 12.7321 10.9028 0.2222 -10.5394 7.1607
# 2 12.7321 107.0987 8.6059 -3.1259 2.6442 -9.0457
# 3 10.9028 8.6059 117.6440 -18.9173 -14.9857 -7.7762
# 4 0.2222 -3.1259 -18.9173 42.7482 -12.3205 1.0306
# 5 -10.5394 2.6442 -14.9857 -12.3205 28.1432 -9.5865
# 6 7.1607 -9.0457 -7.7762 1.0306 -9.5865 35.6023
#
#
#
# Elastic Compliance Matrix: (Units=1/GPa)
#
#
# Indices 1 2 3 4 5 6 
#
# 1 0.015996 -0.002163 -0.000591 0.001157 0.005557 -0.002433
# 2 -0.002163 0.009878 -0.000457 0.000172 -0.001034 0.002562
# 3 -0.000591 -0.000457 0.011784 0.008407 0.011640 0.005468
# 4 0.001157 0.000172 0.008407 0.033202 0.021649 0.006515
# 5 0.005557 -0.001034 0.011640 0.021649 0.058978 0.016416
# 6 -0.002433 0.002562 0.005468 0.006515 0.016416 0.034654
#
#
# Mechanical properties :
#
#
# Convention : Reuss Voigt Hill
#
# Bulk Modulus (GPa) = 32.01411 39.84428 35.92919
# Shear Modulus (GPa) = 27.57455 38.75717 33.16586
#
# Velocity S-wave (km/s) = 3.38247 4.01010 3.70958
# Velocity P-wave (km/s) = 5.34209 6.16224 5.76676
#
# Compressibility (1/GPa) = 0.03123623
#
# Stress axis : x y z
#
# Youngs Moduli (GPa) = 62.51545 101.23567 84.85781
#
# Poissons Ratio (x) = 0.21898 0.05017
# Poissons Ratio (y) = 0.13523 0.03877
# Poissons Ratio (z) = 0.03696 0.04625
#
# Static dielectric constant tensor:
#      x y z
#    x 2.082650 0.030780 0.085850 
#    y 0.030780 1.953740 0.029430 
#    z 0.085850 0.029430 1.681420 
# 
# From -- ./inp_files/459579.got.cif
#   From: 2010.05.17/outbox.cif.g08.bks.cpg/sg2_230_cif.got.tgz:459579.got - 2010.06.03 11:33:40.
