data_PCOD9064612
_publ_section_title
;
Structure prediction by ZEFSAII (Michael W. Deem and Ramdas Pophale) SiO2 
 PCOD9064612
Probable space group: P -1
;
_chemical_formula_sum "Si O2"
_cell_formula_units_Z 14
_cell_length_a 10.835154
_cell_length_b 7.761966
_cell_length_c 14.122055
_cell_angle_alpha 115.871731
_cell_angle_beta 147.704667
_cell_angle_gamma 56.522221
_cell_volume 528.096423
_symmetry_space_group_name_H-M "P -1"
_symmetry_group_IT_number 2
_symmetry_cell_setting 'triclinic'
loop_
_space_group_symop_operation_xyz
x,y,z
-x,-y,-z
loop_
_atom_site_type_symbol
_atom_site_label
_atom_site_fract_x
_atom_site_fract_y
_atom_site_fract_z
Si Si1 0.216457 0.053240 0.451893
Si Si2 0.942420 0.059730 0.866659
Si Si3 0.285267 0.301039 0.865893
Si Si4 0.525148 0.949810 0.801443
Si Si5 0.218714 0.611592 0.386266
Si Si6 0.282321 0.612422 0.778568
Si Si7 0.521391 0.494747 0.721907
O O1 0.184792 0.053399 0.316403
O O2 0.463401 0.010357 0.664257
O O3 0.163748 0.851597 0.398822
O O4 0.997298 0.252224 0.398441
O O5 0.762130 0.300856 0.801190
O O6 0.215689 0.030837 0.000187
O O7 0.000000 0.000000 0.000000
O O8 0.266968 0.492418 0.833266
O O9 0.054606 0.388894 0.810587
O O10 0.310435 0.110797 0.767025
O O11 0.556963 0.243355 0.073902
O O12 0.549726 0.713513 0.775549
O O13 0.500000 0.500000 0.500000
O O14 0.278602 0.520053 0.508532
O O15 0.448066 0.457738 0.770440
#
# Coordination Sequence:
#
# PCOD9064612 Si02
#       7
#     2   2   2   2   2   2   2
#     4  11  25  47  72 104 145 186 246 291 359 438
#     4  12  26  46  70 106 154 190 238 299 361 435
#     4  11  25  44  74 107 145 189 243 301 363 427
#     4  11  25  46  74 107 140 194 244 299 364 421
#     4  11  24  46  70 104 144 188 240 295 359 427
#     4  11  25  45  72 109 142 192 244 295 365 432
#     4  11  25  44  73 105 145 187 244 297 354 439
#
# _framework density 26.510311999999999
#
# number of rings (size 3 to 8) (size 9 to 14) (size 15 to 20)
#    0.000    0.857    2.857    3.000    4.000    9.714 
#    0.000    0.000    0.000    0.000    0.000    0.000 
#    0.000    0.000    0.000    0.000    0.000    0.000 
#
# Total GULP energy -78196.239533 kJ/mol
# GULP energy per Si atom -5585.445681 kJ/mol
# Density = 2.644997 g / cm^3
# Si number density = 26.510312 Si / 1000 Ang^3
#
#
#
# Elastic Constant Matrix: (Units=GPa)
#
#
# Indices 1 2 3 4 5 6 
#
# 1 107.9344 23.8474 39.5925 -5.1992 8.7054 -20.9323
# 2 23.8474 110.4101 30.2364 -16.4083 12.7264 -16.5968
# 3 39.5925 30.2364 126.1361 -14.4627 -8.6097 1.7876
# 4 -5.1992 -16.4083 -14.4627 39.2894 -2.5804 1.7842
# 5 8.7054 12.7264 -8.6097 -2.5804 52.5492 -6.2725
# 6 -20.9323 -16.5968 1.7876 1.7842 -6.2725 33.1751
#
#
#
# Elastic Compliance Matrix: (Units=1/GPa)
#
#
# Indices 1 2 3 4 5 6 
#
# 1 0.012436 -0.000274 -0.004119 -0.000448 -0.001781 0.007619
# 2 -0.000274 0.011318 -0.002467 0.003402 -0.002336 0.004998
# 3 -0.004119 -0.002467 0.010345 0.002588 0.002620 -0.004034
# 4 -0.000448 0.003402 0.002588 0.027835 0.001039 -0.000021
# 5 -0.001781 -0.002336 0.002620 0.001039 0.020537 0.001393
# 6 0.007619 0.004998 -0.004034 -0.000021 0.001393 0.037932
#
#
# Mechanical properties :
#
#
# Convention : Reuss Voigt Hill
#
# Bulk Modulus (GPa) = 49.07061 59.09258 54.08160
# Shear Modulus (GPa) = 35.48189 41.72304 38.60246
#
# Velocity S-wave (km/s) = 3.66241 3.97147 3.82007
# Velocity P-wave (km/s) = 6.03610 6.58551 6.31678
#
# Compressibility (1/GPa) = 0.02037880
#
# Stress axis : x y z
#
# Youngs Moduli (GPa) = 80.41242 88.35408 96.66570
#
# Poissons Ratio (x) = 0.02422 0.39813
# Poissons Ratio (y) = 0.02204 0.23850
# Poissons Ratio (z) = 0.33119 0.21799
#
# Static dielectric constant tensor:
#      x y z
#    x 2.146340 -0.014790 -0.092090 
#    y -0.014790 1.999460 0.081720 
#    z -0.092090 0.081720 2.120210 
# 
# From -- ./inp_files/516161.got.cif
#   From: 2010.05.17/outbox.cif.g08.bks.cpg/sg2_259_cif.got.tgz:516161.got - 2010.06.03 11:33:40.
