data_PCOD9064635
_publ_section_title
;
Structure prediction by ZEFSAII (Michael W. Deem and Ramdas Pophale) SiO2 
 PCOD9064635
Probable space group: P -1
;
_chemical_formula_sum "Si O2"
_cell_formula_units_Z 16
_cell_length_a 22.582899
_cell_length_b 9.248904
_cell_length_c 8.741459
_cell_angle_alpha 46.802170
_cell_angle_beta 149.951096
_cell_angle_gamma 130.352916
_cell_volume 658.882251
_symmetry_space_group_name_H-M "P -1"
_symmetry_group_IT_number 2
_symmetry_cell_setting 'triclinic'
loop_
_space_group_symop_operation_xyz
x,y,z
-x,-y,-z
loop_
_atom_site_type_symbol
_atom_site_label
_atom_site_fract_x
_atom_site_fract_y
_atom_site_fract_z
Si Si1 0.827300 0.474842 0.245105
Si Si2 0.973937 0.780678 0.177972
Si Si3 0.794760 0.614732 0.418812
Si Si4 0.992473 0.057721 0.270334
Si Si5 0.247408 0.828352 0.242643
Si Si6 0.335114 0.846694 0.090051
Si Si7 0.528086 0.582213 0.832812
Si Si8 0.496888 0.864766 0.942026
O O1 0.946366 0.370388 0.603523
O O2 0.812621 0.562214 0.317449
O O3 0.847562 0.650585 0.033331
O O4 0.733327 0.298762 0.088024
O O5 0.017075 0.860751 0.381620
O O6 0.000000 0.000000 0.000000
O O7 0.779008 0.411003 0.627084
O O8 0.902225 0.755574 0.642716
O O9 0.665406 0.683844 0.068708
O O10 0.855035 0.099059 0.929980
O O11 0.000000 0.000000 0.500000
O O12 0.258985 0.875521 0.052830
O O13 0.376304 0.889255 0.563153
O O14 0.441439 0.731205 0.473435
O O15 0.393051 0.048218 0.985541
O O16 0.500000 0.500000 0.000000
O O17 0.511162 0.369091 0.859904
O O18 0.500000 0.000000 0.000000
#
# Coordination Sequence:
#
# PCOD9064635 Si02
#       8
#     2   2   2   2   2   2   2   2
#     4  11  26  46  67 105 142 186 237 292 360 413
#     4  11  26  46  70 100 144 187 239 289 350 429
#     4  11  24  46  70  99 145 180 238 291 347 427
#     4  12  25  43  71 105 136 188 232 291 353 419
#     4  11  25  44  70 105 140 185 235 291 359 415
#     4  12  25  44  76 102 146 188 233 304 346 421
#     4  11  25  46  72 106 139 187 241 284 359 424
#     4  11  26  47  72 105 145 186 238 295 354 424
#
# _framework density 24.283550999999999
#
# number of rings (size 3 to 8) (size 9 to 14) (size 15 to 20)
#    0.000    0.750    3.750    3.750    5.250    5.000 
#    0.000    0.000    0.000    0.000    0.000    0.000 
#    0.000    0.000    0.000    0.000    0.000    0.000 
#
# Total GULP energy -89360.726787 kJ/mol
# GULP energy per Si atom -5585.045424 kJ/mol
# Density = 2.422828 g / cm^3
# Si number density = 24.283551 Si / 1000 Ang^3
#
#
#
# Elastic Constant Matrix: (Units=GPa)
#
#
# Indices 1 2 3 4 5 6 
#
# 1 105.5339 27.8148 2.7177 5.0048 14.6646 1.1014
# 2 27.8148 132.6153 5.5461 11.1413 13.7373 14.6795
# 3 2.7177 5.5461 35.7256 0.8212 20.2929 5.8658
# 4 5.0048 11.1413 0.8212 40.4519 8.7028 -1.7686
# 5 14.6646 13.7373 20.2929 8.7028 30.2864 -3.9178
# 6 1.1014 14.6795 5.8658 -1.7686 -3.9178 52.7301
#
#
#
# Elastic Compliance Matrix: (Units=1/GPa)
#
#
# Indices 1 2 3 4 5 6 
#
# 1 0.010787 -0.001646 0.003576 0.000548 -0.007118 -0.000675
# 2 -0.001646 0.008703 0.001714 -0.001439 -0.004266 -0.002944
# 3 0.003576 0.001714 0.051507 0.006247 -0.039985 -0.009043
# 4 0.000548 -0.001439 0.006247 0.027431 -0.011714 -0.000256
# 5 -0.007118 -0.004266 -0.039985 -0.011714 0.069926 0.010587
# 6 -0.000675 -0.002944 -0.009043 -0.000256 0.010587 0.021582
#
#
# Mechanical properties :
#
#
# Convention : Reuss Voigt Hill
#
# Bulk Modulus (GPa) = 12.77382 38.44801 25.61092
# Shear Modulus (GPa) = 23.95279 40.54677 32.24978
#
# Velocity S-wave (km/s) = 3.14407 4.09066 3.64820
# Velocity P-wave (km/s) = 4.29558 6.17888 5.32121
#
# Compressibility (1/GPa) = 0.07828509
#
# Stress axis : x y z
#
# Youngs Moduli (GPa) = 92.70003 114.90410 19.41498
#
# Poissons Ratio (x) = 0.18914 -0.06943
# Poissons Ratio (y) = 0.15259 -0.03328
# Poissons Ratio (z) = -0.33151 -0.19694
#
# Static dielectric constant tensor:
#      x y z
#    x 1.846460 0.042930 -0.113010 
#    y 0.042930 1.965020 -0.019730 
#    z -0.113010 -0.019730 1.824780 
# 
# From -- ./inp_files/352076.got.cif
#   From: 2010.05.17/outbox.cif.g08.bks.cpg/sg2_177_cif.got.tgz:352076.got - 2010.06.03 11:33:40.
