data_PCOD9064950
_publ_section_title
;
Structure prediction by ZEFSAII (Michael W. Deem and Ramdas Pophale) SiO2 
 PCOD9064950
Probable space group: P -1
;
_chemical_formula_sum "Si O2"
_cell_formula_units_Z 16
_cell_length_a 8.582382
_cell_length_b 7.712912
_cell_length_c 24.985647
_cell_angle_alpha 28.656996
_cell_angle_beta 126.642331
_cell_angle_gamma 128.135096
_cell_volume 617.217152
_symmetry_space_group_name_H-M "P -1"
_symmetry_group_IT_number 2
_symmetry_cell_setting 'triclinic'
loop_
_space_group_symop_operation_xyz
x,y,z
-x,-y,-z
loop_
_atom_site_type_symbol
_atom_site_label
_atom_site_fract_x
_atom_site_fract_y
_atom_site_fract_z
Si Si1 0.608859 0.603715 0.439812
Si Si2 0.967526 0.298474 0.489942
Si Si3 0.417991 0.224598 0.330665
Si Si4 0.718813 0.200039 0.013964
Si Si5 0.266740 0.509258 0.327459
Si Si6 0.269380 0.348403 0.007515
Si Si7 0.139895 0.408831 0.722629
Si Si8 0.891080 0.425768 0.875183
O O1 0.500000 0.500000 0.500000
O O2 0.453744 0.751468 0.332848
O O3 0.828617 0.845906 0.430527
O O4 0.624080 0.186079 0.541048
O O5 0.952086 0.550227 0.367004
O O6 0.000000 0.500000 0.500000
O O7 0.790306 0.930881 0.548309
O O8 0.376694 0.487409 0.299232
O O9 0.629900 0.341467 0.311840
O O10 0.240285 0.278476 0.240539
O O11 0.731427 0.570300 0.951319
O O12 0.852692 0.278824 0.967502
O O13 0.500000 0.000000 0.000000
O O14 0.791782 0.935836 0.142857
O O15 0.053515 0.590878 0.277436
O O16 0.183731 0.925032 0.084824
O O17 0.500000 0.500000 0.000000
O O18 0.130791 0.559496 0.886462
#
# Coordination Sequence:
#
# PCOD9064950 Si02
#       8
#     2   2   2   2   2   2   2   2
#     4  12  24  45  72 104 146 191 241 304 373 445
#     4  12  24  46  73 104 145 192 239 306 372 441
#     4  12  25  47  74 109 147 194 247 307 372 450
#     4  12  25  50  75 107 156 202 247 321 379 442
#     4  12  26  46  73 104 152 189 241 310 369 446
#     4  11  24  46  77 103 148 194 252 315 376 443
#     4  12  26  46  77 109 145 199 253 299 384 449
#     4  11  27  49  75 110 151 199 256 312 381 452
#
# _framework density 25.922805
#
# number of rings (size 3 to 8) (size 9 to 14) (size 15 to 20)
#    0.000    0.250    6.250    2.625    5.250    0.000 
#    2.250    0.000    0.000    0.000    0.000    0.000 
#    0.000    0.000    0.000    0.000    0.000    0.000 
#
# Total GULP energy -89152.924484 kJ/mol
# GULP energy per Si atom -5572.057780 kJ/mol
# Density = 2.586380 g / cm^3
# Si number density = 25.922805 Si / 1000 Ang^3
#
#
#
# Elastic Constant Matrix: (Units=GPa)
#
#
# Indices 1 2 3 4 5 6 
#
# 1 151.7842 54.0448 17.7391 10.2666 23.3295 11.2592
# 2 54.0448 138.6801 29.1735 21.6432 19.5346 22.2381
# 3 17.7391 29.1735 54.4913 15.5873 23.9099 16.5658
# 4 10.2666 21.6432 15.5873 20.8553 12.5167 4.9847
# 5 23.3295 19.5346 23.9099 12.5167 34.9997 16.4686
# 6 11.2592 22.2381 16.5658 4.9847 16.4686 67.1713
#
#
#
# Elastic Compliance Matrix: (Units=1/GPa)
#
#
# Indices 1 2 3 4 5 6 
#
# 1 0.008190 -0.002917 0.000469 0.001479 -0.004955 0.000582
# 2 -0.002917 0.010173 -0.002333 -0.007876 0.001680 -0.002131
# 3 0.000469 -0.002333 0.029453 -0.010747 -0.014212 -0.002288
# 4 0.001479 -0.007876 -0.010747 0.072755 -0.017051 0.003792
# 5 -0.004955 0.001680 -0.014212 -0.017051 0.050156 -0.007252
# 6 0.000582 -0.002131 -0.002288 0.003792 -0.007252 0.017556
#
#
# Mechanical properties :
#
#
# Convention : Reuss Voigt Hill
#
# Bulk Modulus (GPa) = 26.13960 60.76337 43.45149
# Shear Modulus (GPa) = 23.74216 40.87179 32.30698
#
# Velocity S-wave (km/s) = 3.02963 3.97504 3.53409
# Velocity P-wave (km/s) = 4.72692 6.67525 5.78371
#
# Compressibility (1/GPa) = 0.03825613
#
# Stress axis : x y z
#
# Youngs Moduli (GPa) = 122.09458 98.30313 33.95182
#
# Poissons Ratio (x) = 0.28673 -0.01594
# Poissons Ratio (y) = 0.35613 0.07920
# Poissons Ratio (z) = -0.05732 0.22932
#
# Static dielectric constant tensor:
#      x y z
#    x 2.146550 -0.058010 0.060440 
#    y -0.058010 2.334550 0.130570 
#    z 0.060440 0.130570 2.133060 
# 
# From -- ./inp_files/616597.got.cif
#   From: 2010.05.17/outbox.cif.g08.bks.cpg/sg2_309_cif.got.tgz:616597.got - 2010.06.03 11:33:40.
