data_PCOD9064367
_publ_section_title
;
Structure prediction by ZEFSAII (Michael W. Deem and Ramdas Pophale) SiO2 
 PCOD9064367
Probable space group: P -1
;
_chemical_formula_sum "Si O2"
_cell_formula_units_Z 12
_cell_length_a 10.009647
_cell_length_b 14.775876
_cell_length_c 14.630439
_cell_angle_alpha 151.918230
_cell_angle_beta 145.840595
_cell_angle_gamma 31.661721
_cell_volume 508.381031
_symmetry_space_group_name_H-M "P -1"
_symmetry_group_IT_number 2
_symmetry_cell_setting 'triclinic'
loop_
_space_group_symop_operation_xyz
x,y,z
-x,-y,-z
loop_
_atom_site_type_symbol
_atom_site_label
_atom_site_fract_x
_atom_site_fract_y
_atom_site_fract_z
Si Si1 0.777706 0.100525 0.100197
Si Si2 0.781548 0.833473 0.473974
Si Si3 0.285161 0.484908 0.618072
Si Si4 0.170944 0.328897 0.026442
Si Si5 0.108497 0.382805 0.250023
Si Si6 0.141944 0.920377 0.411610
O O1 0.735349 0.281928 0.160880
O O2 0.480366 0.203547 0.064080
O O3 0.002905 0.120551 0.306673
O O4 0.862327 0.848820 0.910422
O O5 0.823970 0.590594 0.291502
O O6 0.500000 0.000000 0.500000
O O7 0.825316 0.884541 0.440987
O O8 0.296449 0.437879 0.472514
O O9 0.565917 0.283841 0.622405
O O10 0.000000 0.500000 0.500000
O O11 0.163161 0.401850 0.191674
O O12 0.000000 0.500000 0.000000
O O13 0.055972 0.156496 0.816233
O O14 0.000000 0.000000 0.500000
#
# Coordination Sequence:
#
# PCOD9064367 Si02
#       6
#     2   2   2   2   2   2
#     4  11  24  45  74 105 146 181 244 302 362 439
#     4  11  26  47  70 106 149 192 242 299 369 441
#     4  11  26  48  71 105 149 193 243 301 369 439
#     4  12  24  45  72 112 141 186 247 301 367 430
#     4  11  25  45  75 103 142 193 236 297 368 422
#     4  12  24  44  74 107 149 189 249 308 360 438
#
# _framework density 23.604341999999999
#
# number of rings (size 3 to 8) (size 9 to 14) (size 15 to 20)
#    0.000    0.667    3.333    4.500    2.333    2.667 
#    3.000    0.000    0.000    0.000    0.000    0.000 
#    0.000    0.000    0.000    0.000    0.000    0.000 
#
# Total GULP energy -66897.786343 kJ/mol
# GULP energy per Si atom -5574.815529 kJ/mol
# Density = 2.355062 g / cm^3
# Si number density = 23.604342 Si / 1000 Ang^3
#
#
#
# Elastic Constant Matrix: (Units=GPa)
#
#
# Indices 1 2 3 4 5 6 
#
# 1 82.3212 40.7398 22.5644 2.9249 -0.6910 -16.3478
# 2 40.7398 150.8444 59.6960 25.6072 21.0354 -36.4175
# 3 22.5644 59.6960 82.5137 33.3948 25.6489 -3.0607
# 4 2.9249 25.6072 33.3948 58.0688 13.1233 10.6508
# 5 -0.6910 21.0354 25.6489 13.1233 38.6447 -3.0621
# 6 -16.3478 -36.4175 -3.0607 10.6508 -3.0621 47.5515
#
#
#
# Elastic Compliance Matrix: (Units=1/GPa)
#
#
# Indices 1 2 3 4 5 6 
#
# 1 0.015072 -0.002588 -0.003875 0.001142 0.004097 0.002958
# 2 -0.002588 0.012854 -0.006724 -0.003182 -0.000773 0.009185
# 3 -0.003875 -0.006724 0.024191 -0.007757 -0.010135 -0.003840
# 4 0.001142 -0.003182 -0.007757 0.025063 -0.002268 -0.008303
# 5 0.004097 -0.000773 -0.010135 -0.002268 0.034095 0.002868
# 6 0.002958 0.009185 -0.003840 -0.008303 0.002868 0.030878
#
#
# Mechanical properties :
#
#
# Convention : Reuss Voigt Hill
#
# Bulk Modulus (GPa) = 38.84530 62.40886 50.62708
# Shear Modulus (GPa) = 28.23140 41.69828 34.96484
#
# Velocity S-wave (km/s) = 3.46211 4.20760 3.85293
# Velocity P-wave (km/s) = 5.69861 7.07828 6.42559
#
# Compressibility (1/GPa) = 0.02574314
#
# Stress axis : x y z
#
# Youngs Moduli (GPa) = 66.34921 77.79395 41.33844
#
# Poissons Ratio (x) = 0.20133 0.16020
# Poissons Ratio (y) = 0.17171 0.27794
# Poissons Ratio (z) = 0.25712 0.52305
#
# Static dielectric constant tensor:
#      x y z
#    x 1.933320 0.126200 0.011670 
#    y 0.126200 1.975600 0.039230 
#    z 0.011670 0.039230 1.862550 
# 
# From -- ./inp_files/160041.got.cif
#   From: 2010.05.17/outbox.cif.g08.bks.cpg/sg2_81_cif.got.tgz:160041.got - 2010.06.03 11:33:40.
