data_PCOD9064619
_publ_section_title
;
Structure prediction by ZEFSAII (Michael W. Deem and Ramdas Pophale) SiO2 
 PCOD9064619
Probable space group: P -1
;
_chemical_formula_sum "Si O2"
_cell_formula_units_Z 16
_cell_length_a 14.900836
_cell_length_b 6.824444
_cell_length_c 8.563796
_cell_angle_alpha 76.513899
_cell_angle_beta 82.257682
_cell_angle_gamma 116.055640
_cell_volume 732.204243
_symmetry_space_group_name_H-M "P -1"
_symmetry_group_IT_number 2
_symmetry_cell_setting 'triclinic'
loop_
_space_group_symop_operation_xyz
x,y,z
-x,-y,-z
loop_
_atom_site_type_symbol
_atom_site_label
_atom_site_fract_x
_atom_site_fract_y
_atom_site_fract_z
Si Si1 0.481661 0.426802 0.338224
Si Si2 0.414293 0.744111 0.119181
Si Si3 0.338600 0.662100 0.810620
Si Si4 0.903645 0.645392 0.117152
Si Si5 0.967309 0.599197 0.759992
Si Si6 0.293240 0.976630 0.571556
Si Si7 0.876907 0.906923 0.336959
Si Si8 0.784947 0.401183 0.601609
O O1 0.500000 0.500000 0.500000
O O2 0.470549 0.606343 0.195410
O O3 0.576638 0.391234 0.272554
O O4 0.373077 0.190198 0.409330
O O5 0.329641 0.710608 0.275544
O O6 0.348951 0.645675 0.995195
O O7 0.500000 0.000000 0.000000
O O8 0.221084 0.492932 0.821599
O O9 0.356218 0.904213 0.690845
O O10 0.925676 0.868058 0.174136
O O11 0.962573 0.522603 0.208155
O O12 0.928914 0.634652 0.931708
O O13 0.871749 0.438584 0.701509
O O14 0.037661 0.863790 0.636939
O O15 0.228058 0.769888 0.504247
O O16 0.217014 0.037498 0.676030
O O17 0.825721 0.662969 0.483855
#
# Coordination Sequence:
#
# PCOD9064619 Si02
#       8
#     2   2   2   2   2   2   2   2
#     4  12  25  47  77 108 143 195 245 301 375 440
#     4  12  26  47  70 110 146 190 242 304 366 439
#     4  12  23  46  71 103 149 188 242 300 365 434
#     4  11  24  46  70 105 143 189 248 301 368 437
#     4  11  25  46  71 104 147 193 242 308 367 428
#     4  12  25  46  74 109 147 195 242 308 364 438
#     4  12  23  45  72 102 147 189 253 294 369 427
#     4  12  25  45  72 105 149 192 250 301 364 435
#
# _framework density 21.851827
#
# number of rings (size 3 to 8) (size 9 to 14) (size 15 to 20)
#    0.000    0.250    5.000    4.500    0.000    3.000 
#    0.000    3.750    0.000    0.000    0.000    0.000 
#    0.000    0.000    0.000    0.000    0.000    0.000 
#
# Total GULP energy -89434.917385 kJ/mol
# GULP energy per Si atom -5589.682337 kJ/mol
# Density = 2.180209 g / cm^3
# Si number density = 21.851827 Si / 1000 Ang^3
#
#
#
# Elastic Constant Matrix: (Units=GPa)
#
#
# Indices 1 2 3 4 5 6 
#
# 1 144.1160 60.0788 47.0501 -0.2552 0.2441 -21.6634
# 2 60.0788 111.4306 36.8666 0.2071 7.7237 -7.3185
# 3 47.0501 36.8666 93.8546 1.4586 4.4908 -25.4253
# 4 -0.2552 0.2071 1.4586 44.0759 -5.3497 -6.4130
# 5 0.2441 7.7237 4.4908 -5.3497 50.0711 2.0479
# 6 -21.6634 -7.3185 -25.4253 -6.4130 2.0479 41.0788
#
#
#
# Elastic Compliance Matrix: (Units=1/GPa)
#
#
# Indices 1 2 3 4 5 6 
#
# 1 0.010077 -0.004454 -0.002533 0.000702 0.000817 0.003021
# 2 -0.004454 0.012378 -0.003105 -0.000472 -0.001575 -0.002061
# 3 -0.002533 -0.003105 0.015277 0.000476 -0.001143 0.007698
# 4 0.000702 -0.000472 0.000476 0.023570 0.002376 0.004141
# 5 0.000817 -0.001575 -0.001143 0.002376 0.020617 -0.001214
# 6 0.003021 -0.002061 0.007698 0.004141 -0.001214 0.031041
#
#
# Mechanical properties :
#
#
# Convention : Reuss Voigt Hill
#
# Bulk Modulus (GPa) = 56.99023 70.82137 63.90580
# Shear Modulus (GPa) = 35.97323 40.73888 38.35605
#
# Velocity S-wave (km/s) = 4.06178 4.32247 4.19415
# Velocity P-wave (km/s) = 6.93789 7.57574 7.26382
#
# Compressibility (1/GPa) = 0.01754687
#
# Stress axis : x y z
#
# Youngs Moduli (GPa) = 99.23682 80.79076 65.45853
#
# Poissons Ratio (x) = 0.35987 0.16583
# Poissons Ratio (y) = 0.44204 0.20322
# Poissons Ratio (z) = 0.25141 0.25082
#
# Static dielectric constant tensor:
#      x y z
#    x 1.829360 0.065500 -0.066310 
#    y 0.065500 1.880210 -0.047120 
#    z -0.066310 -0.047120 1.889660 
# 
# From -- ./inp_files/288634.got.cif
#   From: 2010.05.17/outbox.cif.g08.bks.cpg/sg2_145_cif.got.tgz:288634.got - 2010.06.03 11:33:40.
