data_PCOD9064226
_publ_section_title
;
Structure prediction by ZEFSAII (Michael W. Deem and Ramdas Pophale) SiO2 
 PCOD9064226
Probable space group: P -1
;
_chemical_formula_sum "Si O2"
_cell_formula_units_Z 12
_cell_length_a 8.759548
_cell_length_b 11.430949
_cell_length_c 9.695770
_cell_angle_alpha 131.469563
_cell_angle_beta 49.001309
_cell_angle_gamma 139.802924
_cell_volume 446.289727
_symmetry_space_group_name_H-M "P -1"
_symmetry_group_IT_number 2
_symmetry_cell_setting 'triclinic'
loop_
_space_group_symop_operation_xyz
x,y,z
-x,-y,-z
loop_
_atom_site_type_symbol
_atom_site_label
_atom_site_fract_x
_atom_site_fract_y
_atom_site_fract_z
Si Si1 0.193725 0.459524 0.723991
Si Si2 0.168225 0.145035 0.683476
Si Si3 0.689022 0.284251 0.750957
Si Si4 0.174303 0.323268 0.098441
Si Si5 0.290522 0.264153 0.289978
Si Si6 0.354068 0.856599 0.635229
O O1 0.170211 0.305435 0.723512
O O2 0.275486 0.424426 0.500689
O O3 0.427057 0.666264 0.798411
O O4 0.915974 0.390980 0.806819
O O5 0.408109 0.150829 0.501936
O O6 0.913624 0.932244 0.664095
O O7 0.176065 0.198393 0.879713
O O8 0.740153 0.212675 0.520988
O O9 0.659964 0.450155 0.854640
O O10 0.461907 0.076641 0.775389
O O11 0.894179 0.271629 0.230108
O O12 0.231671 0.272511 0.172570
#
# Coordination Sequence:
#
# PCOD9064226 Si02
#       6
#     2   2   2   2   2   2
#     4  11  25  43  74 105 145 187 230 293 359 417
#     4  12  27  47  75 105 142 188 237 290 351 420
#     4  11  24  45  72 106 141 188 234 290 355 415
#     4  12  27  47  74 108 140 184 244 290 343 424
#     4  11  24  45  73 105 142 190 236 285 356 420
#     4  11  24  46  74 101 143 189 235 286 349 423
#
# _framework density 26.888362999999998
#
# number of rings (size 3 to 8) (size 9 to 14) (size 15 to 20)
#    0.000    0.667    3.333    3.500    4.667    4.667 
#    3.000    1.667    0.000    0.000    0.000    0.000 
#    0.000    0.000    0.000    0.000    0.000    0.000 
#
# Total GULP energy -67295.947371 kJ/mol
# GULP energy per Si atom -5607.995614 kJ/mol
# Density = 2.682716 g / cm^3
# Si number density = 26.888363 Si / 1000 Ang^3
#
#
#
# Elastic Constant Matrix: (Units=GPa)
#
#
# Indices 1 2 3 4 5 6 
#
# 1 146.8846 60.2402 30.1253 -8.2440 0.8281 26.0162
# 2 60.2402 169.4670 21.4561 2.6606 -0.7996 24.2241
# 3 30.1253 21.4561 103.0824 -1.5701 -7.2722 14.4434
# 4 -8.2440 2.6606 -1.5701 32.8783 -2.5449 7.4960
# 5 0.8281 -0.7996 -7.2722 -2.5449 34.0749 0.3982
# 6 26.0162 24.2241 14.4434 7.4960 0.3982 50.3038
#
#
#
# Elastic Compliance Matrix: (Units=1/GPa)
#
#
# Indices 1 2 3 4 5 6 
#
# 1 0.008961 -0.002547 -0.001586 0.003129 -0.000342 -0.003416
# 2 -0.002547 0.007148 -0.000488 -0.000808 0.000087 -0.001865
# 3 -0.001586 -0.000488 0.010754 0.000838 0.002410 -0.002176
# 4 0.003129 -0.000808 0.000838 0.032968 0.002621 -0.006403
# 5 -0.000342 0.000087 0.002410 0.002621 0.030081 -0.001185
# 6 -0.003416 -0.001865 -0.002176 -0.006403 -0.001185 0.024132
#
#
# Mechanical properties :
#
#
# Convention : Reuss Voigt Hill
#
# Bulk Modulus (GPa) = 56.75705 71.45300 64.10503
# Shear Modulus (GPa) = 38.71168 43.95890 41.33529
#
# Velocity S-wave (km/s) = 3.79848 4.04774 3.92509
# Velocity P-wave (km/s) = 6.35548 6.96256 6.66593
#
# Compressibility (1/GPa) = 0.01761896
#
# Stress axis : x y z
#
# Youngs Moduli (GPa) = 111.60060 139.90597 92.98916
#
# Poissons Ratio (x) = 0.35631 0.14752
# Poissons Ratio (y) = 0.28422 0.04541
# Poissons Ratio (z) = 0.17705 0.06832
#
# Static dielectric constant tensor:
#      x y z
#    x 2.174360 0.045140 -0.048920 
#    y 0.045140 2.064280 -0.018780 
#    z -0.048920 -0.018780 2.133410 
# 
# From -- ./inp_files/172657.got.cif
#   From: 2010.05.17/outbox.cif.g08.bks.cpg/sg2_87_cif.got.tgz:172657.got - 2010.06.03 11:33:40.
