data_PCOD9064201
_publ_section_title
;
Structure prediction by ZEFSAII (Michael W. Deem and Ramdas Pophale) SiO2 
 PCOD9064201
Probable space group: P -1
;
_chemical_formula_sum "Si O2"
_cell_formula_units_Z 16
_cell_length_a 5.196246
_cell_length_b 19.849139
_cell_length_c 9.603256
_cell_angle_alpha 44.436298
_cell_angle_beta 102.465026
_cell_angle_gamma 101.581430
_cell_volume 675.533324
_symmetry_space_group_name_H-M "P -1"
_symmetry_group_IT_number 2
_symmetry_cell_setting 'triclinic'
loop_
_space_group_symop_operation_xyz
x,y,z
-x,-y,-z
loop_
_atom_site_type_symbol
_atom_site_label
_atom_site_fract_x
_atom_site_fract_y
_atom_site_fract_z
Si Si1 0.906039 0.961271 0.394828
Si Si2 0.573577 0.610513 0.818835
Si Si3 0.265442 0.218396 0.954280
Si Si4 0.981673 0.334187 0.415469
Si Si5 0.318234 0.882246 0.015715
Si Si6 0.597911 0.791456 0.712115
Si Si7 0.805463 0.124142 0.674744
Si Si8 0.773631 0.564782 0.434992
O O1 0.850681 0.848090 0.588242
O O2 0.068704 0.961062 0.269148
O O3 0.669788 0.024530 0.222154
O O4 0.000000 0.000000 0.500000
O O5 0.860383 0.629106 0.756713
O O6 0.579586 0.677866 0.855331
O O7 0.329228 0.647112 0.645823
O O8 0.500000 0.500000 0.000000
O O9 0.257680 0.333664 0.795615
O O10 0.452488 0.185346 0.901919
O O11 0.396103 0.182351 0.165144
O O12 0.966441 0.172965 0.972409
O O13 0.130018 0.395142 0.463092
O O14 0.998179 0.218953 0.595620
O O15 0.321587 0.903367 0.150140
O O16 0.378350 0.833468 0.527465
O O17 0.500000 0.500000 0.500000
O O18 0.000000 0.500000 0.500000
#
# Coordination Sequence:
#
# PCOD9064201 Si02
#       8
#     2   2   2   2   2   2   2   2
#     4  12  25  48  76 112 156 199 260 312 386 449
#     4  11  25  45  71 106 141 195 245 311 369 454
#     4  12  28  50  74 113 152 198 252 310 387 452
#     4  11  24  45  72 103 148 187 249 306 375 436
#     4  12  28  47  80 107 153 202 251 312 373 457
#     4  11  27  45  76 105 155 196 253 314 383 444
#     4  11  26  48  74 110 153 202 255 312 380 450
#     4  12  27  47  77 107 148 197 248 313 379 451
#
# _framework density 23.684989999999999
#
# number of rings (size 3 to 8) (size 9 to 14) (size 15 to 20)
#    0.000    0.500    3.750    3.000   10.500    1.500 
#    0.000    0.000    0.000    0.000    0.000    0.000 
#    0.000    0.000    0.000    0.000    0.000    0.000 
#
# Total GULP energy -89401.409686 kJ/mol
# GULP energy per Si atom -5587.588105 kJ/mol
# Density = 2.363108 g / cm^3
# Si number density = 23.684990 Si / 1000 Ang^3
#
#
#
# Elastic Constant Matrix: (Units=GPa)
#
#
# Indices 1 2 3 4 5 6 
#
# 1 107.0404 65.5556 22.5219 -0.5343 -0.4901 -3.9887
# 2 65.5556 137.4765 42.2013 2.5221 5.2282 -2.6759
# 3 22.5219 42.2013 96.1373 -6.9785 6.5424 -11.6840
# 4 -0.5343 2.5221 -6.9785 54.6878 12.8663 -4.4884
# 5 -0.4901 5.2282 6.5424 12.8663 33.7320 -3.5677
# 6 -3.9887 -2.6759 -11.6840 -4.4884 -3.5677 41.4025
#
#
#
# Elastic Compliance Matrix: (Units=1/GPa)
#
#
# Indices 1 2 3 4 5 6 
#
# 1 0.013292 -0.006272 -0.000325 0.000155 0.001266 0.000909
# 2 -0.006272 0.011426 -0.003684 -0.000934 -0.000906 -0.001085
# 3 -0.000325 -0.003684 0.012886 0.002705 -0.002601 0.003436
# 4 0.000155 -0.000934 0.002705 0.020757 -0.008054 0.002274
# 5 0.001266 -0.000906 -0.002601 -0.008054 0.033523 0.001345
# 6 0.000909 -0.001085 0.003436 0.002274 0.001345 0.025503
#
#
# Mechanical properties :
#
#
# Convention : Reuss Voigt Hill
#
# Bulk Modulus (GPa) = 58.67938 66.80132 62.74035
# Shear Modulus (GPa) = 34.81134 39.98949 37.40042
#
# Velocity S-wave (km/s) = 3.83791 4.11346 3.97807
# Velocity P-wave (km/s) = 6.66844 7.12924 6.90269
#
# Compressibility (1/GPa) = 0.01704176
#
# Stress axis : x y z
#
# Youngs Moduli (GPa) = 75.23185 87.51824 77.60139
#
# Poissons Ratio (x) = 0.54890 0.02524
# Poissons Ratio (y) = 0.47184 0.28592
# Poissons Ratio (z) = 0.02447 0.32246
#
# Static dielectric constant tensor:
#      x y z
#    x 2.004420 0.021510 0.016380 
#    y 0.021510 1.922410 -0.026180 
#    z 0.016380 -0.026180 1.961340 
# 
# From -- ./inp_files/138555.got.cif
#   From: 2010.05.17/outbox.cif.g08.bks.cpg/sg2_70_cif.got.tgz:138555.got - 2010.06.03 11:33:40.
