data_PCOD9064056
_publ_section_title
;
Structure prediction by ZEFSAII (Michael W. Deem and Ramdas Pophale) SiO2 
 PCOD9064056
Probable space group: P -1
;
_chemical_formula_sum "Si O2"
_cell_formula_units_Z 14
_cell_length_a 9.257642
_cell_length_b 12.838879
_cell_length_c 10.810679
_cell_angle_alpha 144.324326
_cell_angle_beta 77.475063
_cell_angle_gamma 78.660438
_cell_volume 552.895372
_symmetry_space_group_name_H-M "P -1"
_symmetry_group_IT_number 2
_symmetry_cell_setting 'triclinic'
loop_
_space_group_symop_operation_xyz
x,y,z
-x,-y,-z
loop_
_atom_site_type_symbol
_atom_site_label
_atom_site_fract_x
_atom_site_fract_y
_atom_site_fract_z
Si Si1 0.696385 0.704843 0.590839
Si Si2 0.293907 0.005646 0.454196
Si Si3 0.793407 0.492915 0.635443
Si Si4 0.653247 0.633396 0.173126
Si Si5 0.566814 0.489294 0.286051
Si Si6 0.092181 0.368854 0.042606
Si Si7 0.194266 0.013089 0.202372
O O1 0.788930 0.570615 0.573080
O O2 0.531959 0.696822 0.570360
O O3 0.655948 0.947457 0.828337
O O4 0.873882 0.538254 0.296878
O O5 0.377314 0.141878 0.549047
O O6 0.202297 0.011503 0.349648
O O7 0.477542 0.747575 0.219264
O O8 0.156356 0.146688 0.736891
O O9 0.617350 0.492750 0.678752
O O10 0.780115 0.674019 0.904310
O O11 0.990806 0.233695 0.391821
O O12 0.642471 0.495208 0.145152
O O13 0.856449 0.508274 0.942968
O O14 0.729557 0.243180 0.089710
#
# Coordination Sequence:
#
# PCOD9064056 Si02
#       7
#     2   2   2   2   2   2   2
#     4  11  24  48  68  92 140 184 229 280 326 402
#     4   9  19  40  71 100 134 177 218 271 348 405
#     4  11  26  44  68 102 137 178 234 280 325 403
#     4   9  20  40  68 102 135 173 219 276 340 408
#     4  12  26  44  71 102 139 175 222 288 343 392
#     4   9  19  40  70  95 129 181 219 270 337 394
#     4  11  24  45  70 104 132 179 232 268 346 409
#
# _framework density 25.321248000000001
#
# number of rings (size 3 to 8) (size 9 to 14) (size 15 to 20)
#    0.857    0.857    1.429    3.000    0.000    9.714 
#    0.000   11.429    0.000    0.000    0.000    0.000 
#    0.000    0.000    0.000    0.000    0.000    0.000 
#
# Total GULP energy -78265.558781 kJ/mol
# GULP energy per Si atom -5590.397056 kJ/mol
# Density = 2.526362 g / cm^3
# Si number density = 25.321248 Si / 1000 Ang^3
#
#
#
# Elastic Constant Matrix: (Units=GPa)
#
#
# Indices 1 2 3 4 5 6 
#
# 1 83.2752 48.0587 20.7148 -3.3406 6.3067 -12.0828
# 2 48.0587 169.8873 36.7941 5.7652 -3.8262 3.0772
# 3 20.7148 36.7941 62.5863 9.0683 8.1907 7.9646
# 4 -3.3406 5.7652 9.0683 36.7832 -0.1034 -0.7071
# 5 6.3067 -3.8262 8.1907 -0.1034 36.2698 0.5204
# 6 -12.0828 3.0772 7.9646 -0.7071 0.5204 43.8973
#
#
#
# Elastic Compliance Matrix: (Units=1/GPa)
#
#
# Indices 1 2 3 4 5 6 
#
# 1 0.016462 -0.004077 -0.003903 0.003197 -0.002482 0.005606
# 2 -0.004077 0.007856 -0.003313 -0.000800 0.002300 -0.001112
# 3 -0.003903 -0.003313 0.021137 -0.005149 -0.004391 -0.004708
# 4 0.003197 -0.000800 -0.005149 0.028918 0.000572 0.002329
# 5 -0.002482 0.002300 -0.004391 0.000572 0.029244 -0.000385
# 6 0.005606 -0.001112 -0.004708 0.002329 -0.000385 0.025298
#
#
# Mechanical properties :
#
#
# Convention : Reuss Voigt Hill
#
# Bulk Modulus (GPa) = 43.72762 58.54265 51.13513
# Shear Modulus (GPa) = 31.42179 37.40214 34.41197
#
# Velocity S-wave (km/s) = 3.52650 3.84748 3.69048
# Velocity P-wave (km/s) = 5.82136 6.55039 6.19661
#
# Compressibility (1/GPa) = 0.02286884
#
# Stress axis : x y z
#
# Youngs Moduli (GPa) = 60.74529 127.28745 47.30999
#
# Poissons Ratio (x) = 0.51901 0.18467
# Poissons Ratio (y) = 0.24769 0.15672
# Poissons Ratio (z) = 0.23711 0.42165
#
# Static dielectric constant tensor:
#      x y z
#    x 2.025560 -0.015850 -0.008050 
#    y -0.015850 1.981030 -0.058050 
#    z -0.008050 -0.058050 2.077400 
# 
# From -- ./inp_files/391579.got.cif
#   From: 2010.05.17/outbox.cif.g08.bks.cpg/sg2_196_cif.got.tgz:391579.got - 2010.06.03 11:33:40.
