data_PCOD9064653
_publ_section_title
;
Structure prediction by ZEFSAII (Michael W. Deem and Ramdas Pophale) SiO2 
 PCOD9064653
Probable space group: P -1
;
_chemical_formula_sum "Si O2"
_cell_formula_units_Z 11
_cell_length_a 12.826336
_cell_length_b 7.132120
_cell_length_c 6.525652
_cell_angle_alpha 59.304902
_cell_angle_beta 66.955710
_cell_angle_gamma 57.017673
_cell_volume 425.226304
_symmetry_space_group_name_H-M "P -1"
_symmetry_group_IT_number 2
_symmetry_cell_setting 'triclinic'
loop_
_space_group_symop_operation_xyz
x,y,z
-x,-y,-z
loop_
_atom_site_type_symbol
_atom_site_label
_atom_site_fract_x
_atom_site_fract_y
_atom_site_fract_z
Si Si1 0.110362 0.441091 0.285031
Si Si2 0.755614 0.827557 0.296694
Si Si3 0.000000 0.000000 0.000000
Si Si4 0.550881 0.325968 0.249388
Si Si5 0.113384 0.037622 0.218776
Si Si6 0.696924 0.431152 0.429699
O O1 0.227966 0.267013 0.430845
O O2 0.000000 0.500000 0.500000
O O3 0.094422 0.278498 0.210749
O O4 0.099698 0.699591 0.089180
O O5 0.767414 0.602721 0.275168
O O6 0.622043 0.055861 0.259191
O O7 0.857178 0.920802 0.074362
O O8 0.994637 0.995179 0.271247
O O9 0.654026 0.365600 0.285501
O O10 0.432010 0.397324 0.448794
O O11 0.500000 0.500000 0.000000
O O12 0.225000 0.806962 0.361174
#
# Coordination Sequence:
#
# PCOD9064653 Si02
#       6
#     2   2   1   2   2   2
#     4  12  27  46  69 102 139 181 236 289 344 409
#     4  12  25  44  71 102 139 185 228 283 346 408
#     4  12  26  46  72 100 138 184 230 288 344 404
#     4  11  24  46  71 104 139 180 232 279 344 413
#     4  12  26  46  70 107 136 182 239 278 347 417
#     4  11  25  45  71 102 142 179 225 291 338 407
#
# _framework density 25.868580000000001
#
# number of rings (size 3 to 8) (size 9 to 14) (size 15 to 20)
#    0.000    0.364    7.273    1.091    0.000    5.818 
#    0.000    0.000    0.000    0.000    0.000    0.000 
#    0.000    0.000    0.000    0.000    0.000    0.000 
#
# Total GULP energy -61453.930214 kJ/mol
# GULP energy per Si atom -5586.720929 kJ/mol
# Density = 2.580970 g / cm^3
# Si number density = 25.868580 Si / 1000 Ang^3
#
#
#
# Elastic Constant Matrix: (Units=GPa)
#
#
# Indices 1 2 3 4 5 6 
#
# 1 86.7111 47.2967 60.4103 -13.3321 17.9812 10.2456
# 2 47.2967 221.1128 79.9295 -26.8486 23.9742 28.9832
# 3 60.4103 79.9295 125.8800 -25.6205 38.0451 8.7371
# 4 -13.3321 -26.8486 -25.6205 56.2208 -6.6099 13.5346
# 5 17.9812 23.9742 38.0451 -6.6099 72.4000 5.7674
# 6 10.2456 28.9832 8.7371 13.5346 5.7674 65.3904
#
#
#
# Elastic Compliance Matrix: (Units=1/GPa)
#
#
# Indices 1 2 3 4 5 6 
#
# 1 0.017606 -0.000664 -0.007822 0.000690 0.000146 -0.001575
# 2 -0.000664 0.006420 -0.003164 0.002148 0.000119 -0.002774
# 3 -0.007822 -0.003164 0.015874 0.003200 -0.005082 0.000293
# 4 0.000690 0.002148 0.003200 0.021870 -0.000089 -0.006007
# 5 0.000146 0.000119 -0.005082 -0.000089 0.016465 -0.000830
# 6 -0.001575 -0.002774 0.000293 -0.006007 -0.000830 0.018046
#
#
# Mechanical properties :
#
#
# Convention : Reuss Voigt Hill
#
# Bulk Modulus (GPa) = 60.24123 89.88633 75.06378
# Shear Modulus (GPa) = 39.96321 55.20673 47.58497
#
# Velocity S-wave (km/s) = 3.93473 4.62467 4.29358
# Velocity P-wave (km/s) = 6.63180 7.95861 7.32531
#
# Compressibility (1/GPa) = 0.01659993
#
# Stress axis : x y z
#
# Youngs Moduli (GPa) = 56.79848 155.76583 62.99671
#
# Poissons Ratio (x) = 0.10345 0.49276
# Poissons Ratio (y) = 0.03772 0.19931
# Poissons Ratio (z) = 0.44428 0.49281
#
# Static dielectric constant tensor:
#      x y z
#    x 3.365960 0.517740 0.150870 
#    y 0.517740 2.233800 0.061500 
#    z 0.150870 0.061500 2.287830 
# 
# From -- ./inp_files/2189.got.cif
#   From: 2010.05.17/outbox.cif.g08.bks.cpg/sg2_2_cif.got.tgz:2189.got - 2010.06.03 11:33:40.
