data_PCOD9064926
_publ_section_title
;
Structure prediction by ZEFSAII (Michael W. Deem and Ramdas Pophale) SiO2 
 PCOD9064926
Probable space group: P -1
;
_chemical_formula_sum "Si O2"
_cell_formula_units_Z 14
_cell_length_a 9.252269
_cell_length_b 9.042736
_cell_length_c 17.526046
_cell_angle_alpha 123.526409
_cell_angle_beta 149.703477
_cell_angle_gamma 57.213139
_cell_volume 609.335330
_symmetry_space_group_name_H-M "P -1"
_symmetry_group_IT_number 2
_symmetry_cell_setting 'triclinic'
loop_
_space_group_symop_operation_xyz
x,y,z
-x,-y,-z
loop_
_atom_site_type_symbol
_atom_site_label
_atom_site_fract_x
_atom_site_fract_y
_atom_site_fract_z
Si Si1 0.210566 0.640476 0.924416
Si Si2 0.350038 0.935988 0.562730
Si Si3 0.670495 0.028012 0.008220
Si Si4 0.656410 0.490732 0.339752
Si Si5 0.232464 0.786623 0.144934
Si Si6 0.712596 0.118039 0.313285
Si Si7 0.677271 0.418542 0.629956
O O1 0.188820 0.789323 0.888558
O O2 0.961295 0.515121 0.786161
O O3 0.500000 0.500000 0.000000
O O4 0.203935 0.755932 0.032743
O O5 0.407543 0.843341 0.645483
O O6 0.288532 0.794046 0.431433
O O7 0.600582 0.054588 0.704168
O O8 0.053377 0.074371 0.469330
O O9 0.913975 0.854049 0.053062
O O10 0.500000 0.000000 0.000000
O O11 0.429713 0.039308 0.834231
O O12 0.443603 0.607753 0.217341
O O13 0.644020 0.280722 0.270373
O O14 0.512394 0.549004 0.371747
O O15 0.000000 0.500000 0.500000
O O16 0.500000 0.500000 0.500000
#
# Coordination Sequence:
#
# PCOD9064926 Si02
#       7
#     2   2   2   2   2   2   2
#     4  12  29  51  80 112 156 204 256 312 385 461
#     4  11  24  48  79 105 145 204 251 304 374 456
#     4  12  29  50  77 114 153 200 257 322 381 455
#     4  12  28  48  75 116 153 198 257 324 377 450
#     4  12  28  51  79 107 156 205 254 314 390 453
#     4  11  24  46  76 106 151 195 250 306 381 448
#     4  12  27  46  78 111 152 198 256 309 377 455
#
# _framework density 22.975854999999999
#
# number of rings (size 3 to 8) (size 9 to 14) (size 15 to 20)
#    0.000    0.286    4.286    3.000   10.000    2.857 
#    0.000    0.000    0.000    0.000    0.000    0.000 
#    0.000    0.000    0.000    0.000    0.000    0.000 
#
# Total GULP energy -78190.581141 kJ/mol
# GULP energy per Si atom -5585.041510 kJ/mol
# Density = 2.292356 g / cm^3
# Si number density = 22.975855 Si / 1000 Ang^3
#
#
#
# Elastic Constant Matrix: (Units=GPa)
#
#
# Indices 1 2 3 4 5 6 
#
# 1 145.3428 30.8205 55.1945 4.8888 17.7659 -8.9885
# 2 30.8205 103.2200 18.1718 0.3099 13.2117 7.7664
# 3 55.1945 18.1718 125.4325 10.3515 26.1536 3.2935
# 4 4.8888 0.3099 10.3515 47.8745 -4.1678 2.7816
# 5 17.7659 13.2117 26.1536 -4.1678 34.9240 -0.8922
# 6 -8.9885 7.7664 3.2935 2.7816 -0.8922 30.8586
#
#
#
# Elastic Compliance Matrix: (Units=1/GPa)
#
#
# Indices 1 2 3 4 5 6 
#
# 1 0.009045 -0.002212 -0.003482 -0.000462 -0.001121 0.003572
# 2 -0.002212 0.011002 0.000141 0.000048 -0.003227 -0.003526
# 3 -0.003482 0.000141 0.011223 -0.002557 -0.007049 -0.002221
# 4 -0.000462 0.000048 -0.002557 0.021998 0.004712 -0.001720
# 5 -0.001121 -0.003227 -0.007049 0.004712 0.036313 0.001863
# 6 0.003572 -0.003526 -0.002221 -0.001720 0.001863 0.034780
#
#
# Mechanical properties :
#
#
# Convention : Reuss Voigt Hill
#
# Bulk Modulus (GPa) = 49.59186 64.70767 57.14976
# Shear Modulus (GPa) = 35.16503 40.71864 37.94183
#
# Velocity S-wave (km/s) = 3.91643 4.21436 4.06812
# Velocity P-wave (km/s) = 6.48710 7.20455 6.85522
#
# Compressibility (1/GPa) = 0.02016460
#
# Stress axis : x y z
#
# Youngs Moduli (GPa) = 110.55957 90.89431 89.10251
#
# Poissons Ratio (x) = 0.20103 0.31022
# Poissons Ratio (y) = 0.24452 -0.01254
# Poissons Ratio (z) = 0.38492 -0.01279
#
# Static dielectric constant tensor:
#      x y z
#    x 2.099040 0.061840 0.024270 
#    y 0.061840 2.000380 0.032090 
#    z 0.024270 0.032090 1.846980 
# 
# From -- ./inp_files/156860.got.cif
#   From: 2010.05.17/outbox.cif.g08.bks.cpg/sg2_79_cif.got.tgz:156860.got - 2010.06.03 11:33:40.
