data_PCOD9064409
_publ_section_title
;
Structure prediction by ZEFSAII (Michael W. Deem and Ramdas Pophale) SiO2 
 PCOD9064409
Probable space group: P -1
;
_chemical_formula_sum "Si O2"
_cell_formula_units_Z 12
_cell_length_a 23.204901
_cell_length_b 9.239183
_cell_length_c 14.972629
_cell_angle_alpha 32.167628
_cell_angle_beta 21.553884
_cell_angle_gamma 31.825564
_cell_volume 595.091292
_symmetry_space_group_name_H-M "P -1"
_symmetry_group_IT_number 2
_symmetry_cell_setting 'triclinic'
loop_
_space_group_symop_operation_xyz
x,y,z
-x,-y,-z
loop_
_atom_site_type_symbol
_atom_site_label
_atom_site_fract_x
_atom_site_fract_y
_atom_site_fract_z
Si Si1 0.725973 0.563279 0.887356
Si Si2 0.948783 0.972061 0.327561
Si Si3 0.905031 0.237571 0.439458
Si Si4 0.945193 0.285760 0.990345
Si Si5 0.527933 0.306126 0.974197
Si Si6 0.602665 0.653932 0.213679
O O1 0.811399 0.813891 0.625278
O O2 0.610172 0.570258 0.966155
O O3 0.880654 0.271976 0.818055
O O4 0.616772 0.603710 0.113134
O O5 0.977342 0.124386 0.297275
O O6 0.899033 0.190746 0.203023
O O7 0.712996 0.266772 0.695612
O O8 0.000000 0.000000 0.500000
O O9 0.922471 0.545851 0.277031
O O10 0.790374 0.521175 0.045868
O O11 0.000000 0.000000 0.000000
O O12 0.527005 0.989687 0.164308
O O13 0.500000 0.500000 0.000000
O O14 0.500000 0.500000 0.500000
#
# Coordination Sequence:
#
# PCOD9064409 Si02
#       6
#     2   2   2   2   2   2
#     4  11  24  46  72 104 137 187 233 282 357 407
#     4  11  24  45  75 101 140 183 234 290 341 419
#     4  12  25  47  71 102 142 183 237 287 345 414
#     4  12  26  46  71 105 140 184 233 285 351 412
#     4  12  27  44  70 103 140 185 233 287 346 414
#     4  12  26  46  71 102 140 183 232 288 346 417
#
# _framework density 20.164973
#
# number of rings (size 3 to 8) (size 9 to 14) (size 15 to 20)
#    0.000    0.333    5.000    3.000    9.333    0.000 
#    0.000    1.667    0.000    0.000    0.000    0.000 
#    0.000    0.000    0.000    0.000    0.000    0.000 
#
# Total GULP energy -67140.459862 kJ/mol
# GULP energy per Si atom -5595.038322 kJ/mol
# Density = 2.011908 g / cm^3
# Si number density = 20.164973 Si / 1000 Ang^3
#
#
#
# Elastic Constant Matrix: (Units=GPa)
#
#
# Indices 1 2 3 4 5 6 
#
# 1 156.3965 47.1108 21.2386 -7.0749 14.0913 11.3425
# 2 47.1108 72.7089 14.3409 -4.0007 13.5581 25.6290
# 3 21.2386 14.3409 90.6948 -13.4764 3.2019 18.3350
# 4 -7.0749 -4.0007 -13.4764 29.9221 -2.4575 -4.7494
# 5 14.0913 13.5581 3.2019 -2.4575 40.0948 6.1718
# 6 11.3425 25.6290 18.3350 -4.7494 6.1718 41.8098
#
#
#
# Elastic Compliance Matrix: (Units=1/GPa)
#
#
# Indices 1 2 3 4 5 6 
#
# 1 0.008230 -0.005510 -0.001289 0.000846 -0.001179 0.001980
# 2 -0.005510 0.022054 0.000223 -0.000407 -0.003777 -0.011611
# 3 -0.001289 0.000223 0.013006 0.004822 0.000404 -0.005003
# 4 0.000846 -0.000407 0.004822 0.036138 0.001392 0.001805
# 5 -0.001179 -0.003777 0.000404 0.001392 0.026894 -0.001354
# 6 0.001980 -0.011611 -0.005003 0.001805 -0.001354 0.033097
#
#
# Mechanical properties :
#
#
# Convention : Reuss Voigt Hill
#
# Bulk Modulus (GPa) = 33.17980 53.90895 43.54438
# Shear Modulus (GPa) = 30.74738 38.17265 34.46002
#
# Velocity S-wave (km/s) = 3.90909 4.35560 4.13837
# Velocity P-wave (km/s) = 6.07162 7.21713 6.66902
#
# Compressibility (1/GPa) = 0.03013882
#
# Stress axis : x y z
#
# Youngs Moduli (GPa) = 121.51281 45.34366 76.88686
#
# Poissons Ratio (x) = 0.24982 0.09910
# Poissons Ratio (y) = 0.66948 -0.01716
# Poissons Ratio (z) = 0.15662 -0.01012
#
# Static dielectric constant tensor:
#      x y z
#    x 1.705140 0.015970 0.000270 
#    y 0.015970 1.699640 0.013840 
#    z 0.000270 0.013840 1.735210 
# 
# From -- ./inp_files/144508.got.cif
#   From: 2010.05.17/outbox.cif.g08.bks.cpg/sg2_73_cif.got.tgz:144508.got - 2010.06.03 11:33:40.
