data_PCOD9064317
_publ_section_title
;
Structure prediction by ZEFSAII (Michael W. Deem and Ramdas Pophale) SiO2 
 PCOD9064317
Probable space group: P -1
;
_chemical_formula_sum "Si O2"
_cell_formula_units_Z 14
_cell_length_a 9.607256
_cell_length_b 10.950282
_cell_length_c 9.513509
_cell_angle_alpha 52.403700
_cell_angle_beta 102.861435
_cell_angle_gamma 67.400312
_cell_volume 571.604592
_symmetry_space_group_name_H-M "P -1"
_symmetry_group_IT_number 2
_symmetry_cell_setting 'triclinic'
loop_
_space_group_symop_operation_xyz
x,y,z
-x,-y,-z
loop_
_atom_site_type_symbol
_atom_site_label
_atom_site_fract_x
_atom_site_fract_y
_atom_site_fract_z
Si Si1 0.668575 0.265717 0.877288
Si Si2 0.042563 0.787076 0.690199
Si Si3 0.600002 0.662265 0.015033
Si Si4 0.064078 0.103002 0.102054
Si Si5 0.830398 0.721424 0.233668
Si Si6 0.685737 0.895485 0.383209
Si Si7 0.508603 0.280160 0.549970
O O1 0.556717 0.246655 0.750269
O O2 0.607402 0.483508 0.675494
O O3 0.581373 0.291894 0.988611
O O4 0.898801 0.096305 0.038275
O O5 0.011289 0.771644 0.857567
O O6 0.885932 0.803771 0.556352
O O7 0.251624 0.568908 0.848726
O O8 0.000000 0.000000 0.500000
O O9 0.485075 0.874067 0.752401
O O10 0.710678 0.687545 0.136721
O O11 0.272546 0.880002 0.344736
O O12 0.092671 0.206823 0.911107
O O13 0.714773 0.879146 0.229808
O O14 0.000000 0.500000 0.500000
O O15 0.617747 0.772581 0.482713
#
# Coordination Sequence:
#
# PCOD9064317 Si02
#       7
#     2   2   2   2   2   2   2
#     4  11  25  42  75 109 151 194 248 317 373 442
#     4  12  30  51  74 112 158 204 251 310 382 463
#     4  12  25  48  79 105 150 201 254 312 382 443
#     4  12  27  47  72 111 154 195 249 309 375 447
#     4  12  24  48  80 113 147 194 258 318 375 440
#     4  12  25  49  82 109 149 199 258 314 380 450
#     4  11  24  45  73 113 146 194 255 314 374 441
#
# _framework density 24.492457000000002
#
# number of rings (size 3 to 8) (size 9 to 14) (size 15 to 20)
#    0.000    0.286    4.286    4.286    2.000    5.714 
#    0.000    0.000    0.000    0.000    0.000    0.000 
#    0.000    0.000    0.000    0.000    0.000    0.000 
#
# Total GULP energy -78364.157783 kJ/mol
# GULP energy per Si atom -5597.439842 kJ/mol
# Density = 2.443671 g / cm^3
# Si number density = 24.492457 Si / 1000 Ang^3
#
#
#
# Elastic Constant Matrix: (Units=GPa)
#
#
# Indices 1 2 3 4 5 6 
#
# 1 115.6200 54.5411 21.6052 0.1204 19.4113 1.8832
# 2 54.5411 126.0259 36.0900 -20.8675 6.0153 -9.3081
# 3 21.6052 36.0900 57.0624 -6.0539 3.9821 -6.5861
# 4 0.1204 -20.8675 -6.0539 38.7744 -8.0465 16.0798
# 5 19.4113 6.0153 3.9821 -8.0465 34.8610 -0.8749
# 6 1.8832 -9.3081 -6.5861 16.0798 -0.8749 42.9124
#
#
#
# Elastic Compliance Matrix: (Units=1/GPa)
#
#
# Indices 1 2 3 4 5 6 
#
# 1 0.012714 -0.005566 -0.001332 -0.004528 -0.007022 -0.000416
# 2 -0.005566 0.012908 -0.005580 0.006867 0.003087 -0.000323
# 3 -0.001332 -0.005580 0.021822 -0.000811 -0.000913 0.002483
# 4 -0.004528 0.006867 -0.000811 0.036249 0.009499 -0.011825
# 5 -0.007022 0.003087 -0.000913 0.009499 0.034309 -0.002022
# 6 -0.000416 -0.000323 0.002483 -0.011825 -0.002022 0.028022
#
#
# Mechanical properties :
#
#
# Convention : Reuss Voigt Hill
#
# Bulk Modulus (GPa) = 44.46865 58.13121 51.29993
# Shear Modulus (GPa) = 28.01485 35.74104 31.87794
#
# Velocity S-wave (km/s) = 3.38570 3.82418 3.61160
# Velocity P-wave (km/s) = 5.78614 6.57913 6.19534
#
# Compressibility (1/GPa) = 0.02248775
#
# Stress axis : x y z
#
# Youngs Moduli (GPa) = 78.65277 77.47288 45.82437
#
# Poissons Ratio (x) = 0.43123 0.06103
# Poissons Ratio (y) = 0.43780 0.25571
# Poissons Ratio (z) = 0.10474 0.43232
#
# Static dielectric constant tensor:
#      x y z
#    x 1.973240 0.010610 -0.010220 
#    y 0.010610 2.030010 -0.000050 
#    z -0.010220 -0.000050 1.969250 
# 
# From -- ./inp_files/392149.got.cif
#   From: 2010.05.17/outbox.cif.g08.bks.cpg/sg2_197_cif.got.tgz:392149.got - 2010.06.03 11:33:40.
