data_PCOD9064042
_publ_section_title
;
Structure prediction by ZEFSAII (Michael W. Deem and Ramdas Pophale) SiO2 
 PCOD9064042
Probable space group: P -1
;
_chemical_formula_sum "Si O2"
_cell_formula_units_Z 12
_cell_length_a 9.233376
_cell_length_b 9.114467
_cell_length_c 12.081299
_cell_angle_alpha 134.530983
_cell_angle_beta 119.754606
_cell_angle_gamma 48.529903
_cell_volume 542.124252
_symmetry_space_group_name_H-M "P -1"
_symmetry_group_IT_number 2
_symmetry_cell_setting 'triclinic'
loop_
_space_group_symop_operation_xyz
x,y,z
-x,-y,-z
loop_
_atom_site_type_symbol
_atom_site_label
_atom_site_fract_x
_atom_site_fract_y
_atom_site_fract_z
Si Si1 0.059345 0.235437 0.347386
Si Si2 0.484793 0.059438 0.682701
Si Si3 0.264764 0.618397 0.879142
Si Si4 0.014373 0.557944 0.905914
Si Si5 0.603267 0.011757 0.935716
Si Si6 0.900022 0.880022 0.461051
O O1 0.017207 0.146374 0.397959
O O2 0.000000 0.500000 0.500000
O O3 0.922150 0.261733 0.208477
O O4 0.286991 0.092855 0.333050
O O5 0.403365 0.334687 0.762659
O O6 0.475486 0.017788 0.787726
O O7 0.332220 0.992117 0.540257
O O8 0.178868 0.626614 0.974171
O O9 0.370306 0.764108 0.967127
O O10 0.055326 0.347487 0.721081
O O11 0.813929 0.781320 0.907751
O O12 0.000000 0.500000 0.000000
O O13 0.500000 0.000000 0.000000
O O14 0.000000 0.000000 0.500000
#
# Coordination Sequence:
#
# PCOD9064042 Si02
#       6
#     2   2   2   2   2   2
#     4  12  23  46  71  99 141 182 240 284 350 423
#     4  11  24  45  70 102 138 182 239 288 348 421
#     4  11  25  44  72 103 138 191 229 291 356 409
#     4  11  24  46  69 102 143 185 232 288 348 417
#     4  12  25  43  68 104 142 181 240 290 349 421
#     4  11  26  44  70 103 140 186 228 291 354 413
#
# _framework density 22.135148999999998
#
# number of rings (size 3 to 8) (size 9 to 14) (size 15 to 20)
#    0.000    0.667    5.000    3.500    4.667    1.333 
#    0.000    1.667    0.000    0.000    0.000    0.000 
#    0.000    0.000    0.000    0.000    0.000    0.000 
#
# Total GULP energy -66944.837860 kJ/mol
# GULP energy per Si atom -5578.736488 kJ/mol
# Density = 2.208477 g / cm^3
# Si number density = 22.135149 Si / 1000 Ang^3
#
#
#
# Elastic Constant Matrix: (Units=GPa)
#
#
# Indices 1 2 3 4 5 6 
#
# 1 125.6414 63.2335 30.5128 0.1744 -14.8599 18.3486
# 2 63.2335 141.3918 27.2257 -16.6956 -5.7012 -4.9502
# 3 30.5128 27.2257 50.5861 -22.0037 -13.2921 8.6840
# 4 0.1744 -16.6956 -22.0037 42.8453 9.5026 -15.8747
# 5 -14.8599 -5.7012 -13.2921 9.5026 38.7377 -8.6462
# 6 18.3486 -4.9502 8.6840 -15.8747 -8.6462 58.2287
#
#
#
# Elastic Compliance Matrix: (Units=1/GPa)
#
#
# Indices 1 2 3 4 5 6 
#
# 1 0.013944 -0.005967 -0.007341 -0.008940 0.002846 -0.005821
# 2 -0.005967 0.010649 -0.000771 0.005663 -0.001431 0.004232
# 3 -0.007341 -0.000771 0.032532 0.016320 0.004801 0.002558
# 4 -0.008940 0.005663 0.016320 0.038900 -0.004115 0.010859
# 5 0.002846 -0.001431 0.004801 -0.004115 0.029699 0.001554
# 6 -0.005821 0.004232 0.002558 0.010859 0.001554 0.022177
#
#
# Mechanical properties :
#
#
# Convention : Reuss Voigt Hill
#
# Bulk Modulus (GPa) = 34.52230 62.17370 48.34800
# Shear Modulus (GPa) = 26.92267 41.07216 33.99742
#
# Velocity S-wave (km/s) = 3.49131 4.31225 3.92331
# Velocity P-wave (km/s) = 5.64645 7.27620 6.51251
#
# Compressibility (1/GPa) = 0.02896678
#
# Stress axis : x y z
#
# Youngs Moduli (GPa) = 71.71341 93.90591 30.73866
#
# Poissons Ratio (x) = 0.56037 0.22565
# Poissons Ratio (y) = 0.42794 0.02370
# Poissons Ratio (z) = 0.52645 0.07240
#
# Static dielectric constant tensor:
#      x y z
#    x 1.840740 -0.043130 -0.011230 
#    y -0.043130 1.766750 0.054600 
#    z -0.011230 0.054600 1.899060 
# 
# From -- ./inp_files/175627.got.cif
#   From: 2010.05.17/outbox.cif.g08.bks.cpg/sg2_88_cif.got.tgz:175627.got - 2010.06.03 11:33:40.
