data_PCOD9064007
_publ_section_title
;
Structure prediction by ZEFSAII (Michael W. Deem and Ramdas Pophale) SiO2 
 PCOD9064007
Probable space group: P -1
;
_chemical_formula_sum "Si O2"
_cell_formula_units_Z 16
_cell_length_a 12.316545
_cell_length_b 14.872975
_cell_length_c 8.790914
_cell_angle_alpha 113.630896
_cell_angle_beta 35.085244
_cell_angle_gamma 128.766542
_cell_volume 699.004491
_symmetry_space_group_name_H-M "P -1"
_symmetry_group_IT_number 2
_symmetry_cell_setting 'triclinic'
loop_
_space_group_symop_operation_xyz
x,y,z
-x,-y,-z
loop_
_atom_site_type_symbol
_atom_site_label
_atom_site_fract_x
_atom_site_fract_y
_atom_site_fract_z
Si Si1 0.647732 0.465183 0.906624
Si Si2 0.188313 0.638775 0.868539
Si Si3 0.785189 0.992984 0.564897
Si Si4 0.978220 0.134608 0.843244
Si Si5 0.729576 0.078693 0.385276
Si Si6 0.268733 0.839464 0.094715
Si Si7 0.158902 0.671273 0.568087
Si Si8 0.561951 0.623863 0.580740
O O1 0.704094 0.382586 0.690764
O O2 0.895467 0.581511 0.754087
O O3 0.500000 0.500000 0.000000
O O4 0.520212 0.399556 0.166065
O O5 0.177530 0.676850 0.735442
O O6 0.430282 0.662234 0.649770
O O7 0.153943 0.703751 0.092030
O O8 0.000000 0.500000 0.000000
O O9 0.951681 0.950686 0.358774
O O10 0.742612 0.998591 0.440829
O O11 0.860126 0.122767 0.623320
O O12 0.536263 0.902088 0.866486
O O13 0.175909 0.268615 0.661703
O O14 0.749298 0.104991 0.004339
O O15 0.939459 0.124977 0.059639
O O16 0.746157 0.195694 0.505156
O O17 0.500000 0.000000 0.500000
O O18 0.500000 0.500000 0.500000
#
# Coordination Sequence:
#
# PCOD9064007 Si02
#       8
#     2   2   2   2   2   2   2   2
#     4  11  26  49  72 110 144 181 240 293 368 436
#     4  12  22  44  73 101 143 187 232 289 360 424
#     4  11  25  44  72  98 144 186 238 295 347 418
#     4  12  24  46  70 104 140 184 246 286 360 420
#     4  12  25  47  71 102 145 192 240 297 356 421
#     4  11  24  45  69 105 138 183 237 292 352 421
#     4  11  25  46  74 102 144 190 234 298 360 429
#     4  12  25  43  73 108 143 184 232 299 353 433
#
# _framework density 22.889695
#
# number of rings (size 3 to 8) (size 9 to 14) (size 15 to 20)
#    0.000    0.500    5.000    3.000    1.750    1.000 
#    4.500    0.000    0.000    0.000    0.000    0.000 
#    0.000    0.000    0.000    0.000    0.000    0.000 
#
# Total GULP energy -89441.218237 kJ/mol
# GULP energy per Si atom -5590.076140 kJ/mol
# Density = 2.283760 g / cm^3
# Si number density = 22.889695 Si / 1000 Ang^3
#
#
#
# Elastic Constant Matrix: (Units=GPa)
#
#
# Indices 1 2 3 4 5 6 
#
# 1 79.8188 1.5559 11.1596 -0.6344 -7.6080 0.9952
# 2 1.5559 141.7218 33.3039 22.2277 -9.5245 12.7976
# 3 11.1596 33.3039 89.3700 7.8995 -4.4293 4.7183
# 4 -0.6344 22.2277 7.8995 39.8780 -6.2069 1.3646
# 5 -7.6080 -9.5245 -4.4293 -6.2069 38.2437 5.0801
# 6 0.9952 12.7976 4.7183 1.3646 5.0801 31.0336
#
#
#
# Elastic Compliance Matrix: (Units=1/GPa)
#
#
# Indices 1 2 3 4 5 6 
#
# 1 0.013029 0.000381 -0.001660 0.000776 0.002727 -0.000803
# 2 0.000381 0.008716 -0.002687 -0.003937 0.001736 -0.003309
# 3 -0.001660 -0.002687 0.012540 -0.000923 0.000406 -0.000771
# 4 0.000776 -0.003937 -0.000923 0.028034 0.003628 -0.000088
# 5 0.002727 0.001736 0.000406 0.003628 0.028515 -0.005692
# 6 -0.000803 -0.003309 -0.000771 -0.000088 -0.005692 0.034667
#
#
# Mechanical properties :
#
#
# Convention : Reuss Voigt Hill
#
# Bulk Modulus (GPa) = 37.94453 44.77217 41.35835
# Shear Modulus (GPa) = 35.15744 39.49047 37.32395
#
# Velocity S-wave (km/s) = 3.92337 4.15812 4.04245
# Velocity P-wave (km/s) = 6.09401 6.53113 6.31635
#
# Compressibility (1/GPa) = 0.02635426
#
# Stress axis : x y z
#
# Youngs Moduli (GPa) = 76.75096 114.72838 79.74183
#
# Poissons Ratio (x) = -0.04374 0.13237
# Poissons Ratio (y) = -0.02926 0.21427
# Poissons Ratio (z) = 0.12741 0.30828
#
# Static dielectric constant tensor:
#      x y z
#    x 1.970420 0.087910 -0.055470 
#    y 0.087910 1.935910 -0.032350 
#    z -0.055470 -0.032350 1.947780 
# 
# From -- ./inp_files/273557.got.cif
#   From: 2010.05.17/outbox.cif.g08.bks.cpg/sg2_137_cif.got.tgz:273557.got - 2010.06.03 11:33:40.
