data_PCOD9064687
_publ_section_title
;
Structure prediction by ZEFSAII (Michael W. Deem and Ramdas Pophale) SiO2 
 PCOD9064687
Probable space group: P -1
;
_chemical_formula_sum "Si O2"
_cell_formula_units_Z 16
_cell_length_a 9.191507
_cell_length_b 21.175676
_cell_length_c 8.888491
_cell_angle_alpha 63.876701
_cell_angle_beta 119.057864
_cell_angle_gamma 149.054061
_cell_volume 776.564512
_symmetry_space_group_name_H-M "P -1"
_symmetry_group_IT_number 2
_symmetry_cell_setting 'triclinic'
loop_
_space_group_symop_operation_xyz
x,y,z
-x,-y,-z
loop_
_atom_site_type_symbol
_atom_site_label
_atom_site_fract_x
_atom_site_fract_y
_atom_site_fract_z
Si Si1 0.206046 0.526935 0.461361
Si Si2 0.897187 0.280277 0.586275
Si Si3 0.708894 0.870708 0.559519
Si Si4 0.685234 0.876605 0.895553
Si Si5 0.239202 0.269711 0.308503
Si Si6 0.657636 0.615716 0.056567
Si Si7 0.294379 0.873483 0.615282
Si Si8 0.332451 0.616114 0.100084
O O1 0.495156 0.598421 0.614427
O O2 0.312639 0.601800 0.285457
O O3 0.000000 0.500000 0.500000
O O4 0.009698 0.392688 0.457831
O O5 0.561175 0.173992 0.569994
O O6 0.906017 0.227936 0.511527
O O7 0.082606 0.326219 0.776275
O O8 0.736640 0.877919 0.744994
O O9 0.657838 0.774554 0.579210
O O10 0.000000 0.000000 0.500000
O O11 0.483990 0.877325 0.785026
O O12 0.509949 0.749119 0.009826
O O13 0.000000 0.000000 0.000000
O O14 0.927931 0.170546 0.332295
O O15 0.229711 0.290996 0.110294
O O16 0.472285 0.597684 0.101845
O O17 0.500000 0.500000 0.000000
O O18 0.500000 0.000000 0.500000
O O19 0.000000 0.500000 0.000000
#
# Coordination Sequence:
#
# PCOD9064687 Si02
#       8
#     2   2   2   2   2   2   2   2
#     4  12  25  42  75 105 140 188 238 292 362 427
#     4  11  25  46  71 102 148 182 241 293 361 430
#     4  11  24  46  71  98 138 193 239 289 356 437
#     4  11  27  47  70 105 144 188 243 296 366 430
#     4  12  24  44  71 104 142 178 240 292 356 431
#     4  12  27  44  71 111 146 182 235 303 365 423
#     4  11  27  47  72 103 143 191 238 293 357 428
#     4  12  27  46  74 103 149 188 242 303 360 437
#
# _framework density 20.603569
#
# number of rings (size 3 to 8) (size 9 to 14) (size 15 to 20)
#    0.000    0.500    3.750    4.500    8.750    2.000 
#    0.000    1.875    0.000    0.000    0.000    0.000 
#    0.000    0.000    0.000    0.000    0.000    0.000 
#
# Total GULP energy -89418.847581 kJ/mol
# GULP energy per Si atom -5588.677974 kJ/mol
# Density = 2.055667 g / cm^3
# Si number density = 20.603569 Si / 1000 Ang^3
#
#
#
# Elastic Constant Matrix: (Units=GPa)
#
#
# Indices 1 2 3 4 5 6 
#
# 1 106.9314 31.1490 45.4251 -5.9061 -20.2970 14.7239
# 2 31.1490 119.4339 55.0653 1.4479 -6.0429 13.1554
# 3 45.4251 55.0653 147.1254 4.5686 -13.5397 20.3343
# 4 -5.9061 1.4479 4.5686 46.5488 4.6676 -3.1804
# 5 -20.2970 -6.0429 -13.5397 4.6676 26.8365 -4.6080
# 6 14.7239 13.1554 20.3343 -3.1804 -4.6080 41.6301
#
#
#
# Elastic Compliance Matrix: (Units=1/GPa)
#
#
# Indices 1 2 3 4 5 6 
#
# 1 0.012550 -0.001615 -0.002357 0.000999 0.007443 -0.001877
# 2 -0.001615 0.010410 -0.003289 -0.000218 -0.000706 -0.001207
# 3 -0.002357 -0.003289 0.009344 -0.001491 0.002007 -0.002583
# 4 0.000999 -0.000218 -0.001491 0.022244 -0.003615 0.001743
# 5 0.007443 -0.000706 0.002007 -0.003615 0.044592 0.001270
# 6 -0.001877 -0.001207 -0.002583 0.001743 0.001270 0.026601
#
#
# Mechanical properties :
#
#
# Convention : Reuss Voigt Hill
#
# Bulk Modulus (GPa) = 56.23858 70.75216 63.49537
# Shear Modulus (GPa) = 34.20168 39.12650 36.66409
#
# Velocity S-wave (km/s) = 4.07872 4.36250 4.22299
# Velocity P-wave (km/s) = 7.03818 7.73237 7.39343
#
# Compressibility (1/GPa) = 0.01778139
#
# Stress axis : x y z
#
# Youngs Moduli (GPa) = 79.68175 96.05817 107.02496
#
# Poissons Ratio (x) = 0.15515 0.25225
# Poissons Ratio (y) = 0.12870 0.35202
# Poissons Ratio (z) = 0.18781 0.31594
#
# Static dielectric constant tensor:
#      x y z
#    x 1.774560 -0.067860 0.012090 
#    y -0.067860 1.805130 0.014620 
#    z 0.012090 0.014620 1.739350 
# 
# From -- ./inp_files/223489.got.cif
#   From: 2010.05.17/outbox.cif.g08.bks.cpg/sg2_112_cif.got.tgz:223489.got - 2010.06.03 11:33:40.
