data_PCOD9064544
_publ_section_title
;
Structure prediction by ZEFSAII (Michael W. Deem and Ramdas Pophale) SiO2 
 PCOD9064544
Probable space group: P -1
;
_chemical_formula_sum "Si O2"
_cell_formula_units_Z 11
_cell_length_a 15.975042
_cell_length_b 12.935426
_cell_length_c 15.925871
_cell_angle_alpha 26.553467
_cell_angle_beta 17.573794
_cell_angle_gamma 27.300316
_cell_volume 428.247968
_symmetry_space_group_name_H-M "P -1"
_symmetry_group_IT_number 2
_symmetry_cell_setting 'triclinic'
loop_
_space_group_symop_operation_xyz
x,y,z
-x,-y,-z
loop_
_atom_site_type_symbol
_atom_site_label
_atom_site_fract_x
_atom_site_fract_y
_atom_site_fract_z
Si Si1 0.000000 0.000000 0.000000
Si Si2 0.689397 0.039092 0.441115
Si Si3 0.385765 0.782064 0.139492
Si Si4 0.289693 0.464005 0.153313
Si Si5 0.169001 0.233483 0.912446
Si Si6 0.039372 0.256759 0.299793
O O1 0.751435 0.064696 0.266324
O O2 0.934409 0.285490 0.831508
O O3 0.359775 0.127942 0.723285
O O4 0.815143 0.765436 0.549993
O O5 0.858736 0.195577 0.217322
O O6 0.522399 0.625682 0.043662
O O7 0.630127 0.750523 0.999366
O O8 0.302817 0.058088 0.987510
O O9 0.114075 0.704880 0.490304
O O10 0.500000 0.500000 0.000000
O O11 0.128551 0.514263 0.759421
O O12 0.000000 0.000000 0.500000
#
# Coordination Sequence:
#
# PCOD9064544 Si02
#       6
#     1   2   2   2   2   2
#     4  12  22  38  64  90 132 176 218 278 328 370
#     4  11  25  42  66  98 135 182 229 273 331 404
#     4  11  25  45  70  99 140 179 218 284 341 391
#     4  11  25  43  67 101 135 177 232 272 326 406
#     4  11  24  46  68  95 137 177 221 279 340 399
#     4  12  26  45  73 105 132 174 232 278 338 412
#
# _framework density 25.686053000000001
#
# number of rings (size 3 to 8) (size 9 to 14) (size 15 to 20)
#    0.000    0.727    0.000    8.727    0.000    7.273 
#    0.000    1.818    0.000    0.000    0.000    0.000 
#    0.000    0.000    0.000    0.000    0.000    0.000 
#
# Total GULP energy -61437.300558 kJ/mol
# GULP energy per Si atom -5585.209142 kJ/mol
# Density = 2.562759 g / cm^3
# Si number density = 25.686053 Si / 1000 Ang^3
#
#
#
# Elastic Constant Matrix: (Units=GPa)
#
#
# Indices 1 2 3 4 5 6 
#
# 1 30.3355 17.5144 -2.7894 1.3945 -1.6643 -11.2225
# 2 17.5144 194.7767 20.6868 -53.2570 -0.9341 -36.1139
# 3 -2.7894 20.6868 77.1337 -5.1308 8.7002 -7.4755
# 4 1.3945 -53.2570 -5.1308 44.9404 1.3922 9.9716
# 5 -1.6643 -0.9341 8.7002 1.3922 43.1835 -6.3641
# 6 -11.2225 -36.1139 -7.4755 9.9716 -6.3641 29.8089
#
#
#
# Elastic Compliance Matrix: (Units=1/GPa)
#
#
# Indices 1 2 3 4 5 6 
#
# 1 0.041743 -0.003492 0.003007 -0.008733 0.003555 0.015919
# 2 -0.003492 0.009526 -0.001495 0.009675 0.001069 0.006843
# 3 0.003007 -0.001495 0.013934 -0.000775 -0.002319 0.002579
# 4 -0.008733 0.009675 -0.000775 0.034782 -0.001645 -0.003746
# 5 0.003555 0.001069 -0.002319 -0.001645 0.025008 0.007942
# 6 0.015919 0.006843 0.002579 -0.003746 0.007942 0.051427
#
#
# Mechanical properties :
#
#
# Convention : Reuss Voigt Hill
#
# Bulk Modulus (GPa) = 16.32821 41.45216 28.89019
# Shear Modulus (GPa) = 24.90106 41.37550 33.13828
#
# Velocity S-wave (km/s) = 3.11696 4.01785 3.59573
# Velocity P-wave (km/s) = 4.39597 6.13981 5.33956
#
# Compressibility (1/GPa) = 0.06124369
#
# Stress axis : x y z
#
# Youngs Moduli (GPa) = 23.95613 104.97217 71.76598
#
# Poissons Ratio (x) = 0.36656 -0.21580
# Poissons Ratio (y) = 0.08365 0.10729
# Poissons Ratio (z) = -0.07204 0.15693
#
# Static dielectric constant tensor:
#      x y z
#    x 2.070830 0.061860 0.001190 
#    y 0.061860 2.027010 -0.005860 
#    z 0.001190 -0.005860 1.963910 
# 
# From -- ./inp_files/521178.got.cif
#   From: 2010.05.17/outbox.cif.g08.bks.cpg/sg2_261_cif.got.tgz:521178.got - 2010.06.03 11:33:40.
