data_PCOD9064645
_publ_section_title
;
Structure prediction by ZEFSAII (Michael W. Deem and Ramdas Pophale) SiO2 
 PCOD9064645
Probable space group: P -1
;
_chemical_formula_sum "Si O2"
_cell_formula_units_Z 16
_cell_length_a 12.521610
_cell_length_b 16.170584
_cell_length_c 18.852981
_cell_angle_alpha 30.068260
_cell_angle_beta 156.502305
_cell_angle_gamma 136.730981
_cell_volume 720.404237
_symmetry_space_group_name_H-M "P -1"
_symmetry_group_IT_number 2
_symmetry_cell_setting 'triclinic'
loop_
_space_group_symop_operation_xyz
x,y,z
-x,-y,-z
loop_
_atom_site_type_symbol
_atom_site_label
_atom_site_fract_x
_atom_site_fract_y
_atom_site_fract_z
Si Si1 0.285455 0.576572 0.520217
Si Si2 0.414524 0.909997 0.398811
Si Si3 0.484080 0.824219 0.016693
Si Si4 0.213015 0.514525 0.357989
Si Si5 0.255541 0.657494 0.771006
Si Si6 0.085658 0.129855 0.155268
Si Si7 0.354650 0.181867 0.031354
Si Si8 0.846615 0.965309 0.234428
O O1 0.429255 0.719171 0.523804
O O2 0.437391 0.383757 0.787569
O O3 0.285169 0.548686 0.456766
O O4 0.954232 0.669462 0.269050
O O5 0.678264 0.898034 0.619301
O O6 0.161122 0.990993 0.240515
O O7 0.367753 0.040521 0.206094
O O8 0.650034 0.861964 0.158465
O O9 0.570061 0.894492 0.944548
O O10 0.180546 0.945171 0.771043
O O11 0.500000 0.500000 0.500000
O O12 0.029970 0.380830 0.349214
O O13 0.978201 0.685567 0.056749
O O14 0.412309 0.727203 0.875564
O O15 0.147344 0.811440 0.533015
O O16 0.500000 0.500000 0.000000
O O17 0.825009 0.112671 0.053749
#
# Coordination Sequence:
#
# PCOD9064645 Si02
#       8
#     2   2   2   2   2   2   2   2
#     4  12  24  46  68 109 144 184 249 298 357 429
#     4  11  25  43  72 106 142 187 241 304 352 423
#     4  11  26  43  70 102 143 186 238 301 364 424
#     4  12  27  46  74 108 146 191 235 297 373 432
#     4  12  24  47  75 103 144 185 247 299 351 438
#     4  11  24  46  71 101 143 191 240 289 365 427
#     4  12  24  45  72 106 141 191 247 297 357 426
#     4  11  24  47  71  99 143 192 237 295 363 437
#
# _framework density 22.209752000000002
#
# number of rings (size 3 to 8) (size 9 to 14) (size 15 to 20)
#    0.000    0.500    5.000    2.250    7.000    0.500 
#    2.250    1.250    0.000    0.000    0.000    0.000 
#    0.000    0.000    0.000    0.000    0.000    0.000 
#
# Total GULP energy -89240.863059 kJ/mol
# GULP energy per Si atom -5577.553941 kJ/mol
# Density = 2.215920 g / cm^3
# Si number density = 22.209752 Si / 1000 Ang^3
#
#
#
# Elastic Constant Matrix: (Units=GPa)
#
#
# Indices 1 2 3 4 5 6 
#
# 1 143.7471 44.3653 10.8681 -0.7118 -2.9431 -13.7916
# 2 44.3653 123.6300 16.3919 -19.7108 3.2301 6.3292
# 3 10.8681 16.3919 51.6267 -15.1367 -18.0470 -8.6714
# 4 -0.7118 -19.7108 -15.1367 19.4535 7.0198 3.4678
# 5 -2.9431 3.2301 -18.0470 7.0198 28.0132 -3.2058
# 6 -13.7916 6.3292 -8.6714 3.4678 -3.2058 31.2646
#
#
#
# Elastic Compliance Matrix: (Units=1/GPa)
#
#
# Indices 1 2 3 4 5 6 
#
# 1 0.009079 -0.004802 -0.000050 -0.007098 0.003958 0.006156
# 2 -0.004802 0.013394 -0.003207 0.015638 -0.008992 -0.008376
# 3 -0.000050 -0.003207 0.032815 0.013501 0.019290 0.010209
# 4 -0.007098 0.015638 0.013501 0.086102 -0.017012 -0.013847
# 5 0.003958 -0.008992 0.019290 -0.017012 0.055731 0.016518
# 6 0.006156 -0.008376 0.010209 -0.013847 0.016518 0.042457
#
#
# Mechanical properties :
#
#
# Convention : Reuss Voigt Hill
#
# Bulk Modulus (GPa) = 25.52923 51.36160 38.44541
# Shear Modulus (GPa) = 18.60448 32.23815 25.42131
#
# Velocity S-wave (km/s) = 2.89740 3.81403 3.38687
# Velocity P-wave (km/s) = 4.76579 6.52470 5.71334
#
# Compressibility (1/GPa) = 0.03917078
#
# Stress axis : x y z
#
# Youngs Moduli (GPa) = 110.14505 74.66097 30.47376
#
# Poissons Ratio (x) = 0.35849 0.00152
# Poissons Ratio (y) = 0.52887 0.09773
# Poissons Ratio (z) = 0.00549 0.23944
#
# Static dielectric constant tensor:
#      x y z
#    x 1.883610 0.096510 0.147460 
#    y 0.096510 1.843630 0.099400 
#    z 0.147460 0.099400 1.973660 
# 
# From -- ./inp_files/418934.got.cif
#   From: 2010.05.17/outbox.cif.g08.bks.cpg/sg2_210_cif.got.tgz:418934.got - 2010.06.03 11:33:40.
