data_PCOD9064767
_publ_section_title
;
Structure prediction by ZEFSAII (Michael W. Deem and Ramdas Pophale) SiO2 
 PCOD9064767
Probable space group: P -1
;
_chemical_formula_sum "Si O2"
_cell_formula_units_Z 16
_cell_length_a 9.162266
_cell_length_b 14.290487
_cell_length_c 8.960312
_cell_angle_alpha 69.824542
_cell_angle_beta 60.661115
_cell_angle_gamma 40.062074
_cell_volume 657.294604
_symmetry_space_group_name_H-M "P -1"
_symmetry_group_IT_number 2
_symmetry_cell_setting 'triclinic'
loop_
_space_group_symop_operation_xyz
x,y,z
-x,-y,-z
loop_
_atom_site_type_symbol
_atom_site_label
_atom_site_fract_x
_atom_site_fract_y
_atom_site_fract_z
Si Si1 0.546140 0.553162 0.642299
Si Si2 0.226654 0.857106 0.125406
Si Si3 0.720916 0.159793 0.553012
Si Si4 0.024985 0.306294 0.351322
Si Si5 0.570822 0.013888 0.616639
Si Si6 0.852994 0.402297 0.060238
Si Si7 0.893768 0.883406 0.079990
Si Si8 0.682977 0.632303 0.804138
O O1 0.348098 0.710516 0.573461
O O2 0.417541 0.511903 0.797746
O O3 0.648647 0.574181 0.714963
O O4 0.761995 0.429974 0.490547
O O5 0.336258 0.799155 0.266244
O O6 0.012938 0.872336 0.180265
O O7 0.428584 0.760966 0.946811
O O8 0.117271 0.015745 0.076504
O O9 0.568450 0.133622 0.573130
O O10 0.000000 0.000000 0.500000
O O11 0.160134 0.143561 0.394329
O O12 0.197423 0.316098 0.330648
O O13 0.010474 0.336094 0.167003
O O14 0.500000 0.000000 0.500000
O O15 0.373152 0.047694 0.804927
O O16 0.853023 0.501658 0.909979
O O17 0.938536 0.274650 0.984262
#
# Coordination Sequence:
#
# PCOD9064767 Si02
#       8
#     2   2   2   2   2   2   2   2
#     4  12  27  50  70 106 144 195 237 296 357 434
#     4  11  24  46  73 102 142 191 232 304 355 429
#     4  12  27  46  75 108 146 187 242 296 365 425
#     4  12  27  47  73 105 150 184 244 297 357 426
#     4  12  27  44  74 111 145 191 239 298 364 427
#     4  12  27  46  74 106 140 192 241 295 358 426
#     4  11  25  44  74 103 146 182 246 293 359 428
#     4  12  26  47  73 106 143 193 239 292 363 426
#
# _framework density 24.342203999999999
#
# number of rings (size 3 to 8) (size 9 to 14) (size 15 to 20)
#    0.000    0.250    2.500    6.000    7.000    2.000 
#    0.000    0.000    0.000    0.000    0.000    0.000 
#    0.000    0.000    0.000    0.000    0.000    0.000 
#
# Total GULP energy -89760.599119 kJ/mol
# GULP energy per Si atom -5610.037445 kJ/mol
# Density = 2.428680 g / cm^3
# Si number density = 24.342204 Si / 1000 Ang^3
#
#
#
# Elastic Constant Matrix: (Units=GPa)
#
#
# Indices 1 2 3 4 5 6 
#
# 1 105.3791 6.7573 12.3960 2.0386 6.7486 17.0950
# 2 6.7573 110.8908 28.2726 7.3716 -5.3744 8.4154
# 3 12.3960 28.2726 72.1945 3.1114 6.6868 3.7543
# 4 2.0386 7.3716 3.1114 33.7173 -16.0168 1.3494
# 5 6.7486 -5.3744 6.6868 -16.0168 35.5970 -3.7618
# 6 17.0950 8.4154 3.7543 1.3494 -3.7618 41.5092
#
#
#
# Elastic Compliance Matrix: (Units=1/GPa)
#
#
# Indices 1 2 3 4 5 6 
#
# 1 0.010590 -0.000026 -0.001215 -0.001800 -0.003065 -0.004465
# 2 -0.000026 0.010324 -0.004075 -0.001003 0.001717 -0.001526
# 3 -0.001215 -0.004075 0.016238 -0.002761 -0.004728 -0.000481
# 4 -0.001800 -0.001003 -0.002761 0.038911 0.018385 0.001595
# 5 -0.003065 0.001717 -0.004728 0.018385 0.038541 0.004237
# 6 -0.004465 -0.001526 -0.000481 0.001595 0.004237 0.026615
#
#
# Mechanical properties :
#
#
# Convention : Reuss Voigt Hill
#
# Bulk Modulus (GPa) = 37.70609 42.59068 40.14839
# Shear Modulus (GPa) = 31.11602 38.23391 34.67497
#
# Velocity S-wave (km/s) = 3.57918 3.96749 3.77832
# Velocity P-wave (km/s) = 5.71002 6.20665 5.96351
#
# Compressibility (1/GPa) = 0.02652091
#
# Stress axis : x y z
#
# Youngs Moduli (GPa) = 94.43264 96.86082 61.58460
#
# Poissons Ratio (x) = 0.00249 0.07480
# Poissons Ratio (y) = 0.00242 0.25096
# Poissons Ratio (z) = 0.11469 0.39472
#
# Static dielectric constant tensor:
#      x y z
#    x 1.930590 -0.043500 -0.001140 
#    y -0.043500 1.905680 0.006950 
#    z -0.001140 0.006950 1.902280 
# 
# From -- ./inp_files/206801.got.cif
#   From: 2010.05.17/outbox.cif.g08.bks.cpg/sg2_104_cif.got.tgz:206801.got - 2010.06.03 11:33:40.
