data_PCOD9064437
_publ_section_title
;
Structure prediction by ZEFSAII (Michael W. Deem and Ramdas Pophale) SiO2 
 PCOD9064437
Probable space group: P -1
;
_chemical_formula_sum "Si O2"
_cell_formula_units_Z 14
_cell_length_a 5.555538
_cell_length_b 5.681099
_cell_length_c 20.033123
_cell_angle_alpha 96.066602
_cell_angle_beta 108.065328
_cell_angle_gamma 104.481639
_cell_volume 570.361957
_symmetry_space_group_name_H-M "P -1"
_symmetry_group_IT_number 2
_symmetry_cell_setting 'triclinic'
loop_
_space_group_symop_operation_xyz
x,y,z
-x,-y,-z
loop_
_atom_site_type_symbol
_atom_site_label
_atom_site_fract_x
_atom_site_fract_y
_atom_site_fract_z
Si Si1 0.611276 0.569112 0.243299
Si Si2 0.693926 0.970192 0.455768
Si Si3 0.721259 0.190563 0.150532
Si Si4 0.232339 0.815467 0.172712
Si Si5 0.206133 0.511363 0.958014
Si Si6 0.468008 0.605930 0.622428
Si Si7 0.060586 0.032228 0.279978
O O1 0.749881 0.451145 0.196437
O O2 0.349298 0.584087 0.184043
O O3 0.574562 0.414293 0.302315
O O4 0.810149 0.838013 0.285536
O O5 0.678812 0.205572 0.415508
O O6 0.500000 0.000000 0.500000
O O7 0.588280 0.677525 0.415575
O O8 0.000000 0.000000 0.500000
O O9 0.748721 0.242870 0.076526
O O10 0.951858 0.115965 0.205287
O O11 0.444198 0.009237 0.149471
O O12 0.954472 0.722186 0.108114
O O13 0.245700 0.893278 0.254613
O O14 0.500000 0.500000 0.000000
O O15 0.000000 0.500000 0.000000
O O16 0.780828 0.758595 0.650216
#
# Coordination Sequence:
#
# PCOD9064437 Si02
#       7
#     2   2   2   2   2   2   2
#     4  11  24  45  75 116 151 190 254 334 410 455
#     4  12  31  57  81 117 172 223 261 318 380 467
#     4  11  25  43  75 101 154 191 249 336 406 457
#     4  11  24  47  68 106 151 193 253 335 407 455
#     4  12  28  46  70 100 146 211 267 311 387 497
#     4  12  27  49  85 118 157 210 277 319 395 482
#     4  11  25  43  78 114 145 194 251 339 404 459
#
# _framework density 24.545812999999999
#
# number of rings (size 3 to 8) (size 9 to 14) (size 15 to 20)
#    0.000    0.571    2.857    3.429   10.000    1.143 
#    0.000    0.000    0.000    0.000    0.000    0.000 
#    0.000    0.000    0.000    0.000    0.000    0.000 
#
# Total GULP energy -78170.887136 kJ/mol
# GULP energy per Si atom -5583.634795 kJ/mol
# Density = 2.448995 g / cm^3
# Si number density = 24.545813 Si / 1000 Ang^3
#
#
#
# Elastic Constant Matrix: (Units=GPa)
#
#
# Indices 1 2 3 4 5 6 
#
# 1 106.7573 36.0229 55.8839 -1.2551 8.2769 18.0674
# 2 36.0229 136.2859 68.3176 -4.0914 20.6595 10.7750
# 3 55.8839 68.3176 107.8062 -7.6439 21.9775 6.6633
# 4 -1.2551 -4.0914 -7.6439 61.1030 7.4226 -5.3501
# 5 8.2769 20.6595 21.9775 7.4226 39.9495 8.5153
# 6 18.0674 10.7750 6.6633 -5.3501 8.5153 46.5781
#
#
#
# Elastic Compliance Matrix: (Units=1/GPa)
#
#
# Indices 1 2 3 4 5 6 
#
# 1 0.013940 0.000085 -0.007596 -0.001405 0.002567 -0.004971
# 2 0.000085 0.010976 -0.006546 0.000025 -0.001820 -0.001300
# 3 -0.007596 -0.006546 0.018695 0.002831 -0.006557 0.003310
# 4 -0.001405 0.000025 0.002831 0.017598 -0.005211 0.003108
# 5 0.002567 -0.001820 -0.006557 -0.005211 0.031286 -0.005955
# 6 -0.004971 -0.001300 0.003310 0.003108 -0.005955 0.024670
#
#
# Mechanical properties :
#
#
# Convention : Reuss Voigt Hill
#
# Bulk Modulus (GPa) = 64.53241 74.58869 69.56055
# Shear Modulus (GPa) = 33.23464 42.23445 37.73455
#
# Velocity S-wave (km/s) = 3.68364 4.15256 3.92511
# Velocity P-wave (km/s) = 6.66633 7.31062 6.99590
#
# Compressibility (1/GPa) = 0.01549609
#
# Stress axis : x y z
#
# Youngs Moduli (GPa) = 71.73427 91.10675 53.49146
#
# Poissons Ratio (x) = -0.00770 0.40630
# Poissons Ratio (y) = -0.00606 0.35017
# Poissons Ratio (z) = 0.54487 0.59642
#
# Static dielectric constant tensor:
#      x y z
#    x 1.981680 -0.015720 -0.006970 
#    y -0.015720 2.101780 0.015490 
#    z -0.006970 0.015490 1.939800 
# 
# From -- ./inp_files/10411.got.cif
#   From: 2010.05.17/outbox.cif.g08.bks.cpg/sg2_6_cif.got.tgz:10411.got - 2010.06.03 11:33:40.
