data_PCOD9064373
_publ_section_title
;
Structure prediction by ZEFSAII (Michael W. Deem and Ramdas Pophale) SiO2 
 PCOD9064373
Probable space group: P -1
;
_chemical_formula_sum "Si O2"
_cell_formula_units_Z 16
_cell_length_a 8.304064
_cell_length_b 17.847936
_cell_length_c 12.899952
_cell_angle_alpha 30.323186
_cell_angle_beta 50.125420
_cell_angle_gamma 52.534347
_cell_volume 733.332233
_symmetry_space_group_name_H-M "P -1"
_symmetry_group_IT_number 2
_symmetry_cell_setting 'triclinic'
loop_
_space_group_symop_operation_xyz
x,y,z
-x,-y,-z
loop_
_atom_site_type_symbol
_atom_site_label
_atom_site_fract_x
_atom_site_fract_y
_atom_site_fract_z
Si Si1 0.006695 0.332874 0.889218
Si Si2 0.337666 0.399519 0.236915
Si Si3 0.037158 0.171255 0.289475
Si Si4 0.352678 0.963752 0.937044
Si Si5 0.075866 0.931225 0.888466
Si Si6 0.703723 0.872607 0.574372
Si Si7 0.603884 0.237391 0.502135
Si Si8 0.479484 0.339528 0.653032
O O1 0.878300 0.493089 0.777637
O O2 0.230724 0.340947 0.734995
O O3 0.049307 0.244913 0.085077
O O4 0.882994 0.232239 0.985159
O O5 0.319707 0.266817 0.322194
O O6 0.429082 0.327049 0.392474
O O7 0.500000 0.500000 0.000000
O O8 0.826819 0.246738 0.344762
O O9 0.238706 0.176157 0.274110
O O10 0.000000 0.000000 0.500000
O O11 0.244706 0.954357 0.880430
O O12 0.535827 0.070315 0.735720
O O13 0.437868 0.798851 0.140458
O O14 0.158552 0.035972 0.005048
O O15 0.104119 0.049167 0.645431
O O16 0.500000 0.000000 0.500000
O O17 0.598824 0.306982 0.534539
O O18 0.500000 0.500000 0.500000
#
# Coordination Sequence:
#
# PCOD9064373 Si02
#       8
#     2   2   2   2   2   2   2   2
#     4  12  27  46  72 110 147 189 240 308 363 433
#     4  12  27  49  71 108 151 187 240 300 370 425
#     4  12  25  44  77 107 143 185 249 297 362 426
#     4  11  25  47  74 104 145 190 249 296 359 435
#     4  11  24  45  74 107 136 193 248 299 353 430
#     4  12  26  45  75 105 142 194 245 294 357 437
#     4  12  25  50  76 105 144 202 235 303 360 438
#     4  12  30  46  71 109 150 193 239 301 373 432
#
# _framework density 21.818214999999999
#
# number of rings (size 3 to 8) (size 9 to 14) (size 15 to 20)
#    0.000    0.250    5.000    3.375    7.000    2.000 
#    0.000    0.000    0.000    0.000    0.000    0.000 
#    0.000    0.000    0.000    0.000    0.000    0.000 
#
# Total GULP energy -89641.621967 kJ/mol
# GULP energy per Si atom -5602.601373 kJ/mol
# Density = 2.176856 g / cm^3
# Si number density = 21.818215 Si / 1000 Ang^3
#
#
#
# Elastic Constant Matrix: (Units=GPa)
#
#
# Indices 1 2 3 4 5 6 
#
# 1 65.3173 25.5635 -0.2508 -14.9000 8.1077 14.8511
# 2 25.5635 118.2290 15.5702 -14.7665 -0.0801 9.3525
# 3 -0.2508 15.5702 60.9343 -12.7511 5.8479 14.8944
# 4 -14.9000 -14.7665 -12.7511 49.3345 -4.7712 -6.6381
# 5 8.1077 -0.0801 5.8479 -4.7712 43.0021 -3.5705
# 6 14.8511 9.3525 14.8944 -6.6381 -3.5705 42.6254
#
#
#
# Elastic Compliance Matrix: (Units=1/GPa)
#
#
# Indices 1 2 3 4 5 6 
#
# 1 0.020054 -0.003741 0.004214 0.004614 -0.004455 -0.007293
# 2 -0.003741 0.009726 -0.002422 0.001317 0.001226 0.000323
# 3 0.004214 -0.002422 0.020180 0.004382 -0.003689 -0.007615
# 4 0.004614 0.001317 0.004382 0.023343 0.001152 0.000304
# 5 -0.004455 0.001226 -0.003689 0.001152 0.025130 0.004857
# 6 -0.007293 0.000323 -0.007615 0.000304 0.004857 0.029045
#
#
# Mechanical properties :
#
#
# Convention : Reuss Voigt Hill
#
# Bulk Modulus (GPa) = 21.70950 36.24961 28.97955
# Shear Modulus (GPa) = 34.07683 40.56557 37.32120
#
# Velocity S-wave (km/s) = 3.95632 4.31658 4.14037
# Velocity P-wave (km/s) = 5.55353 6.44161 6.01398
#
# Compressibility (1/GPa) = 0.04606279
#
# Stress axis : x y z
#
# Youngs Moduli (GPa) = 49.86565 102.82031 49.55491
#
# Poissons Ratio (x) = 0.38463 -0.20883
# Poissons Ratio (y) = 0.18654 0.12000
# Poissons Ratio (z) = -0.21014 0.24899
#
# Static dielectric constant tensor:
#      x y z
#    x 1.810510 -0.011870 0.000220 
#    y -0.011870 1.799420 0.008560 
#    z 0.000220 0.008560 1.777370 
# 
# From -- ./inp_files/184095.got.cif
#   From: 2010.05.17/outbox.cif.g08.bks.cpg/sg2_93_cif.got.tgz:184095.got - 2010.06.03 11:33:40.
