data_PCOD9064155
_publ_section_title
;
Structure prediction by ZEFSAII (Michael W. Deem and Ramdas Pophale) SiO2 
 PCOD9064155
Probable space group: P -1
;
_chemical_formula_sum "Si O2"
_cell_formula_units_Z 16
_cell_length_a 12.077512
_cell_length_b 6.033513
_cell_length_c 14.788958
_cell_angle_alpha 97.625039
_cell_angle_beta 134.167546
_cell_angle_gamma 105.444098
_cell_volume 661.486706
_symmetry_space_group_name_H-M "P -1"
_symmetry_group_IT_number 2
_symmetry_cell_setting 'triclinic'
loop_
_space_group_symop_operation_xyz
x,y,z
-x,-y,-z
loop_
_atom_site_type_symbol
_atom_site_label
_atom_site_fract_x
_atom_site_fract_y
_atom_site_fract_z
Si Si1 0.000979 0.162542 0.423621
Si Si2 0.592651 0.318449 0.050664
Si Si3 0.850275 0.074742 0.620148
Si Si4 0.624171 0.756825 0.639634
Si Si5 0.835001 0.609398 0.884884
Si Si6 0.915066 0.496361 0.107299
Si Si7 0.714860 0.314332 0.306728
Si Si8 0.513319 0.954478 0.318635
O O1 0.167394 0.454271 0.544245
O O2 0.826602 0.182570 0.332183
O O3 0.013505 0.018144 0.335797
O O4 0.000000 0.000000 0.500000
O O5 0.723584 0.367653 0.042309
O O6 0.688706 0.429989 0.207438
O O7 0.500000 0.500000 0.000000
O O8 0.500000 0.000000 0.000000
O O9 0.697406 0.964531 0.450122
O O10 0.955741 0.372780 0.725052
O O11 0.758852 0.946343 0.653779
O O12 0.500000 0.500000 0.500000
O O13 0.734175 0.738435 0.785500
O O14 0.496384 0.859140 0.603714
O O15 0.990701 0.630815 0.906951
O O16 0.669361 0.313756 0.788129
O O17 0.906172 0.679706 0.031986
O O18 0.541535 0.096849 0.247327
#
# Coordination Sequence:
#
# PCOD9064155 Si02
#       8
#     2   2   2   2   2   2   2   2
#     4  11  24  45  71 108 146 195 250 324 384 457
#     4  12  31  53  82 114 160 210 265 327 397 479
#     4  12  24  44  75 108 154 192 257 322 381 469
#     4  12  24  40  72 107 145 193 252 309 381 451
#     4  11  26  49  72 104 149 200 247 313 388 463
#     4  11  27  50  75 108 151 197 257 317 391 469
#     4  11  27  44  75 108 146 201 256 313 397 462
#     4  12  24  46  72 107 150 190 249 308 384 463
#
# _framework density 24.187937000000002
#
# number of rings (size 3 to 8) (size 9 to 14) (size 15 to 20)
#    0.000    0.500    3.750    3.375    8.750    0.500 
#    0.000    0.000    0.000    0.000    0.000    0.000 
#    0.000    0.000    0.000    0.000    0.000    0.000 
#
# Total GULP energy -89304.682968 kJ/mol
# GULP energy per Si atom -5581.542685 kJ/mol
# Density = 2.413288 g / cm^3
# Si number density = 24.187937 Si / 1000 Ang^3
#
#
#
# Elastic Constant Matrix: (Units=GPa)
#
#
# Indices 1 2 3 4 5 6 
#
# 1 152.2345 65.5639 24.1863 11.2630 -9.4836 25.5530
# 2 65.5639 57.8428 -2.1948 -15.8664 19.1237 -6.3289
# 3 24.1863 -2.1948 68.6117 -7.0056 -5.1896 -2.9476
# 4 11.2630 -15.8664 -7.0056 44.3236 3.4718 -4.8559
# 5 -9.4836 19.1237 -5.1896 3.4718 26.3006 2.2218
# 6 25.5530 -6.3289 -2.9476 -4.8559 2.2218 25.4207
#
#
#
# Elastic Compliance Matrix: (Units=1/GPa)
#
#
# Indices 1 2 3 4 5 6 
#
# 1 -0.006590 0.018565 0.003439 0.011980 -0.018089 0.015515
# 2 0.018565 -0.021042 -0.008552 -0.018958 0.025405 -0.030734
# 3 0.003439 -0.008552 0.013342 -0.003305 0.011003 -0.005632
# 4 0.011980 -0.018958 -0.003305 0.008961 0.017704 -0.016982
# 5 -0.018089 0.025405 0.011003 0.017704 0.010474 0.028250
# 6 0.015515 -0.030734 -0.005632 -0.016982 0.028250 0.009725
#
#
# Mechanical properties :
#
#
# Convention : Reuss Voigt Hill
#
# Bulk Modulus (GPa) = 79.28242 50.42221 64.85231
# Shear Modulus (GPa) = -638.64575 31.95122 -303.34727
#
# Velocity S-wave (km/s) = -16.26678 3.63844 -11.21093
# Velocity P-wave (km/s) = 17.88748 6.20824 11.86212
#
# Compressibility (1/GPa) = 0.01261314
#
# Stress axis : x y z
#
# Youngs Moduli (GPa) = -151.73647 -47.52491 74.95187
#
# Poissons Ratio (x) = 0.88229 -0.25773
# Poissons Ratio (y) = 2.81696 0.64097
# Poissons Ratio (z) = 0.52176 -0.40642
#
# Static dielectric constant tensor:
#      x y z
#    x 1.874540 0.041030 0.068790 
#    y 0.041030 1.992530 0.049380 
#    z 0.068790 0.049380 2.048190 
# 
# From -- ./inp_files/511033.got.cif
#   From: 2010.05.17/outbox.cif.g08.bks.cpg/sg2_256_cif.got.tgz:511033.got - 2010.06.03 11:33:40.
