data_PCOD9064065
_publ_section_title
;
Structure prediction by ZEFSAII (Michael W. Deem and Ramdas Pophale) SiO2 
 PCOD9064065
Probable space group: P -1
;
_chemical_formula_sum "Si O2"
_cell_formula_units_Z 16
_cell_length_a 9.542831
_cell_length_b 12.221201
_cell_length_c 8.078563
_cell_angle_alpha 111.044717
_cell_angle_beta 118.645401
_cell_angle_gamma 53.663878
_cell_volume 662.304370
_symmetry_space_group_name_H-M "P -1"
_symmetry_group_IT_number 2
_symmetry_cell_setting 'triclinic'
loop_
_space_group_symop_operation_xyz
x,y,z
-x,-y,-z
loop_
_atom_site_type_symbol
_atom_site_label
_atom_site_fract_x
_atom_site_fract_y
_atom_site_fract_z
Si Si1 0.547318 0.286966 0.381549
Si Si2 0.283706 0.580544 0.868333
Si Si3 0.749057 0.012578 0.170719
Si Si4 0.119925 0.414992 0.867870
Si Si5 0.599766 0.859960 0.166567
Si Si6 0.767512 0.417197 0.558988
Si Si7 0.518947 0.132671 0.568227
Si Si8 0.885232 0.127564 0.883745
O O1 0.672308 0.170055 0.255495
O O2 0.704324 0.319151 0.554709
O O3 0.370561 0.439121 0.348621
O O4 0.466556 0.217470 0.418812
O O5 0.184786 0.503424 0.848925
O O6 0.274787 0.579071 0.660938
O O7 0.500000 0.500000 0.000000
O O8 0.189170 0.731651 0.980682
O O9 0.702693 0.944426 0.259842
O O10 0.608879 0.033458 0.952206
O O11 0.958842 0.909701 0.186555
O O12 0.291555 0.272500 0.957716
O O13 0.978546 0.380474 0.674061
O O14 0.000000 0.500000 0.000000
O O15 0.606741 0.787839 0.302573
O O16 0.718585 0.111997 0.710511
O O17 0.500000 0.000000 0.500000
O O18 0.000000 0.000000 0.000000
#
# Coordination Sequence:
#
# PCOD9064065 Si02
#       8
#     2   2   2   2   2   2   2   2
#     4  11  25  46  75 105 152 188 250 308 389 437
#     4  12  28  51  80 107 155 204 251 313 379 457
#     4  11  24  45  71 106 148 193 243 317 374 450
#     4  12  27  46  76 112 150 197 258 308 380 453
#     4  11  24  45  70 105 147 192 247 301 387 441
#     4  11  27  47  75 111 149 201 255 310 375 461
#     4  12  26  47  70 108 147 193 238 313 380 449
#     4  12  26  45  76 111 144 193 255 304 374 450
#
# _framework density 24.158075
#
# number of rings (size 3 to 8) (size 9 to 14) (size 15 to 20)
#    0.000    0.500    2.500    4.875    8.750    4.500 
#    0.000    0.000    0.000    0.000    0.000    0.000 
#    0.000    0.000    0.000    0.000    0.000    0.000 
#
# Total GULP energy -89369.648413 kJ/mol
# GULP energy per Si atom -5585.603026 kJ/mol
# Density = 2.410309 g / cm^3
# Si number density = 24.158075 Si / 1000 Ang^3
#
#
#
# Elastic Constant Matrix: (Units=GPa)
#
#
# Indices 1 2 3 4 5 6 
#
# 1 162.7428 50.2448 26.1353 9.4537 11.2805 5.9804
# 2 50.2448 144.8700 28.3643 25.8354 14.4364 -11.8666
# 3 26.1353 28.3643 74.2990 12.3974 10.9379 -4.7357
# 4 9.4537 25.8354 12.3974 36.0743 2.9100 -1.3517
# 5 11.2805 14.4364 10.9379 2.9100 39.8086 1.9364
# 6 5.9804 -11.8666 -4.7357 -1.3517 1.9364 56.2956
#
#
#
# Elastic Compliance Matrix: (Units=1/GPa)
#
#
# Indices 1 2 3 4 5 6 
#
# 1 0.007196 -0.002260 -0.001705 0.000325 -0.000709 -0.001352
# 2 -0.002260 0.009286 -0.001432 -0.005325 -0.002042 0.002019
# 3 -0.001705 -0.001432 0.015750 -0.003643 -0.003119 0.001224
# 4 0.000325 -0.005325 -0.003643 0.032636 0.000488 -0.000697
# 5 -0.000709 -0.002042 -0.003119 0.000488 0.026958 -0.001533
# 6 -0.001352 0.002019 0.001224 -0.000697 -0.001533 0.018472
#
#
# Mechanical properties :
#
#
# Convention : Reuss Voigt Hill
#
# Bulk Modulus (GPa) = 46.64391 65.71119 56.17755
# Shear Modulus (GPa) = 38.99049 44.91354 41.95201
#
# Velocity S-wave (km/s) = 4.02179 4.31647 4.17173
# Velocity P-wave (km/s) = 6.39657 7.21818 6.81976
#
# Compressibility (1/GPa) = 0.02143903
#
# Stress axis : x y z
#
# Youngs Moduli (GPa) = 138.96328 107.69368 63.49067
#
# Poissons Ratio (x) = 0.24340 0.10822
# Poissons Ratio (y) = 0.31408 0.09091
# Poissons Ratio (z) = 0.23686 0.15420
#
# Static dielectric constant tensor:
#      x y z
#    x 2.010010 -0.010960 -0.114890 
#    y -0.010960 1.933970 0.044850 
#    z -0.114890 0.044850 2.131570 
# 
# From -- ./inp_files/189554.got.cif
#   From: 2010.05.17/outbox.cif.g08.bks.cpg/sg2_95_cif.got.tgz:189554.got - 2010.06.03 11:33:40.
