data_PCOD9064340
_publ_section_title
;
Structure prediction by ZEFSAII (Michael W. Deem and Ramdas Pophale) SiO2 
 PCOD9064340
Probable space group: P -1
;
_chemical_formula_sum "Si O2"
_cell_formula_units_Z 16
_cell_length_a 8.615772
_cell_length_b 14.276059
_cell_length_c 11.816889
_cell_angle_alpha 108.783287
_cell_angle_beta 130.536002
_cell_angle_gamma 108.337389
_cell_volume 716.873064
_symmetry_space_group_name_H-M "P -1"
_symmetry_group_IT_number 2
_symmetry_cell_setting 'triclinic'
loop_
_space_group_symop_operation_xyz
x,y,z
-x,-y,-z
loop_
_atom_site_type_symbol
_atom_site_label
_atom_site_fract_x
_atom_site_fract_y
_atom_site_fract_z
Si Si1 0.257943 0.456210 0.583814
Si Si2 0.074868 0.553570 0.376000
Si Si3 0.207003 0.626487 0.053247
Si Si4 0.089180 0.921759 0.049059
Si Si5 0.088986 0.295848 0.966108
Si Si6 0.146946 0.872993 0.805453
Si Si7 0.088401 0.125434 0.514678
Si Si8 0.760725 0.177780 0.524141
O O1 0.136256 0.479211 0.638209
O O2 0.586454 0.539282 0.809372
O O3 0.265304 0.531044 0.507997
O O4 0.029755 0.287374 0.381648
O O5 0.245073 0.710654 0.476067
O O6 0.889973 0.447424 0.142534
O O7 0.558369 0.737113 0.272554
O O8 0.000000 0.500000 0.000000
O O9 0.129542 0.714235 0.066219
O O10 0.415035 0.027935 0.302096
O O11 0.090675 0.865341 0.908358
O O12 0.878084 0.798232 0.994568
O O13 0.000000 0.000000 0.000000
O O14 0.941887 0.237153 0.750452
O O15 0.023794 0.917535 0.684583
O O16 0.500000 0.000000 0.000000
O O17 0.932021 0.165131 0.514691
O O18 0.000000 0.000000 0.500000
#
# Coordination Sequence:
#
# PCOD9064340 Si02
#       8
#     2   2   2   2   2   2   2   2
#     4  11  25  46  75 105 139 189 235 300 360 435
#     4  11  24  45  74 102 143 180 243 287 368 426
#     4  12  26  44  73 108 145 186 238 302 362 425
#     4  12  28  46  72 106 145 190 240 300 363 426
#     4  12  27  45  72 106 147 185 237 297 367 424
#     4  12  26  49  74 100 144 189 246 292 358 436
#     4  12  28  46  75 103 143 197 246 294 360 432
#     4  12  25  49  71 103 147 190 242 293 358 438
#
# _framework density 22.319153
#
# number of rings (size 3 to 8) (size 9 to 14) (size 15 to 20)
#    0.000    0.250    3.750    4.125    5.250    6.000 
#    0.000    0.000    0.000    0.000    0.000    0.000 
#    0.000    0.000    0.000    0.000    0.000    0.000 
#
# Total GULP energy -89520.801320 kJ/mol
# GULP energy per Si atom -5595.050083 kJ/mol
# Density = 2.226835 g / cm^3
# Si number density = 22.319153 Si / 1000 Ang^3
#
#
#
# Elastic Constant Matrix: (Units=GPa)
#
#
# Indices 1 2 3 4 5 6 
#
# 1 51.1356 3.4601 40.4920 7.0520 -2.5369 -3.2291
# 2 3.4601 155.4084 48.5511 -4.6531 -8.9358 5.1647
# 3 40.4920 48.5511 183.4407 -4.2258 9.5720 13.5161
# 4 7.0520 -4.6531 -4.2258 28.1198 8.2509 -4.6053
# 5 -2.5369 -8.9358 9.5720 8.2509 40.6737 -3.0191
# 6 -3.2291 5.1647 13.5161 -4.6053 -3.0191 31.3971
#
#
#
# Elastic Compliance Matrix: (Units=1/GPa)
#
#
# Indices 1 2 3 4 5 6 
#
# 1 0.026941 0.001574 -0.007226 -0.008479 0.005813 0.004938
# 2 0.001574 0.007274 -0.002413 -0.000202 0.002320 0.000197
# 3 -0.007226 -0.002413 0.008238 0.003156 -0.003842 -0.003799
# 4 -0.008479 -0.000202 0.003156 0.041400 -0.009494 0.002962
# 5 0.005813 0.002320 -0.003842 -0.009494 0.028527 0.003221
# 6 0.004938 0.000197 -0.003799 0.002962 0.003221 0.034705
#
#
# Mechanical properties :
#
#
# Convention : Reuss Voigt Hill
#
# Bulk Modulus (GPa) = 37.98930 63.88789 50.93859
# Shear Modulus (GPa) = 29.07157 39.87023 34.47090
#
# Velocity S-wave (km/s) = 3.61299 4.23113 3.93422
# Velocity P-wave (km/s) = 5.87050 7.24961 6.59619
#
# Compressibility (1/GPa) = 0.02632320
#
# Stress axis : x y z
#
# Youngs Moduli (GPa) = 37.11867 137.47204 121.38794
#
# Poissons Ratio (x) = -0.21636 0.87712
# Poissons Ratio (y) = -0.05842 0.29290
# Poissons Ratio (z) = 0.26821 0.33171
#
# Static dielectric constant tensor:
#      x y z
#    x 1.793340 -0.017940 0.017730 
#    y -0.017940 1.972640 0.100530 
#    z 0.017730 0.100530 1.892350 
# 
# From -- ./inp_files/298801.got.cif
#   From: 2010.05.17/outbox.cif.g08.bks.cpg/sg2_150_cif.got.tgz:298801.got - 2010.06.03 11:33:40.
