data_PCOD9064071
_publ_section_title
;
Structure prediction by ZEFSAII (Michael W. Deem and Ramdas Pophale) SiO2 
 PCOD9064071
Probable space group: P -1
;
_chemical_formula_sum "Si O2"
_cell_formula_units_Z 10
_cell_length_a 18.100656
_cell_length_b 6.495371
_cell_length_c 5.181694
_cell_angle_alpha 76.846652
_cell_angle_beta 75.031648
_cell_angle_gamma 44.102317
_cell_volume 408.788349
_symmetry_space_group_name_H-M "P -1"
_symmetry_group_IT_number 2
_symmetry_cell_setting 'triclinic'
loop_
_space_group_symop_operation_xyz
x,y,z
-x,-y,-z
loop_
_atom_site_type_symbol
_atom_site_label
_atom_site_fract_x
_atom_site_fract_y
_atom_site_fract_z
Si Si1 0.277497 0.708005 0.597966
Si Si2 0.189724 0.431014 0.938037
Si Si3 0.894841 0.590882 0.462298
Si Si4 0.378520 0.777867 0.116807
Si Si5 0.501010 0.146781 0.709742
O O1 0.225330 0.590335 0.761970
O O2 0.319052 0.676565 0.278321
O O3 0.297079 0.076260 0.939441
O O4 0.191387 0.057289 0.606499
O O5 0.100382 0.528626 0.785733
O O6 0.146450 0.486893 0.252485
O O7 0.000000 0.500000 0.500000
O O8 0.400968 0.883426 0.321409
O O9 0.500000 0.500000 0.000000
O O10 0.390669 0.491000 0.704135
O O11 0.500000 0.000000 0.500000
O O12 0.500000 0.000000 0.000000
#
# Coordination Sequence:
#
# PCOD9064071 Si02
#       5
#     2   2   2   2   2
#     4  11  26  43  73 103 144 187 241 286 353 417
#     4  11  26  45  74 104 140 183 241 289 356 429
#     4  11  27  50  73 104 139 180 239 305 362 420
#     4  11  24  45  70 106 152 196 239 287 351 429
#     4  12  25  41  68 102 147 191 229 282 346 420
#
# _framework density 24.462534999999999
#
# number of rings (size 3 to 8) (size 9 to 14) (size 15 to 20)
#    0.000    0.800    2.000    3.600    5.600    8.000 
#    0.000    0.000    0.000    0.000    0.000    0.000 
#    0.000    0.000    0.000    0.000    0.000    0.000 
#
# Total GULP energy -55923.003159 kJ/mol
# GULP energy per Si atom -5592.300316 kJ/mol
# Density = 2.440686 g / cm^3
# Si number density = 24.462535 Si / 1000 Ang^3
#
#
#
# Elastic Constant Matrix: (Units=GPa)
#
#
# Indices 1 2 3 4 5 6 
#
# 1 148.4601 20.4154 15.3534 -10.7074 23.0186 4.2093
# 2 20.4154 70.7544 50.7295 -47.6281 -2.8053 9.9260
# 3 15.3534 50.7295 117.7903 -32.0651 16.6196 19.5403
# 4 -10.7074 -47.6281 -32.0651 48.7418 10.7753 -14.2410
# 5 23.0186 -2.8053 16.6196 10.7753 48.8621 -8.2236
# 6 4.2093 9.9260 19.5403 -14.2410 -8.2236 24.5726
#
#
#
# Elastic Compliance Matrix: (Units=1/GPa)
#
#
# Indices 1 2 3 4 5 6 
#
# 1 0.007850 -0.003395 0.001508 -0.000420 -0.004823 -0.003030
# 2 -0.003395 0.055716 -0.013063 0.050061 0.001211 0.017880
# 3 0.001508 -0.013063 0.016217 -0.003660 -0.008321 -0.012783
# 4 -0.000420 0.050061 -0.003660 0.075756 -0.008373 0.023862
# 5 -0.004823 0.001211 -0.008321 -0.008373 0.029499 0.011973
# 6 -0.003030 0.017880 -0.012783 0.023862 0.011973 0.061994
#
#
# Mechanical properties :
#
#
# Convention : Reuss Voigt Hill
#
# Bulk Modulus (GPa) = 20.04658 56.66682 38.35670
# Shear Modulus (GPa) = 17.03224 41.13575 29.08399
#
# Velocity S-wave (km/s) = 2.64153 4.10516 3.45181
# Velocity P-wave (km/s) = 4.18523 6.75905 5.62143
#
# Compressibility (1/GPa) = 0.04988383
#
# Stress axis : x y z
#
# Youngs Moduli (GPa) = 127.38527 17.94806 61.66261
#
# Poissons Ratio (x) = 0.06093 -0.09297
# Poissons Ratio (y) = 0.43248 0.80548
# Poissons Ratio (z) = -0.19206 0.23445
#
# Static dielectric constant tensor:
#      x y z
#    x 1.953430 0.071900 0.054240 
#    y 0.071900 1.968270 0.068420 
#    z 0.054240 0.068420 2.103710 
# 
# From -- ./inp_files/7048.got.cif
#   From: 2010.05.17/outbox.cif.g08.bks.cpg/sg2_4_cif.got.tgz:7048.got - 2010.06.03 11:33:40.
