data_PCOD9064469
_publ_section_title
;
Structure prediction by ZEFSAII (Michael W. Deem and Ramdas Pophale) SiO2 
 PCOD9064469
Probable space group: P -1
;
_chemical_formula_sum "Si O2"
_cell_formula_units_Z 14
_cell_length_a 5.544451
_cell_length_b 22.910732
_cell_length_c 8.915858
_cell_angle_alpha 49.117020
_cell_angle_beta 67.201751
_cell_angle_gamma 41.230794
_cell_volume 551.751402
_symmetry_space_group_name_H-M "P -1"
_symmetry_group_IT_number 2
_symmetry_cell_setting 'triclinic'
loop_
_space_group_symop_operation_xyz
x,y,z
-x,-y,-z
loop_
_atom_site_type_symbol
_atom_site_label
_atom_site_fract_x
_atom_site_fract_y
_atom_site_fract_z
Si Si1 0.407855 0.320854 0.945034
Si Si2 0.349463 0.456248 0.191172
Si Si3 0.940195 0.102291 0.376164
Si Si4 0.569406 0.189218 0.895259
Si Si5 0.453660 0.750777 0.508310
Si Si6 0.686197 0.925394 0.932665
Si Si7 0.687902 0.391046 0.545553
O O1 0.246576 0.296945 0.894015
O O2 0.669243 0.322266 0.779650
O O3 0.095409 0.442151 0.884898
O O4 0.593549 0.228112 0.182379
O O5 0.530466 0.339736 0.283240
O O6 0.441509 0.434023 0.383246
O O7 0.500000 0.500000 0.000000
O O8 0.825374 0.137528 0.517468
O O9 0.304141 0.059645 0.274968
O O10 0.000000 0.000000 0.500000
O O11 0.693900 0.216141 0.681859
O O12 0.465793 0.129902 0.948465
O O13 0.904839 0.123786 0.042873
O O14 0.888721 0.683986 0.490414
O O15 0.500000 0.000000 0.000000
O O16 0.500000 0.500000 0.500000
#
# Coordination Sequence:
#
# PCOD9064469 Si02
#       7
#     2   2   2   2   2   2   2
#     4  11  24  48  72 112 146 202 265 308 384 474
#     4  12  27  42  70 113 151 193 245 321 403 458
#     4  11  27  48  73 109 152 203 256 322 392 453
#     4  11  24  45  77 108 148 197 255 324 377 464
#     4  12  25  46  73 110 154 194 253 319 395 457
#     4  11  25  50  78 105 146 205 270 318 377 457
#     4  12  24  45  78 108 152 201 257 314 384 472
#
# _framework density 25.373747999999999
#
# number of rings (size 3 to 8) (size 9 to 14) (size 15 to 20)
#    0.000    0.571    2.857    5.143    4.000    2.286 
#    2.571    3.571    0.000    0.000    0.000    0.000 
#    0.000    0.000    0.000    0.000    0.000    0.000 
#
# Total GULP energy -78018.888545 kJ/mol
# GULP energy per Si atom -5572.777753 kJ/mol
# Density = 2.531600 g / cm^3
# Si number density = 25.373748 Si / 1000 Ang^3
#
#
#
# Elastic Constant Matrix: (Units=GPa)
#
#
# Indices 1 2 3 4 5 6 
#
# 1 75.6287 31.3855 20.0400 -19.8902 -12.8542 14.4204
# 2 31.3855 150.3295 12.9556 7.5179 -10.6563 32.4268
# 3 20.0400 12.9556 118.8794 -5.4338 -22.5590 6.9118
# 4 -19.8902 7.5179 -5.4338 35.5286 6.1119 -7.0412
# 5 -12.8542 -10.6563 -22.5590 6.1119 51.8411 -4.5915
# 6 14.4204 32.4268 6.9118 -7.0412 -4.5915 55.3838
#
#
#
# Elastic Compliance Matrix: (Units=1/GPa)
#
#
# Indices 1 2 3 4 5 6 
#
# 1 0.018547 -0.003942 -0.001853 0.010484 0.001674 -0.000818
# 2 -0.003942 0.008828 -0.000071 -0.005191 0.001001 -0.004710
# 3 -0.001853 -0.000071 0.009430 -0.000281 0.003628 -0.000388
# 4 0.010484 -0.005191 -0.000281 0.036441 -0.002463 0.004773
# 5 0.001674 0.001001 0.003628 -0.002463 0.021781 0.000018
# 6 -0.000818 -0.004710 -0.000388 0.004773 0.000018 0.021684
#
#
# Mechanical properties :
#
#
# Convention : Reuss Voigt Hill
#
# Bulk Modulus (GPa) = 39.88119 52.62220 46.25170
# Shear Modulus (GPa) = 36.54990 47.24779 41.89885
#
# Velocity S-wave (km/s) = 3.79946 4.31986 4.06799
# Velocity P-wave (km/s) = 5.91603 6.75762 6.35078
#
# Compressibility (1/GPa) = 0.02507448
#
# Stress axis : x y z
#
# Youngs Moduli (GPa) = 53.91734 113.27930 106.04262
#
# Poissons Ratio (x) = 0.44650 0.19645
# Poissons Ratio (y) = 0.21252 0.00753
# Poissons Ratio (z) = 0.09988 0.00805
#
# Static dielectric constant tensor:
#      x y z
#    x 2.072280 -0.049630 0.029540 
#    y -0.049630 2.249080 -0.020290 
#    z 0.029540 -0.020290 2.140210 
# 
# From -- ./inp_files/142516.got.cif
#   From: 2010.05.17/outbox.cif.g08.bks.cpg/sg2_72_cif.got.tgz:142516.got - 2010.06.03 11:33:40.
