data_PCOD9064774
_publ_section_title
;
Structure prediction by ZEFSAII (Michael W. Deem and Ramdas Pophale) SiO2 
 PCOD9064774
Probable space group: P -1
;
_chemical_formula_sum "Si O2"
_cell_formula_units_Z 16
_cell_length_a 11.444592
_cell_length_b 18.116435
_cell_length_c 24.786801
_cell_angle_alpha 162.332681
_cell_angle_beta 27.897329
_cell_angle_gamma 143.615826
_cell_volume 704.487720
_symmetry_space_group_name_H-M "P -1"
_symmetry_group_IT_number 2
_symmetry_cell_setting 'triclinic'
loop_
_space_group_symop_operation_xyz
x,y,z
-x,-y,-z
loop_
_atom_site_type_symbol
_atom_site_label
_atom_site_fract_x
_atom_site_fract_y
_atom_site_fract_z
Si Si1 0.439038 0.378609 0.327719
Si Si2 0.208551 0.899783 0.099453
Si Si3 0.857572 0.510887 0.317874
Si Si4 0.971984 0.729136 0.805047
Si Si5 0.600319 0.750807 0.128353
Si Si6 0.399727 0.926484 0.546322
Si Si7 0.771314 0.042589 0.666283
Si Si8 0.415726 0.657147 0.953347
O O1 0.607339 0.421127 0.340006
O O2 0.186157 0.612124 0.590956
O O3 0.336417 0.132062 0.204032
O O4 0.627741 0.324696 0.161657
O O5 0.238988 0.814540 0.089141
O O6 0.910937 0.992794 0.269768
O O7 0.948182 0.455053 0.303673
O O8 0.807040 0.799814 0.520756
O O9 0.094059 0.347233 0.071980
O O10 0.683947 0.736929 0.908763
O O11 0.000000 0.000000 0.000000
O O12 0.512905 0.926871 0.337982
O O13 0.484196 0.902417 0.227737
O O14 0.500000 0.500000 0.000000
O O15 0.504281 0.627785 0.297314
O O16 0.500000 0.000000 0.500000
O O17 0.000000 0.000000 0.500000
O O18 0.736697 0.285312 0.887827
#
# Coordination Sequence:
#
# PCOD9064774 Si02
#       8
#     2   2   2   2   2   2   2   2
#     4  11  24  46  73 102 150 195 244 306 372 445
#     4  11  26  49  72 106 149 194 243 308 378 443
#     4  12  25  45  75 105 153 190 258 305 373 441
#     4  12  25  45  74 110 147 199 251 312 375 441
#     4  12  26  49  76 107 147 195 252 308 368 445
#     4  12  29  48  76 107 151 195 246 313 376 443
#     4  12  27  45  77 108 148 201 248 306 371 444
#     4  12  27  47  74 108 150 192 251 304 377 443
#
# _framework density 22.711538000000001
#
# number of rings (size 3 to 8) (size 9 to 14) (size 15 to 20)
#    0.000    0.250    5.000    3.375    3.500    1.000 
#    0.000    0.000    0.000    0.000    0.000    0.000 
#    0.000    0.000    0.000    0.000    0.000    0.000 
#
# Total GULP energy -89626.020978 kJ/mol
# GULP energy per Si atom -5601.626311 kJ/mol
# Density = 2.265985 g / cm^3
# Si number density = 22.711538 Si / 1000 Ang^3
#
#
#
# Elastic Constant Matrix: (Units=GPa)
#
#
# Indices 1 2 3 4 5 6 
#
# 1 89.8045 7.1443 28.2272 17.1053 15.6577 -13.9649
# 2 7.1443 55.5395 25.7869 7.9203 3.5389 -0.0343
# 3 28.2272 25.7869 159.6106 -1.8241 25.7967 -4.6088
# 4 17.1053 7.9203 -1.8241 44.1950 -4.7976 0.2237
# 5 15.6577 3.5389 25.7967 -4.7976 47.6280 -0.8405
# 6 -13.9649 -0.0343 -4.6088 0.2237 -0.8405 32.5691
#
#
#
# Elastic Compliance Matrix: (Units=1/GPa)
#
#
# Indices 1 2 3 4 5 6 
#
# 1 0.014553 0.000130 -0.001793 -0.006232 -0.004346 0.005917
# 2 0.000130 0.020069 -0.003297 -0.003796 -0.000137 -0.000367
# 3 -0.001793 -0.003297 0.007649 0.001254 -0.003179 0.000220
# 4 -0.006232 -0.003796 0.001254 0.026245 0.004250 -0.002569
# 5 -0.004346 -0.000137 -0.003179 0.004250 0.024555 -0.001709
# 6 0.005917 -0.000367 0.000220 -0.002569 -0.001709 0.033245
#
#
# Mechanical properties :
#
#
# Convention : Reuss Voigt Hill
#
# Bulk Modulus (GPa) = 30.91048 47.47460 39.19254
# Shear Modulus (GPa) = 34.00859 41.13150 37.57004
#
# Velocity S-wave (km/s) = 3.87384 4.26025 4.07163
# Velocity P-wave (km/s) = 5.80073 6.71925 6.27681
#
# Compressibility (1/GPa) = 0.03235149
#
# Stress axis : x y z
#
# Youngs Moduli (GPa) = 68.71256 49.82745 130.72951
#
# Poissons Ratio (x) = -0.00645 0.23434
# Poissons Ratio (y) = -0.00890 0.43104
# Poissons Ratio (z) = 0.12317 0.16429
#
# Static dielectric constant tensor:
#      x y z
#    x 1.810000 0.007520 0.008720 
#    y 0.007520 1.854800 -0.015250 
#    z 0.008720 -0.015250 1.882410 
# 
# From -- ./inp_files/610785.got.cif
#   From: 2010.05.17/outbox.cif.g08.bks.cpg/sg2_306_cif.got.tgz:610785.got - 2010.06.03 11:33:40.
