data_PCOD9064965
_publ_section_title
;
Structure prediction by ZEFSAII (Michael W. Deem and Ramdas Pophale) SiO2 
 PCOD9064965
Probable space group: P -1
;
_chemical_formula_sum "Si O2"
_cell_formula_units_Z 14
_cell_length_a 7.275198
_cell_length_b 9.472553
_cell_length_c 9.107893
_cell_angle_alpha 85.895643
_cell_angle_beta 121.319692
_cell_angle_gamma 78.647526
_cell_volume 514.257647
_symmetry_space_group_name_H-M "P -1"
_symmetry_group_IT_number 2
_symmetry_cell_setting 'triclinic'
loop_
_space_group_symop_operation_xyz
x,y,z
-x,-y,-z
loop_
_atom_site_type_symbol
_atom_site_label
_atom_site_fract_x
_atom_site_fract_y
_atom_site_fract_z
Si Si1 0.046965 0.617557 0.218358
Si Si2 0.686784 0.079200 0.028125
Si Si3 0.078818 0.283637 0.515764
Si Si4 0.213571 0.305076 0.179566
Si Si5 0.852296 0.968455 0.644470
Si Si6 0.576873 0.232446 0.657512
Si Si7 0.392306 0.630260 0.831125
O O1 0.840809 0.370274 0.341149
O O2 0.066976 0.450385 0.191111
O O3 0.287526 0.648121 0.306682
O O4 0.897241 0.710246 0.021144
O O5 0.651795 0.226633 0.096987
O O6 0.936350 0.995708 0.191077
O O7 0.652238 0.131816 0.841571
O O8 0.500000 0.000000 0.000000
O O9 0.106933 0.113002 0.490886
O O10 0.313281 0.307023 0.556209
O O11 0.058510 0.326381 0.673827
O O12 0.204067 0.160419 0.272732
O O13 0.439190 0.345970 0.226130
O O14 0.655670 0.117706 0.564935
O O15 0.500000 0.500000 0.000000
#
# Coordination Sequence:
#
# PCOD9064965 Si02
#       7
#     2   2   2   2   2   2   2
#     4  11  27  49  80 114 159 203 259 324 391 458
#     4  11  24  46  77 118 153 208 265 315 379 467
#     4  11  29  50  75 117 161 201 256 330 395 455
#     4  11  25  51  77 114 155 207 261 317 384 470
#     4  11  26  49  77 114 156 211 260 315 387 465
#     4  12  25  49  80 112 158 204 264 318 389 462
#     4  11  26  50  81 111 155 205 262 320 394 469
#
# _framework density 27.223704999999999
#
# number of rings (size 3 to 8) (size 9 to 14) (size 15 to 20)
#    0.000    0.857    1.429    3.429   12.000    1.714 
#    5.143    0.714    0.000    0.000    0.000    0.000 
#    0.000    0.000    0.000    0.000    0.000    0.000 
#
# Total GULP energy -78607.159058 kJ/mol
# GULP energy per Si atom -5614.797076 kJ/mol
# Density = 2.716174 g / cm^3
# Si number density = 27.223705 Si / 1000 Ang^3
#
#
#
# Elastic Constant Matrix: (Units=GPa)
#
#
# Indices 1 2 3 4 5 6 
#
# 1 170.7348 40.6056 57.9443 10.8022 23.6756 4.4534
# 2 40.6056 133.4822 46.1123 17.6534 -8.2534 2.7140
# 3 57.9443 46.1123 164.5794 19.2138 0.5690 -14.7309
# 4 10.8022 17.6534 19.2138 41.7080 -2.9816 -7.2493
# 5 23.6756 -8.2534 0.5690 -2.9816 54.6566 13.2734
# 6 4.4534 2.7140 -14.7309 -7.2493 13.2734 50.1569
#
#
#
# Elastic Compliance Matrix: (Units=1/GPa)
#
#
# Indices 1 2 3 4 5 6 
#
# 1 0.007496 -0.001675 -0.002126 -0.000563 -0.003417 -0.000376
# 2 -0.001675 0.009196 -0.001846 -0.002770 0.002454 -0.001941
# 3 -0.002126 -0.001846 0.007767 -0.001848 -0.000105 0.002330
# 4 -0.000563 -0.002770 -0.001848 0.026771 0.000480 0.003399
# 5 -0.003417 0.002454 -0.000105 0.000480 0.021505 -0.005482
# 6 -0.000376 -0.001941 0.002330 0.003399 -0.005482 0.022702
#
#
# Mechanical properties :
#
#
# Convention : Reuss Voigt Hill
#
# Bulk Modulus (GPa) = 75.95675 84.23565 80.09620
# Shear Modulus (GPa) = 44.99623 50.91323 47.95473
#
# Velocity S-wave (km/s) = 4.06991 4.32925 4.20158
# Velocity P-wave (km/s) = 7.07440 7.48325 7.28170
#
# Compressibility (1/GPa) = 0.01316539
#
# Stress axis : x y z
#
# Youngs Moduli (GPa) = 133.39949 108.73871 128.75807
#
# Poissons Ratio (x) = 0.18215 0.27375
# Poissons Ratio (y) = 0.22346 0.23764
# Poissons Ratio (z) = 0.28362 0.20070
#
# Static dielectric constant tensor:
#      x y z
#    x 2.195170 -0.019100 -0.019060 
#    y -0.019100 2.082610 -0.045980 
#    z -0.019060 -0.045980 2.254760 
# 
# From -- ./inp_files/158955.got.cif
#   From: 2010.05.17/outbox.cif.g08.bks.cpg/sg2_80_cif.got.tgz:158955.got - 2010.06.03 11:33:40.
