data_PCOD9064558
_publ_section_title
;
Structure prediction by ZEFSAII (Michael W. Deem and Ramdas Pophale) SiO2 
 PCOD9064558
Probable space group: P -1
;
_chemical_formula_sum "Si O2"
_cell_formula_units_Z 16
_cell_length_a 16.590074
_cell_length_b 13.299776
_cell_length_c 9.276041
_cell_angle_alpha 79.083343
_cell_angle_beta 77.695327
_cell_angle_gamma 22.417689
_cell_volume 762.433233
_symmetry_space_group_name_H-M "P -1"
_symmetry_group_IT_number 2
_symmetry_cell_setting 'triclinic'
loop_
_space_group_symop_operation_xyz
x,y,z
-x,-y,-z
loop_
_atom_site_type_symbol
_atom_site_label
_atom_site_fract_x
_atom_site_fract_y
_atom_site_fract_z
Si Si1 0.830723 0.759570 0.079501
Si Si2 0.236336 0.724749 0.434032
Si Si3 0.329802 0.461714 0.214946
Si Si4 0.478497 0.878599 0.174498
Si Si5 0.607220 0.273337 0.972607
Si Si6 0.073383 0.688530 0.981210
Si Si7 0.507173 0.038835 0.326704
Si Si8 0.448985 0.700942 0.325403
O O1 0.964819 0.708009 0.070132
O O2 0.737137 0.814582 0.242966
O O3 0.000000 0.500000 0.000000
O O4 0.638310 0.986818 0.972796
O O5 0.259848 0.624848 0.314308
O O6 0.307664 0.761193 0.380454
O O7 0.374318 0.515160 0.563801
O O8 0.000000 0.000000 0.500000
O O9 0.368328 0.302219 0.299859
O O10 0.167230 0.640006 0.095767
O O11 0.547931 0.258620 0.121352
O O12 0.375091 0.903412 0.299264
O O13 0.449985 0.016021 0.237117
O O14 0.730040 0.566293 0.131104
O O15 0.485813 0.382262 0.843494
O O16 0.500000 0.500000 0.000000
O O17 0.860235 0.989167 0.922657
O O18 0.500000 0.000000 0.500000
#
# Coordination Sequence:
#
# PCOD9064558 Si02
#       8
#     2   2   2   2   2   2   2   2
#     4  12  23  44  75 103 140 192 241 294 356 423
#     4  11  28  46  70  97 149 192 232 289 374 431
#     4  12  25  47  70 105 143 186 237 301 354 429
#     4  12  24  46  76 103 143 184 247 294 358 432
#     4  12  25  43  74 105 138 178 248 304 350 413
#     4  12  23  41  78 104 138 183 241 302 355 419
#     4  12  25  46  70 104 151 189 234 299 361 430
#     4  11  24  46  69 103 135 186 235 292 352 429
#
# _framework density 20.985444000000001
#
# number of rings (size 3 to 8) (size 9 to 14) (size 15 to 20)
#    0.000    0.250    7.500    1.875    3.500    0.500 
#    4.500    1.250    0.000    0.000    0.000    0.000 
#    0.000    0.000    0.000    0.000    0.000    0.000 
#
# Total GULP energy -89242.726433 kJ/mol
# GULP energy per Si atom -5577.670402 kJ/mol
# Density = 2.093768 g / cm^3
# Si number density = 20.985444 Si / 1000 Ang^3
#
#
#
# Elastic Constant Matrix: (Units=GPa)
#
#
# Indices 1 2 3 4 5 6 
#
# 1 128.1443 46.1183 30.7159 1.9908 0.0644 4.4953
# 2 46.1183 72.1118 44.2196 14.4201 8.1468 0.2052
# 3 30.7159 44.2196 105.2698 -0.0524 -10.6655 -10.7202
# 4 1.9908 14.4201 -0.0524 28.3012 7.1245 0.9269
# 5 0.0644 8.1468 -10.6655 7.1245 42.4045 -8.7544
# 6 4.4953 0.2052 -10.7202 0.9269 -8.7544 19.4705
#
#
#
# Elastic Compliance Matrix: (Units=1/GPa)
#
#
# Indices 1 2 3 4 5 6 
#
# 1 0.010483 -0.007131 -0.000291 0.002910 0.000271 -0.002522
# 2 -0.007131 0.028994 -0.011780 -0.011953 -0.008222 -0.008273
# 3 -0.000291 -0.011780 0.016741 0.003459 0.008600 0.013111
# 4 0.002910 -0.011953 0.003459 0.042454 -0.004528 -0.002698
# 5 0.000271 -0.008222 0.008600 -0.004528 0.032091 0.019403
# 6 -0.002522 -0.008273 0.013111 -0.002698 0.019403 0.068100
#
#
# Mechanical properties :
#
#
# Convention : Reuss Voigt Hill
#
# Bulk Modulus (GPa) = 56.13746 60.84816 58.49281
# Shear Modulus (GPa) = 20.55871 30.33339 25.44605
#
# Velocity S-wave (km/s) = 3.13336 3.80603 3.48596
# Velocity P-wave (km/s) = 6.31659 6.95506 6.64350
#
# Compressibility (1/GPa) = 0.01781342
#
# Stress axis : x y z
#
# Youngs Moduli (GPa) = 95.39190 34.48976 59.73436
#
# Poissons Ratio (x) = 0.24595 0.01739
# Poissons Ratio (y) = 0.68025 0.70367
# Poissons Ratio (z) = 0.02778 0.40629
#
# Static dielectric constant tensor:
#      x y z
#    x 1.884050 0.065130 -0.038900 
#    y 0.065130 1.824780 -0.011400 
#    z -0.038900 -0.011400 1.745210 
# 
# From -- ./inp_files/335291.got.cif
#   From: 2010.05.17/outbox.cif.g08.bks.cpg/sg2_168_cif.got.tgz:335291.got - 2010.06.03 11:33:40.
