data_PCOD9064794
_publ_section_title
;
Structure prediction by ZEFSAII (Michael W. Deem and Ramdas Pophale) SiO2 
 PCOD9064794
Probable space group: P -1
;
_chemical_formula_sum "Si O2"
_cell_formula_units_Z 16
_cell_length_a 12.202495
_cell_length_b 15.927893
_cell_length_c 5.330530
_cell_angle_alpha 111.940161
_cell_angle_beta 86.977834
_cell_angle_gamma 134.352896
_cell_volume 652.336637
_symmetry_space_group_name_H-M "P -1"
_symmetry_group_IT_number 2
_symmetry_cell_setting 'triclinic'
loop_
_space_group_symop_operation_xyz
x,y,z
-x,-y,-z
loop_
_atom_site_type_symbol
_atom_site_label
_atom_site_fract_x
_atom_site_fract_y
_atom_site_fract_z
Si Si1 0.325576 0.344688 0.385489
Si Si2 0.395830 0.927334 0.184162
Si Si3 0.590149 0.781854 0.051273
Si Si4 0.951234 0.679432 0.482848
Si Si5 0.941296 0.551334 0.830958
Si Si6 0.788225 0.040383 0.029815
Si Si7 0.835376 0.910547 0.571592
Si Si8 0.740278 0.348617 0.972221
O O1 0.500000 0.500000 0.500000
O O2 0.198837 0.349080 0.442247
O O3 0.254192 0.234780 0.489520
O O4 0.338535 0.272805 0.094188
O O5 0.326594 0.787506 0.088399
O O6 0.500000 0.000000 0.500000
O O7 0.259401 0.919535 0.139652
O O8 0.500000 0.000000 0.000000
O O9 0.688891 0.866936 0.383385
O O10 0.396702 0.662520 0.950092
O O11 0.636020 0.892808 0.988343
O O12 0.939977 0.621748 0.149726
O O13 0.109738 0.839112 0.651918
O O14 0.960782 0.617153 0.647616
O O15 0.081353 0.561084 0.841413
O O16 0.776853 0.395069 0.727993
O O17 0.888345 0.014602 0.893644
O O18 0.000000 0.000000 0.500000
#
# Coordination Sequence:
#
# PCOD9064794 Si02
#       8
#     2   2   2   2   2   2   2   2
#     4  11  27  46  73 108 146 197 250 309 374 447
#     4  12  26  43  71 104 140 187 235 298 352 431
#     4  11  24  46  73 106 146 190 243 311 370 442
#     4  12  27  49  76 107 150 192 255 299 372 446
#     4  11  29  47  74 108 147 203 237 312 364 446
#     4  11  25  44  71 107 140 190 242 303 372 430
#     4  11  25  45  72 105 145 191 245 307 374 442
#     4  11  25  48  72 106 150 191 248 299 377 439
#
# _framework density 24.527214000000001
#
# number of rings (size 3 to 8) (size 9 to 14) (size 15 to 20)
#    0.000    0.750    2.500    3.000    8.750    5.500 
#    4.500    0.000    0.000    0.000    0.000    0.000 
#    0.000    0.000    0.000    0.000    0.000    0.000 
#
# Total GULP energy -89154.585863 kJ/mol
# GULP energy per Si atom -5572.161616 kJ/mol
# Density = 2.447139 g / cm^3
# Si number density = 24.527214 Si / 1000 Ang^3
#
#
#
# Elastic Constant Matrix: (Units=GPa)
#
#
# Indices 1 2 3 4 5 6 
#
# 1 122.5964 13.9905 46.2996 11.0535 -10.7621 14.1022
# 2 13.9905 149.6157 59.7802 2.8695 -19.9816 9.3280
# 3 46.2996 59.7802 107.5018 1.1499 -12.4015 -8.7398
# 4 11.0535 2.8695 1.1499 26.4941 -10.4404 -8.6676
# 5 -10.7621 -19.9816 -12.4015 -10.4404 21.8562 0.4539
# 6 14.1022 9.3280 -8.7398 -8.6676 0.4539 42.9687
#
#
#
# Elastic Compliance Matrix: (Units=1/GPa)
#
#
# Indices 1 2 3 4 5 6 
#
# 1 0.012048 0.002350 -0.006900 -0.006977 0.000984 -0.007285
# 2 0.002350 0.010134 -0.006231 -0.000626 0.006679 -0.004435
# 3 -0.006900 -0.006231 0.016759 0.006982 0.003577 0.008397
# 4 -0.006977 -0.000626 0.006982 0.055578 0.026195 0.014780
# 5 0.000984 0.006679 0.003577 0.026195 0.066814 0.003533
# 6 -0.007285 -0.004435 0.008397 0.014780 0.003533 0.031279
#
#
# Mechanical properties :
#
#
# Convention : Reuss Voigt Hill
#
# Bulk Modulus (GPa) = 57.53822 68.87270 63.20546
# Shear Modulus (GPa) = 22.73069 35.57337 29.15203
#
# Velocity S-wave (km/s) = 3.04757 3.81250 3.45129
# Velocity P-wave (km/s) = 5.99111 6.89356 6.45812
#
# Compressibility (1/GPa) = 0.01737975
#
# Stress axis : x y z
#
# Youngs Moduli (GPa) = 83.00201 98.67505 59.66880
#
# Poissons Ratio (x) = -0.23185 0.41169
# Poissons Ratio (y) = -0.19503 0.37179
# Poissons Ratio (z) = 0.57268 0.61483
#
# Static dielectric constant tensor:
#      x y z
#    x 1.986720 0.018530 -0.000560 
#    y 0.018530 1.925490 -0.030180 
#    z -0.000560 -0.030180 2.065290 
# 
# From -- ./inp_files/78386.got.cif
#   From: 2010.05.17/outbox.cif.g08.bks.cpg/sg2_40_cif.got.tgz:78386.got - 2010.06.03 11:33:40.
