data_PCOD9064649
_publ_section_title
;
Structure prediction by ZEFSAII (Michael W. Deem and Ramdas Pophale) SiO2 
 PCOD9064649
Probable space group: P -1
;
_chemical_formula_sum "Si O2"
_cell_formula_units_Z 12
_cell_length_a 7.925308
_cell_length_b 13.170990
_cell_length_c 7.449784
_cell_angle_alpha 64.821230
_cell_angle_beta 128.434612
_cell_angle_gamma 83.339332
_cell_volume 465.143545
_symmetry_space_group_name_H-M "P -1"
_symmetry_group_IT_number 2
_symmetry_cell_setting 'triclinic'
loop_
_space_group_symop_operation_xyz
x,y,z
-x,-y,-z
loop_
_atom_site_type_symbol
_atom_site_label
_atom_site_fract_x
_atom_site_fract_y
_atom_site_fract_z
Si Si1 0.429267 0.064002 0.208611
Si Si2 0.047764 0.662462 0.879872
Si Si3 0.777231 0.511874 0.218373
Si Si4 0.146030 0.698217 0.310944
Si Si5 0.529709 0.190999 0.674345
Si Si6 0.646810 0.219086 0.123081
O O1 0.652510 0.089254 0.287085
O O2 0.500000 0.000000 0.500000
O O3 0.400144 0.959378 0.152314
O O4 0.154086 0.201596 0.920526
O O5 0.140221 0.546243 0.882671
O O6 0.111404 0.767498 0.756644
O O7 0.748159 0.729866 0.654880
O O8 0.169200 0.631743 0.181141
O O9 0.719381 0.415776 0.366604
O O10 0.000000 0.500000 0.500000
O O11 0.547585 0.662134 0.966935
O O12 0.268498 0.787437 0.310029
O O13 0.514792 0.246718 0.820334
#
# Coordination Sequence:
#
# PCOD9064649 Si02
#       6
#     2   2   2   2   2   2
#     4  12  24  45  72 100 140 184 229 283 344 408
#     4  11  25  46  72 106 139 180 229 290 343 411
#     4  12  24  48  73 101 141 183 228 287 348 408
#     4  11  26  47  72 105 138 181 233 283 348 409
#     4  11  24  46  71 103 139 184 228 286 345 408
#     4  11  26  48  69 104 138 183 232 282 347 408
#
# _framework density 25.798487000000002
#
# number of rings (size 3 to 8) (size 9 to 14) (size 15 to 20)
#    0.000    0.667    5.000    1.500    2.333    4.000 
#    9.000    0.000    0.000    0.000    0.000    0.000 
#    0.000    0.000    0.000    0.000    0.000    0.000 
#
# Total GULP energy -67266.442251 kJ/mol
# GULP energy per Si atom -5605.536854 kJ/mol
# Density = 2.573977 g / cm^3
# Si number density = 25.798487 Si / 1000 Ang^3
#
#
#
# Elastic Constant Matrix: (Units=GPa)
#
#
# Indices 1 2 3 4 5 6 
#
# 1 88.4329 43.9127 8.5113 -3.7562 -1.3240 22.0683
# 2 43.9127 184.9658 21.6309 6.4021 2.9722 -1.7793
# 3 8.5113 21.6309 37.4378 -2.0833 -2.3255 -2.2058
# 4 -3.7562 6.4021 -2.0833 42.3359 7.8260 1.6100
# 5 -1.3240 2.9722 -2.3255 7.8260 34.7216 0.5082
# 6 22.0683 -1.7793 -2.2058 1.6100 0.5082 64.3776
#
#
#
# Elastic Compliance Matrix: (Units=1/GPa)
#
#
# Indices 1 2 3 4 5 6 
#
# 1 0.014511 -0.003388 -0.001519 0.001847 0.000401 -0.005169
# 2 -0.003388 0.006645 -0.003109 -0.001394 -0.000611 0.001278
# 3 -0.001519 -0.003109 0.029124 0.001378 0.001828 0.001384
# 4 0.001847 -0.001394 0.001378 0.025100 -0.005357 -0.001210
# 5 0.000401 -0.000611 0.001828 -0.005357 0.030201 -0.000196
# 6 -0.005169 0.001278 0.001384 -0.001210 -0.000196 0.017420
#
#
# Mechanical properties :
#
#
# Convention : Reuss Voigt Hill
#
# Bulk Modulus (GPa) = 29.19780 50.99403 40.09591
# Shear Modulus (GPa) = 33.23430 44.07247 38.65338
#
# Velocity S-wave (km/s) = 3.59308 4.13769 3.87496
# Velocity P-wave (km/s) = 5.34377 6.52966 5.96625
#
# Compressibility (1/GPa) = 0.03424916
#
# Stress axis : x y z
#
# Youngs Moduli (GPa) = 68.91455 150.49819 34.33547
#
# Poissons Ratio (x) = 0.50981 0.05214
# Poissons Ratio (y) = 0.23345 0.10676
# Poissons Ratio (z) = 0.10465 0.46793
#
# Static dielectric constant tensor:
#      x y z
#    x 2.048000 0.051820 -0.009250 
#    y 0.051820 2.103150 -0.014970 
#    z -0.009250 -0.014970 1.971050 
# 
# From -- ./inp_files/175603.got.cif
#   From: 2010.05.17/outbox.cif.g08.bks.cpg/sg2_88_cif.got.tgz:175603.got - 2010.06.03 11:33:40.
