data_PCOD9064058
_publ_section_title
;
Structure prediction by ZEFSAII (Michael W. Deem and Ramdas Pophale) SiO2 
 PCOD9064058
Probable space group: P -1
;
_chemical_formula_sum "Si O2"
_cell_formula_units_Z 16
_cell_length_a 15.538745
_cell_length_b 9.197009
_cell_length_c 15.467921
_cell_angle_alpha 110.442083
_cell_angle_beta 153.769520
_cell_angle_gamma 85.513258
_cell_volume 753.731239
_symmetry_space_group_name_H-M "P -1"
_symmetry_group_IT_number 2
_symmetry_cell_setting 'triclinic'
loop_
_space_group_symop_operation_xyz
x,y,z
-x,-y,-z
loop_
_atom_site_type_symbol
_atom_site_label
_atom_site_fract_x
_atom_site_fract_y
_atom_site_fract_z
Si Si1 0.872139 0.397120 0.774875
Si Si2 0.083920 0.256589 0.180499
Si Si3 0.847454 0.045647 0.430298
Si Si4 0.486632 0.649556 0.078395
Si Si5 0.953421 0.435233 0.545392
Si Si6 0.649997 0.578908 0.377427
Si Si7 0.693019 0.847565 0.786343
Si Si8 0.859579 0.772458 0.094550
O O1 0.932506 0.566491 0.801265
O O2 0.588081 0.261663 0.495571
O O3 0.984086 0.289114 0.822040
O O4 0.000000 0.500000 0.000000
O O5 0.233353 0.287655 0.407160
O O6 0.221092 0.254766 0.219400
O O7 0.833024 0.059134 0.919953
O O8 0.846933 0.216768 0.423584
O O9 0.984244 0.107709 0.657970
O O10 0.592803 0.848444 0.168983
O O11 0.000000 0.000000 0.500000
O O12 0.640078 0.685392 0.308425
O O13 0.500000 0.500000 0.000000
O O14 0.218582 0.552257 0.845310
O O15 0.795045 0.493730 0.459568
O O16 0.000000 0.500000 0.500000
O O17 0.386545 0.407595 0.129193
O O18 0.780105 0.854934 0.964301
#
# Coordination Sequence:
#
# PCOD9064058 Si02
#       8
#     2   2   2   2   2   2   2   2
#     4  12  24  45  71 100 140 187 226 286 349 407
#     4  11  24  45  70 104 140 182 230 289 350 407
#     4  12  25  46  72 102 140 183 230 293 350 410
#     4  12  24  48  68  97 140 178 232 290 349 416
#     4  12  26  46  71 102 136 183 233 285 351 416
#     4  12  24  46  72  99 141 183 233 292 348 416
#     4  11  25  46  69 103 143 180 235 287 343 422
#     4  12  25  46  72 101 142 186 236 283 352 415
#
# _framework density 21.227726000000001
#
# number of rings (size 3 to 8) (size 9 to 14) (size 15 to 20)
#    0.000    0.250    6.250    2.625    0.000    2.000 
#    4.500    0.000    0.000    0.000    0.000    0.000 
#    0.000    0.000    0.000    0.000    0.000    0.000 
#
# Total GULP energy -89510.269816 kJ/mol
# GULP energy per Si atom -5594.391863 kJ/mol
# Density = 2.117941 g / cm^3
# Si number density = 21.227726 Si / 1000 Ang^3
#
#
#
# Elastic Constant Matrix: (Units=GPa)
#
#
# Indices 1 2 3 4 5 6 
#
# 1 101.2475 28.3951 36.0363 -7.1959 -11.4674 4.1936
# 2 28.3951 80.3454 58.0341 4.0957 29.1318 10.5137
# 3 36.0363 58.0341 105.5157 6.7659 5.6019 -0.8887
# 4 -7.1959 4.0957 6.7659 39.0709 11.1885 2.7485
# 5 -11.4674 29.1318 5.6019 11.1885 48.8514 -6.4775
# 6 4.1936 10.5137 -0.8887 2.7485 -6.4775 29.7723
#
#
#
# Elastic Compliance Matrix: (Units=1/GPa)
#
#
# Indices 1 2 3 4 5 6 
#
# 1 0.012965 -0.006539 -0.001264 0.001133 0.007078 0.001881
# 2 -0.006539 0.042327 -0.020179 0.007711 -0.029102 -0.021672
# 3 -0.001264 -0.020179 0.020838 -0.006002 0.012198 0.011134
# 4 0.001133 0.007711 -0.006002 0.029947 -0.011611 -0.008353
# 5 0.007078 -0.029102 0.012198 -0.011611 0.043420 0.020163
# 6 0.001881 -0.021672 0.011134 -0.008353 0.020163 0.046467
#
#
# Mechanical properties :
#
#
# Convention : Reuss Voigt Hill
#
# Bulk Modulus (GPa) = 49.58627 59.11549 54.35088
# Shear Modulus (GPa) = 19.33111 34.51513 26.92312
#
# Velocity S-wave (km/s) = 3.02098 4.03668 3.56518
# Velocity P-wave (km/s) = 5.96476 7.04521 6.52738
#
# Compressibility (1/GPa) = 0.02016687
#
# Stress axis : x y z
#
# Youngs Moduli (GPa) = 77.13203 23.62533 47.98816
#
# Poissons Ratio (x) = 0.15449 0.06065
# Poissons Ratio (y) = 0.50438 0.96835
# Poissons Ratio (z) = 0.09748 0.47673
#
# Static dielectric constant tensor:
#      x y z
#    x 1.807600 0.030490 -0.036220 
#    y 0.030490 1.882070 -0.000280 
#    z -0.036220 -0.000280 1.762110 
# 
# From -- ./inp_files/315232.got.cif
#   From: 2010.05.17/outbox.cif.g08.bks.cpg/sg2_158_cif.got.tgz:315232.got - 2010.06.03 11:33:40.
