data_PCOD9064672
_publ_section_title
;
Structure prediction by ZEFSAII (Michael W. Deem and Ramdas Pophale) SiO2 
 PCOD9064672
Probable space group: P -1
;
_chemical_formula_sum "Si O2"
_cell_formula_units_Z 12
_cell_length_a 5.907255
_cell_length_b 13.561125
_cell_length_c 6.490932
_cell_angle_alpha 80.778371
_cell_angle_beta 77.538854
_cell_angle_gamma 89.461131
_cell_volume 500.999771
_symmetry_space_group_name_H-M "P -1"
_symmetry_group_IT_number 2
_symmetry_cell_setting 'triclinic'
loop_
_space_group_symop_operation_xyz
x,y,z
-x,-y,-z
loop_
_atom_site_type_symbol
_atom_site_label
_atom_site_fract_x
_atom_site_fract_y
_atom_site_fract_z
Si Si1 0.732437 0.979012 0.832992
Si Si2 0.984212 0.624009 0.700670
Si Si3 0.701764 0.316856 0.039595
Si Si4 0.033211 0.157123 0.831910
Si Si5 0.314773 0.196148 0.393502
Si Si6 0.344415 0.545768 0.337216
O O1 0.681452 0.915382 0.660161
O O2 0.882426 0.906444 0.970390
O O3 0.879308 0.081517 0.744466
O O4 0.500000 0.000000 0.000000
O O5 0.889688 0.735788 0.679421
O O6 0.773264 0.546297 0.731964
O O7 0.134649 0.610390 0.879986
O O8 0.147778 0.604290 0.479871
O O9 0.544653 0.253426 0.250538
O O10 0.557223 0.377047 0.877931
O O11 0.869822 0.243050 0.912306
O O12 0.257373 0.194075 0.646750
O O13 0.500000 0.500000 0.500000
#
# Coordination Sequence:
#
# PCOD9064672 Si02
#       6
#     2   2   2   2   2   2
#     4  11  24  46  71 107 144 192 240 300 359 425
#     4  11  25  46  72 107 145 192 240 304 363 428
#     4  12  25  46  76 106 145 193 245 296 367 433
#     4  11  25  46  70 104 149 188 243 298 357 434
#     4  12  25  43  75 107 140 195 243 294 363 431
#     4  11  26  48  74 108 146 190 247 301 364 432
#
# _framework density 23.952107000000002
#
# number of rings (size 3 to 8) (size 9 to 14) (size 15 to 20)
#    0.000    0.667    5.000    2.000    0.000   10.000 
#    0.000    0.000    0.000    0.000    0.000    0.000 
#    0.000    0.000    0.000    0.000    0.000    0.000 
#
# Total GULP energy -67185.122994 kJ/mol
# GULP energy per Si atom -5598.760250 kJ/mol
# Density = 2.389759 g / cm^3
# Si number density = 23.952107 Si / 1000 Ang^3
#
#
#
# Elastic Constant Matrix: (Units=GPa)
#
#
# Indices 1 2 3 4 5 6 
#
# 1 65.5418 34.7883 35.7493 8.0415 -4.4582 5.6841
# 2 34.7883 100.7811 59.9594 21.8617 -7.9034 3.4092
# 3 35.7493 59.9594 106.5550 -5.5192 -19.9696 8.2968
# 4 8.0415 21.8617 -5.5192 36.1137 -9.7833 -6.5861
# 5 -4.4582 -7.9034 -19.9696 -9.7833 47.8518 6.4271
# 6 5.6841 3.4092 8.2968 -6.5861 6.4271 39.2265
#
#
#
# Elastic Compliance Matrix: (Units=1/GPa)
#
#
# Indices 1 2 3 4 5 6 
#
# 1 0.020444 -0.002732 -0.005698 -0.004569 -0.001586 -0.002027
# 2 -0.002732 0.021781 -0.013139 -0.016139 -0.005366 -0.000549
# 3 -0.005698 -0.013139 0.021349 0.014747 0.009441 -0.001619
# 4 -0.004569 -0.016139 0.014747 0.044701 0.011591 0.004552
# 5 -0.001586 -0.005366 0.009441 0.011591 0.026674 -0.003725
# 6 -0.002027 -0.000549 -0.001619 0.004552 -0.003725 0.027551
#
#
# Mechanical properties :
#
#
# Convention : Reuss Voigt Hill
#
# Bulk Modulus (GPa) = 48.93059 59.31913 54.12486
# Shear Modulus (GPa) = 23.53516 34.13046 28.83281
#
# Velocity S-wave (km/s) = 3.13803 3.77894 3.47330
# Velocity P-wave (km/s) = 5.79677 6.62269 6.22345
#
# Compressibility (1/GPa) = 0.02043711
#
# Stress axis : x y z
#
# Youngs Moduli (GPa) = 48.91495 45.91204 46.84097
#
# Poissons Ratio (x) = 0.12542 0.26689
# Poissons Ratio (y) = 0.13363 0.61542
# Poissons Ratio (z) = 0.27870 0.60322
#
# Static dielectric constant tensor:
#      x y z
#    x 1.925590 0.023730 0.006090 
#    y 0.023730 1.901140 -0.015760 
#    z 0.006090 -0.015760 1.921380 
# 
# From -- ./inp_files/3193.got.cif
#   From: 2010.05.17/outbox.cif.g08.bks.cpg/sg2_2_cif.got.tgz:3193.got - 2010.06.03 11:33:40.
