data_PCOD9064700
_publ_section_title
;
Structure prediction by ZEFSAII (Michael W. Deem and Ramdas Pophale) SiO2 
 PCOD9064700
Probable space group: P -1
;
_chemical_formula_sum "Si O2"
_cell_formula_units_Z 16
_cell_length_a 13.842674
_cell_length_b 9.381191
_cell_length_c 8.834060
_cell_angle_alpha 45.619938
_cell_angle_beta 79.168262
_cell_angle_gamma 105.993168
_cell_volume 656.175277
_symmetry_space_group_name_H-M "P -1"
_symmetry_group_IT_number 2
_symmetry_cell_setting 'triclinic'
loop_
_space_group_symop_operation_xyz
x,y,z
-x,-y,-z
loop_
_atom_site_type_symbol
_atom_site_label
_atom_site_fract_x
_atom_site_fract_y
_atom_site_fract_z
Si Si1 0.383343 0.464673 0.981331
Si Si2 0.651853 0.136280 0.204726
Si Si3 0.426816 0.847795 0.284199
Si Si4 0.633940 0.630565 0.298383
Si Si5 0.813218 0.001797 0.437508
Si Si6 0.184666 0.788117 0.136676
Si Si7 0.997586 0.164734 0.008660
Si Si8 0.817920 0.317536 0.441536
O O1 0.268081 0.253447 0.264797
O O2 0.500000 0.500000 0.000000
O O3 0.380240 0.700646 0.819565
O O4 0.372899 0.389984 0.865253
O O5 0.722025 0.045135 0.341453
O O6 0.528488 0.920642 0.323238
O O7 0.741436 0.285932 0.926176
O O8 0.341828 0.556796 0.495900
O O9 0.328787 0.878875 0.364602
O O10 0.500000 0.000000 0.000000
O O11 0.500000 0.500000 0.500000
O O12 0.726552 0.913302 0.102287
O O13 0.869620 0.211618 0.392982
O O14 0.913307 0.023058 0.282837
O O15 0.069451 0.724447 0.127495
O O16 0.154298 0.685923 0.388711
O O17 0.128337 0.406585 0.833185
O O18 0.000000 0.000000 0.000000
#
# Coordination Sequence:
#
# PCOD9064700 Si02
#       8
#     2   2   2   2   2   2   2   2
#     4  12  27  42  71 106 150 190 232 290 356 434
#     4  11  25  44  69 111 143 191 231 293 359 428
#     4  12  24  40  74 104 147 187 234 290 362 431
#     4  12  24  43  65 104 143 183 236 282 351 433
#     4  11  26  49  72 103 150 187 241 298 363 424
#     4  11  24  46  72 101 142 186 238 297 354 428
#     4  11  27  47  73 103 135 188 246 305 355 425
#     4  12  23  46  71 100 142 188 240 292 363 422
#
# _framework density 24.38373
#
# number of rings (size 3 to 8) (size 9 to 14) (size 15 to 20)
#    0.000    0.500    3.750    3.750    5.250    1.500 
#    0.000    0.625    0.000    0.000    0.000    0.000 
#    0.000    0.000    0.000    0.000    0.000    0.000 
#
# Total GULP energy -89509.918519 kJ/mol
# GULP energy per Si atom -5594.369907 kJ/mol
# Density = 2.432823 g / cm^3
# Si number density = 24.383730 Si / 1000 Ang^3
#
#
#
# Elastic Constant Matrix: (Units=GPa)
#
#
# Indices 1 2 3 4 5 6 
#
# 1 56.4077 6.5542 18.0839 11.5500 -17.6795 -6.5115
# 2 6.5542 113.4682 52.5063 20.0881 -15.5348 -23.4698
# 3 18.0839 52.5063 188.7848 18.0532 -27.3790 -10.3141
# 4 11.5500 20.0881 18.0532 52.4490 -4.2025 -2.4397
# 5 -17.6795 -15.5348 -27.3790 -4.2025 42.6992 8.9635
# 6 -6.5115 -23.4698 -10.3141 -2.4397 8.9635 37.1997
#
#
#
# Elastic Compliance Matrix: (Units=1/GPa)
#
#
# Indices 1 2 3 4 5 6 
#
# 1 0.021452 0.001427 -0.000758 -0.004263 0.008027 0.002231
# 2 0.001427 0.012148 -0.002572 -0.003646 0.001623 0.006570
# 3 -0.000758 -0.002572 0.006571 -0.000901 0.003026 -0.000722
# 4 -0.004263 -0.003646 -0.000901 0.021540 -0.001215 -0.001591
# 5 0.008027 0.001623 0.003026 -0.001215 0.030003 -0.004041
# 6 0.002231 0.006570 -0.000722 -0.001591 -0.004041 0.032087
#
#
# Mechanical properties :
#
#
# Convention : Reuss Voigt Hill
#
# Bulk Modulus (GPa) = 27.50074 56.99442 42.24758
# Shear Modulus (GPa) = 35.78395 45.23734 40.51065
#
# Velocity S-wave (km/s) = 3.83500 4.31191 4.08043
# Velocity P-wave (km/s) = 5.55989 6.94368 6.28996
#
# Compressibility (1/GPa) = 0.03636265
#
# Stress axis : x y z
#
# Youngs Moduli (GPa) = 46.61672 82.32098 152.19166
#
# Poissons Ratio (x) = -0.11745 0.11537
# Poissons Ratio (y) = -0.06651 0.39148
# Poissons Ratio (z) = 0.03534 0.21175
#
# Static dielectric constant tensor:
#      x y z
#    x 2.071280 -0.075690 -0.005860 
#    y -0.075690 2.019800 -0.002570 
#    z -0.005860 -0.002570 1.935080 
# 
# From -- ./inp_files/297384.got.cif
#   From: 2010.05.17/outbox.cif.g08.bks.cpg/sg2_149_cif.got.tgz:297384.got - 2010.06.03 11:33:40.
