data_PCOD9064667
_publ_section_title
;
Structure prediction by ZEFSAII (Michael W. Deem and Ramdas Pophale) SiO2 
 PCOD9064667
Probable space group: P -1
;
_chemical_formula_sum "Si O2"
_cell_formula_units_Z 16
_cell_length_a 6.127448
_cell_length_b 9.315679
_cell_length_c 17.660306
_cell_angle_alpha 113.940477
_cell_angle_beta 123.708368
_cell_angle_gamma 51.322076
_cell_volume 651.958564
_symmetry_space_group_name_H-M "P -1"
_symmetry_group_IT_number 2
_symmetry_cell_setting 'triclinic'
loop_
_space_group_symop_operation_xyz
x,y,z
-x,-y,-z
loop_
_atom_site_type_symbol
_atom_site_label
_atom_site_fract_x
_atom_site_fract_y
_atom_site_fract_z
Si Si1 0.146732 0.577168 0.483092
Si Si2 0.580892 0.480498 0.923674
Si Si3 0.466824 0.171151 0.077194
Si Si4 0.180997 0.010762 0.463446
Si Si5 0.433010 0.107599 0.224282
Si Si6 0.146135 0.886408 0.161604
Si Si7 0.984266 0.496752 0.273954
Si Si8 0.887098 0.213597 0.703526
O O1 0.500000 0.500000 0.500000
O O2 0.000000 0.500000 0.500000
O O3 0.053735 0.769478 0.547176
O O4 0.964639 0.583847 0.371304
O O5 0.643193 0.638266 0.944475
O O6 0.861349 0.270182 0.921640
O O7 0.308069 0.494983 0.821256
O O8 0.500000 0.500000 0.000000
O O9 0.328659 0.189370 0.137441
O O10 0.830434 0.080891 0.145874
O O11 0.500000 0.000000 0.000000
O O12 0.500000 0.000000 0.500000
O O13 0.000000 0.000000 0.500000
O O14 0.282014 0.811912 0.403044
O O15 0.245566 0.279062 0.280212
O O16 0.373261 0.940757 0.182891
O O17 0.796256 0.989558 0.283487
O O18 0.239067 0.798695 0.243131
O O19 0.077702 0.612818 0.261889
#
# Coordination Sequence:
#
# PCOD9064667 Si02
#       8
#     2   2   2   2   2   2   2   2
#     4  12  29  51  81 119 159 208 271 328 401 482
#     4  12  27  45  76 110 149 200 253 310 386 463
#     4  11  26  45  71 103 146 194 249 316 381 446
#     4  12  27  48  76 113 156 204 257 327 401 474
#     4  11  24  46  71 106 143 194 253 307 387 456
#     4  11  25  44  73 103 144 193 250 313 373 465
#     4  12  26  48  78 109 155 198 251 327 385 462
#     4  11  26  46  76 107 146 197 255 314 390 468
#
# _framework density 24.541437999999999
#
# number of rings (size 3 to 8) (size 9 to 14) (size 15 to 20)
#    0.000    0.500    3.750    3.000    8.750    2.500 
#    0.000    0.000    0.000    0.000    0.000    0.000 
#    0.000    0.000    0.000    0.000    0.000    0.000 
#
# Total GULP energy -89100.788202 kJ/mol
# GULP energy per Si atom -5568.799263 kJ/mol
# Density = 2.448558 g / cm^3
# Si number density = 24.541438 Si / 1000 Ang^3
#
#
#
# Elastic Constant Matrix: (Units=GPa)
#
#
# Indices 1 2 3 4 5 6 
#
# 1 128.3409 55.6214 25.9716 2.7164 -6.1259 20.8242
# 2 55.6214 158.6967 6.5518 25.5377 0.5337 25.5189
# 3 25.9716 6.5518 74.7902 16.5685 -5.5157 11.9345
# 4 2.7164 25.5377 16.5685 42.9752 7.0094 5.9011
# 5 -6.1259 0.5337 -5.5157 7.0094 42.1181 -6.2552
# 6 20.8242 25.5189 11.9345 5.9011 -6.2552 64.7341
#
#
#
# Elastic Compliance Matrix: (Units=1/GPa)
#
#
# Indices 1 2 3 4 5 6 
#
# 1 0.010349 -0.003753 -0.003711 0.003148 0.000332 -0.001420
# 2 -0.003753 0.008758 0.002114 -0.005530 0.000227 -0.002109
# 3 -0.003711 0.002114 0.016637 -0.007622 0.002619 -0.001759
# 4 0.003148 -0.005530 -0.007622 0.030313 -0.005624 -0.000734
# 5 0.000332 0.000227 0.002619 -0.005624 0.025407 0.002289
# 6 -0.001420 -0.002109 -0.001759 -0.000734 0.002289 0.017348
#
#
# Mechanical properties :
#
#
# Convention : Reuss Voigt Hill
#
# Bulk Modulus (GPa) = 39.93133 59.79085 49.86109
# Shear Modulus (GPa) = 39.10541 48.21099 43.65820
#
# Velocity S-wave (km/s) = 3.99613 4.43705 4.22235
# Velocity P-wave (km/s) = 6.13175 7.11800 6.64320
#
# Compressibility (1/GPa) = 0.02504299
#
# Stress axis : x y z
#
# Youngs Moduli (GPa) = 96.62686 114.18518 60.10858
#
# Poissons Ratio (x) = 0.42857 0.22308
# Poissons Ratio (y) = 0.36267 -0.12710
# Poissons Ratio (z) = 0.35861 -0.24144
#
# Static dielectric constant tensor:
#      x y z
#    x 2.085740 -0.108530 0.001720 
#    y -0.108530 1.994350 -0.029640 
#    z 0.001720 -0.029640 1.927000 
# 
# From -- ./inp_files/106211.got.cif
#   From: 2010.05.17/outbox.cif.g08.bks.cpg/sg2_54_cif.got.tgz:106211.got - 2010.06.03 11:33:40.
