data_PCOD9064934
_publ_section_title
;
Structure prediction by ZEFSAII (Michael W. Deem and Ramdas Pophale) SiO2 
 PCOD9064934
Probable space group: P -1
;
_chemical_formula_sum "Si O2"
_cell_formula_units_Z 16
_cell_length_a 15.082334
_cell_length_b 9.087004
_cell_length_c 6.159385
_cell_angle_alpha 77.920593
_cell_angle_beta 65.224605
_cell_angle_gamma 57.259522
_cell_volume 644.528719
_symmetry_space_group_name_H-M "P -1"
_symmetry_group_IT_number 2
_symmetry_cell_setting 'triclinic'
loop_
_space_group_symop_operation_xyz
x,y,z
-x,-y,-z
loop_
_atom_site_type_symbol
_atom_site_label
_atom_site_fract_x
_atom_site_fract_y
_atom_site_fract_z
Si Si1 0.905583 0.074507 0.264572
Si Si2 0.224659 0.251018 0.968920
Si Si3 0.978487 0.770319 0.627175
Si Si4 0.277430 0.741059 0.942500
Si Si5 0.543151 0.614991 0.303136
Si Si6 0.178447 0.541557 0.244198
Si Si7 0.588090 0.099088 0.004104
Si Si8 0.362127 0.249894 0.456398
O O1 0.781876 0.171083 0.250194
O O2 0.936023 0.203115 0.318030
O O3 0.917804 0.929924 0.468778
O O4 0.000000 0.000000 0.000000
O O5 0.114784 0.235923 0.125456
O O6 0.191991 0.441915 0.033256
O O7 0.324745 0.104416 0.063620
O O8 0.282238 0.196718 0.688693
O O9 0.058366 0.599084 0.458695
O O10 0.366047 0.534300 0.900047
O O11 0.339605 0.832417 0.958082
O O12 0.180840 0.722208 0.171951
O O13 0.500000 0.500000 0.500000
O O14 0.596109 0.676917 0.412986
O O15 0.457132 0.779921 0.198490
O O16 0.276370 0.404714 0.342403
O O17 0.479158 0.125072 0.245158
#
# Coordination Sequence:
#
# PCOD9064934 Si02
#       8
#     2   2   2   2   2   2   2   2
#     4  11  24  46  76 108 144 179 241 302 365 419
#     4  12  29  47  69 106 144 202 234 299 358 425
#     4  11  27  47  75 109 143 189 242 303 355 434
#     4  12  23  46  75 108 141 186 234 302 363 425
#     4  12  24  44  75 108 144 187 239 299 362 424
#     4  12  26  48  73 105 150 188 245 294 359 432
#     4  12  27  46  73 110 148 185 247 295 358 434
#     4  12  25  47  72 102 147 197 238 293 354 435
#
# _framework density 24.824339999999999
#
# number of rings (size 3 to 8) (size 9 to 14) (size 15 to 20)
#    0.000    0.250    5.000    3.375    3.500    5.500 
#    0.000    0.000    0.000    0.000    0.000    0.000 
#    0.000    0.000    0.000    0.000    0.000    0.000 
#
# Total GULP energy -89543.888178 kJ/mol
# GULP energy per Si atom -5596.493011 kJ/mol
# Density = 2.476784 g / cm^3
# Si number density = 24.824340 Si / 1000 Ang^3
#
#
#
# Elastic Constant Matrix: (Units=GPa)
#
#
# Indices 1 2 3 4 5 6 
#
# 1 123.6650 31.3772 43.3911 -16.7603 -10.6508 4.5369
# 2 31.3772 88.2187 19.3049 0.5114 1.1004 -14.0004
# 3 43.3911 19.3049 107.2208 -7.2407 -23.6679 -3.2444
# 4 -16.7603 0.5114 -7.2407 39.2931 -15.8745 4.5518
# 5 -10.6508 1.1004 -23.6679 -15.8745 44.3251 0.1181
# 6 4.5369 -14.0004 -3.2444 4.5518 0.1181 34.7804
#
#
#
# Elastic Compliance Matrix: (Units=1/GPa)
#
#
# Indices 1 2 3 4 5 6 
#
# 1 0.011485 -0.004251 -0.002758 0.006447 0.003713 -0.004323
# 2 -0.004251 0.014429 -0.001911 -0.004818 -0.004144 0.006829
# 3 -0.002758 -0.001911 0.012799 0.004322 0.007766 0.000192
# 4 0.006447 -0.004818 0.004322 0.036845 0.017191 -0.007258
# 5 0.003713 -0.004144 0.007766 0.017191 0.033869 -0.003793
# 6 -0.004323 0.006829 0.000192 -0.007258 -0.003793 0.033045
#
#
# Mechanical properties :
#
#
# Convention : Reuss Voigt Hill
#
# Bulk Modulus (GPa) = 47.91125 56.36121 52.13623
# Shear Modulus (GPa) = 29.89172 38.68183 34.28678
#
# Velocity S-wave (km/s) = 3.47382 3.95171 3.72045
# Velocity P-wave (km/s) = 5.95247 6.60111 6.28517
#
# Compressibility (1/GPa) = 0.02087192
#
# Stress axis : x y z
#
# Youngs Moduli (GPa) = 87.07126 69.30455 78.13170
#
# Poissons Ratio (x) = 0.29461 0.21552
# Poissons Ratio (y) = 0.37014 0.14932
# Poissons Ratio (z) = 0.24017 0.13245
#
# Static dielectric constant tensor:
#      x y z
#    x 2.081860 -0.040060 -0.206310 
#    y -0.040060 1.945940 0.071540 
#    z -0.206310 0.071540 2.257690 
# 
# From -- ./inp_files/93351.got.cif
#   From: 2010.05.17/outbox.cif.g08.bks.cpg/sg2_47_cif.got.tgz:93351.got - 2010.06.03 11:33:40.
