data_PCOD9064185
_publ_section_title
;
Structure prediction by ZEFSAII (Michael W. Deem and Ramdas Pophale) SiO2 
 PCOD9064185
Probable space group: P -1
;
_chemical_formula_sum "Si O2"
_cell_formula_units_Z 13
_cell_length_a 6.127219
_cell_length_b 15.489694
_cell_length_c 12.594518
_cell_angle_alpha 25.783963
_cell_angle_beta 75.510195
_cell_angle_gamma 70.396933
_cell_volume 485.863929
_symmetry_space_group_name_H-M "P -1"
_symmetry_group_IT_number 2
_symmetry_cell_setting 'triclinic'
loop_
_space_group_symop_operation_xyz
x,y,z
-x,-y,-z
loop_
_atom_site_type_symbol
_atom_site_label
_atom_site_fract_x
_atom_site_fract_y
_atom_site_fract_z
Si Si1 0.254273 0.168966 0.336155
Si Si2 0.435410 0.427340 0.285861
Si Si3 0.845351 0.870085 0.253871
Si Si4 0.304907 0.518753 0.593329
Si Si5 0.865278 0.870606 0.010408
Si Si6 0.180796 0.926636 0.421382
Si Si7 0.500000 0.500000 0.000000
O O1 0.063039 0.129717 0.485052
O O2 0.500000 0.000000 0.500000
O O3 0.168572 0.114476 0.292251
O O4 0.297211 0.386048 0.110753
O O5 0.283466 0.277566 0.507778
O O6 0.569654 0.492303 0.295683
O O7 0.620075 0.281294 0.338558
O O8 0.334450 0.597929 0.023691
O O9 0.113482 0.734383 0.367875
O O10 0.762304 0.899778 0.109499
O O11 0.877972 0.083942 0.060636
O O12 0.500000 0.500000 0.500000
O O13 0.159732 0.350892 0.776272
O O14 0.747531 0.016660 0.766641
#
# Coordination Sequence:
#
# PCOD9064185 Si02
#       7
#     2   2   2   2   2   2   1
#     4  11  25  49  70 103 143 181 235 292 342 417
#     4  12  26  48  72 102 146 182 236 294 340 421
#     4  11  26  47  68 104 143 179 235 290 342 420
#     4  12  26  47  70 105 143 184 235 287 343 421
#     4  11  24  45  72 101 140 187 225 287 358 405
#     4  11  25  48  72 103 143 184 234 286 350 422
#     4  12  26  46  74 106 136 190 232 290 358 396
#
# _framework density 26.756464999999999
#
# number of rings (size 3 to 8) (size 9 to 14) (size 15 to 20)
#    0.000    0.615    4.615    2.308    0.000    5.538 
#    0.000    0.000    0.000    0.000    0.000    0.000 
#    0.000    0.000    0.000    0.000    0.000    0.000 
#
# Total GULP energy -72610.917200 kJ/mol
# GULP energy per Si atom -5585.455169 kJ/mol
# Density = 2.669557 g / cm^3
# Si number density = 26.756465 Si / 1000 Ang^3
#
#
#
# Elastic Constant Matrix: (Units=GPa)
#
#
# Indices 1 2 3 4 5 6 
#
# 1 108.8715 57.3926 52.9813 -1.2159 -20.5464 16.6424
# 2 57.3926 121.5586 59.8305 18.6056 -11.5032 39.5094
# 3 52.9813 59.8305 141.3831 23.4395 -37.0324 21.5413
# 4 -1.2159 18.6056 23.4395 59.0567 3.7928 -7.7324
# 5 -20.5464 -11.5032 -37.0324 3.7928 57.5271 -15.8096
# 6 16.6424 39.5094 21.5413 -7.7324 -15.8096 72.6315
#
#
#
# Elastic Compliance Matrix: (Units=1/GPa)
#
#
# Indices 1 2 3 4 5 6 
#
# 1 0.013992 -0.006062 -0.002969 0.003475 0.002142 0.001808
# 2 -0.006062 0.015367 -0.003129 -0.004479 -0.002768 -0.007122
# 3 -0.002969 -0.003129 0.011857 -0.004209 0.006158 -0.000242
# 4 0.003475 -0.004479 -0.004209 0.020843 -0.002483 0.004567
# 5 0.002142 -0.002768 0.006158 -0.002483 0.022790 0.003885
# 6 0.001808 -0.007122 -0.000242 0.004567 0.003885 0.018631
#
#
# Mechanical properties :
#
#
# Convention : Reuss Voigt Hill
#
# Bulk Modulus (GPa) = 59.18173 79.13579 69.15876
# Shear Modulus (GPa) = 37.47232 51.28363 44.37798
#
# Velocity S-wave (km/s) = 3.74638 4.38274 4.07700
# Velocity P-wave (km/s) = 6.39379 7.43315 6.93297
#
# Compressibility (1/GPa) = 0.01689711
#
# Stress axis : x y z
#
# Youngs Moduli (GPa) = 71.46896 65.07532 84.33835
#
# Poissons Ratio (x) = 0.39449 0.25037
# Poissons Ratio (y) = 0.43325 0.26388
# Poissons Ratio (z) = 0.21216 0.20361
#
# Static dielectric constant tensor:
#      x y z
#    x 2.172250 -0.000800 0.226230 
#    y -0.000800 2.177210 0.221850 
#    z 0.226230 0.221850 3.245980 
# 
# From -- ./inp_files/367329.got.cif
#   From: 2010.05.17/outbox.cif.g08.bks.cpg/sg2_184_cif.got.tgz:367329.got - 2010.06.03 11:33:40.
