data_PCOD9064076
_publ_section_title
;
Structure prediction by ZEFSAII (Michael W. Deem and Ramdas Pophale) SiO2 
 PCOD9064076
Probable space group: P -1
;
_chemical_formula_sum "Si O2"
_cell_formula_units_Z 16
_cell_length_a 15.387993
_cell_length_b 8.185437
_cell_length_c 13.071375
_cell_angle_alpha 116.655273
_cell_angle_beta 153.434883
_cell_angle_gamma 73.959926
_cell_volume 625.074192
_symmetry_space_group_name_H-M "P -1"
_symmetry_group_IT_number 2
_symmetry_cell_setting 'triclinic'
loop_
_space_group_symop_operation_xyz
x,y,z
-x,-y,-z
loop_
_atom_site_type_symbol
_atom_site_label
_atom_site_fract_x
_atom_site_fract_y
_atom_site_fract_z
Si Si1 0.338911 0.272623 0.204680
Si Si2 0.277463 0.830825 0.471667
Si Si3 0.835357 0.432516 0.998015
Si Si4 0.422486 0.771239 0.176966
Si Si5 0.933107 0.793291 0.928017
Si Si6 0.122638 0.743345 0.510512
Si Si7 0.330657 0.440339 0.717019
Si Si8 0.912512 0.139571 0.272956
O O1 0.271901 0.457494 0.158151
O O2 0.284359 0.236978 0.256803
O O3 0.189393 0.076232 0.938245
O O4 0.567333 0.292585 0.415036
O O5 0.085387 0.782527 0.179611
O O6 0.213472 0.839792 0.525128
O O7 0.417039 0.033743 0.634269
O O8 0.909888 0.585210 0.211196
O O9 0.680799 0.238376 0.824950
O O10 0.031673 0.375063 0.152081
O O11 0.549160 0.623118 0.265501
O O12 0.237430 0.744908 0.894505
O O13 0.000000 0.000000 0.000000
O O14 0.262697 0.619366 0.662295
O O15 0.095129 0.863550 0.613252
O O16 0.135044 0.262262 0.498424
O O17 0.500000 0.500000 0.000000
#
# Coordination Sequence:
#
# PCOD9064076 Si02
#       8
#     2   2   2   2   2   2   2   2
#     4  11  26  49  75 110 145 192 243 307 367 437
#     4  11  27  48  73 110 144 193 249 297 372 437
#     4  12  26  48  77 105 148 194 246 305 370 429
#     4  11  24  45  70 107 148 189 243 296 366 435
#     4  12  27  51  76 106 146 193 246 311 370 429
#     4  12  25  46  72 109 148 194 240 303 360 439
#     4  12  23  42  74 107 148 202 241 290 364 436
#     4  11  24  46  71 107 154 187 240 298 364 436
#
# _framework density 25.596958999999998
#
# number of rings (size 3 to 8) (size 9 to 14) (size 15 to 20)
#    0.000    0.500    3.750    4.500    1.750    5.000 
#    2.250    0.000    0.000    0.000    0.000    0.000 
#    0.000    0.000    0.000    0.000    0.000    0.000 
#
# Total GULP energy -89579.526297 kJ/mol
# GULP energy per Si atom -5598.720394 kJ/mol
# Density = 2.553870 g / cm^3
# Si number density = 25.596959 Si / 1000 Ang^3
#
#
#
# Elastic Constant Matrix: (Units=GPa)
#
#
# Indices 1 2 3 4 5 6 
#
# 1 154.0130 41.7280 32.0933 12.7301 13.9256 5.8979
# 2 41.7280 102.2053 10.9699 -17.2334 2.3278 7.5066
# 3 32.0933 10.9699 109.5475 1.7546 14.2649 5.1953
# 4 12.7301 -17.2334 1.7546 42.9751 -4.7449 4.0873
# 5 13.9256 2.3278 14.2649 -4.7449 43.9433 1.4303
# 6 5.8979 7.5066 5.1953 4.0873 1.4303 51.7711
#
#
#
# Elastic Compliance Matrix: (Units=1/GPa)
#
#
# Indices 1 2 3 4 5 6 
#
# 1 0.008493 -0.003971 -0.001718 -0.004321 -0.002396 0.000188
# 2 -0.003971 0.012661 -0.000310 0.006610 0.001464 -0.001915
# 3 -0.001718 -0.000310 0.010052 -0.000261 -0.002708 -0.000673
# 4 -0.004321 0.006610 -0.000261 0.027938 0.004210 -0.002762
# 5 -0.002396 0.001464 -0.002708 0.004210 0.024794 -0.000685
# 6 0.000188 -0.001915 -0.000673 -0.002762 -0.000685 0.019876
#
#
# Mechanical properties :
#
#
# Convention : Reuss Voigt Hill
#
# Bulk Modulus (GPa) = 52.06542 59.48312 55.77427
# Shear Modulus (GPa) = 40.91122 46.46954 43.69038
#
# Velocity S-wave (km/s) = 4.00219 4.26541 4.13590
# Velocity P-wave (km/s) = 6.46075 6.89544 6.68163
#
# Compressibility (1/GPa) = 0.01920661
#
# Stress axis : x y z
#
# Youngs Moduli (GPa) = 117.73712 78.98541 99.48599
#
# Poissons Ratio (x) = 0.31365 0.17095
# Poissons Ratio (y) = 0.46754 0.03086
# Poissons Ratio (z) = 0.20231 0.02450
#
# Static dielectric constant tensor:
#      x y z
#    x 2.057050 -0.029410 -0.016870 
#    y -0.029410 2.021370 0.012190 
#    z -0.016870 0.012190 2.018130 
# 
# From -- ./inp_files/447966.got.cif
#   From: 2010.05.17/outbox.cif.g08.bks.cpg/sg2_224_cif.got.tgz:447966.got - 2010.06.03 11:33:40.
