data_PCOD9064313
_publ_section_title
;
Structure prediction by ZEFSAII (Michael W. Deem and Ramdas Pophale) SiO2 
 PCOD9064313
Probable space group: P -1
;
_chemical_formula_sum "Si O2"
_cell_formula_units_Z 16
_cell_length_a 17.026786
_cell_length_b 8.703116
_cell_length_c 5.521615
_cell_angle_alpha 57.483082
_cell_angle_beta 78.391707
_cell_angle_gamma 74.530616
_cell_volume 663.274054
_symmetry_space_group_name_H-M "P -1"
_symmetry_group_IT_number 2
_symmetry_cell_setting 'triclinic'
loop_
_space_group_symop_operation_xyz
x,y,z
-x,-y,-z
loop_
_atom_site_type_symbol
_atom_site_label
_atom_site_fract_x
_atom_site_fract_y
_atom_site_fract_z
Si Si1 0.232238 0.860541 0.783833
Si Si2 0.951969 0.557113 0.728413
Si Si3 0.449816 0.625449 0.224479
Si Si4 0.391799 0.322961 0.209897
Si Si5 0.787795 0.821501 0.110336
Si Si6 0.911606 0.950955 0.578574
Si Si7 0.642517 0.040289 0.685690
Si Si8 0.781680 0.500033 0.726406
O O1 0.156670 0.885968 0.624791
O O2 0.317218 0.820207 0.623644
O O3 0.229892 0.058211 0.738217
O O4 0.225294 0.712970 0.118299
O O5 0.865637 0.493092 0.825429
O O6 0.000000 0.500000 0.500000
O O7 0.927762 0.777827 0.536766
O O8 0.000000 0.500000 0.000000
O O9 0.500000 0.500000 0.500000
O O10 0.394237 0.480246 0.287676
O O11 0.409643 0.823341 0.201532
O O12 0.521009 0.662429 0.970673
O O13 0.295595 0.401733 0.147611
O O14 0.395071 0.100090 0.347585
O O15 0.787736 0.614664 0.379406
O O16 0.870580 0.866868 0.905084
O O17 0.714768 0.908616 0.901618
O O18 0.000000 0.000000 0.500000
#
# Coordination Sequence:
#
# PCOD9064313 Si02
#       8
#     2   2   2   2   2   2   2   2
#     4  11  24  45  73 110 144 196 259 323 387 474
#     4  12  27  48  74 117 154 206 264 329 405 484
#     4  11  26  46  72 116 152 200 266 320 396 477
#     4  11  25  47  72 109 153 204 254 323 388 477
#     4  11  24  47  74 110 148 202 264 317 397 476
#     4  11  25  47  70 105 153 198 253 325 396 474
#     4  11  24  48  75 110 152 205 259 325 401 469
#     4  12  24  48  78 109 154 203 261 324 394 477
#
# _framework density 24.122758999999999
#
# number of rings (size 3 to 8) (size 9 to 14) (size 15 to 20)
#    0.000    0.750    2.500    4.125    3.500    2.000 
#   13.500    0.000    0.000    0.000    0.000    0.000 
#    0.000    0.000    0.000    0.000    0.000    0.000 
#
# Total GULP energy -89162.883547 kJ/mol
# GULP energy per Si atom -5572.680222 kJ/mol
# Density = 2.406785 g / cm^3
# Si number density = 24.122759 Si / 1000 Ang^3
#
#
#
# Elastic Constant Matrix: (Units=GPa)
#
#
# Indices 1 2 3 4 5 6 
#
# 1 130.7560 44.7674 45.6646 0.6535 -10.6862 2.0357
# 2 44.7674 113.3070 30.0856 6.9557 -17.0700 2.7711
# 3 45.6646 30.0856 120.5834 -20.9688 -12.3479 4.5664
# 4 0.6535 6.9557 -20.9688 42.9173 -0.5944 -14.0265
# 5 -10.6862 -17.0700 -12.3479 -0.5944 35.6912 1.6364
# 6 2.0357 2.7711 4.5664 -14.0265 1.6364 31.5126
#
#
#
# Elastic Compliance Matrix: (Units=1/GPa)
#
#
# Indices 1 2 3 4 5 6 
#
# 1 0.009786 -0.002852 -0.003171 -0.001418 0.000472 -0.000578
# 2 -0.002852 0.011297 -0.001832 -0.003362 0.003962 -0.002246
# 3 -0.003171 -0.001832 0.011210 0.006325 0.002092 0.001448
# 4 -0.001418 -0.003362 0.006325 0.031344 0.000062 0.013419
# 5 0.000472 0.003962 0.002092 0.000062 0.030883 -0.002258
# 6 -0.000578 -0.002246 0.001448 0.013419 -0.002258 0.037848
#
#
# Mechanical properties :
#
#
# Convention : Reuss Voigt Hill
#
# Bulk Modulus (GPa) = 60.30382 67.29795 63.80088
# Shear Modulus (GPa) = 32.55057 38.29948 35.42503
#
# Velocity S-wave (km/s) = 3.67736 3.98891 3.83630
# Velocity P-wave (km/s) = 6.56382 7.01241 6.79182
#
# Compressibility (1/GPa) = 0.01658270
#
# Stress axis : x y z
#
# Youngs Moduli (GPa) = 102.18232 88.51675 89.20509
#
# Poissons Ratio (x) = 0.25249 0.28286
# Poissons Ratio (y) = 0.29146 0.16345
# Poissons Ratio (z) = 0.32401 0.16219
#
# Static dielectric constant tensor:
#      x y z
#    x 1.710550 -0.021520 0.008180 
#    y -0.021520 1.968760 0.003280 
#    z 0.008180 0.003280 1.962280 
# 
# From -- ./inp_files/104492.got.cif
#   From: 2010.05.17/outbox.cif.g08.bks.cpg/sg2_53_cif.got.tgz:104492.got - 2010.06.03 11:33:40.
