data_PCOD9064646
_publ_section_title
;
Structure prediction by ZEFSAII (Michael W. Deem and Ramdas Pophale) SiO2 
 PCOD9064646
Probable space group: P -1
;
_chemical_formula_sum "Si O2"
_cell_formula_units_Z 16
_cell_length_a 11.551775
_cell_length_b 8.670696
_cell_length_c 18.129794
_cell_angle_alpha 136.445877
_cell_angle_beta 46.049382
_cell_angle_gamma 99.767602
_cell_volume 667.135691
_symmetry_space_group_name_H-M "P -1"
_symmetry_group_IT_number 2
_symmetry_cell_setting 'triclinic'
loop_
_space_group_symop_operation_xyz
x,y,z
-x,-y,-z
loop_
_atom_site_type_symbol
_atom_site_label
_atom_site_fract_x
_atom_site_fract_y
_atom_site_fract_z
Si Si1 0.207246 0.828384 0.949879
Si Si2 0.162619 0.158873 0.838216
Si Si3 0.661247 0.730940 0.067724
Si Si4 0.667199 0.942969 0.800249
Si Si5 0.066407 0.690562 0.454372
Si Si6 0.984213 0.512717 0.279093
Si Si7 0.474266 0.512192 0.173975
Si Si8 0.412712 0.412510 0.572108
O O1 0.389046 0.603031 0.851743
O O2 0.288680 0.661918 0.777621
O O3 0.988468 0.906948 0.097965
O O4 0.140130 0.149036 0.092071
O O5 0.275179 0.147241 0.857689
O O6 0.362663 0.909341 0.610430
O O7 0.000000 0.500000 0.000000
O O8 0.557757 0.619307 0.117732
O O9 0.480700 0.983388 0.177795
O O10 0.883753 0.470917 0.835094
O O11 0.778207 0.627285 0.679724
O O12 0.861272 0.919083 0.676385
O O13 0.523517 0.225645 0.016051
O O14 0.983012 0.641845 0.401501
O O15 0.218605 0.754246 0.387184
O O16 0.753016 0.624527 0.396217
O O17 0.500000 0.500000 0.500000
#
# Coordination Sequence:
#
# PCOD9064646 Si02
#       8
#     2   2   2   2   2   2   2   2
#     4  12  25  46  75 102 145 188 238 292 360 424
#     4  12  26  50  69 106 146 186 234 302 365 422
#     4  12  25  45  74  97 144 186 233 293 353 418
#     4  11  24  46  71 102 137 186 240 289 346 420
#     4  11  25  44  72 102 140 185 236 291 353 417
#     4  12  23  46  74 105 140 188 239 298 354 419
#     4  12  25  46  67 104 142 188 230 292 353 419
#     4  12  26  45  78 108 139 186 246 294 354 431
#
# _framework density 23.983129000000002
#
# number of rings (size 3 to 8) (size 9 to 14) (size 15 to 20)
#    0.000    0.250    6.250    3.375    0.000    4.000 
#    2.250    0.000    0.000    0.000    0.000    0.000 
#    0.000    0.000    0.000    0.000    0.000    0.000 
#
# Total GULP energy -89692.134030 kJ/mol
# GULP energy per Si atom -5605.758377 kJ/mol
# Density = 2.392854 g / cm^3
# Si number density = 23.983129 Si / 1000 Ang^3
#
#
#
# Elastic Constant Matrix: (Units=GPa)
#
#
# Indices 1 2 3 4 5 6 
#
# 1 108.8620 32.8459 15.4348 -8.6437 -20.8517 -14.3801
# 2 32.8459 93.9746 34.8518 -19.5426 -26.5998 6.3666
# 3 15.4348 34.8518 136.5228 -23.6212 -33.3996 -2.7853
# 4 -8.6437 -19.5426 -23.6212 48.0852 9.7203 -8.9236
# 5 -20.8517 -26.5998 -33.3996 9.7203 35.6247 -12.0569
# 6 -14.3801 6.3666 -2.7853 -8.9236 -12.0569 22.3349
#
#
#
# Elastic Compliance Matrix: (Units=1/GPa)
#
#
# Indices 1 2 3 4 5 6 
#
# 1 0.016609 -0.002846 0.004850 0.004878 0.019051 0.024343
# 2 -0.002846 0.014825 -0.001201 0.003302 0.007000 -0.001110
# 3 0.004850 -0.001201 0.013027 0.006324 0.018362 0.017529
# 4 0.004878 0.003302 0.006324 0.027674 0.010342 0.019627
# 5 0.019051 0.007000 0.018362 0.010342 0.078907 0.059288
# 6 0.024343 -0.001110 0.017529 0.019627 0.059288 0.102795
#
#
# Mechanical properties :
#
#
# Convention : Reuss Voigt Hill
#
# Bulk Modulus (GPa) = 21.70789 56.18051 38.94420
# Shear Modulus (GPa) = 18.68546 38.29075 28.48811
#
# Velocity S-wave (km/s) = 2.79428 4.00005 3.45024
# Velocity P-wave (km/s) = 4.41380 6.69400 5.66971
#
# Compressibility (1/GPa) = 0.04606620
#
# Stress axis : x y z
#
# Youngs Moduli (GPa) = 60.20822 67.45410 76.76244
#
# Poissons Ratio (x) = 0.19199 -0.37232
# Poissons Ratio (y) = 0.17137 0.09223
# Poissons Ratio (z) = -0.29202 0.08105
#
# Static dielectric constant tensor:
#      x y z
#    x 1.865870 0.006840 -0.016190 
#    y 0.006840 1.988220 -0.001490 
#    z -0.016190 -0.001490 1.943810 
# 
# From -- ./inp_files/566933.got.cif
#   From: 2010.05.17/outbox.cif.g08.bks.cpg/sg2_284_cif.got.tgz:566933.got - 2010.06.03 11:33:40.
