data_PCOD9064790
_publ_section_title
;
Structure prediction by ZEFSAII (Michael W. Deem and Ramdas Pophale) SiO2 
 PCOD9064790
Probable space group: P -1
;
_chemical_formula_sum "Si O2"
_cell_formula_units_Z 10
_cell_length_a 13.589588
_cell_length_b 11.561748
_cell_length_c 9.383572
_cell_angle_alpha 36.216717
_cell_angle_beta 152.068007
_cell_angle_gamma 148.041967
_cell_volume 355.683567
_symmetry_space_group_name_H-M "P -1"
_symmetry_group_IT_number 2
_symmetry_cell_setting 'triclinic'
loop_
_space_group_symop_operation_xyz
x,y,z
-x,-y,-z
loop_
_atom_site_type_symbol
_atom_site_label
_atom_site_fract_x
_atom_site_fract_y
_atom_site_fract_z
Si Si1 0.943642 0.404453 0.187126
Si Si2 0.636056 0.707090 0.683580
Si Si3 0.608633 0.785240 0.261712
Si Si4 0.745956 0.736662 0.087840
Si Si5 0.278119 0.882402 0.159605
O O1 0.070087 0.281336 0.550293
O O2 0.067450 0.647474 0.180091
O O3 0.000000 0.500000 0.000000
O O4 0.660305 0.263650 0.994161
O O5 0.727710 0.794068 0.556202
O O6 0.456301 0.441428 0.684620
O O7 0.484108 0.822651 0.433851
O O8 0.822574 0.757813 0.999055
O O9 0.757211 0.008327 0.139924
O O10 0.500000 0.500000 0.000000
O O11 0.677010 0.921889 0.868117
#
# Coordination Sequence:
#
# PCOD9064790 Si02
#       5
#     2   2   2   2   2
#     4  12  27  46  72 108 141 182 243 291 345 427
#     4  11  24  46  73 105 144 187 231 295 352 416
#     4  11  25  48  73 103 145 183 241 288 345 427
#     4  12  24  47  73 105 146 186 235 293 352 418
#     4  12  24  46  80  97 143 195 227 289 362 408
#
# _framework density 28.114878000000001
#
# number of rings (size 3 to 8) (size 9 to 14) (size 15 to 20)
#    0.000    0.400    6.000    1.200    2.800    3.200 
#    0.000    2.000    0.000    0.000    0.000    0.000 
#    0.000    0.000    0.000    0.000    0.000    0.000 
#
# Total GULP energy -56038.431314 kJ/mol
# GULP energy per Si atom -5603.843131 kJ/mol
# Density = 2.805089 g / cm^3
# Si number density = 28.114878 Si / 1000 Ang^3
#
#
#
# Elastic Constant Matrix: (Units=GPa)
#
#
# Indices 1 2 3 4 5 6 
#
# 1 145.3464 35.3544 65.8132 1.5537 -14.7227 -36.8249
# 2 35.3544 189.0981 29.5951 -30.3126 2.2959 -16.0288
# 3 65.8132 29.5951 178.9763 -7.6126 -11.5245 -25.8845
# 4 1.5537 -30.3126 -7.6126 40.4627 -7.8420 3.3883
# 5 -14.7227 2.2959 -11.5245 -7.8420 60.7538 1.5214
# 6 -36.8249 -16.0288 -25.8845 3.3883 1.5214 71.6427
#
#
#
# Elastic Compliance Matrix: (Units=1/GPa)
#
#
# Indices 1 2 3 4 5 6 
#
# 1 0.009560 -0.001374 -0.002742 -0.001928 0.001508 0.003675
# 2 -0.001374 0.006385 -0.000294 0.004743 -0.000028 0.000392
# 3 -0.002742 -0.000294 0.006884 0.001255 0.000791 0.000936
# 4 -0.001928 0.004743 0.001255 0.029314 0.003399 -0.000935
# 5 0.001508 -0.000028 0.000791 0.003399 0.017402 0.000524
# 6 0.003675 0.000392 0.000936 -0.000935 0.000524 0.016306
#
#
# Mechanical properties :
#
#
# Convention : Reuss Voigt Hill
#
# Bulk Modulus (GPa) = 71.37880 86.10512 78.74196
# Shear Modulus (GPa) = 50.33185 60.08239 55.20712
#
# Velocity S-wave (km/s) = 4.23569 4.62782 4.43609
# Velocity P-wave (km/s) = 7.02601 7.69729 7.36930
#
# Compressibility (1/GPa) = 0.01400976
#
# Stress axis : x y z
#
# Youngs Moduli (GPa) = 104.59935 156.61728 145.26905
#
# Poissons Ratio (x) = 0.21522 0.39828
# Poissons Ratio (y) = 0.14374 0.04268
# Poissons Ratio (z) = 0.28678 0.04602
#
# Static dielectric constant tensor:
#      x y z
#    x 2.315360 0.002480 -0.022430 
#    y 0.002480 2.243500 0.000300 
#    z -0.022430 0.000300 2.278780 
# 
# From -- ./inp_files/300106.got.cif
#   From: 2010.05.17/outbox.cif.g08.bks.cpg/sg2_151_cif.got.tgz:300106.got - 2010.06.03 11:33:40.
