data_PCOD9064588
_publ_section_title
;
Structure prediction by ZEFSAII (Michael W. Deem and Ramdas Pophale) SiO2 
 PCOD9064588
Probable space group: P -1
;
_chemical_formula_sum "Si O2"
_cell_formula_units_Z 14
_cell_length_a 8.970085
_cell_length_b 24.172570
_cell_length_c 8.031428
_cell_angle_alpha 131.668347
_cell_angle_beta 79.512542
_cell_angle_gamma 141.001460
_cell_volume 574.929096
_symmetry_space_group_name_H-M "P -1"
_symmetry_group_IT_number 2
_symmetry_cell_setting 'triclinic'
loop_
_space_group_symop_operation_xyz
x,y,z
-x,-y,-z
loop_
_atom_site_type_symbol
_atom_site_label
_atom_site_fract_x
_atom_site_fract_y
_atom_site_fract_z
Si Si1 0.267308 0.933152 0.604906
Si Si2 0.155317 0.148227 0.284489
Si Si3 0.418148 0.442354 0.090528
Si Si4 0.787821 0.036994 0.672376
Si Si5 0.079071 0.465332 0.697306
Si Si6 0.507306 0.373590 0.362757
Si Si7 0.566303 0.252028 0.647516
O O1 0.309130 0.008771 0.594941
O O2 0.123457 0.910211 0.751573
O O3 0.593722 0.025883 0.752578
O O4 0.972095 0.751658 0.228142
O O5 0.416093 0.282479 0.356416
O O6 0.334161 0.218147 0.565454
O O7 0.000000 0.000000 0.000000
O O8 0.664935 0.484818 0.182445
O O9 0.477673 0.537307 0.389764
O O10 0.500000 0.500000 0.000000
O O11 0.637811 0.900292 0.523127
O O12 0.183023 0.217677 0.996257
O O13 0.151307 0.491381 0.538947
O O14 0.739897 0.299707 0.537004
O O15 0.163028 0.587269 0.973464
#
# Coordination Sequence:
#
# PCOD9064588 Si02
#       7
#     2   2   2   2   2   2   2
#     4  11  25  46  69 103 142 180 234 284 351 411
#     4  12  25  43  67 104 139 179 227 292 342 407
#     4  12  22  44  69  98 143 184 224 282 349 412
#     4  11  25  45  74 104 132 185 234 291 341 411
#     4  11  25  43  70 101 138 184 231 284 346 417
#     4  12  25  43  74 103 139 184 235 285 345 409
#     4  11  24  46  70 100 141 183 229 284 356 405
#
# _framework density 24.350826000000001
#
# number of rings (size 3 to 8) (size 9 to 14) (size 15 to 20)
#    0.000    0.571    5.714    1.286    2.000    4.571 
#    2.571    0.000    0.000    0.000    0.000    0.000 
#    0.000    0.000    0.000    0.000    0.000    0.000 
#
# Total GULP energy -78317.041702 kJ/mol
# GULP energy per Si atom -5594.074407 kJ/mol
# Density = 2.429540 g / cm^3
# Si number density = 24.350826 Si / 1000 Ang^3
#
#
#
# Elastic Constant Matrix: (Units=GPa)
#
#
# Indices 1 2 3 4 5 6 
#
# 1 63.5179 40.3347 0.6830 -0.5532 -2.7380 -8.7304
# 2 40.3347 156.5138 3.8939 4.5744 -18.6845 -5.9415
# 3 0.6830 3.8939 66.5562 7.3928 -23.0434 -4.4305
# 4 -0.5532 4.5744 7.3928 32.4360 0.0058 -0.4223
# 5 -2.7380 -18.6845 -23.0434 0.0058 34.6339 -1.7147
# 6 -8.7304 -5.9415 -4.4305 -0.4223 -1.7147 44.8669
#
#
#
# Elastic Compliance Matrix: (Units=1/GPa)
#
#
# Indices 1 2 3 4 5 6 
#
# 1 0.019318 -0.005034 -0.000243 0.001135 -0.001200 0.003033
# 2 -0.005034 0.008327 0.001559 -0.001610 0.005155 0.000459
# 3 -0.000243 0.001559 0.020785 -0.004928 0.014787 0.002730
# 4 0.001135 -0.001610 -0.004928 0.032196 -0.004080 -0.000332
# 5 -0.001200 0.005155 0.014787 -0.004080 0.041569 0.003459
# 6 0.003033 0.000459 0.002730 -0.000332 0.003459 0.023338
#
#
# Mechanical properties :
#
#
# Convention : Reuss Voigt Hill
#
# Bulk Modulus (GPa) = 24.39439 41.82345 33.10892
# Shear Modulus (GPa) = 30.00577 38.49911 34.25244
#
# Velocity S-wave (km/s) = 3.51412 3.98052 3.75457
# Velocity P-wave (km/s) = 5.14830 6.19182 5.69402
#
# Compressibility (1/GPa) = 0.04099303
#
# Stress axis : x y z
#
# Youngs Moduli (GPa) = 51.76624 120.08465 48.11193
#
# Poissons Ratio (x) = 0.60445 0.01171
# Poissons Ratio (y) = 0.26057 -0.07498
# Poissons Ratio (z) = 0.01260 -0.18716
#
# Static dielectric constant tensor:
#      x y z
#    x 1.946220 -0.018770 0.077720 
#    y -0.018770 1.999350 -0.006240 
#    z 0.077720 -0.006240 2.004410 
# 
# From -- ./inp_files/225596.got.cif
#   From: 2010.05.17/outbox.cif.g08.bks.cpg/sg2_113_cif.got.tgz:225596.got - 2010.06.03 11:33:40.
