data_PCOD9064448
_publ_section_title
;
Structure prediction by ZEFSAII (Michael W. Deem and Ramdas Pophale) SiO2 
 PCOD9064448
Probable space group: P -1
;
_chemical_formula_sum "Si O2"
_cell_formula_units_Z 16
_cell_length_a 11.933329
_cell_length_b 7.871425
_cell_length_c 11.023470
_cell_angle_alpha 125.032169
_cell_angle_beta 109.689224
_cell_angle_gamma 44.546099
_cell_volume 590.047253
_symmetry_space_group_name_H-M "P -1"
_symmetry_group_IT_number 2
_symmetry_cell_setting 'triclinic'
loop_
_space_group_symop_operation_xyz
x,y,z
-x,-y,-z
loop_
_atom_site_type_symbol
_atom_site_label
_atom_site_fract_x
_atom_site_fract_y
_atom_site_fract_z
Si Si1 0.260572 0.231962 0.538284
Si Si2 0.062113 0.842721 0.104542
Si Si3 0.428086 0.027018 0.112980
Si Si4 0.509975 0.239792 0.735908
Si Si5 0.320079 0.798315 0.571717
Si Si6 0.165517 0.607587 0.318530
Si Si7 0.016411 0.336303 0.218455
Si Si8 0.707685 0.155162 0.142135
O O1 0.381706 0.282178 0.617102
O O2 0.088337 0.513893 0.634163
O O3 0.316744 0.053415 0.361726
O O4 0.303091 0.008152 0.560744
O O5 0.125466 0.712113 0.207520
O O6 0.119304 0.001952 0.145644
O O7 0.868908 0.091871 0.151796
O O8 0.081447 0.637085 0.926186
O O9 0.350944 0.315218 0.263667
O O10 0.525706 0.792449 0.154476
O O11 0.500000 0.000000 0.000000
O O12 0.282180 0.049242 0.028123
O O13 0.461520 0.534350 0.823620
O O14 0.500000 0.500000 0.500000
O O15 0.294965 0.899345 0.741199
O O16 0.182126 0.789570 0.484734
O O17 0.068601 0.516075 0.287654
#
# Coordination Sequence:
#
# PCOD9064448 Si02
#       8
#     2   2   2   2   2   2   2   2
#     4  11  24  45  76 106 156 205 245 324 382 450
#     4  11  26  48  76 114 153 206 255 320 388 453
#     4  12  28  45  76 111 148 204 257 321 392 455
#     4  11  25  46  75 114 149 200 263 318 380 457
#     4  12  26  49  73 111 155 201 252 316 391 452
#     4  12  28  48  76 115 155 199 266 315 380 477
#     4  11  25  49  78 111 158 204 257 317 388 463
#     4  12  24  49  76 107 155 199 255 325 378 457
#
# _framework density 27.116471000000001
#
# number of rings (size 3 to 8) (size 9 to 14) (size 15 to 20)
#    0.000    0.500    3.750    3.750    5.250    3.000 
#    0.000    1.875    0.000    0.000    0.000    0.000 
#    0.000    0.000    0.000    0.000    0.000    0.000 
#
# Total GULP energy -89518.246490 kJ/mol
# GULP energy per Si atom -5594.890406 kJ/mol
# Density = 2.705475 g / cm^3
# Si number density = 27.116471 Si / 1000 Ang^3
#
#
#
# Elastic Constant Matrix: (Units=GPa)
#
#
# Indices 1 2 3 4 5 6 
#
# 1 127.5421 11.5342 32.4812 -9.3718 16.7192 14.3658
# 2 11.5342 91.9181 19.5705 -12.6460 3.3442 26.9853
# 3 32.4812 19.5705 111.8675 -7.7955 15.8525 -1.4227
# 4 -9.3718 -12.6460 -7.7955 45.2336 1.5861 -2.4523
# 5 16.7192 3.3442 15.8525 1.5861 58.2606 -9.3611
# 6 14.3658 26.9853 -1.4227 -2.4523 -9.3611 39.2001
#
#
#
# Elastic Compliance Matrix: (Units=1/GPa)
#
#
# Indices 1 2 3 4 5 6 
#
# 1 0.009428 0.001121 -0.002463 0.001679 -0.002935 -0.004912
# 2 0.001121 0.015166 -0.002536 0.003507 -0.002413 -0.011300
# 3 -0.002463 -0.002536 0.010408 0.000776 -0.001567 0.002701
# 4 0.001679 0.003507 0.000776 0.023528 -0.001852 -0.001972
# 5 -0.002935 -0.002413 -0.001567 -0.001852 0.019793 0.007291
# 6 -0.004912 -0.011300 0.002701 -0.001972 0.007291 0.036805
#
#
# Mechanical properties :
#
#
# Convention : Reuss Voigt Hill
#
# Bulk Modulus (GPa) = 36.70185 50.94436 43.82311
# Shear Modulus (GPa) = 37.88829 46.38834 42.13831
#
# Velocity S-wave (km/s) = 3.74203 4.14056 3.94633
# Velocity P-wave (km/s) = 5.67755 6.45654 6.07954
#
# Compressibility (1/GPa) = 0.02724658
#
# Stress axis : x y z
#
# Youngs Moduli (GPa) = 106.06963 65.93495 96.07570
#
# Poissons Ratio (x) = -0.07393 0.23665
# Poissons Ratio (y) = -0.11893 0.24366
# Poissons Ratio (z) = 0.26127 0.16722
#
# Static dielectric constant tensor:
#      x y z
#    x 2.269580 -0.041100 0.002200 
#    y -0.041100 2.073770 0.022540 
#    z 0.002200 0.022540 2.113500 
# 
# From -- ./inp_files/448063.got.cif
#   From: 2010.05.17/outbox.cif.g08.bks.cpg/sg2_225_cif.got.tgz:448063.got - 2010.06.03 11:33:40.
