data_PCOD9064221
_publ_section_title
;
Structure prediction by ZEFSAII (Michael W. Deem and Ramdas Pophale) SiO2 
 PCOD9064221
Probable space group: P -1
;
_chemical_formula_sum "Si O2"
_cell_formula_units_Z 12
_cell_length_a 9.554024
_cell_length_b 24.186268
_cell_length_c 12.614310
_cell_angle_alpha 22.463236
_cell_angle_beta 52.292950
_cell_angle_gamma 35.342609
_cell_volume 493.241761
_symmetry_space_group_name_H-M "P -1"
_symmetry_group_IT_number 2
_symmetry_cell_setting 'triclinic'
loop_
_space_group_symop_operation_xyz
x,y,z
-x,-y,-z
loop_
_atom_site_type_symbol
_atom_site_label
_atom_site_fract_x
_atom_site_fract_y
_atom_site_fract_z
Si Si1 0.657058 0.689963 0.279142
Si Si2 0.216461 0.386774 0.000511
Si Si3 0.391993 0.568221 0.052077
Si Si4 0.207602 0.193805 0.163864
Si Si5 0.615344 0.372697 0.826514
Si Si6 0.910953 0.027794 0.869460
O O1 0.648019 0.525838 0.542175
O O2 0.371667 0.898664 0.124892
O O3 0.000000 0.500000 0.500000
O O4 0.589495 0.841527 0.944622
O O5 0.069711 0.396604 0.955081
O O6 0.560684 0.079694 0.405811
O O7 0.289158 0.503888 0.730946
O O8 0.000000 0.500000 0.000000
O O9 0.287218 0.740056 0.897302
O O10 0.721159 0.291749 0.441157
O O11 0.500000 0.500000 0.000000
O O12 0.082770 0.678569 0.989608
O O13 0.822252 0.187375 0.957689
O O14 0.000000 0.000000 0.000000
#
# Coordination Sequence:
#
# PCOD9064221 Si02
#       6
#     2   2   2   2   2   2
#     4  11  24  48  68 107 148 189 243 310 361 435
#     4  11  26  45  71 107 145 194 243 299 375 447
#     4  11  24  45  72 105 150 190 251 312 367 439
#     4  11  24  46  68 102 153 183 241 311 362 434
#     4  11  25  46  76 107 144 201 254 295 378 448
#     4  11  25  44  73 108 149 195 247 309 369 441
#
# _framework density 24.328838000000001
#
# number of rings (size 3 to 8) (size 9 to 14) (size 15 to 20)
#    0.000    1.000    3.333    3.000    0.000   20.000 
#    0.000    0.000    0.000    0.000    0.000    0.000 
#    0.000    0.000    0.000    0.000    0.000    0.000 
#
# Total GULP energy -66868.403181 kJ/mol
# GULP energy per Si atom -5572.366932 kJ/mol
# Density = 2.427346 g / cm^3
# Si number density = 24.328838 Si / 1000 Ang^3
#
#
#
# Elastic Constant Matrix: (Units=GPa)
#
#
# Indices 1 2 3 4 5 6 
#
# 1 163.9221 43.2881 33.5490 -19.3157 -5.7661 14.9730
# 2 43.2881 193.2775 4.3672 -11.4256 -4.9391 13.8895
# 3 33.5490 4.3672 63.5819 7.8848 4.3436 0.6427
# 4 -19.3157 -11.4256 7.8848 33.5072 -0.9777 9.4324
# 5 -5.7661 -4.9391 4.3436 -0.9777 41.0843 10.0520
# 6 14.9730 13.8895 0.6427 9.4324 10.0520 52.0435
#
#
#
# Elastic Compliance Matrix: (Units=1/GPa)
#
#
# Indices 1 2 3 4 5 6 
#
# 1 0.008882 -0.001060 -0.005679 0.007331 0.002895 -0.004090
# 2 -0.001060 0.005676 -0.000115 0.001872 0.001017 -0.001744
# 3 -0.005679 -0.000115 0.020122 -0.009263 -0.004110 0.003889
# 4 0.007331 0.001872 -0.009263 0.040127 0.005855 -0.010898
# 5 0.002895 0.001017 -0.004110 0.005855 0.027248 -0.007377
# 6 -0.004090 -0.001744 0.003889 -0.010898 -0.007377 0.024209
#
#
# Mechanical properties :
#
#
# Convention : Reuss Voigt Hill
#
# Bulk Modulus (GPa) = 47.68077 64.79889 56.23983
# Shear Modulus (GPa) = 34.02232 47.96548 40.99390
#
# Velocity S-wave (km/s) = 3.74362 4.44503 4.10932
# Velocity P-wave (km/s) = 6.19090 7.28264 6.75885
#
# Compressibility (1/GPa) = 0.02097282
#
# Stress axis : x y z
#
# Youngs Moduli (GPa) = 112.58816 176.18509 49.69573
#
# Poissons Ratio (x) = 0.18670 0.28224
# Poissons Ratio (y) = 0.11931 0.00570
# Poissons Ratio (z) = 0.63942 0.02022
#
# Static dielectric constant tensor:
#      x y z
#    x 1.915580 0.034660 -0.031800 
#    y 0.034660 2.037240 0.010330 
#    z -0.031800 0.010330 2.135050 
# 
# From -- ./inp_files/403686.got.cif
#   From: 2010.05.17/outbox.cif.g08.bks.cpg/sg2_202_cif.got.tgz:403686.got - 2010.06.03 11:33:40.
