data_PCOD9064930
_publ_section_title
;
Structure prediction by ZEFSAII (Michael W. Deem and Ramdas Pophale) SiO2 
 PCOD9064930
Probable space group: P -1
;
_chemical_formula_sum "Si O2"
_cell_formula_units_Z 12
_cell_length_a 9.194085
_cell_length_b 11.951418
_cell_length_c 9.417689
_cell_angle_alpha 137.862682
_cell_angle_beta 135.724695
_cell_angle_gamma 65.482788
_cell_volume 469.590766
_symmetry_space_group_name_H-M "P -1"
_symmetry_group_IT_number 2
_symmetry_cell_setting 'triclinic'
loop_
_space_group_symop_operation_xyz
x,y,z
-x,-y,-z
loop_
_atom_site_type_symbol
_atom_site_label
_atom_site_fract_x
_atom_site_fract_y
_atom_site_fract_z
Si Si1 0.588825 0.484369 0.894584
Si Si2 0.954250 0.086271 0.197072
Si Si3 0.621298 0.745124 0.718386
Si Si4 0.675470 0.011013 0.504904
Si Si5 0.011235 0.609126 0.964843
Si Si6 0.587610 0.232097 0.122693
O O1 0.475382 0.316256 0.561466
O O2 0.834907 0.486765 0.100155
O O3 0.525540 0.629114 0.891807
O O4 0.500000 0.500000 0.000000
O O5 0.828423 0.235785 0.242183
O O6 0.175613 0.115523 0.463009
O O7 0.781718 0.932847 0.008282
O O8 0.000000 0.000000 0.000000
O O9 0.440022 0.750980 0.713047
O O10 0.777562 0.622515 0.761552
O O11 0.500000 0.000000 0.500000
O O12 0.842974 0.193495 0.761725
O O13 0.554026 0.941704 0.211271
O O14 0.000000 0.500000 0.000000
#
# Coordination Sequence:
#
# PCOD9064930 Si02
#       6
#     2   2   2   2   2   2
#     4  12  28  47  74 106 153 197 245 308 377 445
#     4  11  25  44  76 106 144 193 252 305 365 442
#     4  11  27  50  70 107 154 193 249 307 372 447
#     4  11  24  46  76 107 150 193 250 303 367 439
#     4  11  25  49  76 109 152 197 244 308 372 445
#     4  12  25  46  74 111 145 196 246 309 373 432
#
# _framework density 25.554165000000001
#
# number of rings (size 3 to 8) (size 9 to 14) (size 15 to 20)
#    0.000    0.667    3.333    3.000    4.667    6.000 
#    0.000    0.000    0.000    0.000    0.000    0.000 
#    0.000    0.000    0.000    0.000    0.000    0.000 
#
# Total GULP energy -67075.749489 kJ/mol
# GULP energy per Si atom -5589.645791 kJ/mol
# Density = 2.549600 g / cm^3
# Si number density = 25.554165 Si / 1000 Ang^3
#
#
#
# Elastic Constant Matrix: (Units=GPa)
#
#
# Indices 1 2 3 4 5 6 
#
# 1 147.8219 2.8725 40.5978 -11.2720 -20.1480 -24.1874
# 2 2.8725 85.8834 17.1249 -15.1014 10.6248 -27.7513
# 3 40.5978 17.1249 141.4822 -13.8959 -5.3584 -1.4228
# 4 -11.2720 -15.1014 -13.8959 53.4689 2.5783 18.7236
# 5 -20.1480 10.6248 -5.3584 2.5783 35.7185 -11.4825
# 6 -24.1874 -27.7513 -1.4228 18.7236 -11.4825 67.7074
#
#
#
# Elastic Compliance Matrix: (Units=1/GPa)
#
#
# Indices 1 2 3 4 5 6 
#
# 1 0.008955 0.000876 -0.002444 -0.000406 0.005941 0.004627
# 2 0.000876 0.014318 -0.001825 0.002077 -0.002536 0.005139
# 3 -0.002444 -0.001825 0.008133 0.001808 -0.000395 -0.002017
# 4 -0.000406 0.002077 0.001808 0.021983 -0.004101 -0.006030
# 5 0.005941 -0.002536 -0.000395 -0.004101 0.034955 0.008136
# 6 0.004627 0.005139 -0.002017 -0.006030 0.008136 0.021534
#
#
# Mechanical properties :
#
#
# Convention : Reuss Voigt Hill
#
# Bulk Modulus (GPa) = 40.61704 55.15311 47.88508
# Shear Modulus (GPa) = 40.04235 52.35178 46.19706
#
# Velocity S-wave (km/s) = 3.96278 4.53112 4.25645
# Velocity P-wave (km/s) = 6.07183 7.00032 6.55254
#
# Compressibility (1/GPa) = 0.02462021
#
# Stress axis : x y z
#
# Youngs Moduli (GPa) = 111.67133 69.84364 122.96204
#
# Poissons Ratio (x) = -0.06121 0.30053
# Poissons Ratio (y) = -0.09787 0.22439
# Poissons Ratio (z) = 0.27293 0.12746
#
# Static dielectric constant tensor:
#      x y z
#    x 1.987380 0.006100 -0.035320 
#    y 0.006100 2.120360 0.091240 
#    z -0.035320 0.091240 1.997640 
# 
# From -- ./inp_files/183456.got.cif
#   From: 2010.05.17/outbox.cif.g08.bks.cpg/sg2_92_cif.got.tgz:183456.got - 2010.06.03 11:33:40.
