data_PCOD9064363
_publ_section_title
;
Structure prediction by ZEFSAII (Michael W. Deem and Ramdas Pophale) SiO2 
 PCOD9064363
Probable space group: P -1
;
_chemical_formula_sum "Si O2"
_cell_formula_units_Z 16
_cell_length_a 11.748254
_cell_length_b 11.768943
_cell_length_c 5.449896
_cell_angle_alpha 76.882427
_cell_angle_beta 97.665827
_cell_angle_gamma 109.193884
_cell_volume 691.653767
_symmetry_space_group_name_H-M "P -1"
_symmetry_group_IT_number 2
_symmetry_cell_setting 'triclinic'
loop_
_space_group_symop_operation_xyz
x,y,z
-x,-y,-z
loop_
_atom_site_type_symbol
_atom_site_label
_atom_site_fract_x
_atom_site_fract_y
_atom_site_fract_z
Si Si1 0.197171 0.037051 0.595628
Si Si2 0.190633 0.849634 0.058841
Si Si3 0.521630 0.381095 0.946965
Si Si4 0.563309 0.059735 0.736059
Si Si5 0.008016 0.136896 0.703651
Si Si6 0.554800 0.749909 0.500998
Si Si7 0.800374 0.401852 0.949362
Si Si8 0.001656 0.394334 0.361432
O O1 0.316520 0.145355 0.512541
O O2 0.129064 0.100754 0.741550
O O3 0.095486 0.975483 0.396666
O O4 0.227590 0.921372 0.780341
O O5 0.296812 0.930561 0.224277
O O6 0.054064 0.847700 0.066304
O O7 0.196304 0.712892 0.161163
O O8 0.454807 0.346991 0.678834
O O9 0.664960 0.402367 0.948832
O O10 0.500000 0.500000 0.000000
O O11 0.473806 0.286621 0.205412
O O12 0.545512 0.192044 0.654847
O O13 0.500000 0.000000 0.500000
O O14 0.500000 0.000000 0.000000
O O15 0.021159 0.267910 0.515043
O O16 0.888288 0.533153 0.821391
O O17 0.870308 0.367145 0.216213
O O18 0.000000 0.500000 0.500000
#
# Coordination Sequence:
#
# PCOD9064363 Si02
#       8
#     2   2   2   2   2   2   2   2
#     4  11  26  45  70 108 152 192 246 306 384 454
#     4  12  23  44  70 105 150 189 245 310 372 452
#     4  12  30  52  77 108 152 198 253 316 377 451
#     4  12  25  42  73 109 148 191 245 301 368 452
#     4  11  25  44  73 103 148 192 247 313 377 441
#     4  12  27  49  75 112 145 201 250 303 385 456
#     4  11  26  45  71 106 141 191 252 309 372 444
#     4  11  24  45  74 105 136 194 250 312 365 436
#
# _framework density 23.132960000000001
#
# number of rings (size 3 to 8) (size 9 to 14) (size 15 to 20)
#    0.000    0.500    5.000    2.250    7.000    1.000 
#    0.000    0.000    0.000    0.000    0.000    0.000 
#    0.000    0.000    0.000    0.000    0.000    0.000 
#
# Total GULP energy -89287.300715 kJ/mol
# GULP energy per Si atom -5580.456295 kJ/mol
# Density = 2.308031 g / cm^3
# Si number density = 23.132960 Si / 1000 Ang^3
#
#
#
# Elastic Constant Matrix: (Units=GPa)
#
#
# Indices 1 2 3 4 5 6 
#
# 1 119.7441 27.0045 4.1928 -12.4235 -15.6769 11.6640
# 2 27.0045 89.7339 8.3546 1.8880 -0.0952 1.6247
# 3 4.1928 8.3546 68.9827 -4.3213 -7.5954 13.9206
# 4 -12.4235 1.8880 -4.3213 45.3716 -0.3181 5.2398
# 5 -15.6769 -0.0952 -7.5954 -0.3181 26.2961 6.5996
# 6 11.6640 1.6247 13.9206 5.2398 6.5996 37.7356
#
#
#
# Elastic Compliance Matrix: (Units=1/GPa)
#
#
# Indices 1 2 3 4 5 6 
#
# 1 0.011329 -0.003588 0.002296 0.004269 0.009054 -0.006371
# 2 -0.003588 0.012429 -0.002235 -0.001997 -0.003330 0.002258
# 3 0.002296 -0.002235 0.017666 0.003524 0.008805 -0.009160
# 4 0.004269 -0.001997 0.003524 0.024465 0.005585 -0.006907
# 5 0.009054 -0.003330 0.008805 0.005585 0.049891 -0.015404
# 6 -0.006371 0.002258 -0.009160 -0.006907 -0.015404 0.035404
#
#
# Mechanical properties :
#
#
# Convention : Reuss Voigt Hill
#
# Bulk Modulus (GPa) = 29.09435 39.72939 34.41187
# Shear Modulus (GPa) = 29.46465 37.80790 33.63628
#
# Velocity S-wave (km/s) = 3.57278 4.04712 3.81733
# Velocity P-wave (km/s) = 5.44279 6.24905 5.85980
#
# Compressibility (1/GPa) = 0.03437093
#
# Stress axis : x y z
#
# Youngs Moduli (GPa) = 88.27088 80.45404 56.60568
#
# Poissons Ratio (x) = 0.28866 -0.12996
# Poissons Ratio (y) = 0.31671 0.12650
# Poissons Ratio (z) = -0.20266 0.17979
#
# Static dielectric constant tensor:
#      x y z
#    x 1.867500 -0.045910 -0.069040 
#    y -0.045910 2.168250 0.125950 
#    z -0.069040 0.125950 1.982130 
# 
# From -- ./inp_files/69266.got.cif
#   From: 2010.05.17/outbox.cif.g08.bks.cpg/sg2_35_cif.got.tgz:69266.got - 2010.06.03 11:33:40.
