data_PCOD9064114
_publ_section_title
;
Structure prediction by ZEFSAII (Michael W. Deem and Ramdas Pophale) SiO2 
 PCOD9064114
Probable space group: P -1
;
_chemical_formula_sum "Si O2"
_cell_formula_units_Z 16
_cell_length_a 15.668852
_cell_length_b 5.174414
_cell_length_c 14.172708
_cell_angle_alpha 122.373383
_cell_angle_beta 135.324419
_cell_angle_gamma 82.144725
_cell_volume 622.038126
_symmetry_space_group_name_H-M "P -1"
_symmetry_group_IT_number 2
_symmetry_cell_setting 'triclinic'
loop_
_space_group_symop_operation_xyz
x,y,z
-x,-y,-z
loop_
_atom_site_type_symbol
_atom_site_label
_atom_site_fract_x
_atom_site_fract_y
_atom_site_fract_z
Si Si1 0.126366 0.619989 0.551800
Si Si2 0.346365 0.710939 0.879404
Si Si3 0.300181 0.194099 0.222138
Si Si4 0.082696 0.393045 0.117882
Si Si5 0.433107 0.255068 0.521419
Si Si6 0.501971 0.447733 0.180364
Si Si7 0.925092 0.115139 0.635613
Si Si8 0.772947 0.504844 0.063245
O O1 0.261129 0.814062 0.755555
O O2 0.000000 0.500000 0.500000
O O3 0.103860 0.806970 0.479353
O O4 0.139367 0.275721 0.466680
O O5 0.416437 0.498867 0.841808
O O6 0.244492 0.519143 0.843002
O O7 0.457151 0.046428 0.078983
O O8 0.218588 0.414896 0.182267
O O9 0.310849 0.174275 0.339551
O O10 0.451428 0.378836 0.342167
O O11 0.230950 0.841025 0.048530
O O12 0.109646 0.637228 0.275927
O O13 0.000000 0.500000 0.000000
O O14 0.000000 0.000000 0.000000
O O15 0.412287 0.297434 0.622710
O O16 0.500000 0.000000 0.500000
O O17 0.360393 0.472554 0.074292
O O18 0.083516 0.216775 0.793217
#
# Coordination Sequence:
#
# PCOD9064114 Si02
#       8
#     2   2   2   2   2   2   2   2
#     4  12  26  49  72 110 144 196 248 304 367 445
#     4  11  26  44  70 102 147 185 250 300 370 431
#     4  11  26  44  70 105 143 189 242 301 371 445
#     4  12  28  48  76 112 148 192 250 307 376 448
#     4  11  24  45  71 102 138 187 242 302 363 441
#     4  11  25  44  72 102 139 191 243 303 367 435
#     4  12  28  46  77 107 149 192 245 305 375 435
#     4  12  23  45  73 100 142 189 243 299 365 451
#
# _framework density 25.721896000000001
#
# number of rings (size 3 to 8) (size 9 to 14) (size 15 to 20)
#    0.000    0.500    5.000    2.250    7.000    1.000 
#    0.000    0.000    0.000    0.000    0.000    0.000 
#    0.000    0.000    0.000    0.000    0.000    0.000 
#
# Total GULP energy -89719.741044 kJ/mol
# GULP energy per Si atom -5607.483815 kJ/mol
# Density = 2.566335 g / cm^3
# Si number density = 25.721896 Si / 1000 Ang^3
#
#
#
# Elastic Constant Matrix: (Units=GPa)
#
#
# Indices 1 2 3 4 5 6 
#
# 1 92.4981 13.8881 40.1343 1.2669 -15.4338 -37.7020
# 2 13.8881 107.7209 41.0348 -6.9012 -13.7285 -18.0544
# 3 40.1343 41.0348 110.6108 8.6820 -25.3085 -7.3181
# 4 1.2669 -6.9012 8.6820 50.0340 -4.7848 -1.3172
# 5 -15.4338 -13.7285 -25.3085 -4.7848 52.9399 5.7276
# 6 -37.7020 -18.0544 -7.3181 -1.3172 5.7276 39.9511
#
#
#
# Elastic Compliance Matrix: (Units=1/GPa)
#
#
# Indices 1 2 3 4 5 6 
#
# 1 0.022878 0.004178 -0.008195 0.002153 0.001671 0.021808
# 2 0.004178 0.012654 -0.005610 0.002949 0.001157 0.008565
# 3 -0.008195 -0.005610 0.014649 -0.002963 0.003781 -0.008225
# 4 0.002153 0.002949 -0.002963 0.021086 0.001525 0.003298
# 5 0.001671 0.001157 0.003781 0.001525 0.021650 -0.000261
# 6 0.021808 0.008565 -0.008225 0.003298 -0.000261 0.048121
#
#
# Mechanical properties :
#
#
# Convention : Reuss Voigt Hill
#
# Bulk Modulus (GPa) = 32.33496 55.66048 43.99772
# Shear Modulus (GPa) = 29.30822 42.96983 36.13903
#
# Velocity S-wave (km/s) = 3.37920 4.09168 3.75239
# Velocity P-wave (km/s) = 5.27481 6.63391 5.99301
#
# Compressibility (1/GPa) = 0.03092628
#
# Stress axis : x y z
#
# Youngs Moduli (GPa) = 43.71072 79.02815 68.26368
#
# Poissons Ratio (x) = -0.33019 0.55941
# Poissons Ratio (y) = -0.18263 0.38298
# Poissons Ratio (z) = 0.35821 0.44338
#
# Static dielectric constant tensor:
#      x y z
#    x 2.068540 0.043010 -0.008560 
#    y 0.043010 2.041240 0.003380 
#    z -0.008560 0.003380 2.052640 
# 
# From -- ./inp_files/69038.got.cif
#   From: 2010.05.17/outbox.cif.g08.bks.cpg/sg2_35_cif.got.tgz:69038.got - 2010.06.03 11:33:40.
