data_PCOD9064372
_publ_section_title
;
Structure prediction by ZEFSAII (Michael W. Deem and Ramdas Pophale) SiO2 
 PCOD9064372
Probable space group: P -1
;
_chemical_formula_sum "Si O2"
_cell_formula_units_Z 14
_cell_length_a 8.439509
_cell_length_b 19.148897
_cell_length_c 5.075635
_cell_angle_alpha 73.951062
_cell_angle_beta 86.857586
_cell_angle_gamma 41.607218
_cell_volume 508.396854
_symmetry_space_group_name_H-M "P -1"
_symmetry_group_IT_number 2
_symmetry_cell_setting 'triclinic'
loop_
_space_group_symop_operation_xyz
x,y,z
-x,-y,-z
loop_
_atom_site_type_symbol
_atom_site_label
_atom_site_fract_x
_atom_site_fract_y
_atom_site_fract_z
Si Si1 0.548515 0.421709 0.850815
Si Si2 0.781208 0.288595 0.473512
Si Si3 0.214529 0.113919 0.931865
Si Si4 0.996746 0.431112 0.262370
Si Si5 0.688876 0.789164 0.814864
Si Si6 0.519014 0.742418 0.263680
Si Si7 0.782205 0.031011 0.627438
O O1 0.705571 0.316735 0.147337
O O2 0.500000 0.500000 0.000000
O O3 0.692942 0.380586 0.602981
O O4 0.287659 0.478306 0.738876
O O5 0.640812 0.269896 0.635320
O O6 0.068380 0.175200 0.610200
O O7 0.202257 0.195417 0.994928
O O8 0.117640 0.075116 0.124733
O O9 0.500000 0.000000 0.000000
O O10 0.079993 0.324220 0.243554
O O11 0.207183 0.365448 0.531298
O O12 0.000000 0.500000 0.000000
O O13 0.448826 0.912086 0.591720
O O14 0.568585 0.754225 0.955989
O O15 0.366311 0.863243 0.274815
O O16 0.000000 0.000000 0.500000
#
# Coordination Sequence:
#
# PCOD9064372 Si02
#       7
#     2   2   2   2   2   2   2
#     4  12  28  49  75 109 154 202 255 320 390 452
#     4  12  29  47  75 112 151 200 262 317 378 473
#     4  12  27  48  74 109 152 202 252 322 388 455
#     4  11  24  45  74 106 147 199 247 314 384 453
#     4  11  25  44  73 110 145 195 258 311 378 471
#     4  11  25  45  72 111 149 193 264 308 381 470
#     4  11  26  46  76 107 149 203 253 319 388 457
#
# _framework density 27.537541999999998
#
# number of rings (size 3 to 8) (size 9 to 14) (size 15 to 20)
#    0.000    0.571    2.857    3.429   10.000    3.429 
#    0.000    0.000    0.000    0.000    0.000    0.000 
#    0.000    0.000    0.000    0.000    0.000    0.000 
#
# Total GULP energy -78399.889170 kJ/mol
# GULP energy per Si atom -5599.992084 kJ/mol
# Density = 2.747487 g / cm^3
# Si number density = 27.537542 Si / 1000 Ang^3
#
#
#
# Elastic Constant Matrix: (Units=GPa)
#
#
# Indices 1 2 3 4 5 6 
#
# 1 108.4355 30.8927 16.2382 -10.5449 -4.1747 -8.9652
# 2 30.8927 132.9633 29.8793 -14.4839 17.9757 -22.8061
# 3 16.2382 29.8793 102.7093 -15.8483 -0.2099 -5.4987
# 4 -10.5449 -14.4839 -15.8483 47.1506 -6.9902 4.7026
# 5 -4.1747 17.9757 -0.2099 -6.9902 57.7259 -6.2046
# 6 -8.9652 -22.8061 -5.4987 4.7026 -6.2046 62.3939
#
#
#
# Elastic Compliance Matrix: (Units=1/GPa)
#
#
# Indices 1 2 3 4 5 6 
#
# 1 0.010213 -0.002155 -0.000707 0.001565 0.001668 0.000665
# 2 -0.002155 0.009418 -0.002104 0.001046 -0.002690 0.002601
# 3 -0.000707 -0.002104 0.010926 0.003021 0.001006 -0.000035
# 4 0.001565 0.001046 0.003021 0.023337 0.002557 -0.000631
# 5 0.001668 -0.002690 0.001006 0.002557 0.018704 0.001012
# 6 0.000665 0.002601 -0.000035 -0.000631 0.001012 0.017219
#
#
# Mechanical properties :
#
#
# Convention : Reuss Voigt Hill
#
# Bulk Modulus (GPa) = 48.48370 55.34760 51.91565
# Shear Modulus (GPa) = 46.89332 51.26061 49.07696
#
# Velocity S-wave (km/s) = 4.13108 4.31917 4.22617
# Velocity P-wave (km/s) = 6.35603 6.70941 6.53511
#
# Compressibility (1/GPa) = 0.02062549
#
# Stress axis : x y z
#
# Youngs Moduli (GPa) = 97.91082 106.17869 91.52158
#
# Poissons Ratio (x) = 0.22880 0.06473
# Poissons Ratio (y) = 0.21099 0.19256
# Poissons Ratio (z) = 0.06925 0.22340
#
# Static dielectric constant tensor:
#      x y z
#    x 2.158660 0.083720 -0.062430 
#    y 0.083720 2.307110 -0.020200 
#    z -0.062430 -0.020200 2.219590 
# 
# From -- ./inp_files/27664.got.cif
#   From: 2010.05.17/outbox.cif.g08.bks.cpg/sg2_14_cif.got.tgz:27664.got - 2010.06.03 11:33:40.
