data_PCOD9064531
_publ_section_title
;
Structure prediction by ZEFSAII (Michael W. Deem and Ramdas Pophale) SiO2 
 PCOD9064531
Probable space group: P -1
;
_chemical_formula_sum "Si O2"
_cell_formula_units_Z 12
_cell_length_a 13.976261
_cell_length_b 6.067320
_cell_length_c 12.415710
_cell_angle_alpha 45.431184
_cell_angle_beta 40.857747
_cell_angle_gamma 52.021092
_cell_volume 482.515808
_symmetry_space_group_name_H-M "P -1"
_symmetry_group_IT_number 2
_symmetry_cell_setting 'triclinic'
loop_
_space_group_symop_operation_xyz
x,y,z
-x,-y,-z
loop_
_atom_site_type_symbol
_atom_site_label
_atom_site_fract_x
_atom_site_fract_y
_atom_site_fract_z
Si Si1 0.375162 0.011270 0.192889
Si Si2 0.490019 0.039799 0.666220
Si Si3 0.737901 0.367811 0.276094
Si Si4 0.981310 0.105179 0.764455
Si Si5 0.120708 0.727715 0.437156
Si Si6 0.255295 0.629767 0.974686
O O1 0.278507 0.741569 0.350989
O O2 0.444069 0.004292 0.254090
O O3 0.265993 0.338167 0.146876
O O4 0.500000 0.000000 0.000000
O O5 0.625527 0.115792 0.453973
O O6 0.357783 0.344120 0.677369
O O7 0.410752 0.751713 0.804859
O O8 0.768541 0.462913 0.095521
O O9 0.893579 0.203601 0.249810
O O10 0.070489 0.393599 0.602649
O O11 0.879981 0.177971 0.720255
O O12 0.876881 0.108316 0.956065
O O13 0.000000 0.000000 0.500000
#
# Coordination Sequence:
#
# PCOD9064531 Si02
#       6
#     2   2   2   2   2   2
#     4  12  24  44  73 101 136 177 228 282 333 399
#     4  11  26  46  69 101 138 181 225 278 341 401
#     4  11  26  46  66 102 138 183 221 278 344 400
#     4  11  26  43  73 101 134 182 225 279 339 403
#     4  11  24  46  68 103 137 175 228 279 339 397
#     4  12  25  45  69 105 135 178 230 277 339 399
#
# _framework density 24.86965
#
# number of rings (size 3 to 8) (size 9 to 14) (size 15 to 20)
#    0.000    0.667    3.333    3.500    4.667    4.667 
#    0.000    0.000    0.000    0.000    0.000    0.000 
#    0.000    0.000    0.000    0.000    0.000    0.000 
#
# Total GULP energy -67288.686023 kJ/mol
# GULP energy per Si atom -5607.390502 kJ/mol
# Density = 2.481305 g / cm^3
# Si number density = 24.869650 Si / 1000 Ang^3
#
#
#
# Elastic Constant Matrix: (Units=GPa)
#
#
# Indices 1 2 3 4 5 6 
#
# 1 84.5397 -2.4401 17.8101 -6.4870 4.8285 -3.0454
# 2 -2.4401 62.8996 2.7263 10.9921 4.7459 -22.1433
# 3 17.8101 2.7263 84.3010 6.2508 0.9497 -4.4463
# 4 -6.4870 10.9921 6.2508 49.7071 5.6919 -8.0393
# 5 4.8285 4.7459 0.9497 5.6919 39.5321 -0.2491
# 6 -3.0454 -22.1433 -4.4463 -8.0393 -0.2491 36.5196
#
#
#
# Elastic Compliance Matrix: (Units=1/GPa)
#
#
# Indices 1 2 3 4 5 6 
#
# 1 0.012800 0.001004 -0.002790 0.002318 -0.001939 0.001834
# 2 0.001004 0.020782 -0.000052 -0.002236 -0.002218 0.012171
# 3 -0.002790 -0.000052 0.012632 -0.001836 0.000313 0.000872
# 4 0.002318 -0.002236 -0.001836 0.022061 -0.003125 0.003449
# 5 -0.001939 -0.002218 0.000313 -0.003125 0.026229 -0.001977
# 6 0.001834 0.012171 0.000872 0.003449 -0.001977 0.035767
#
#
# Mechanical properties :
#
#
# Convention : Reuss Voigt Hill
#
# Bulk Modulus (GPa) = 23.50734 29.77034 26.63884
# Shear Modulus (GPa) = 33.75479 39.39470 36.57474
#
# Velocity S-wave (km/s) = 3.68811 3.98433 3.83908
# Velocity P-wave (km/s) = 5.25442 5.75873 5.51235
#
# Compressibility (1/GPa) = 0.04253990
#
# Stress axis : x y z
#
# Youngs Moduli (GPa) = 78.12375 48.11758 79.16413
#
# Poissons Ratio (x) = -0.04832 0.22087
# Poissons Ratio (y) = -0.07846 0.00408
# Poissons Ratio (z) = 0.21797 0.00248
#
# Static dielectric constant tensor:
#      x y z
#    x 1.911550 -0.017750 -0.007370 
#    y -0.017750 2.019870 -0.023930 
#    z -0.007370 -0.023930 1.945540 
# 
# From -- ./inp_files/330237.got.cif
#   From: 2010.05.17/outbox.cif.g08.bks.cpg/sg2_166_cif.got.tgz:330237.got - 2010.06.03 11:33:40.
