data_PCOD9064913
_publ_section_title
;
Structure prediction by ZEFSAII (Michael W. Deem and Ramdas Pophale) SiO2 
 PCOD9064913
Probable space group: P -1
;
_chemical_formula_sum "Si O2"
_cell_formula_units_Z 10
_cell_length_a 7.375760
_cell_length_b 5.089181
_cell_length_c 16.994768
_cell_angle_alpha 97.465191
_cell_angle_beta 55.434359
_cell_angle_gamma 109.934105
_cell_volume 492.177981
_symmetry_space_group_name_H-M "P -1"
_symmetry_group_IT_number 2
_symmetry_cell_setting 'triclinic'
loop_
_space_group_symop_operation_xyz
x,y,z
-x,-y,-z
loop_
_atom_site_type_symbol
_atom_site_label
_atom_site_fract_x
_atom_site_fract_y
_atom_site_fract_z
Si Si1 0.354319 0.177750 0.999322
Si Si2 0.923633 0.743089 0.568912
Si Si3 0.295730 0.936783 0.613321
Si Si4 0.376032 0.516540 0.702397
Si Si5 0.883389 0.698745 0.085864
O O1 0.301834 0.214563 0.920233
O O2 0.914317 0.018505 0.922882
O O3 0.500000 0.500000 0.000000
O O4 0.500000 0.000000 0.000000
O O5 0.652016 0.646730 0.648391
O O6 0.000000 0.500000 0.500000
O O7 0.000000 0.000000 0.500000
O O8 0.059383 0.834546 0.619477
O O9 0.324625 0.214655 0.664837
O O10 0.500000 0.000000 0.500000
O O11 0.304394 0.704379 0.663723
O O12 0.244544 0.479943 0.815587
O O13 0.000000 0.500000 0.000000
#
# Coordination Sequence:
#
# PCOD9064913 Si02
#       5
#     2   2   2   2   2
#     4  11  24  46  75  98 144 187 236 299 361 405
#     4  12  23  43  69  97 137 181 227 287 345 409
#     4  12  24  44  71  99 140 181 232 290 348 412
#     4  12  27  43  72 103 140 186 233 281 358 410
#     4  11  27  47  74 107 148 187 243 298 347 430
#
# _framework density 20.317855000000002
#
# number of rings (size 3 to 8) (size 9 to 14) (size 15 to 20)
#    0.000    0.400    6.000    1.800    5.600    3.200 
#    0.000    0.000    0.000    0.000    0.000    0.000 
#    0.000    0.000    0.000    0.000    0.000    0.000 
#
# Total GULP energy -55823.429640 kJ/mol
# GULP energy per Si atom -5582.342964 kJ/mol
# Density = 2.027161 g / cm^3
# Si number density = 20.317855 Si / 1000 Ang^3
#
#
#
# Elastic Constant Matrix: (Units=GPa)
#
#
# Indices 1 2 3 4 5 6 
#
# 1 239.9248 104.1498 71.6658 -25.0100 25.0310 11.6272
# 2 104.1498 202.2815 77.2580 -22.4006 7.1669 -8.1761
# 3 71.6658 77.2580 174.1400 -25.2173 14.2667 -7.7627
# 4 -25.0100 -22.4006 -25.2173 36.2974 -6.7395 4.4108
# 5 25.0310 7.1669 14.2667 -6.7395 23.4160 -16.4756
# 6 11.6272 -8.1761 -7.7627 4.4108 -16.4756 57.2006
#
#
#
# Elastic Compliance Matrix: (Units=1/GPa)
#
#
# Indices 1 2 3 4 5 6 
#
# 1 0.007030 -0.003028 -0.000834 0.001294 -0.008990 -0.004664
# 2 -0.003028 0.007411 -0.002067 0.001572 0.004485 0.002565
# 3 -0.000834 -0.002067 0.007625 0.003030 -0.002226 0.000034
# 4 0.001294 0.001572 0.003030 0.032562 0.005214 -0.000636
# 5 -0.008990 0.004485 -0.002226 0.005214 0.069030 0.021647
# 6 -0.004664 0.002565 0.000034 -0.000636 0.021647 0.025086
#
#
# Mechanical properties :
#
#
# Convention : Reuss Voigt Hill
#
# Bulk Modulus (GPa) = 97.95838 124.72151 111.33995
# Shear Modulus (GPa) = 30.48665 47.60099 39.04382
#
# Velocity S-wave (km/s) = 3.87781 4.84552 4.38842
# Velocity P-wave (km/s) = 8.26847 9.63451 8.97751
#
# Compressibility (1/GPa) = 0.01020842
#
# Stress axis : x y z
#
# Youngs Moduli (GPa) = 142.24297 134.93392 131.13897
#
# Poissons Ratio (x) = 0.40857 0.10937
# Poissons Ratio (y) = 0.43070 0.27110
# Poissons Ratio (z) = 0.11863 0.27894
#
# Static dielectric constant tensor:
#      x y z
#    x 1.710940 -0.005630 -0.017590 
#    y -0.005630 1.718540 0.015820 
#    z -0.017590 0.015820 1.702380 
# 
# From -- ./inp_files/2830.got.cif
#   From: 2010.05.17/outbox.cif.g08.bks.cpg/sg2_2_cif.got.tgz:2830.got - 2010.06.03 11:33:40.
