data_PCOD9064312
_publ_section_title
;
Structure prediction by ZEFSAII (Michael W. Deem and Ramdas Pophale) SiO2 
 PCOD9064312
Probable space group: P -1
;
_chemical_formula_sum "Si O2"
_cell_formula_units_Z 16
_cell_length_a 5.454340
_cell_length_b 12.382071
_cell_length_c 12.443025
_cell_angle_alpha 58.066965
_cell_angle_beta 98.704168
_cell_angle_gamma 94.200035
_cell_volume 704.942311
_symmetry_space_group_name_H-M "P -1"
_symmetry_group_IT_number 2
_symmetry_cell_setting 'triclinic'
loop_
_space_group_symop_operation_xyz
x,y,z
-x,-y,-z
loop_
_atom_site_type_symbol
_atom_site_label
_atom_site_fract_x
_atom_site_fract_y
_atom_site_fract_z
Si Si1 0.032627 0.599724 0.354925
Si Si2 0.069848 0.875309 0.502147
Si Si3 0.589787 0.218610 0.591018
Si Si4 0.276247 0.508328 0.064849
Si Si5 0.241674 0.791797 0.995403
Si Si6 0.221087 0.186807 0.885151
Si Si7 0.215722 0.374260 0.344397
Si Si8 0.241041 0.034318 0.765983
O O1 0.220655 0.702411 0.364015
O O2 0.110871 0.509178 0.309238
O O3 0.000000 0.500000 0.500000
O O4 0.799765 0.683662 0.255387
O O5 0.977937 0.742162 0.615050
O O6 0.928453 0.899455 0.368054
O O7 0.338701 0.848240 0.483880
O O8 0.000000 0.000000 0.500000
O O9 0.399574 0.325215 0.476516
O O10 0.498000 0.102750 0.719955
O O11 0.283997 0.647632 0.042380
O O12 0.315534 0.404800 0.216622
O O13 0.500000 0.500000 0.000000
O O14 0.000000 0.500000 0.000000
O O15 0.500103 0.832443 0.046161
O O16 0.993103 0.802236 0.045245
O O17 0.223939 0.883553 0.842191
O O18 0.161464 0.073932 0.858812
#
# Coordination Sequence:
#
# PCOD9064312 Si02
#       8
#     2   2   2   2   2   2   2   2
#     4  12  22  42  77 110 150 183 241 308 385 440
#     4  11  26  45  72 101 144 192 249 300 363 438
#     4  11  24  45  73 110 144 190 241 309 378 442
#     4  12  30  50  74 107 145 200 256 299 362 434
#     4  12  28  46  77 106 150 197 241 307 368 443
#     4  12  25  46  72 115 145 190 241 301 378 445
#     4  11  26  45  74 106 144 192 243 313 365 438
#     4  11  26  45  70 107 143 193 240 303 370 445
#
# _framework density 22.696891000000001
#
# number of rings (size 3 to 8) (size 9 to 14) (size 15 to 20)
#    0.000    0.500    3.750    3.375    7.000    3.000 
#    0.000    0.000    0.000    0.000    0.000    0.000 
#    0.000    0.000    0.000    0.000    0.000    0.000 
#
# Total GULP energy -89338.019474 kJ/mol
# GULP energy per Si atom -5583.626217 kJ/mol
# Density = 2.264523 g / cm^3
# Si number density = 22.696891 Si / 1000 Ang^3
#
#
#
# Elastic Constant Matrix: (Units=GPa)
#
#
# Indices 1 2 3 4 5 6 
#
# 1 67.2114 10.2667 21.4847 5.2569 -15.1449 -8.9096
# 2 10.2667 107.3273 7.4893 -1.1196 -21.5241 -14.3880
# 3 21.4847 7.4893 130.6519 -24.3127 -31.6257 -0.0016
# 4 5.2569 -1.1196 -24.3127 40.9099 -2.0660 -0.9679
# 5 -15.1449 -21.5241 -31.6257 -2.0660 41.6526 5.0937
# 6 -8.9096 -14.3880 -0.0016 -0.9679 5.0937 29.4127
#
#
#
# Elastic Compliance Matrix: (Units=1/GPa)
#
#
# Indices 1 2 3 4 5 6 
#
# 1 0.017416 -0.000225 -0.002673 -0.003552 0.003467 0.004448
# 2 -0.000225 0.011067 0.001124 0.001407 0.006028 0.004348
# 3 -0.002673 0.001124 0.011651 0.007717 0.009030 -0.001569
# 4 -0.003552 0.001407 0.007717 0.029857 0.006848 -0.000591
# 5 0.003467 0.006028 0.009030 0.006848 0.035821 -0.001979
# 6 0.004448 0.004348 -0.001569 -0.000591 -0.001979 0.037796
#
#
# Mechanical properties :
#
#
# Convention : Reuss Voigt Hill
#
# Bulk Modulus (GPa) = 27.33342 42.63021 34.98182
# Shear Modulus (GPa) = 31.37712 40.12502 35.75107
#
# Velocity S-wave (km/s) = 3.72215 4.20916 3.97312
# Velocity P-wave (km/s) = 5.52644 6.51505 6.04100
#
# Compressibility (1/GPa) = 0.03658525
#
# Stress axis : x y z
#
# Youngs Moduli (GPa) = 57.41913 90.35941 85.83091
#
# Poissons Ratio (x) = 0.02033 0.22941
# Poissons Ratio (y) = 0.01292 -0.09645
# Poissons Ratio (z) = 0.15347 -0.10154
#
# Static dielectric constant tensor:
#      x y z
#    x 2.137720 -0.042100 -0.061760 
#    y -0.042100 1.847880 0.055610 
#    z -0.061760 0.055610 1.812630 
# 
# From -- ./inp_files/70542.got.cif
#   From: 2010.05.17/outbox.cif.g08.bks.cpg/sg2_36_cif.got.tgz:70542.got - 2010.06.03 11:33:40.
