data_PCOD9064336
_publ_section_title
;
Structure prediction by ZEFSAII (Michael W. Deem and Ramdas Pophale) SiO2 
 PCOD9064336
Probable space group: P -1
;
_chemical_formula_sum "Si O2"
_cell_formula_units_Z 16
_cell_length_a 11.987668
_cell_length_b 9.614354
_cell_length_c 9.367236
_cell_angle_alpha 135.888981
_cell_angle_beta 79.958189
_cell_angle_gamma 75.753403
_cell_volume 621.971163
_symmetry_space_group_name_H-M "P -1"
_symmetry_group_IT_number 2
_symmetry_cell_setting 'triclinic'
loop_
_space_group_symop_operation_xyz
x,y,z
-x,-y,-z
loop_
_atom_site_type_symbol
_atom_site_label
_atom_site_fract_x
_atom_site_fract_y
_atom_site_fract_z
Si Si1 0.188228 0.176727 0.675477
Si Si2 0.289429 0.102723 0.159901
Si Si3 0.790593 0.507220 0.283913
Si Si4 0.558066 0.432895 0.280553
Si Si5 0.685245 0.757126 0.060810
Si Si6 0.544924 0.254462 0.738828
Si Si7 0.938194 0.257910 0.636244
Si Si8 0.946192 0.999659 0.858412
O O1 0.252804 0.320831 0.712271
O O2 0.224109 0.155766 0.818136
O O3 0.045741 0.308394 0.722338
O O4 0.294984 0.918877 0.398737
O O5 0.238432 0.318582 0.445697
O O6 0.163865 0.071373 0.154251
O O7 0.325494 0.169375 0.048708
O O8 0.410778 0.826475 0.965815
O O9 0.700051 0.402896 0.249496
O O10 0.917177 0.258762 0.009437
O O11 0.500000 0.500000 0.500000
O O12 0.481576 0.657366 0.355714
O O13 0.545734 0.833291 0.230038
O O14 0.786198 0.472090 0.844541
O O15 0.500000 0.500000 0.000000
O O16 0.000000 0.000000 0.500000
O O17 0.954097 0.199178 0.421997
O O18 0.000000 0.000000 0.000000
#
# Coordination Sequence:
#
# PCOD9064336 Si02
#       8
#     2   2   2   2   2   2   2   2
#     4  12  25  47  75 104 149 199 246 303 368 449
#     4  11  26  46  73 109 148 192 252 308 372 438
#     4  11  24  45  74 101 148 193 246 304 377 431
#     4  11  26  47  73 106 147 196 249 306 369 439
#     4  12  27  46  75 112 146 195 249 307 372 443
#     4  12  27  47  75 105 151 194 246 306 371 437
#     4  12  27  46  75 108 152 192 250 305 374 438
#     4  11  26  46  73 103 148 195 246 308 369 440
#
# _framework density 25.724665999999999
#
# number of rings (size 3 to 8) (size 9 to 14) (size 15 to 20)
#    0.000    0.500    2.500    4.500   10.500    1.500 
#    0.000    0.000    0.000    0.000    0.000    0.000 
#    0.000    0.000    0.000    0.000    0.000    0.000 
#
# Total GULP energy -89139.432527 kJ/mol
# GULP energy per Si atom -5571.214533 kJ/mol
# Density = 2.566612 g / cm^3
# Si number density = 25.724666 Si / 1000 Ang^3
#
#
#
# Elastic Constant Matrix: (Units=GPa)
#
#
# Indices 1 2 3 4 5 6 
#
# 1 64.1068 10.7240 30.5223 3.1288 16.1249 -1.4027
# 2 10.7240 98.6487 38.5463 -1.4796 1.0365 6.1271
# 3 30.5223 38.5463 104.9760 -6.6888 17.4626 2.0008
# 4 3.1288 -1.4796 -6.6888 57.5688 -4.8756 4.9607
# 5 16.1249 1.0365 17.4626 -4.8756 43.0115 1.8086
# 6 -1.4027 6.1271 2.0008 4.9607 1.8086 26.8651
#
#
#
# Elastic Compliance Matrix: (Units=1/GPa)
#
#
# Indices 1 2 3 4 5 6 
#
# 1 0.019543 -0.000371 -0.004783 -0.002309 -0.005733 0.002274
# 2 -0.000371 0.012114 -0.004585 0.000178 0.001838 -0.002597
# 3 -0.004783 -0.004585 0.013244 0.001421 -0.003303 -0.000230
# 4 -0.002309 0.000178 0.001421 0.018205 0.002508 -0.003798
# 5 -0.005733 0.001838 -0.003303 0.002508 0.027096 -0.002760
# 6 0.002274 -0.002597 -0.000230 -0.003798 -0.002760 0.038838
#
#
# Mechanical properties :
#
#
# Convention : Reuss Voigt Hill
#
# Bulk Modulus (GPa) = 39.33433 47.47964 43.40699
# Shear Modulus (GPa) = 31.84871 38.01833 34.93352
#
# Velocity S-wave (km/s) = 3.52243 3.84851 3.68907
# Velocity P-wave (km/s) = 5.64509 6.18425 5.92081
#
# Compressibility (1/GPa) = 0.02542308
#
# Stress axis : x y z
#
# Youngs Moduli (GPa) = 51.17016 82.55203 75.50316
#
# Poissons Ratio (x) = 0.03065 0.36110
# Poissons Ratio (y) = 0.01900 0.34618
# Poissons Ratio (z) = 0.24472 0.37850
#
# Static dielectric constant tensor:
#      x y z
#    x 2.037120 0.200070 0.126380 
#    y 0.200070 1.464770 -0.090040 
#    z 0.126380 -0.090040 2.066160 
# 
# From -- ./inp_files/299625.got.cif
#   From: 2010.05.17/outbox.cif.g08.bks.cpg/sg2_150_cif.got.tgz:299625.got - 2010.06.03 11:33:40.
