data_PCOD9064324
_publ_section_title
;
Structure prediction by ZEFSAII (Michael W. Deem and Ramdas Pophale) SiO2 
 PCOD9064324
Probable space group: P -1
;
_chemical_formula_sum "Si O2"
_cell_formula_units_Z 16
_cell_length_a 18.102098
_cell_length_b 15.602686
_cell_length_c 12.150401
_cell_angle_alpha 127.986258
_cell_angle_beta 30.065187
_cell_angle_gamma 148.334219
_cell_volume 801.110585
_symmetry_space_group_name_H-M "P -1"
_symmetry_group_IT_number 2
_symmetry_cell_setting 'triclinic'
loop_
_space_group_symop_operation_xyz
x,y,z
-x,-y,-z
loop_
_atom_site_type_symbol
_atom_site_label
_atom_site_fract_x
_atom_site_fract_y
_atom_site_fract_z
Si Si1 0.952749 0.299865 0.419778
Si Si2 0.406826 0.046872 0.230321
Si Si3 0.778517 0.362426 0.508576
Si Si4 0.203103 0.266558 0.937538
Si Si5 0.888516 0.475364 0.010456
Si Si6 0.211495 0.077703 0.952081
Si Si7 0.915098 0.948412 0.445392
Si Si8 0.672794 0.571693 0.432862
O O1 0.807839 0.289554 0.509966
O O2 0.101868 0.460219 0.444814
O O3 0.763840 0.106423 0.574165
O O4 0.145575 0.344770 0.134349
O O5 0.251872 0.045162 0.360778
O O6 0.639666 0.255698 0.138760
O O7 0.500000 0.000000 0.000000
O O8 0.493837 0.204835 0.708081
O O9 0.944520 0.436850 0.245043
O O10 0.190392 0.164920 0.964057
O O11 0.482124 0.423578 0.656289
O O12 0.993208 0.125422 0.000544
O O13 0.837466 0.570850 0.177826
O O14 0.000000 0.500000 0.000000
O O15 0.120293 0.065291 0.177906
O O16 0.796953 0.758937 0.445143
O O17 0.000000 0.000000 0.500000
O O18 0.500000 0.500000 0.500000
#
# Coordination Sequence:
#
# PCOD9064324 Si02
#       8
#     2   2   2   2   2   2   2   2
#     4  11  26  46  70 100 143 186 230 289 358 417
#     4  12  26  49  71 102 145 187 237 293 354 420
#     4  11  27  45  68 106 141 186 233 289 352 423
#     4  11  24  45  73  98 136 184 229 290 349 413
#     4  12  27  46  73 106 145 188 239 290 354 419
#     4  11  25  45  68 104 138 178 237 284 352 416
#     4  12  29  46  73 106 141 187 239 293 354 422
#     4  12  24  47  73 100 142 188 237 292 345 417
#
# _framework density 19.972273000000001
#
# number of rings (size 3 to 8) (size 9 to 14) (size 15 to 20)
#    0.000    0.500    5.000    1.500    8.750    2.000 
#    0.000    0.000    0.000    0.000    0.000    0.000 
#    0.000    0.000    0.000    0.000    0.000    0.000 
#
# Total GULP energy -89310.512524 kJ/mol
# GULP energy per Si atom -5581.907033 kJ/mol
# Density = 1.992682 g / cm^3
# Si number density = 19.972273 Si / 1000 Ang^3
#
#
#
# Elastic Constant Matrix: (Units=GPa)
#
#
# Indices 1 2 3 4 5 6 
#
# 1 179.1427 94.7125 73.8275 -1.8018 -0.7130 26.1795
# 2 94.7125 170.5686 69.5063 2.3799 -4.6915 25.3871
# 3 73.8275 69.5063 137.5532 14.8527 6.2984 18.3983
# 4 -1.8018 2.3799 14.8527 44.1607 -3.7342 -6.4165
# 5 -0.7130 -4.6915 6.2984 -3.7342 41.9947 2.1126
# 6 26.1795 25.3871 18.3983 -6.4165 2.1126 40.2331
#
#
#
# Elastic Compliance Matrix: (Units=1/GPa)
#
#
# Indices 1 2 3 4 5 6 
#
# 1 0.008942 -0.003466 -0.002920 0.001262 0.000421 -0.002117
# 2 -0.003466 0.009233 -0.002537 -0.000023 0.001476 -0.002492
# 3 -0.002920 -0.002537 0.010944 -0.004150 -0.002240 -0.002048
# 4 0.001262 -0.000023 -0.004150 0.025033 0.002618 0.004946
# 5 0.000421 0.001476 -0.002240 0.002618 0.024607 -0.001056
# 6 -0.002117 -0.002492 -0.002048 0.004946 -0.001056 0.029585
#
#
# Mechanical properties :
#
#
# Convention : Reuss Voigt Hill
#
# Bulk Modulus (GPa) = 88.71590 107.03966 97.87778
# Shear Modulus (GPa) = 38.47693 41.89225 40.18459
#
# Velocity S-wave (km/s) = 4.39397 4.58484 4.49042
# Velocity P-wave (km/s) = 8.38204 9.04091 8.71770
#
# Compressibility (1/GPa) = 0.01127194
#
# Stress axis : x y z
#
# Youngs Moduli (GPa) = 111.83325 108.30677 91.37586
#
# Poissons Ratio (x) = 0.37541 0.26684
# Poissons Ratio (y) = 0.38764 0.23182
# Poissons Ratio (z) = 0.32658 0.27477
#
# Static dielectric constant tensor:
#      x y z
#    x 1.587290 0.042770 -0.085600 
#    y 0.042770 1.666400 0.019790 
#    z -0.085600 0.019790 1.631170 
# 
# From -- ./inp_files/218331.got.cif
#   From: 2010.05.17/outbox.cif.g08.bks.cpg/sg2_110_cif.got.tgz:218331.got - 2010.06.03 11:33:40.
