data_PCOD9064130
_publ_section_title
;
Structure prediction by ZEFSAII (Michael W. Deem and Ramdas Pophale) SiO2 
 PCOD9064130
Probable space group: P -1
;
_chemical_formula_sum "Si O2"
_cell_formula_units_Z 15
_cell_length_a 16.302828
_cell_length_b 7.595815
_cell_length_c 11.284374
_cell_angle_alpha 90.730523
_cell_angle_beta 40.443023
_cell_angle_gamma 120.132156
_cell_volume 590.184424
_symmetry_space_group_name_H-M "P -1"
_symmetry_group_IT_number 2
_symmetry_cell_setting 'triclinic'
loop_
_space_group_symop_operation_xyz
x,y,z
-x,-y,-z
loop_
_atom_site_type_symbol
_atom_site_label
_atom_site_fract_x
_atom_site_fract_y
_atom_site_fract_z
Si Si1 0.622794 0.121260 0.714407
Si Si2 0.616682 0.492908 0.787659
Si Si3 0.000000 0.000000 0.500000
Si Si4 0.799148 0.891173 0.217472
Si Si5 0.908861 0.221275 0.556978
Si Si6 0.245942 0.534833 0.028463
Si Si7 0.073902 0.640767 0.792634
Si Si8 0.434803 0.374172 0.734732
O O1 0.609179 0.274596 0.816056
O O2 0.772146 0.319885 0.443712
O O3 0.740752 0.091263 0.651119
O O4 0.415381 0.837277 0.894676
O O5 0.835600 0.786375 0.570711
O O6 0.523494 0.404897 0.759949
O O7 0.500000 0.500000 0.000000
O O8 0.137486 0.972821 0.298880
O O9 0.626793 0.581484 0.443607
O O10 0.733175 0.895308 0.161383
O O11 0.811391 0.058619 0.300984
O O12 0.000000 0.000000 0.000000
O O13 0.000000 0.500000 0.500000
O O14 0.096747 0.309603 0.295587
O O15 0.344622 0.472858 0.858791
O O16 0.104126 0.494283 0.098353
O O17 0.000000 0.500000 0.000000
#
# Coordination Sequence:
#
# PCOD9064130 Si02
#       8
#     2   2   1   2   2   2   2   2
#     4  11  26  48  70 104 148 188 240 306 367 438
#     4  12  29  45  73 110 142 196 248 305 368 447
#     4  12  26  48  72 102 146 188 250 298 364 434
#     4  11  24  45  71 104 144 189 238 304 368 434
#     4  11  25  47  72 102 141 192 240 300 366 429
#     4  11  24  46  70  99 145 187 234 297 364 432
#     4  11  26  44  71 106 139 189 235 296 374 437
#     4  11  25  45  72 104 142 191 246 297 365 442
#
# _framework density 25.415785
#
# number of rings (size 3 to 8) (size 9 to 14) (size 15 to 20)
#    0.000    0.800    4.000    1.600    7.467    2.133 
#    0.000    0.000    0.000    0.000    0.000    0.000 
#    0.000    0.000    0.000    0.000    0.000    0.000 
#
# Total GULP energy -83783.361329 kJ/mol
# GULP energy per Si atom -5585.557422 kJ/mol
# Density = 2.535794 g / cm^3
# Si number density = 25.415785 Si / 1000 Ang^3
#
#
#
# Elastic Constant Matrix: (Units=GPa)
#
#
# Indices 1 2 3 4 5 6 
#
# 1 161.5444 46.7917 50.5976 -11.3612 -30.0675 36.0896
# 2 46.7917 149.2480 33.0663 -10.0379 -37.6462 10.0687
# 3 50.5976 33.0663 152.1062 -2.1274 -25.0980 16.7142
# 4 -11.3612 -10.0379 -2.1274 50.8661 11.5351 -16.0351
# 5 -30.0675 -37.6462 -25.0980 11.5351 38.3573 -5.6568
# 6 36.0896 10.0687 16.7142 -16.0351 -5.6568 55.3708
#
#
#
# Elastic Compliance Matrix: (Units=1/GPa)
#
#
# Indices 1 2 3 4 5 6 
#
# 1 0.008813 -0.001041 -0.001438 -0.000862 0.004480 -0.004913
# 2 -0.001041 0.009097 -0.000301 -0.000311 0.007986 -0.000159
# 3 -0.001438 -0.000301 0.007905 -0.001387 0.003962 -0.001391
# 4 -0.000862 -0.000311 -0.001387 0.023337 -0.007876 0.006991
# 5 0.004480 0.007986 0.003962 -0.007876 0.041855 -0.003573
# 6 -0.004913 -0.000159 -0.001391 0.006991 -0.003573 0.023370
#
#
# Mechanical properties :
#
#
# Convention : Reuss Voigt Hill
#
# Bulk Modulus (GPa) = 49.36675 80.42332 64.89503
# Shear Modulus (GPa) = 39.46645 51.08170 45.27408
#
# Velocity S-wave (km/s) = 3.94487 4.48799 4.22517
# Velocity P-wave (km/s) = 6.34155 7.65296 7.02791
#
# Compressibility (1/GPa) = 0.02025655
#
# Stress axis : x y z
#
# Youngs Moduli (GPa) = 113.46877 109.92098 126.49630
#
# Poissons Ratio (x) = 0.11440 0.18194
# Poissons Ratio (y) = 0.11809 0.03802
# Poissons Ratio (z) = 0.16320 0.03304
#
# Static dielectric constant tensor:
#      x y z
#    x 1.347330 0.526760 -0.328810 
#    y 0.526760 1.599010 0.353920 
#    z -0.328810 0.353920 1.835940 
# 
# From -- ./inp_files/462198.got.cif
#   From: 2010.05.17/outbox.cif.g08.bks.cpg/sg2_232_cif.got.tgz:462198.got - 2010.06.03 11:33:40.
