data_PCOD9064644
_publ_section_title
;
Structure prediction by ZEFSAII (Michael W. Deem and Ramdas Pophale) SiO2 
 PCOD9064644
Probable space group: P -1
;
_chemical_formula_sum "Si O2"
_cell_formula_units_Z 14
_cell_length_a 11.654418
_cell_length_b 23.879226
_cell_length_c 15.918945
_cell_angle_alpha 15.942986
_cell_angle_beta 153.783857
_cell_angle_gamma 150.856936
_cell_volume 535.448333
_symmetry_space_group_name_H-M "P -1"
_symmetry_group_IT_number 2
_symmetry_cell_setting 'triclinic'
loop_
_space_group_symop_operation_xyz
x,y,z
-x,-y,-z
loop_
_atom_site_type_symbol
_atom_site_label
_atom_site_fract_x
_atom_site_fract_y
_atom_site_fract_z
Si Si1 0.481807 0.874579 0.047195
Si Si2 0.019193 0.344226 0.868157
Si Si3 0.315569 0.957810 0.359669
Si Si4 0.797747 0.486120 0.102948
Si Si5 0.635672 0.682837 0.254010
Si Si6 0.101937 0.803673 0.180002
Si Si7 0.264562 0.413344 0.272347
O O1 0.217277 0.797466 0.034704
O O2 0.491645 0.735615 0.169524
O O3 0.704122 0.810027 0.350716
O O4 0.597152 0.104631 0.767100
O O5 0.025271 0.243482 0.926690
O O6 0.227516 0.367102 0.046946
O O7 0.032260 0.591046 0.493023
O O8 0.358060 0.733667 0.679296
O O9 0.500000 0.000000 0.500000
O O10 0.343638 0.103588 0.088811
O O11 0.035973 0.011568 0.134181
O O12 0.095730 0.414958 0.405415
O O13 0.727404 0.572398 0.842397
O O14 0.483519 0.547377 0.276408
O O15 0.000000 0.500000 0.000000
#
# Coordination Sequence:
#
# PCOD9064644 Si02
#       7
#     2   2   2   2   2   2   2
#     4  12  23  42  72 103 139 183 239 284 352 417
#     4  11  25  45  73  98 142 192 231 281 356 426
#     4  12  23  42  72 106 142 176 236 301 347 411
#     4  12  22  42  67 102 139 183 230 289 348 414
#     4  12  22  40  69 103 138 183 230 291 356 406
#     4  11  24  46  71 101 141 189 234 286 351 422
#     4  12  22  35  61 105 141 172 225 297 345 404
#
# _framework density 26.146314
#
# number of rings (size 3 to 8) (size 9 to 14) (size 15 to 20)
#    0.000    0.286    7.143    3.000    0.000    0.000 
#    0.000    1.429    3.143    0.000    0.000    0.000 
#    0.000    0.000    0.000    0.000    0.000    0.000 
#
# Total GULP energy -78182.895652 kJ/mol
# GULP energy per Si atom -5584.492547 kJ/mol
# Density = 2.608680 g / cm^3
# Si number density = 26.146314 Si / 1000 Ang^3
#
#
#
# Elastic Constant Matrix: (Units=GPa)
#
#
# Indices 1 2 3 4 5 6 
#
# 1 154.7522 57.0316 58.5471 -1.2774 -48.8151 -23.5427
# 2 57.0316 159.7920 53.0185 2.5429 -20.0353 -21.2772
# 3 58.5471 53.0185 106.1556 17.6291 -35.9850 0.6931
# 4 -1.2774 2.5429 17.6291 39.0361 -10.0487 -14.7036
# 5 -48.8151 -20.0353 -35.9850 -10.0487 46.9052 2.9258
# 6 -23.5427 -21.2772 0.6931 -14.7036 2.9258 61.7727
#
#
#
# Elastic Compliance Matrix: (Units=1/GPa)
#
#
# Indices 1 2 3 4 5 6 
#
# 1 0.012803 -0.001232 -0.003979 0.007265 0.010945 0.005710
# 2 -0.001232 0.008343 -0.004064 0.002246 -0.000543 0.003010
# 3 -0.003979 -0.004064 0.016961 -0.008040 0.005743 -0.005293
# 4 0.007265 0.002246 -0.008040 0.036198 0.009370 0.011805
# 5 0.010945 -0.000543 0.005743 0.009370 0.038622 0.004321
# 6 0.005710 0.003010 -0.005293 0.011805 0.004321 0.022066
#
#
# Mechanical properties :
#
#
# Convention : Reuss Voigt Hill
#
# Bulk Modulus (GPa) = 51.13434 84.21047 67.67240
# Shear Modulus (GPa) = 31.23781 46.34965 38.79373
#
# Velocity S-wave (km/s) = 3.46024 4.21492 3.85608
# Velocity P-wave (km/s) = 5.96354 7.48095 6.76493
#
# Compressibility (1/GPa) = 0.01955633
#
# Stress axis : x y z
#
# Youngs Moduli (GPa) = 78.10921 119.85624 58.95874
#
# Poissons Ratio (x) = 0.14767 0.23460
# Poissons Ratio (y) = 0.09624 0.23962
# Poissons Ratio (z) = 0.31080 0.48711
#
# Static dielectric constant tensor:
#      x y z
#    x 2.097600 0.086660 0.063450 
#    y 0.086660 2.133430 -0.015060 
#    z 0.063450 -0.015060 1.948050 
# 
# From -- ./inp_files/524367.got.cif
#   From: 2010.05.17/outbox.cif.g08.bks.cpg/sg2_263_cif.got.tgz:524367.got - 2010.06.03 11:33:40.
