data_PCOD9064688
_publ_section_title
;
Structure prediction by ZEFSAII (Michael W. Deem and Ramdas Pophale) SiO2 
 PCOD9064688
Probable space group: P -1
;
_chemical_formula_sum "Si O2"
_cell_formula_units_Z 11
_cell_length_a 16.161499
_cell_length_b 16.353482
_cell_length_c 10.668074
_cell_angle_alpha 153.507285
_cell_angle_beta 139.204213
_cell_angle_gamma 24.940976
_cell_volume 507.639460
_symmetry_space_group_name_H-M "P -1"
_symmetry_group_IT_number 2
_symmetry_cell_setting 'triclinic'
loop_
_space_group_symop_operation_xyz
x,y,z
-x,-y,-z
loop_
_atom_site_type_symbol
_atom_site_label
_atom_site_fract_x
_atom_site_fract_y
_atom_site_fract_z
Si Si1 0.624750 0.673256 0.060440
Si Si2 0.169826 0.235296 0.735147
Si Si3 0.886542 0.304474 0.341913
Si Si4 0.500000 0.500000 0.500000
Si Si5 0.784657 0.640639 0.445577
Si Si6 0.513651 0.204040 0.307869
O O1 0.724460 0.712053 0.137159
O O2 0.754126 0.539471 0.154008
O O3 0.396156 0.004932 0.284521
O O4 0.609233 0.496024 0.733245
O O5 0.055446 0.243182 0.512876
O O6 0.333177 0.937112 0.595510
O O7 0.000000 0.500000 0.000000
O O8 0.773966 0.539842 0.423656
O O9 0.711754 0.459802 0.457371
O O10 0.000000 0.000000 0.000000
O O11 0.576095 0.221701 0.273082
O O12 0.000000 0.500000 0.500000
O O13 0.500000 0.000000 0.000000
#
# Coordination Sequence:
#
# PCOD9064688 Si02
#       6
#     2   2   2   1   2   2
#     4  11  25  45  71 106 137 190 237 296 356 425
#     4  12  24  47  74  99 142 197 235 290 371 422
#     4  12  27  44  71 109 142 185 242 297 358 429
#     4  12  26  44  76 104 138 188 246 288 356 422
#     4  11  24  46  71  98 145 188 231 291 369 422
#     4  12  25  50  72 102 148 188 235 302 354 426
#
# _framework density 21.668921000000001
#
# number of rings (size 3 to 8) (size 9 to 14) (size 15 to 20)
#    0.000    0.364    7.273    0.000    5.091    0.727 
#    0.000    2.727    0.000    0.000    0.000    0.000 
#    0.000    0.000    0.000    0.000    0.000    0.000 
#
# Total GULP energy -61308.978146 kJ/mol
# GULP energy per Si atom -5573.543468 kJ/mol
# Density = 2.161960 g / cm^3
# Si number density = 21.668921 Si / 1000 Ang^3
#
#
#
# Elastic Constant Matrix: (Units=GPa)
#
#
# Indices 1 2 3 4 5 6 
#
# 1 33.2790 20.3503 1.3212 -10.7760 -2.1803 8.7357
# 2 20.3503 128.0901 44.2299 -32.8007 -4.1305 7.9256
# 3 1.3212 44.2299 133.8406 -35.0386 -6.4934 -4.3345
# 4 -10.7760 -32.8007 -35.0386 46.5728 5.4592 -10.3741
# 5 -2.1803 -4.1305 -6.4934 5.4592 29.1659 9.5216
# 6 8.7357 7.9256 -4.3345 -10.3741 9.5216 53.1492
#
#
#
# Elastic Compliance Matrix: (Units=1/GPa)
#
#
# Indices 1 2 3 4 5 6 
#
# 1 0.036100 -0.004862 0.002731 0.005646 0.003005 -0.004422
# 2 -0.004862 0.010530 -0.002228 0.004641 -0.000235 -0.000005
# 3 0.002731 -0.002228 0.010119 0.007123 0.000131 0.002076
# 4 0.005646 0.004641 0.007123 0.033535 -0.005746 0.006536
# 5 0.003005 -0.000235 0.000131 -0.005746 0.038337 -0.008438
# 6 -0.004422 -0.000005 0.002076 0.006536 -0.008438 0.022499
#
#
# Mechanical properties :
#
#
# Convention : Reuss Voigt Hill
#
# Bulk Modulus (GPa) = 20.82031 47.44583 34.13307
# Shear Modulus (GPa) = 28.43357 41.06482 34.74920
#
# Velocity S-wave (km/s) = 3.62634 4.35800 4.00889
# Velocity P-wave (km/s) = 5.21181 6.87504 6.10038
#
# Compressibility (1/GPa) = 0.04803003
#
# Stress axis : x y z
#
# Youngs Moduli (GPa) = 27.70120 94.96535 98.82190
#
# Poissons Ratio (x) = 0.46173 -0.26988
# Poissons Ratio (y) = 0.13468 0.22021
# Poissons Ratio (z) = -0.07565 0.21162
#
# Static dielectric constant tensor:
#      x y z
#    x 2.006600 0.033520 -0.064510 
#    y 0.033520 1.821710 -0.029260 
#    z -0.064510 -0.029260 1.764750 
# 
# From -- ./inp_files/32427.got.cif
#   From: 2010.05.17/outbox.cif.g08.bks.cpg/sg2_17_cif.got.tgz:32427.got - 2010.06.03 11:33:40.
