data_PCOD9064947
_publ_section_title
;
Structure prediction by ZEFSAII (Michael W. Deem and Ramdas Pophale) SiO2 
 PCOD9064947
Probable space group: P -1
;
_chemical_formula_sum "Si O2"
_cell_formula_units_Z 16
_cell_length_a 23.305512
_cell_length_b 12.051080
_cell_length_c 9.491270
_cell_angle_alpha 141.288516
_cell_angle_beta 133.549965
_cell_angle_gamma 24.488947
_cell_volume 688.751860
_symmetry_space_group_name_H-M "P -1"
_symmetry_group_IT_number 2
_symmetry_cell_setting 'triclinic'
loop_
_space_group_symop_operation_xyz
x,y,z
-x,-y,-z
loop_
_atom_site_type_symbol
_atom_site_label
_atom_site_fract_x
_atom_site_fract_y
_atom_site_fract_z
Si Si1 0.753327 0.896599 0.274493
Si Si2 0.588079 0.012085 0.672492
Si Si3 0.689456 0.435688 0.731876
Si Si4 0.889454 0.500593 0.680788
Si Si5 0.991225 0.000210 0.817023
Si Si6 0.480014 0.351037 0.098147
Si Si7 0.963666 0.745504 0.025002
Si Si8 0.414546 0.880322 0.545324
O O1 0.735198 0.144045 0.499322
O O2 0.629591 0.045824 0.118645
O O3 0.723634 0.854856 0.331663
O O4 0.898487 0.587110 0.144164
O O5 0.742984 0.692792 0.673136
O O6 0.500000 0.000000 0.500000
O O7 0.606081 0.040886 0.572560
O O8 0.501157 0.292395 0.910652
O O9 0.634270 0.553936 0.917459
O O10 0.552101 0.719218 0.684767
O O11 0.826053 0.298069 0.796500
O O12 0.999765 0.277906 0.774155
O O13 0.943327 0.298081 0.434661
O O14 0.863752 0.758896 0.869587
O O15 0.067197 0.023339 0.888647
O O16 0.000000 0.000000 0.000000
O O17 0.447849 0.610824 0.341665
#
# Coordination Sequence:
#
# PCOD9064947 Si02
#       8
#     2   2   2   2   2   2   2   2
#     4   9  17  40  68  97 127 174 224 271 335 395
#     4  12  26  40  61  96 139 169 216 280 331 396
#     4   9  20  41  68  96 134 165 226 278 325 413
#     4  11  27  50  66 103 140 180 237 272 340 416
#     4  12  28  44  70 105 136 176 229 291 343 400
#     4   9  19  40  64  95 131 171 220 266 332 399
#     4  11  24  46  76  94 136 194 221 283 339 407
#     4   9  21  37  69  96 127 179 214 275 331 395
#
# _framework density 23.230428
#
# number of rings (size 3 to 8) (size 9 to 14) (size 15 to 20)
#    0.000    1.750    2.500    2.250    5.250    2.500 
#    2.250    2.500    0.000    0.000    0.000    0.000 
#    0.000    0.000    0.000    0.000    0.000    0.000 
#
# Total GULP energy -89415.391280 kJ/mol
# GULP energy per Si atom -5588.461955 kJ/mol
# Density = 2.317755 g / cm^3
# Si number density = 23.230428 Si / 1000 Ang^3
#
#
#
# Elastic Constant Matrix: (Units=GPa)
#
#
# Indices 1 2 3 4 5 6 
#
# 1 76.2297 1.9213 37.0384 -20.0386 -7.0709 2.4781
# 2 1.9213 31.9530 17.4587 -3.5184 3.5392 -11.5777
# 3 37.0384 17.4587 110.1577 -9.0747 -18.5982 0.8673
# 4 -20.0386 -3.5184 -9.0747 22.4991 -4.0097 -5.2759
# 5 -7.0709 3.5392 -18.5982 -4.0097 46.9313 -4.6751
# 6 2.4781 -11.5777 0.8673 -5.2759 -4.6751 39.0916
#
#
#
# Elastic Compliance Matrix: (Units=1/GPa)
#
#
# Indices 1 2 3 4 5 6 
#
# 1 0.020657 0.004732 -0.005869 0.017850 0.002243 0.002900
# 2 0.004732 0.041658 -0.008063 0.009942 -0.003465 0.013144
# 3 -0.005869 -0.008063 0.013059 -0.000830 0.004642 -0.001862
# 4 0.017850 0.009942 -0.000830 0.065809 0.008400 0.011718
# 5 0.002243 -0.003465 0.004642 0.008400 0.024746 0.002822
# 6 0.002900 0.013144 -0.001862 0.011718 0.002822 0.031250
#
#
# Mechanical properties :
#
#
# Convention : Reuss Voigt Hill
#
# Bulk Modulus (GPa) = 17.55160 36.79745 27.17453
# Shear Modulus (GPa) = 21.31564 32.49923 26.90744
#
# Velocity S-wave (km/s) = 3.03243 3.74437 3.40705
# Velocity P-wave (km/s) = 4.45339 5.87948 5.21541
#
# Compressibility (1/GPa) = 0.05697485
#
# Stress axis : x y z
#
# Youngs Moduli (GPa) = 48.41029 24.00501 76.57437
#
# Poissons Ratio (x) = -0.11360 0.44942
# Poissons Ratio (y) = -0.22910 0.61742
# Poissons Ratio (z) = 0.28412 0.19355
#
# Static dielectric constant tensor:
#      x y z
#    x 1.860800 -0.006750 0.101670 
#    y -0.006750 1.879090 0.003770 
#    z 0.101670 0.003770 1.859360 
# 
# From -- ./inp_files/283055.got.cif
#   From: 2010.05.17/outbox.cif.g08.bks.cpg/sg2_142_cif.got.tgz:283055.got - 2010.06.03 11:33:40.
