data_PCOD9064834
_publ_section_title
;
Structure prediction by ZEFSAII (Michael W. Deem and Ramdas Pophale) SiO2 
 PCOD9064834
Probable space group: P -1
;
_chemical_formula_sum "Si O2"
_cell_formula_units_Z 16
_cell_length_a 8.721134
_cell_length_b 18.891519
_cell_length_c 12.005993
_cell_angle_alpha 39.978693
_cell_angle_beta 52.770294
_cell_angle_gamma 84.656166
_cell_volume 697.809431
_symmetry_space_group_name_H-M "P -1"
_symmetry_group_IT_number 2
_symmetry_cell_setting 'triclinic'
loop_
_space_group_symop_operation_xyz
x,y,z
-x,-y,-z
loop_
_atom_site_type_symbol
_atom_site_label
_atom_site_fract_x
_atom_site_fract_y
_atom_site_fract_z
Si Si1 0.375030 0.484559 0.457781
Si Si2 0.388559 0.891681 0.071200
Si Si3 0.294828 0.068273 0.758357
Si Si4 0.320933 0.036496 0.527408
Si Si5 0.179972 0.633561 0.162073
Si Si6 0.953783 0.549630 0.772821
Si Si7 0.221867 0.144692 0.144073
Si Si8 0.364991 0.594694 0.694159
O O1 0.500000 0.500000 0.500000
O O2 0.424799 0.410236 0.435430
O O3 0.047879 0.367041 0.760588
O O4 0.563541 0.672775 0.125426
O O5 0.113573 0.716517 0.445547
O O6 0.596351 0.879738 0.957678
O O7 0.500000 0.000000 0.000000
O O8 0.333187 0.960261 0.918278
O O9 0.327179 0.085586 0.590844
O O10 0.512457 0.238410 0.519645
O O11 0.000000 0.000000 0.000000
O O12 0.500000 0.000000 0.500000
O O13 0.513082 0.189067 0.174713
O O14 0.999526 0.896419 0.798745
O O15 0.000000 0.500000 0.500000
O O16 0.201153 0.567921 0.121814
O O17 0.162266 0.544029 0.741933
O O18 0.784399 0.514578 0.998604
O O19 0.000000 0.000000 0.500000
#
# Coordination Sequence:
#
# PCOD9064834 Si02
#       8
#     2   2   2   2   2   2   2   2
#     4  12  25  46  79 102 144 195 254 296 360 454
#     4  12  25  46  74 103 146 194 246 307 368 451
#     4  12  28  48  74 110 151 195 246 318 386 443
#     4  12  28  46  73 110 154 193 245 312 385 439
#     4  12  26  47  69 107 149 191 240 313 370 433
#     4  11  24  46  74 105 147 193 255 304 367 448
#     4  12  27  47  73 110 144 195 251 299 370 453
#     4  11  25  48  75 109 144 198 254 305 371 449
#
# _framework density 22.928896000000002
#
# number of rings (size 3 to 8) (size 9 to 14) (size 15 to 20)
#    0.000    0.250    5.000    3.000    7.000    0.000 
#    2.250    1.250    0.000    0.000    0.000    0.000 
#    0.000    0.000    0.000    0.000    0.000    0.000 
#
# Total GULP energy -89448.424552 kJ/mol
# GULP energy per Si atom -5590.526535 kJ/mol
# Density = 2.287671 g / cm^3
# Si number density = 22.928896 Si / 1000 Ang^3
#
#
#
# Elastic Constant Matrix: (Units=GPa)
#
#
# Indices 1 2 3 4 5 6 
#
# 1 80.5152 6.9392 29.7178 1.4972 9.0903 -8.7500
# 2 6.9392 101.2431 20.5862 6.8351 3.8342 -12.6067
# 3 29.7178 20.5862 134.4216 -1.9547 16.1412 -7.1500
# 4 1.4972 6.8351 -1.9547 31.7064 3.7814 -0.3487
# 5 9.0903 3.8342 16.1412 3.7814 44.7154 0.8411
# 6 -8.7500 -12.6067 -7.1500 -0.3487 0.8411 34.8011
#
#
#
# Elastic Compliance Matrix: (Units=1/GPa)
#
#
# Indices 1 2 3 4 5 6 
#
# 1 0.013969 0.000083 -0.002724 -0.000589 -0.001871 0.003022
# 2 0.000083 0.010791 -0.001480 -0.002349 -0.000277 0.003609
# 3 -0.002724 -0.001480 0.008627 0.001291 -0.002554 0.000626
# 4 -0.000589 -0.002349 0.001291 0.032494 -0.002886 -0.000338
# 5 -0.001871 -0.000277 -0.002554 -0.002886 0.023966 -0.001704
# 6 0.003022 0.003609 0.000626 -0.000338 -0.001704 0.030968
#
#
# Mechanical properties :
#
#
# Convention : Reuss Voigt Hill
#
# Bulk Modulus (GPa) = 39.76880 47.85182 43.81031
# Shear Modulus (GPa) = 36.38007 39.50702 37.94354
#
# Velocity S-wave (km/s) = 3.98760 4.15543 4.07238
# Velocity P-wave (km/s) = 6.21154 6.62861 6.42346
#
# Compressibility (1/GPa) = 0.02514534
#
# Stress axis : x y z
#
# Youngs Moduli (GPa) = 71.58770 92.67087 115.91521
#
# Poissons Ratio (x) = -0.00773 0.31578
# Poissons Ratio (y) = -0.00597 0.17154
# Poissons Ratio (z) = 0.19502 0.13714
#
# Static dielectric constant tensor:
#      x y z
#    x 1.984410 0.025660 0.014580 
#    y 0.025660 1.892260 -0.026870 
#    z 0.014580 -0.026870 1.915010 
# 
# From -- ./inp_files/402819.got.cif
#   From: 2010.05.17/outbox.cif.g08.bks.cpg/sg2_202_cif.got.tgz:402819.got - 2010.06.03 11:33:40.
