data_PCOD9064562
_publ_section_title
;
Structure prediction by ZEFSAII (Michael W. Deem and Ramdas Pophale) SiO2 
 PCOD9064562
Probable space group: P -1
;
_chemical_formula_sum "Si O2"
_cell_formula_units_Z 16
_cell_length_a 23.182240
_cell_length_b 20.907123
_cell_length_c 9.153740
_cell_angle_alpha 149.929633
_cell_angle_beta 37.333814
_cell_angle_gamma 161.088594
_cell_volume 712.853263
_symmetry_space_group_name_H-M "P -1"
_symmetry_group_IT_number 2
_symmetry_cell_setting 'triclinic'
loop_
_space_group_symop_operation_xyz
x,y,z
-x,-y,-z
loop_
_atom_site_type_symbol
_atom_site_label
_atom_site_fract_x
_atom_site_fract_y
_atom_site_fract_z
Si Si1 0.865326 0.289318 0.472175
Si Si2 0.321755 0.184080 0.085868
Si Si3 0.466324 0.101125 0.201275
Si Si4 0.702101 0.582935 0.215179
Si Si5 0.983240 0.039110 0.887666
Si Si6 0.917304 0.280737 0.665768
Si Si7 0.586608 0.188017 0.821870
Si Si8 0.840732 0.664606 0.599820
O O1 0.960644 0.343328 0.530917
O O2 0.740460 0.266641 0.727334
O O3 0.000000 0.500000 0.500000
O O4 0.754622 0.039069 0.143378
O O5 0.535857 0.407124 0.087168
O O6 0.299469 0.285752 0.431559
O O7 0.195857 0.076484 0.987956
O O8 0.640222 0.385822 0.442377
O O9 0.292934 0.960475 0.351062
O O10 0.453947 0.069868 0.989153
O O11 0.500000 0.000000 0.000000
O O12 0.894182 0.792683 0.165204
O O13 0.660845 0.405634 0.036814
O O14 0.119416 0.206352 0.080923
O O15 0.899286 0.804215 0.612126
O O16 0.020912 0.289124 0.556309
O O17 0.000000 0.500000 0.000000
O O18 0.500000 0.000000 0.500000
#
# Coordination Sequence:
#
# PCOD9064562 Si02
#       8
#     2   2   2   2   2   2   2   2
#     4  12  26  44  72 110 147 188 245 302 357 437
#     4  11  24  46  69 104 142 186 240 297 367 427
#     4  12  26  46  72 104 150 187 240 300 358 441
#     4  11  26  44  75 102 145 190 240 306 366 431
#     4  11  25  45  73  98 144 189 242 300 352 437
#     4  12  26  45  74 106 146 192 236 300 368 432
#     4  12  26  45  73 109 141 190 241 300 371 430
#     4  11  26  45  70 106 138 192 244 289 368 428
#
# _framework density 22.445011000000001
#
# number of rings (size 3 to 8) (size 9 to 14) (size 15 to 20)
#    0.000    0.500    5.000    1.875    5.250    5.000 
#    0.000    2.500    0.000    0.000    0.000    0.000 
#    0.000    0.000    0.000    0.000    0.000    0.000 
#
# Total GULP energy -89361.509433 kJ/mol
# GULP energy per Si atom -5585.094340 kJ/mol
# Density = 2.239393 g / cm^3
# Si number density = 22.445011 Si / 1000 Ang^3
#
#
#
# Elastic Constant Matrix: (Units=GPa)
#
#
# Indices 1 2 3 4 5 6 
#
# 1 108.9200 48.1340 27.1819 11.5610 -18.9999 -11.6419
# 2 48.1340 132.0078 44.1217 21.3308 -12.5205 -11.5859
# 3 27.1819 44.1217 108.0730 27.1898 -8.3914 -15.8148
# 4 11.5610 21.3308 27.1898 38.8075 2.2274 -0.8311
# 5 -18.9999 -12.5205 -8.3914 2.2274 50.1940 6.8923
# 6 -11.6419 -11.5859 -15.8148 -0.8311 6.8923 43.8744
#
#
#
# Elastic Compliance Matrix: (Units=1/GPa)
#
#
# Indices 1 2 3 4 5 6 
#
# 1 0.011732 -0.003372 -0.000800 -0.001243 0.003331 0.001388
# 2 -0.003372 0.010241 -0.002405 -0.002975 0.000906 0.000744
# 3 -0.000800 -0.002405 0.012914 -0.007477 0.001109 0.003492
# 4 -0.001243 -0.002975 -0.007477 0.033161 -0.003574 -0.002621
# 5 0.003331 0.000906 0.001109 -0.003574 0.022029 -0.002006
# 6 0.001388 0.000744 0.003492 -0.002621 -0.002006 0.024881
#
#
# Mechanical properties :
#
#
# Convention : Reuss Voigt Hill
#
# Bulk Modulus (GPa) = 46.01256 65.31957 55.66607
# Shear Modulus (GPa) = 36.93962 41.87938 39.40950
#
# Velocity S-wave (km/s) = 4.06123 4.32425 4.19480
# Velocity P-wave (km/s) = 6.52197 7.35510 6.95102
#
# Compressibility (1/GPa) = 0.02173320
#
# Stress axis : x y z
#
# Youngs Moduli (GPa) = 85.23665 97.64988 77.43458
#
# Poissons Ratio (x) = 0.32928 0.06193
# Poissons Ratio (y) = 0.28742 0.18623
# Poissons Ratio (z) = 0.06817 0.23484
#
# Static dielectric constant tensor:
#      x y z
#    x 1.884080 -0.101610 0.266700 
#    y -0.101610 2.125320 -0.619980 
#    z 0.266700 -0.619980 2.992590 
# 
# From -- ./inp_files/355318.got.cif
#   From: 2010.05.17/outbox.cif.g08.bks.cpg/sg2_178_cif.got.tgz:355318.got - 2010.06.03 11:33:40.
