data_PCOD9064455
_publ_section_title
;
Structure prediction by ZEFSAII (Michael W. Deem and Ramdas Pophale) SiO2 
 PCOD9064455
Probable space group: P -1
;
_chemical_formula_sum "Si O2"
_cell_formula_units_Z 14
_cell_length_a 5.358960
_cell_length_b 18.888718
_cell_length_c 8.341458
_cell_angle_alpha 46.834262
_cell_angle_beta 95.789159
_cell_angle_gamma 83.563410
_cell_volume 593.323167
_symmetry_space_group_name_H-M "P -1"
_symmetry_group_IT_number 2
_symmetry_cell_setting 'triclinic'
loop_
_space_group_symop_operation_xyz
x,y,z
-x,-y,-z
loop_
_atom_site_type_symbol
_atom_site_label
_atom_site_fract_x
_atom_site_fract_y
_atom_site_fract_z
Si Si1 0.430466 0.598417 0.949140
Si Si2 0.885908 0.061455 0.555886
Si Si3 0.293904 0.440017 0.639504
Si Si4 0.055650 0.258493 0.233448
Si Si5 0.814042 0.125788 0.981195
Si Si6 0.522128 0.194817 0.526908
Si Si7 0.710769 0.776855 0.042336
O O1 0.435690 0.698002 0.695010
O O2 0.137647 0.632447 0.945988
O O3 0.500000 0.500000 0.000000
O O4 0.625120 0.579155 0.140204
O O5 0.601919 0.097490 0.563155
O O6 0.911122 0.171277 0.345573
O O7 0.000000 0.000000 0.500000
O O8 0.057074 0.992269 0.809881
O O9 0.500000 0.500000 0.500000
O O10 0.311266 0.331744 0.727393
O O11 0.000000 0.500000 0.500000
O O12 0.212397 0.228021 0.455556
O O13 0.235128 0.240641 0.116195
O O14 0.678639 0.161172 0.749360
O O15 0.569985 0.152256 0.047372
O O16 0.046929 0.181030 0.945724
#
# Coordination Sequence:
#
# PCOD9064455 Si02
#       7
#     2   2   2   2   2   2   2
#     4  11  27  48  73 107 153 195 246 315 386 441
#     4  11  24  45  76 109 150 203 254 307 375 445
#     4  12  27  48  76 108 143 192 256 308 365 447
#     4  11  24  48  75 105 151 203 253 306 374 460
#     4  12  28  45  77 111 155 197 251 313 375 445
#     4  11  27  46  72 109 153 197 251 312 376 455
#     4  12  26  49  74 108 152 198 251 309 377 448
#
# _framework density 23.595911000000001
#
# number of rings (size 3 to 8) (size 9 to 14) (size 15 to 20)
#    0.000    0.571    2.857    3.857   10.000    2.286 
#    0.000    0.000    0.000    0.000    0.000    0.000 
#    0.000    0.000    0.000    0.000    0.000    0.000 
#
# Total GULP energy -78069.024786 kJ/mol
# GULP energy per Si atom -5576.358913 kJ/mol
# Density = 2.354221 g / cm^3
# Si number density = 23.595911 Si / 1000 Ang^3
#
#
#
# Elastic Constant Matrix: (Units=GPa)
#
#
# Indices 1 2 3 4 5 6 
#
# 1 132.4734 47.5552 35.5402 -2.6606 30.2158 -9.1825
# 2 47.5552 127.5917 51.9817 -17.0490 24.4867 -11.2871
# 3 35.5402 51.9817 134.8383 9.9184 37.0696 -20.4741
# 4 -2.6606 -17.0490 9.9184 47.1259 0.3603 18.7378
# 5 30.2158 24.4867 37.0696 0.3603 55.2859 -6.9697
# 6 -9.1825 -11.2871 -20.4741 18.7378 -6.9697 26.9197
#
#
#
# Elastic Compliance Matrix: (Units=1/GPa)
#
#
# Indices 1 2 3 4 5 6 
#
# 1 0.009519 -0.002823 -0.000023 -0.001224 -0.003684 0.001944
# 2 -0.002823 0.011467 -0.004588 0.006822 -0.001094 -0.004676
# 3 -0.000023 -0.004588 0.013458 -0.009989 -0.005159 0.013922
# 4 -0.001224 0.006822 -0.009989 0.038386 0.000080 -0.031853
# 5 -0.003684 -0.001094 -0.005159 0.000080 0.024113 0.000549
# 6 0.001944 -0.004676 0.013922 -0.031853 0.000549 0.068752
#
#
# Mechanical properties :
#
#
# Convention : Reuss Voigt Hill
#
# Bulk Modulus (GPa) = 51.08146 73.89526 62.48836
# Shear Modulus (GPa) = 26.72568 43.18806 34.95687
#
# Velocity S-wave (km/s) = 3.36912 4.28286 3.85318
# Velocity P-wave (km/s) = 6.06878 7.47276 6.80707
#
# Compressibility (1/GPa) = 0.01957658
#
# Stress axis : x y z
#
# Youngs Moduli (GPa) = 105.05780 87.21043 74.30595
#
# Poissons Ratio (x) = 0.24621 0.00167
# Poissons Ratio (y) = 0.29659 0.34088
# Poissons Ratio (z) = 0.00237 0.40008
#
# Static dielectric constant tensor:
#      x y z
#    x 2.213420 -0.033250 -0.069460 
#    y -0.033250 1.946900 0.053040 
#    z -0.069460 0.053040 1.896480 
# 
# From -- ./inp_files/141033.got.cif
#   From: 2010.05.17/outbox.cif.g08.bks.cpg/sg2_71_cif.got.tgz:141033.got - 2010.06.03 11:33:40.
