data_PCOD9064538
_publ_section_title
;
Structure prediction by ZEFSAII (Michael W. Deem and Ramdas Pophale) SiO2 
 PCOD9064538
Probable space group: P -1
;
_chemical_formula_sum "Si O2"
_cell_formula_units_Z 15
_cell_length_a 4.884240
_cell_length_b 17.694605
_cell_length_c 6.942010
_cell_angle_alpha 117.531384
_cell_angle_beta 101.674214
_cell_angle_gamma 89.697400
_cell_volume 518.317538
_symmetry_space_group_name_H-M "P -1"
_symmetry_group_IT_number 2
_symmetry_cell_setting 'triclinic'
loop_
_space_group_symop_operation_xyz
x,y,z
-x,-y,-z
loop_
_atom_site_type_symbol
_atom_site_label
_atom_site_fract_x
_atom_site_fract_y
_atom_site_fract_z
Si Si1 0.136510 0.713693 0.713005
Si Si2 0.500000 0.500000 0.000000
Si Si3 0.931789 0.148460 0.850404
Si Si4 0.597380 0.684058 0.365808
Si Si5 0.531459 0.867866 0.550711
Si Si6 0.099578 0.973035 0.775611
Si Si7 0.974177 0.550951 0.753225
Si Si8 0.318002 0.320284 0.054337
O O1 0.970640 0.650555 0.785006
O O2 0.931889 0.693560 0.479592
O O3 0.135972 0.810728 0.901710
O O4 0.443035 0.682806 0.748611
O O5 0.512511 0.413715 0.733923
O O6 0.203643 0.521948 0.888550
O O7 0.652949 0.130856 0.665801
O O8 0.082014 0.062533 0.770655
O O9 0.128294 0.228922 0.894777
O O10 0.498631 0.773899 0.533611
O O11 0.517237 0.692395 0.140495
O O12 0.854126 0.899349 0.594966
O O13 0.392860 0.935317 0.745608
O O14 0.000000 0.000000 0.000000
O O15 0.000000 0.500000 0.500000
O O16 0.717537 0.575511 0.881130
#
# Coordination Sequence:
#
# PCOD9064538 Si02
#       8
#     2   1   2   2   2   2   2   2
#     4  11  24  47  74 108 155 200 262 323 395 471
#     4  12  24  46  78 106 160 190 270 326 398 480
#     4  11  25  48  77 112 155 209 261 321 399 474
#     4  12  25  49  76 115 152 209 262 329 407 464
#     4  12  26  50  79 114 163 211 262 330 401 471
#     4  12  28  50  80 121 161 207 270 327 396 481
#     4  11  24  46  68 106 147 200 257 328 392 472
#     4  11  25  48  75 107 158 202 260 332 390 478
#
# _framework density 28.939789000000001
#
# number of rings (size 3 to 8) (size 9 to 14) (size 15 to 20)
#    0.000    0.533    4.000    3.600    1.867    2.133 
#   16.800    0.000    0.000    0.000    0.000    0.000 
#    0.000    0.000    0.000    0.000    0.000    0.000 
#
# Total GULP energy -83696.076473 kJ/mol
# GULP energy per Si atom -5579.738432 kJ/mol
# Density = 2.887392 g / cm^3
# Si number density = 28.939789 Si / 1000 Ang^3
#
#
#
# Elastic Constant Matrix: (Units=GPa)
#
#
# Indices 1 2 3 4 5 6 
#
# 1 110.3654 25.7873 29.5262 11.4110 3.6294 -46.1446
# 2 25.7873 161.9518 46.9133 32.3217 -9.8441 -45.2987
# 3 29.5262 46.9133 181.8276 14.6056 -3.8880 -28.0517
# 4 11.4110 32.3217 14.6056 68.1375 -12.7970 -5.8694
# 5 3.6294 -9.8441 -3.8880 -12.7970 52.0520 12.1858
# 6 -46.1446 -45.2987 -28.0517 -5.8694 12.1858 59.3404
#
#
#
# Elastic Compliance Matrix: (Units=1/GPa)
#
#
# Indices 1 2 3 4 5 6 
#
# 1 0.014804 0.001857 -0.000703 -0.002924 -0.004553 0.013243
# 2 0.001857 0.009079 -0.001167 -0.003943 -0.001270 0.007694
# 3 -0.000703 -0.001167 0.006183 -0.000563 -0.000192 0.001469
# 4 -0.002924 -0.003943 -0.000563 0.017660 0.004883 -0.004806
# 5 -0.004553 -0.001270 -0.000192 0.004883 0.022522 -0.008743
# 6 0.013243 0.007694 0.001469 -0.004806 -0.008743 0.035038
#
#
# Mechanical properties :
#
#
# Convention : Reuss Voigt Hill
#
# Bulk Modulus (GPa) = 33.28850 73.17761 53.23305
# Shear Modulus (GPa) = 43.35596 59.36718 51.36157
#
# Velocity S-wave (km/s) = 3.87479 4.53416 4.21738
# Velocity P-wave (km/s) = 5.61661 7.26309 6.49225
#
# Compressibility (1/GPa) = 0.03004041
#
# Stress axis : x y z
#
# Youngs Moduli (GPa) = 67.54936 110.14554 161.73911
#
# Poissons Ratio (x) = -0.20458 0.11362
# Poissons Ratio (y) = -0.12546 0.18883
# Poissons Ratio (z) = 0.04745 0.12859
#
# Static dielectric constant tensor:
#      x y z
#    x 2.525900 0.221700 -0.178220 
#    y 0.221700 2.188530 -0.001630 
#    z -0.178220 -0.001630 2.241360 
# 
# From -- ./inp_files/141663.got.cif
#   From: 2010.05.17/outbox.cif.g08.bks.cpg/sg2_71_cif.got.tgz:141663.got - 2010.06.03 11:33:40.
