data_PCOD9064106
_publ_section_title
;
Structure prediction by ZEFSAII (Michael W. Deem and Ramdas Pophale) SiO2 
 PCOD9064106
Probable space group: P -1
;
_chemical_formula_sum "Si O2"
_cell_formula_units_Z 14
_cell_length_a 9.365163
_cell_length_b 8.371288
_cell_length_c 11.256400
_cell_angle_alpha 71.537413
_cell_angle_beta 67.374852
_cell_angle_gamma 117.680867
_cell_volume 573.765781
_symmetry_space_group_name_H-M "P -1"
_symmetry_group_IT_number 2
_symmetry_cell_setting 'triclinic'
loop_
_space_group_symop_operation_xyz
x,y,z
-x,-y,-z
loop_
_atom_site_type_symbol
_atom_site_label
_atom_site_fract_x
_atom_site_fract_y
_atom_site_fract_z
Si Si1 0.061871 0.658997 0.086460
Si Si2 0.541057 0.395376 0.614300
Si Si3 0.059726 0.222652 0.484878
Si Si4 0.563905 0.217273 0.212312
Si Si5 0.750837 0.705669 0.089773
Si Si6 0.740777 0.227821 0.452971
Si Si7 0.772157 0.020715 0.832866
O O1 0.956147 0.752869 0.050257
O O2 0.869129 0.403825 0.259590
O O3 0.204179 0.816047 0.116359
O O4 0.217608 0.693596 0.931578
O O5 0.500000 0.500000 0.500000
O O6 0.700005 0.562344 0.628911
O O7 0.325351 0.233796 0.791452
O O8 0.636741 0.301808 0.544331
O O9 0.932145 0.272980 0.446553
O O10 0.000000 0.000000 0.500000
O O11 0.985974 0.170966 0.656532
O O12 0.598636 0.437557 0.176065
O O13 0.403449 0.079260 0.186327
O O14 0.446956 0.048650 0.404433
O O15 0.753427 0.827766 0.947538
#
# Coordination Sequence:
#
# PCOD9064106 Si02
#       7
#     2   2   2   2   2   2   2
#     4  12  25  47  72 104 142 190 234 292 357 422
#     4  12  23  45  69 102 141 183 235 287 344 425
#     4  11  25  44  70 106 137 183 233 293 356 412
#     4  11  27  45  70 107 140 187 237 298 354 413
#     4  12  26  46  69 106 145 184 235 296 359 414
#     4  11  25  46  73 103 143 186 242 282 356 427
#     4  11  24  45  71 101 138 185 241 284 354 427
#
# _framework density 24.400200999999999
#
# number of rings (size 3 to 8) (size 9 to 14) (size 15 to 20)
#    0.000    0.571    2.857    4.714    6.000    1.714 
#    2.571    0.000    0.000    0.000    0.000    0.000 
#    0.000    0.000    0.000    0.000    0.000    0.000 
#
# Total GULP energy -78280.202660 kJ/mol
# GULP energy per Si atom -5591.443047 kJ/mol
# Density = 2.434466 g / cm^3
# Si number density = 24.400201 Si / 1000 Ang^3
#
#
#
# Elastic Constant Matrix: (Units=GPa)
#
#
# Indices 1 2 3 4 5 6 
#
# 1 117.1372 15.3927 68.3579 -2.1475 -11.8110 -27.0133
# 2 15.3927 106.1197 41.1972 -4.2041 -8.1379 -3.7269
# 3 68.3579 41.1972 179.8913 -10.9123 6.3976 -10.7902
# 4 -2.1475 -4.2041 -10.9123 52.5027 -2.4456 -12.9418
# 5 -11.8110 -8.1379 6.3976 -2.4456 49.1629 -2.2724
# 6 -27.0133 -3.7269 -10.7902 -12.9418 -2.2724 39.9268
#
#
#
# Elastic Compliance Matrix: (Units=1/GPa)
#
#
# Indices 1 2 3 4 5 6 
#
# 1 0.013930 0.000650 -0.004938 0.002048 0.004618 0.009077
# 2 0.000650 0.010603 -0.002652 0.000698 0.002341 0.001073
# 3 -0.004938 -0.002652 0.008112 0.000830 -0.002699 -0.001280
# 4 0.002048 0.000698 0.000830 0.021619 0.001982 0.008796
# 5 0.004618 0.002341 -0.002699 0.001982 0.022497 0.004536
# 6 0.009077 0.001073 -0.001280 0.008796 0.004536 0.034051
#
#
# Mechanical properties :
#
#
# Convention : Reuss Voigt Hill
#
# Bulk Modulus (GPa) = 53.28629 72.56041 62.92335
# Shear Modulus (GPa) = 38.18374 46.86520 42.52447
#
# Velocity S-wave (km/s) = 3.96017 4.38732 4.17920
# Velocity P-wave (km/s) = 6.54190 7.44762 7.00940
#
# Compressibility (1/GPa) = 0.01876655
#
# Stress axis : x y z
#
# Youngs Moduli (GPa) = 71.78991 94.30976 123.27277
#
# Poissons Ratio (x) = -0.06135 0.60868
# Poissons Ratio (y) = -0.04670 0.32692
# Poissons Ratio (z) = 0.35447 0.25011
#
# Static dielectric constant tensor:
#      x y z
#    x 1.982880 0.093280 0.018130 
#    y 0.093280 2.037320 -0.059350 
#    z 0.018130 -0.059350 1.970790 
# 
# From -- ./inp_files/158301.got.cif
#   From: 2010.05.17/outbox.cif.g08.bks.cpg/sg2_80_cif.got.tgz:158301.got - 2010.06.03 11:33:40.
