data_PCOD9064749
_publ_section_title
;
Structure prediction by ZEFSAII (Michael W. Deem and Ramdas Pophale) SiO2 
 PCOD9064749
Probable space group: P -1
;
_chemical_formula_sum "Si O2"
_cell_formula_units_Z 11
_cell_length_a 5.645907
_cell_length_b 14.700136
_cell_length_c 12.234821
_cell_angle_alpha 150.583440
_cell_angle_beta 120.270281
_cell_angle_gamma 71.090641
_cell_volume 414.601623
_symmetry_space_group_name_H-M "P -1"
_symmetry_group_IT_number 2
_symmetry_cell_setting 'triclinic'
loop_
_space_group_symop_operation_xyz
x,y,z
-x,-y,-z
loop_
_atom_site_type_symbol
_atom_site_label
_atom_site_fract_x
_atom_site_fract_y
_atom_site_fract_z
Si Si1 0.142139 0.580341 0.729610
Si Si2 0.687905 0.173888 0.595630
Si Si3 0.834622 0.886529 0.947843
Si Si4 0.718542 0.751430 0.109027
Si Si5 0.500000 0.500000 0.000000
Si Si6 0.231490 0.749062 0.559367
O O1 0.000000 0.500000 0.500000
O O2 0.022724 0.761852 0.913837
O O3 0.022941 0.423604 0.632218
O O4 0.480299 0.648196 0.859528
O O5 0.471647 0.278083 0.706299
O O6 0.759149 0.256222 0.574659
O O7 0.946574 0.214452 0.786892
O O8 0.638664 0.947145 0.326496
O O9 0.534041 0.755541 0.694117
O O10 0.800780 0.045484 0.192401
O O11 0.000000 0.000000 0.000000
O O12 0.652023 0.600186 0.032846
#
# Coordination Sequence:
#
# PCOD9064749 Si02
#       6
#     2   2   2   2   1   2
#     4  12  26  46  77 111 154 200 252 311 377 459
#     4  11  27  50  80 109 152 200 255 321 379 453
#     4  11  24  46  72 111 152 200 251 311 375 454
#     4  11  27  48  74 113 152 198 253 317 385 450
#     4  12  26  50  80 110 148 198 258 318 382 454
#     4  11  26  46  77 110 151 202 255 311 383 450
#
# _framework density 26.531493999999999
#
# number of rings (size 3 to 8) (size 9 to 14) (size 15 to 20)
#    0.000    0.727    1.818    3.818    5.091    8.727 
#    0.000    0.000    0.000    0.000    0.000    0.000 
#    0.000    0.000    0.000    0.000    0.000    0.000 
#
# Total GULP energy -61402.458507 kJ/mol
# GULP energy per Si atom -5582.041682 kJ/mol
# Density = 2.647111 g / cm^3
# Si number density = 26.531494 Si / 1000 Ang^3
#
#
#
# Elastic Constant Matrix: (Units=GPa)
#
#
# Indices 1 2 3 4 5 6 
#
# 1 58.2605 27.6288 36.7386 -24.4093 -0.4899 -7.7712
# 2 27.6288 95.4509 40.9536 3.0376 -1.9657 -10.2245
# 3 36.7386 40.9536 99.0296 -29.1769 -1.1577 -2.3088
# 4 -24.4093 3.0376 -29.1769 55.6727 -3.6638 15.1900
# 5 -0.4899 -1.9657 -1.1577 -3.6638 61.7101 -10.5517
# 6 -7.7712 -10.2245 -2.3088 15.1900 -10.5517 35.1360
#
#
#
# Elastic Compliance Matrix: (Units=1/GPa)
#
#
# Indices 1 2 3 4 5 6 
#
# 1 0.027132 -0.006236 -0.004555 0.009955 0.000476 -0.000274
# 2 -0.006236 0.016360 -0.006977 -0.009180 0.001027 0.007200
# 3 -0.004555 -0.006977 0.017173 0.008969 -0.000414 -0.005911
# 4 0.009955 -0.009180 0.008969 0.031182 -0.000504 -0.013512
# 5 0.000476 0.001027 -0.000414 -0.000504 0.017188 0.005756
# 6 -0.000274 0.007200 -0.005911 -0.013512 0.005756 0.037677
#
#
# Mechanical properties :
#
#
# Convention : Reuss Voigt Hill
#
# Bulk Modulus (GPa) = 39.79314 51.48700 45.64007
# Shear Modulus (GPa) = 26.22990 40.33176 33.28083
#
# Velocity S-wave (km/s) = 3.14766 3.90314 3.54558
# Velocity P-wave (km/s) = 5.31426 6.30561 5.83104
#
# Compressibility (1/GPa) = 0.02512996
#
# Stress axis : x y z
#
# Youngs Moduli (GPa) = 36.85713 61.12639 58.23124
#
# Poissons Ratio (x) = 0.38116 0.26522
# Poissons Ratio (y) = 0.22983 0.40628
# Poissons Ratio (z) = 0.16787 0.42647
#
# Static dielectric constant tensor:
#      x y z
#    x 1.811170 0.024640 -0.018380 
#    y 0.024640 2.139530 0.032410 
#    z -0.018380 0.032410 2.137930 
# 
# From -- ./inp_files/93147.got.cif
#   From: 2010.05.17/outbox.cif.g08.bks.cpg/sg2_47_cif.got.tgz:93147.got - 2010.06.03 11:33:40.
