data_PCOD9064246
_publ_section_title
;
Structure prediction by ZEFSAII (Michael W. Deem and Ramdas Pophale) SiO2 
 PCOD9064246
Probable space group: P -1
;
_chemical_formula_sum "Si O2"
_cell_formula_units_Z 13
_cell_length_a 8.991318
_cell_length_b 8.458715
_cell_length_c 11.649366
_cell_angle_alpha 141.959723
_cell_angle_beta 114.457514
_cell_angle_gamma 63.198693
_cell_volume 484.510067
_symmetry_space_group_name_H-M "P -1"
_symmetry_group_IT_number 2
_symmetry_cell_setting 'triclinic'
loop_
_space_group_symop_operation_xyz
x,y,z
-x,-y,-z
loop_
_atom_site_type_symbol
_atom_site_label
_atom_site_fract_x
_atom_site_fract_y
_atom_site_fract_z
Si Si1 0.410165 0.270339 0.523540
Si Si2 0.020302 0.638895 0.204559
Si Si3 0.762618 0.423078 0.550316
Si Si4 0.934041 0.875561 0.644856
Si Si5 0.000000 0.000000 0.000000
Si Si6 0.585311 0.180315 0.041730
Si Si7 0.337296 0.115294 0.730724
O O1 0.377342 0.358941 0.428362
O O2 0.239756 0.200847 0.462594
O O3 0.436672 0.530904 0.742753
O O4 0.556994 0.013037 0.416635
O O5 0.163279 0.510204 0.266250
O O6 0.837999 0.680258 0.228766
O O7 0.061350 0.909264 0.329743
O O8 0.000000 0.500000 0.000000
O O9 0.919021 0.368515 0.483143
O O10 0.717575 0.139549 0.378828
O O11 0.958405 0.981262 0.840291
O O12 0.216772 0.919904 0.988481
O O13 0.461677 0.218210 0.914047
O O14 0.500000 0.000000 0.000000
#
# Coordination Sequence:
#
# PCOD9064246 Si02
#       7
#     2   2   2   2   1   2   2
#     4  12  25  43  80 114 156 199 261 343 393 458
#     4  11  28  51  79 108 157 218 269 318 413 496
#     4  11  24  48  76 109 153 213 259 319 407 481
#     4  11  24  45  72 115 152 201 261 331 393 472
#     4  12  24  44  78 120 162 192 276 332 392 464
#     4  12  25  44  73 124 162 203 268 333 404 472
#     4  11  24  46  74 113 153 201 265 327 386 484
#
# _framework density 26.831230999999999
#
# number of rings (size 3 to 8) (size 9 to 14) (size 15 to 20)
#    0.000    0.615    4.615    3.692    4.308    0.000 
#    2.769    3.846    0.000    0.000    0.000    0.000 
#    0.000    0.000    0.000    0.000    0.000    0.000 
#
# Total GULP energy -72599.826860 kJ/mol
# GULP energy per Si atom -5584.602066 kJ/mol
# Density = 2.677016 g / cm^3
# Si number density = 26.831231 Si / 1000 Ang^3
#
#
#
# Elastic Constant Matrix: (Units=GPa)
#
#
# Indices 1 2 3 4 5 6 
#
# 1 197.3254 15.1554 48.8312 -11.0725 -0.2572 -9.0754
# 2 15.1554 76.4114 61.9854 -46.8328 -1.6234 -15.1638
# 3 48.8312 61.9854 177.5265 -41.3027 11.7325 -12.2175
# 4 -11.0725 -46.8328 -41.3027 44.8574 0.7961 -2.0593
# 5 -0.2572 -1.6234 11.7325 0.7961 48.2409 -13.5639
# 6 -9.0754 -15.1638 -12.2175 -2.0593 -13.5639 34.5312
#
#
#
# Elastic Compliance Matrix: (Units=1/GPa)
#
#
# Indices 1 2 3 4 5 6 
#
# 1 0.005543 0.001835 -0.001657 0.001841 0.001086 0.002213
# 2 0.001835 0.062356 -0.006599 0.060821 0.012262 0.033974
# 3 -0.001657 -0.006599 0.008630 0.000635 -0.002707 -0.001305
# 4 0.001841 0.060821 0.000635 0.088335 0.010830 0.036939
# 5 0.001086 0.012262 -0.002707 0.010830 0.026006 0.015573
# 6 0.002213 0.033974 -0.001305 0.036939 0.015573 0.052318
#
#
# Mechanical properties :
#
#
# Convention : Reuss Voigt Hill
#
# Bulk Modulus (GPa) = 15.70150 78.13415 46.91783
# Shear Modulus (GPa) = 18.03370 47.21200 32.62285
#
# Velocity S-wave (km/s) = 2.59533 4.19930 3.49069
# Velocity P-wave (km/s) = 3.85301 7.25920 5.81127
#
# Compressibility (1/GPa) = 0.06368817
#
# Stress axis : x y z
#
# Youngs Moduli (GPa) = 180.39806 16.03692 115.87929
#
# Poissons Ratio (x) = -0.02943 0.19197
# Poissons Ratio (y) = -0.33106 0.76469
# Poissons Ratio (z) = 0.29885 0.10583
#
# Static dielectric constant tensor:
#      x y z
#    x 2.050040 0.129480 0.026510 
#    y 0.129480 2.145860 0.028110 
#    z 0.026510 0.028110 2.105830 
# 
# From -- ./inp_files/377446.got.cif
#   From: 2010.05.17/outbox.cif.g08.bks.cpg/sg2_189_cif.got.tgz:377446.got - 2010.06.03 11:33:40.
