data_PCOD9064716
_publ_section_title
;
Structure prediction by ZEFSAII (Michael W. Deem and Ramdas Pophale) SiO2 
 PCOD9064716
Probable space group: P -1
;
_chemical_formula_sum "Si O2"
_cell_formula_units_Z 16
_cell_length_a 9.025634
_cell_length_b 26.419218
_cell_length_c 9.997272
_cell_angle_alpha 44.463503
_cell_angle_beta 75.841947
_cell_angle_gamma 39.766744
_cell_volume 784.661677
_symmetry_space_group_name_H-M "P -1"
_symmetry_group_IT_number 2
_symmetry_cell_setting 'triclinic'
loop_
_space_group_symop_operation_xyz
x,y,z
-x,-y,-z
loop_
_atom_site_type_symbol
_atom_site_label
_atom_site_fract_x
_atom_site_fract_y
_atom_site_fract_z
Si Si1 0.414319 0.496132 0.890940
Si Si2 0.904259 0.602282 0.224030
Si Si3 0.882773 0.107681 0.714729
Si Si4 0.109683 0.171215 0.642136
Si Si5 0.236544 0.427001 0.199095
Si Si6 0.206315 0.624990 0.223927
Si Si7 0.791553 0.914840 0.911764
Si Si8 0.854506 0.081481 0.235905
O O1 0.651968 0.405007 0.889214
O O2 0.101946 0.669697 0.593251
O O3 0.500000 0.500000 0.000000
O O4 0.398245 0.422515 0.085680
O O5 0.000000 0.500000 0.500000
O O6 0.072693 0.521780 0.193789
O O7 0.037510 0.619557 0.232984
O O8 0.526829 0.756726 0.990579
O O9 0.504623 0.259490 0.497941
O O10 0.960867 0.158905 0.637462
O O11 0.041255 0.019834 0.706563
O O12 0.000000 0.000000 0.000000
O O13 0.415378 0.069266 0.682712
O O14 0.178501 0.117334 0.878760
O O15 0.000000 0.500000 0.000000
O O16 0.500000 0.500000 0.500000
O O17 0.955164 0.784432 0.037235
O O18 0.978795 0.911466 0.851764
O O19 0.000000 0.000000 0.500000
#
# Coordination Sequence:
#
# PCOD9064716 Si02
#       8
#     2   2   2   2   2   2   2   2
#     4  12  25  47  73 102 147 185 241 301 359 428
#     4  12  27  48  74 105 147 191 241 295 360 438
#     4  12  24  47  74 101 143 189 239 288 360 436
#     4  11  24  46  72 104 138 191 236 296 355 429
#     4  12  29  46  74 111 143 190 240 300 368 427
#     4  12  25  46  74 108 143 191 242 298 360 431
#     4  11  26  44  71 105 143 183 243 291 360 430
#     4  12  28  46  69 106 149 186 235 304 362 425
#
# _framework density 20.390954000000001
#
# number of rings (size 3 to 8) (size 9 to 14) (size 15 to 20)
#    0.000    0.250    5.000    3.000    8.750    0.000 
#    0.000    1.875    0.000    0.000    0.000    0.000 
#    0.000    0.000    0.000    0.000    0.000    0.000 
#
# Total GULP energy -89333.475476 kJ/mol
# GULP energy per Si atom -5583.342217 kJ/mol
# Density = 2.034454 g / cm^3
# Si number density = 20.390954 Si / 1000 Ang^3
#
#
#
# Elastic Constant Matrix: (Units=GPa)
#
#
# Indices 1 2 3 4 5 6 
#
# 1 94.7790 53.5743 53.1493 4.4514 5.7093 -9.0223
# 2 53.5743 154.2566 45.7047 -0.0462 1.2769 -1.6700
# 3 53.1493 45.7047 120.0119 -1.5422 10.2178 -9.5994
# 4 4.4514 -0.0462 -1.5422 42.6934 -0.4952 2.2493
# 5 5.7093 1.2769 10.2178 -0.4952 33.3505 1.5069
# 6 -9.0223 -1.6700 -9.5994 2.2493 1.5069 37.4153
#
#
#
# Elastic Compliance Matrix: (Units=1/GPa)
#
#
# Indices 1 2 3 4 5 6 
#
# 1 0.016246 -0.004007 -0.005398 -0.002039 -0.001118 0.002521
# 2 -0.004007 0.008314 -0.001547 0.000437 0.000896 -0.001054
# 3 -0.005398 -0.001547 0.011684 0.000864 -0.002660 0.001682
# 4 -0.002039 0.000437 0.000864 0.023762 0.000497 -0.001699
# 5 -0.001118 0.000896 -0.002660 0.000497 0.031063 -0.002193
# 6 0.002521 -0.001054 0.001682 -0.001699 -0.002193 0.027910
#
#
# Mechanical properties :
#
#
# Convention : Reuss Voigt Hill
#
# Bulk Modulus (GPa) = 69.73174 74.87826 72.30500
# Shear Modulus (GPa) = 34.32563 37.13309 35.72936
#
# Velocity S-wave (km/s) = 4.10735 4.27201 4.19049
# Velocity P-wave (km/s) = 7.53428 7.81886 7.67789
#
# Compressibility (1/GPa) = 0.01434067
#
# Stress axis : x y z
#
# Youngs Moduli (GPa) = 61.55314 120.28019 85.58495
#
# Poissons Ratio (x) = 0.48196 0.46200
# Poissons Ratio (y) = 0.24664 0.13237
# Poissons Ratio (z) = 0.33228 0.18603
#
# Static dielectric constant tensor:
#      x y z
#    x 1.689300 -0.018150 0.019780 
#    y -0.018150 1.684090 -0.018900 
#    z 0.019780 -0.018900 1.627250 
# 
# From -- ./inp_files/226125.got.cif
#   From: 2010.05.17/outbox.cif.g08.bks.cpg/sg2_114_cif.got.tgz:226125.got - 2010.06.03 11:33:40.
