data_PCOD9064468
_publ_section_title
;
Structure prediction by ZEFSAII (Michael W. Deem and Ramdas Pophale) SiO2 
 PCOD9064468
Probable space group: P -1
;
_chemical_formula_sum "Si O2"
_cell_formula_units_Z 14
_cell_length_a 7.535312
_cell_length_b 14.218422
_cell_length_c 11.461145
_cell_angle_alpha 149.362027
_cell_angle_beta 125.659588
_cell_angle_gamma 61.093730
_cell_volume 507.949238
_symmetry_space_group_name_H-M "P -1"
_symmetry_group_IT_number 2
_symmetry_cell_setting 'triclinic'
loop_
_space_group_symop_operation_xyz
x,y,z
-x,-y,-z
loop_
_atom_site_type_symbol
_atom_site_label
_atom_site_fract_x
_atom_site_fract_y
_atom_site_fract_z
Si Si1 0.900950 0.473049 0.305951
Si Si2 0.458252 0.005922 0.159877
Si Si3 0.437536 0.418633 0.022717
Si Si4 0.059585 0.835743 0.705943
Si Si5 0.583798 0.382269 0.520643
Si Si6 0.086842 0.164842 0.916005
Si Si7 0.686562 0.983139 0.458196
O O1 0.676370 0.358272 0.088887
O O2 0.000000 0.500000 0.500000
O O3 0.865462 0.687312 0.492573
O O4 0.056454 0.371083 0.167258
O O5 0.423179 0.201652 0.292318
O O6 0.665090 0.889313 0.069431
O O7 0.555059 0.049555 0.367914
O O8 0.234437 0.886145 0.928145
O O9 0.379680 0.524043 0.236379
O O10 0.500000 0.500000 0.000000
O O11 0.276080 0.237620 0.762751
O O12 0.206007 0.728358 0.555074
O O13 0.995800 0.026992 0.834477
O O14 0.500000 0.500000 0.500000
O O15 0.910126 0.106866 0.687598
O O16 0.500000 0.000000 0.500000
#
# Coordination Sequence:
#
# PCOD9064468 Si02
#       7
#     2   2   2   2   2   2   2
#     4  12  27  45  72 108 150 196 249 309 374 441
#     4  11  26  47  75 110 147 196 251 311 374 444
#     4  12  27  48  74 109 153 199 251 311 377 448
#     4  11  27  45  74 109 142 195 250 309 372 440
#     4  11  24  45  77 108 146 194 252 310 372 445
#     4  11  26  48  71 107 149 187 255 302 376 447
#     4  12  24  48  72 105 150 201 242 306 381 447
#
# _framework density 27.561807999999999
#
# number of rings (size 3 to 8) (size 9 to 14) (size 15 to 20)
#    0.000    0.571    1.429    6.429   10.000    0.571 
#    0.000    2.143    0.000    0.000    0.000    0.000 
#    0.000    0.000    0.000    0.000    0.000    0.000 
#
# Total GULP energy -78185.079750 kJ/mol
# GULP energy per Si atom -5584.648554 kJ/mol
# Density = 2.749908 g / cm^3
# Si number density = 27.561808 Si / 1000 Ang^3
#
#
#
# Elastic Constant Matrix: (Units=GPa)
#
#
# Indices 1 2 3 4 5 6 
#
# 1 82.0399 14.0572 30.3649 -13.7256 -26.9978 -1.1435
# 2 14.0572 143.7818 52.2150 -16.1369 -9.7998 26.0165
# 3 30.3649 52.2150 169.7428 -11.7651 -2.2042 7.9634
# 4 -13.7256 -16.1369 -11.7651 56.7092 13.1130 0.0990
# 5 -26.9978 -9.7998 -2.2042 13.1130 45.9526 -11.1193
# 6 -1.1435 26.0165 7.9634 0.0990 -11.1193 39.3563
#
#
#
# Elastic Compliance Matrix: (Units=1/GPa)
#
#
# Indices 1 2 3 4 5 6 
#
# 1 0.017049 -0.000610 -0.002872 0.000905 0.010570 0.004464
# 2 -0.000610 0.009073 -0.002276 0.002090 -0.000509 -0.005704
# 3 -0.002872 -0.002276 0.007152 0.000643 -0.002168 -0.000640
# 4 0.000905 0.002090 0.000643 0.019833 -0.005391 -0.003058
# 5 0.010570 -0.000509 -0.002168 -0.005391 0.031732 0.010061
# 6 0.004464 -0.005704 -0.000640 -0.003058 0.010061 0.032289
#
#
# Mechanical properties :
#
#
# Convention : Reuss Voigt Hill
#
# Bulk Modulus (GPa) = 45.95874 65.42653 55.69263
# Shear Modulus (GPa) = 36.79306 48.33210 42.56258
#
# Velocity S-wave (km/s) = 3.65763 4.19213 3.93397
# Velocity P-wave (km/s) = 5.87781 6.87180 6.39415
#
# Compressibility (1/GPa) = 0.02175865
#
# Stress axis : x y z
#
# Youngs Moduli (GPa) = 58.65552 110.21580 139.82850
#
# Poissons Ratio (x) = 0.06718 0.40155
# Poissons Ratio (y) = 0.03575 0.31827
# Poissons Ratio (z) = 0.16844 0.25087
#
# Static dielectric constant tensor:
#      x y z
#    x 2.284170 0.131650 -0.025970 
#    y 0.131650 2.234210 -0.067370 
#    z -0.025970 -0.067370 2.292490 
# 
# From -- ./inp_files/400195.got.cif
#   From: 2010.05.17/outbox.cif.g08.bks.cpg/sg2_201_cif.got.tgz:400195.got - 2010.06.03 11:33:40.
