data_PCOD9064823
_publ_section_title
;
Structure prediction by ZEFSAII (Michael W. Deem and Ramdas Pophale) SiO2 
 PCOD9064823
Probable space group: P -1
;
_chemical_formula_sum "Si O2"
_cell_formula_units_Z 12
_cell_length_a 7.989227
_cell_length_b 5.004411
_cell_length_c 18.667721
_cell_angle_alpha 71.801618
_cell_angle_beta 45.756652
_cell_angle_gamma 65.492639
_cell_volume 486.209869
_symmetry_space_group_name_H-M "P -1"
_symmetry_group_IT_number 2
_symmetry_cell_setting 'triclinic'
loop_
_space_group_symop_operation_xyz
x,y,z
-x,-y,-z
loop_
_atom_site_type_symbol
_atom_site_label
_atom_site_fract_x
_atom_site_fract_y
_atom_site_fract_z
Si Si1 0.469921 0.167918 0.390459
Si Si2 0.565184 0.459886 0.768170
Si Si3 0.998859 0.871127 0.709037
Si Si4 0.819666 0.266235 0.486019
Si Si5 0.825146 0.792903 0.058349
Si Si6 0.572009 0.703825 0.904854
O O1 0.431421 0.294097 0.311059
O O2 0.278664 0.424374 0.471199
O O3 0.747042 0.125605 0.333644
O O4 0.591440 0.135820 0.554246
O O5 0.346064 0.317163 0.824832
O O6 0.522248 0.608917 0.846846
O O7 0.811839 0.190972 0.721066
O O8 0.848013 0.716224 0.818841
O O9 0.059056 0.712032 0.627922
O O10 0.000000 0.000000 0.500000
O O11 0.612552 0.975069 0.054148
O O12 0.000000 0.500000 0.000000
O O13 0.000000 0.000000 0.000000
O O14 0.500000 0.500000 0.000000
#
# Coordination Sequence:
#
# PCOD9064823 Si02
#       6
#     2   2   2   2   2   2
#     4  12  28  45  79 110 148 197 245 299 375 439
#     4  11  26  47  74 108 150 195 246 308 374 435
#     4  11  27  46  74 111 151 191 253 304 366 450
#     4  12  25  49  77 109 151 196 240 306 370 440
#     4  11  24  46  74 103 144 192 253 303 370 439
#     4  11  27  49  76 109 152 199 250 315 374 438
#
# _framework density 24.680699000000001
#
# number of rings (size 3 to 8) (size 9 to 14) (size 15 to 20)
#    0.000    0.667    3.333    2.500    9.333    4.000 
#    0.000    0.000    0.000    0.000    0.000    0.000 
#    0.000    0.000    0.000    0.000    0.000    0.000 
#
# Total GULP energy -67235.319191 kJ/mol
# GULP energy per Si atom -5602.943266 kJ/mol
# Density = 2.462452 g / cm^3
# Si number density = 24.680699 Si / 1000 Ang^3
#
#
#
# Elastic Constant Matrix: (Units=GPa)
#
#
# Indices 1 2 3 4 5 6 
#
# 1 109.6681 6.9963 33.9310 11.1580 -26.0054 -3.7849
# 2 6.9963 93.0681 44.1825 13.2655 2.9866 8.3761
# 3 33.9310 44.1825 143.1236 -9.9874 -7.3891 -9.1840
# 4 11.1580 13.2655 -9.9874 40.3495 3.9672 -10.0170
# 5 -26.0054 2.9866 -7.3891 3.9672 46.5140 -2.3342
# 6 -3.7849 8.3761 -9.1840 -10.0170 -2.3342 48.0217
#
#
#
# Elastic Compliance Matrix: (Units=1/GPa)
#
#
# Indices 1 2 3 4 5 6 
#
# 1 0.012182 0.001326 -0.003386 -0.005477 0.006618 -0.000739
# 2 0.001326 0.015119 -0.005929 -0.008068 -0.000753 -0.005386
# 3 -0.003386 -0.005929 0.010322 0.006475 -0.000220 0.004081
# 4 -0.005477 -0.008068 0.006475 0.033156 -0.003895 0.008941
# 5 0.006618 -0.000753 -0.000220 -0.003895 0.025597 0.001043
# 6 -0.000739 -0.005386 0.004081 0.008941 0.001043 0.024401
#
#
# Mechanical properties :
#
#
# Convention : Reuss Voigt Hill
#
# Bulk Modulus (GPa) = 46.19636 57.34214 51.76925
# Shear Modulus (GPa) = 34.72953 44.36039 39.54496
#
# Velocity S-wave (km/s) = 3.75527 4.24414 4.00717
# Velocity P-wave (km/s) = 6.12870 6.87757 6.51391
#
# Compressibility (1/GPa) = 0.02164673
#
# Stress axis : x y z
#
# Youngs Moduli (GPa) = 82.08596 66.14324 96.87738
#
# Poissons Ratio (x) = -0.08773 0.32798
# Poissons Ratio (y) = -0.10887 0.57439
# Poissons Ratio (z) = 0.27791 0.39217
#
# Static dielectric constant tensor:
#      x y z
#    x 2.042420 0.027950 -0.007480 
#    y 0.027950 1.832590 0.085820 
#    z -0.007480 0.085820 1.876770 
# 
# From -- ./inp_files/553328.got.cif
#   From: 2010.05.17/outbox.cif.g08.bks.cpg/sg2_277_cif.got.tgz:553328.got - 2010.06.03 11:33:40.
